0
                    3D
 Structure written by MMmdl.
154162  0  0  1  0            999 V2000
  -30.7774  -14.4376   20.5682 C   0  0  0  0  0  0
  -30.3951  -12.2833   19.4441 C   0  0  0  0  0  0
  -29.4857  -12.4938   18.2192 C   0  0  0  0  0  0
  -28.0049  -12.3760   18.6225 C   0  0  0  0  0  0
  -27.6593  -13.2191   19.8796 C   0  0  2  0  0  0
  -28.7009  -13.0259   21.0062 C   0  0  0  0  0  0
  -25.2565  -13.8206   20.5739 C   0  0  0  0  0  0
  -24.1827  -13.0459   20.9198 C   0  0  0  0  0  0
  -24.6375  -11.6924   20.8730 C   0  0  0  0  0  0
  -23.9049  -10.4300   21.0381 C   0  0  0  0  0  0
  -24.3593   -9.4217   21.9168 C   0  0  0  0  0  0
  -23.6275   -8.2247   22.0730 C   0  0  0  0  0  0
  -22.4262   -8.0259   21.3519 C   0  0  0  0  0  0
  -21.9892   -9.0235   20.4642 C   0  0  0  0  0  0
  -22.7206  -10.2128   20.3048 C   0  0  0  0  0  0
  -21.6859   -6.0735   22.5265 C   0  0  0  0  0  0
  -21.4020   -6.5630   23.8204 C   0  0  0  0  0  0
  -21.3683   -5.6782   24.9166 C   0  0  0  0  0  0
  -21.6042   -4.3045   24.7219 C   0  0  0  0  0  0
  -21.8824   -3.8155   23.4333 C   0  0  0  0  0  0
  -21.9204   -4.6973   22.3386 C   0  0  0  0  0  0
  -22.7856  -13.5248   21.1862 C   0  0  0  0  0  0
  -22.1664   -4.2166   21.0968 F   0  0  0  0  0  0
  -21.5627   -3.4513   25.7726 F   0  0  0  0  0  0
  -30.0354  -13.3000   20.4514 N   0  0  0  0  0  0
  -26.3005  -12.9396   20.3417 N   0  0  0  0  0  0
  -25.9310  -11.6529   20.5797 N   0  0  0  0  0  0
  -22.0499  -12.8234   22.0431 N   0  0  0  0  0  0
  -25.4282  -15.1926   20.4198 N   0  0  0  0  0  0
  -31.8995  -14.5026   20.0548 O   0  0  0  0  0  0
  -21.6624   -6.8862   21.4220 O   0  0  0  0  0  0
  -22.3521  -14.5546   20.6720 O   0  0  0  0  0  0
  -24.6139  -31.8694   23.2136 C   0  0  0  0  0  0
  -25.9038  -32.4835   23.8429 C   0  0  1  0  0  0
  -27.2263  -27.4451   20.1148 C   0  0  0  0  0  0
  -25.5911  -33.8636   24.2364 N   0  0  0  0  0  0
  -23.4012  -30.4940   21.5522 C   0  0  2  0  0  0
  -24.8494  -28.9726   20.1081 C   0  0  0  0  0  0
  -22.7416  -29.4647   22.4980 C   0  0  0  0  0  0
  -18.0274  -28.1357   22.8477 C   0  0  0  0  0  0
  -24.1483  -36.7311   23.2613 C   0  0  0  0  0  0
  -25.9292  -30.8433   21.3649 C   0  0  0  0  0  0
  -26.0085  -29.4819   20.7075 C   0  0  0  0  0  0
  -27.2032  -28.7287   20.7023 C   0  0  0  0  0  0
  -26.0552  -26.9578   19.4874 C   0  0  0  0  0  0
  -24.8699  -27.7120   19.4880 C   0  0  0  0  0  0
  -23.6092  -29.8332   20.1639 C   0  0  0  0  0  0
  -25.4084  -36.3115   24.0344 C   0  0  1  0  0  0
  -20.5868  -28.3636   23.1310 C   0  0  2  0  0  0
  -20.6765  -26.9369   22.5402 C   0  0  0  0  0  0
  -19.5744  -26.6368   21.5186 C   0  0  0  0  0  0
  -18.1921  -26.7900   22.1606 C   0  0  0  0  0  0
  -19.1527  -28.8810   23.2892 C   0  0  0  0  0  0
  -18.9449  -30.1415   23.8902 C   0  0  0  0  0  0
  -17.6453  -30.6564   24.0542 C   0  0  0  0  0  0
  -25.9025  -34.9486   23.5148 C   0  0  0  0  0  0
  -16.5340  -29.9060   23.6328 C   0  0  0  0  0  0
  -16.7260  -28.6480   23.0341 C   0  0  0  0  0  0
  -26.4495  -31.6608   25.0747 C   0  0  0  0  0  0
  -25.3780  -31.3676   26.1507 C   0  0  0  0  0  0
  -27.0331  -30.3069   24.6088 C   0  0  0  0  0  0
  -27.6083  -32.4326   25.7494 C   0  0  0  0  0  0
  -27.5621  -37.1733   24.8402 C   0  0  0  0  0  0
  -21.4142  -29.3021   22.3740 N   0  0  0  0  0  0
  -26.4243  -37.3832   23.9484 N   0  0  0  0  0  0
  -24.6657  -31.0822   22.1016 N   0  0  0  0  0  0
  -23.4206  -28.8169   23.2994 O   0  0  0  0  0  0
  -28.3663  -26.6779   20.1978 O   0  0  0  0  0  0
  -26.5585  -34.8938   22.4707 O   0  0  0  0  0  0
  -23.5344  -32.1425   23.7549 O   0  0  0  0  0  0
  -29.3594  -18.4885   22.2708 C   0  0  0  0  0  0
  -31.3427  -19.2066   21.0614 C   0  0  0  0  0  0
  -29.1053  -19.8339   22.6306 C   0  0  0  0  0  0
  -31.0906  -20.5430   21.4147 C   0  0  0  0  0  0
  -30.4787  -18.1669   21.4678 C   0  0  0  0  0  0
  -29.9601  -20.8701   22.1864 C   0  0  0  0  0  0
  -30.8057  -16.8104   20.9936 C   0  0  0  0  0  0
  -30.1847  -15.6210   21.2002 C   0  0  0  0  0  0
  -29.1795  -24.6110   21.2918 C   0  0  0  0  0  0
  -29.6816  -22.3402   22.4796 C   0  0  0  0  0  0
  -29.2428  -23.0818   21.1958 C   0  0  0  0  0  0
  -28.1028  -25.2837   20.4315 C   0  0  0  0  0  0
  -29.9508  -25.2567   22.0105 O   0  0  0  0  0  0
  -31.4418  -12.3248   19.1361 H   0  0  0  0  0  0
  -30.2555  -11.2820   19.8545 H   0  0  0  0  0  0
  -29.7247  -11.7620   17.4465 H   0  0  0  0  0  0
  -29.6696  -13.4777   17.7850 H   0  0  0  0  0  0
  -27.7968  -11.3241   18.8157 H   0  0  0  0  0  0
  -27.3614  -12.6649   17.7908 H   0  0  0  0  0  0
  -27.7051  -14.2646   19.5728 H   0  0  0  0  0  0
  -28.6701  -12.0033   21.3831 H   0  0  0  0  0  0
  -28.4644  -13.6470   21.8684 H   0  0  0  0  0  0
  -25.2723   -9.5700   22.4767 H   0  0  0  0  0  0
  -24.0011   -7.4644   22.7427 H   0  0  0  0  0  0
  -21.0836   -8.8703   19.8953 H   0  0  0  0  0  0
  -22.3602  -10.9643   19.6172 H   0  0  0  0  0  0
  -21.1975   -7.6126   23.9699 H   0  0  0  0  0  0
  -21.1518   -6.0506   25.9067 H   0  0  0  0  0  0
  -22.0595   -2.7610   23.2835 H   0  0  0  0  0  0
  -22.4103  -11.9876   22.4788 H   0  0  0  0  0  0
  -21.1101  -13.1263   22.2632 H   0  0  0  0  0  0
  -24.6623  -15.8477   20.5274 H   0  0  0  0  0  0
  -26.2869  -15.6347   20.1193 H   0  0  0  0  0  0
  -26.7107  -32.5563   23.1193 H   0  0  0  0  0  0
  -25.0124  -33.9809   25.0554 H   0  0  0  0  0  0
  -22.6883  -31.3096   21.4187 H   0  0  0  0  0  0
  -23.3766  -35.9617   23.3222 H   0  0  0  0  0  0
  -24.3614  -36.8971   22.2040 H   0  0  0  0  0  0
  -23.7197  -37.6489   23.6649 H   0  0  0  0  0  0
  -26.0463  -31.6139   20.6012 H   0  0  0  0  0  0
  -26.8159  -30.8918   21.9858 H   0  0  0  0  0  0
  -28.0949  -29.1096   21.1812 H   0  0  0  0  0  0
  -26.0453  -25.9893   19.0067 H   0  0  0  0  0  0
  -23.9825  -27.3195   19.0126 H   0  0  0  0  0  0
  -23.7140  -30.6113   19.4073 H   0  0  0  0  0  0
  -22.7352  -29.2502   19.8678 H   0  0  0  0  0  0
  -25.1217  -36.1956   25.0824 H   0  0  0  0  0  0
  -20.9948  -28.3183   24.1429 H   0  0  0  0  0  0
  -20.5643  -26.2222   23.3566 H   0  0  0  0  0  0
  -21.6642  -26.7404   22.1208 H   0  0  0  0  0  0
  -19.6906  -25.6281   21.1200 H   0  0  0  0  0  0
  -19.6686  -27.3185   20.6717 H   0  0  0  0  0  0
  -17.4180  -26.6627   21.4023 H   0  0  0  0  0  0
  -18.0351  -26.0045   22.9005 H   0  0  0  0  0  0
  -19.7916  -30.7230   24.2283 H   0  0  0  0  0  0
  -17.5000  -31.6253   24.5134 H   0  0  0  0  0  0
  -15.5337  -30.2954   23.7647 H   0  0  0  0  0  0
  -15.8664  -28.0787   22.7067 H   0  0  0  0  0  0
  -24.5965  -30.7006   25.7853 H   0  0  0  0  0  0
  -24.8953  -32.2803   26.5008 H   0  0  0  0  0  0
  -25.8168  -30.8830   27.0233 H   0  0  0  0  0  0
  -26.2858  -29.6819   24.1187 H   0  0  0  0  0  0
  -27.4173  -29.7322   25.4522 H   0  0  0  0  0  0
  -27.8668  -30.4417   23.9193 H   0  0  0  0  0  0
  -27.2702  -33.3572   26.2189 H   0  0  0  0  0  0
  -28.3825  -32.6976   25.0279 H   0  0  0  0  0  0
  -28.0848  -31.8394   26.5309 H   0  0  0  0  0  0
  -28.2406  -38.0258   24.7837 H   0  0  0  0  0  0
  -28.1352  -36.2841   24.5719 H   0  0  0  0  0  0
  -27.2426  -37.0765   25.8794 H   0  0  0  0  0  0
  -20.9285  -29.8762   21.6996 H   0  0  0  0  0  0
  -26.0122  -38.2852   24.1716 H   0  0  0  0  0  0
  -28.6853  -17.7128   22.6031 H   0  0  0  0  0  0
  -32.2108  -18.9924   20.4519 H   0  0  0  0  0  0
  -28.2364  -20.0681   23.2309 H   0  0  0  0  0  0
  -31.7598  -21.3215   21.0742 H   0  0  0  0  0  0
  -31.6895  -16.8096   20.3687 H   0  0  0  0  0  0
  -29.2967  -15.5730   21.8067 H   0  0  0  0  0  0
  -30.5846  -22.7909   22.8950 H   0  0  0  0  0  0
  -28.9150  -22.4287   23.2510 H   0  0  0  0  0  0
  -29.9383  -22.8564   20.3873 H   0  0  0  0  0  0
  -28.2682  -22.7116   20.8767 H   0  0  0  0  0  0
  -27.1652  -25.1623   20.9765 H   0  0  0  0  0  0
  -28.0022  -24.7537   19.4842 H   0  0  0  0  0  0
  1 25  1  0  0  0
  1 30  2  0  0  0
  1 78  1  0  0  0
  2  3  1  0  0  0
  2 25  1  0  0  0
  2 84  1  0  0  0
  2 85  1  0  0  0
  3  4  1  0  0  0
  3 86  1  0  0  0
  3 87  1  0  0  0
  4  5  1  0  0  0
  4 88  1  0  0  0
  4 89  1  0  0  0
  5  6  1  0  0  0
  5 26  1  0  0  0
  5 90  1  0  0  0
  6 25  1  0  0  0
  6 91  1  0  0  0
  6 92  1  0  0  0
  7  8  2  0  0  0
  7 26  1  0  0  0
  7 29  1  0  0  0
  8  9  1  0  0  0
  8 22  1  0  0  0
  9 10  1  0  0  0
  9 27  2  0  0  0
 10 11  2  0  0  0
 10 15  1  0  0  0
 11 12  1  0  0  0
 11 93  1  0  0  0
 12 13  2  0  0  0
 12 94  1  0  0  0
 13 14  1  0  0  0
 13 31  1  0  0  0
 14 15  2  0  0  0
 14 95  1  0  0  0
 15 96  1  0  0  0
 16 17  2  0  0  0
 16 21  1  0  0  0
 16 31  1  0  0  0
 17 18  1  0  0  0
 17 97  1  0  0  0
 18 19  2  0  0  0
 18 98  1  0  0  0
 19 20  1  0  0  0
 19 24  1  0  0  0
 20 21  2  0  0  0
 20 99  1  0  0  0
 21 23  1  0  0  0
 22 28  1  0  0  0
 22 32  2  0  0  0
 26 27  1  0  0  0
 28100  1  0  0  0
 28101  1  0  0  0
 29102  1  0  0  0
 29103  1  0  0  0
 33 34  1  0  0  0
 33 66  1  0  0  0
 33 70  2  0  0  0
 34 36  1  0  0  0
 34 59  1  0  0  0
 34104  1  0  0  0
 35 44  2  0  0  0
 35 45  1  0  0  0
 35 68  1  0  0  0
 36 56  1  0  0  0
 36105  1  0  0  0
 37 39  1  0  0  0
 37 47  1  0  0  0
 37 66  1  0  0  0
 37106  1  0  0  0
 38 43  2  0  0  0
 38 46  1  0  0  0
 38 47  1  0  0  0
 39 64  1  0  0  0
 39 67  2  0  0  0
 40 52  1  0  0  0
 40 53  2  0  0  0
 40 58  1  0  0  0
 41107  1  0  0  0
 41108  1  0  0  0
 41109  1  0  0  0
 41 48  1  0  0  0
 42 43  1  0  0  0
 42 66  1  0  0  0
 42110  1  0  0  0
 42111  1  0  0  0
 43 44  1  0  0  0
 44112  1  0  0  0
 45 46  2  0  0  0
 45113  1  0  0  0
 46114  1  0  0  0
 47115  1  0  0  0
 47116  1  0  0  0
 48 56  1  0  0  0
 48 65  1  0  0  0
 48117  1  0  0  0
 49 50  1  0  0  0
 49 53  1  0  0  0
 49 64  1  0  0  0
 49118  1  0  0  0
 50 51  1  0  0  0
 50119  1  0  0  0
 50120  1  0  0  0
 51 52  1  0  0  0
 51121  1  0  0  0
 51122  1  0  0  0
 52123  1  0  0  0
 52124  1  0  0  0
 53 54  1  0  0  0
 54 55  2  0  0  0
 54125  1  0  0  0
 55 57  1  0  0  0
 55126  1  0  0  0
 56 69  2  0  0  0
 57 58  2  0  0  0
 57127  1  0  0  0
 58128  1  0  0  0
 59 60  1  0  0  0
 59 61  1  0  0  0
 59 62  1  0  0  0
 60129  1  0  0  0
 60130  1  0  0  0
 60131  1  0  0  0
 61132  1  0  0  0
 61133  1  0  0  0
 61134  1  0  0  0
 62135  1  0  0  0
 62136  1  0  0  0
 62137  1  0  0  0
 63 65  1  0  0  0
 63138  1  0  0  0
 63139  1  0  0  0
 63140  1  0  0  0
 64141  1  0  0  0
 65142  1  0  0  0
 68 82  1  0  0  0
 71 73  2  0  0  0
 71 75  1  0  0  0
 71143  1  0  0  0
 72 74  1  0  0  0
 72 75  2  0  0  0
 72144  1  0  0  0
 73 76  1  0  0  0
 73145  1  0  0  0
 74 76  2  0  0  0
 74146  1  0  0  0
 75 77  1  0  0  0
 76 80  1  0  0  0
 77 78  2  0  0  0
 77147  1  0  0  0
 78148  1  0  0  0
 79 81  1  0  0  0
 79 82  1  0  0  0
 79 83  2  0  0  0
 80 81  1  0  0  0
 80149  1  0  0  0
 80150  1  0  0  0
 81151  1  0  0  0
 81152  1  0  0  0
 82153  1  0  0  0
 82154  1  0  0  0
M  ISO  4   1 100  68 101  78 100  82 101
M  END
> <chiral flag>
0

> <version>
0

> <s_m_source_file>
/data/baiqing/PycharmProjects/Reinvent-master-3.2/result/LINK_invent/BTK/process_docking_weight1_custom_product_contain_oxygen_bond_distance_aromatic_linkinvent_7_9_3/rearranged_h_0129.sdf

> <i_m_source_file_index>
1

> <r_mmod_Potential_Energy-OPLS-2005>
-33.3215370178223

> <r_mmod_Stretch_Energy-OPLS-2005>
35.4354095458984

> <r_mmod_Bend_Energy-OPLS-2005>
104.666915893555

> <r_mmod_Torsional_Energy-OPLS-2005>
182.476760864258

> <r_mmod_Improper_Torsional_Energy-OPLS-2005>
2.61797785758972

> <r_mmod_Van_der_Waal_Energy-OPLS-2005>
165.396759033203

> <r_mmod_Electrostatic_Energy-OPLS-2005>
-330.596618652344

> <r_mmod_Solvation_Energy-OPLS-2005>
-211.991546630859

> <b_mmod_Minimization_Converged-OPLS-2005>
0

> <r_mmod_RMS_Derivative-OPLS-2005>
3.39333081245422

$$$$
1
                    3D
 Structure written by MMmdl.
161169  0  0  1  0            999 V2000
  -30.7674  -14.4006   20.5952 C   0  0  0  0  0  0
  -30.4051  -12.2650   19.4415 C   0  0  0  0  0  0
  -29.5008  -12.5082   18.2175 C   0  0  0  0  0  0
  -28.0194  -12.3636   18.6180 C   0  0  0  0  0  0
  -27.6596  -13.2078   19.8711 C   0  0  2  0  0  0
  -28.6956  -13.0046   21.0015 C   0  0  0  0  0  0
  -25.2575  -13.8162   20.5648 C   0  0  0  0  0  0
  -24.1824  -13.0445   20.9157 C   0  0  0  0  0  0
  -24.6373  -11.6910   20.8709 C   0  0  0  0  0  0
  -23.9028  -10.4296   21.0377 C   0  0  0  0  0  0
  -24.3583   -9.4227   21.9162 C   0  0  0  0  0  0
  -23.6285   -8.2248   22.0742 C   0  0  0  0  0  0
  -22.4268   -8.0266   21.3537 C   0  0  0  0  0  0
  -21.9889   -9.0229   20.4629 C   0  0  0  0  0  0
  -22.7200  -10.2118   20.3032 C   0  0  0  0  0  0
  -21.6853   -6.0722   22.5279 C   0  0  0  0  0  0
  -21.4000   -6.5623   23.8217 C   0  0  0  0  0  0
  -21.3665   -5.6778   24.9166 C   0  0  0  0  0  0
  -21.6058   -4.3046   24.7216 C   0  0  0  0  0  0
  -21.8820   -3.8135   23.4341 C   0  0  0  0  0  0
  -21.9189   -4.6954   22.3397 C   0  0  0  0  0  0
  -22.7851  -13.5251   21.1822 C   0  0  0  0  0  0
  -22.1663   -4.2141   21.0972 F   0  0  0  0  0  0
  -21.5639   -3.4523   25.7733 F   0  0  0  0  0  0
  -30.0360  -13.2637   20.4565 N   0  0  0  0  0  0
  -26.3004  -12.9334   20.3312 N   0  0  0  0  0  0
  -25.9295  -11.6489   20.5720 N   0  0  0  0  0  0
  -22.0477  -12.8265   22.0386 N   0  0  0  0  0  0
  -25.4313  -15.1880   20.4061 N   0  0  0  0  0  0
  -31.9148  -14.4924   20.1491 O   0  0  0  0  0  0
  -21.6636   -6.8863   21.4243 O   0  0  0  0  0  0
  -22.3540  -14.5555   20.6655 O   0  0  0  0  0  0
  -24.6094  -31.8723   23.2122 C   0  0  0  0  0  0
  -25.9015  -32.4842   23.8413 C   0  0  1  0  0  0
  -27.2416  -27.4952   20.1001 C   0  0  0  0  0  0
  -25.5890  -33.8636   24.2347 N   0  0  0  0  0  0
  -23.3949  -30.4946   21.5502 C   0  0  2  0  0  0
  -24.8453  -28.9656   20.1166 C   0  0  0  0  0  0
  -22.7387  -29.4677   22.4998 C   0  0  0  0  0  0
  -18.0277  -28.1381   22.8504 C   0  0  0  0  0  0
  -24.1464  -36.7297   23.2640 C   0  0  0  0  0  0
  -25.9171  -30.8586   21.3569 C   0  0  0  0  0  0
  -25.9994  -29.4968   20.7069 C   0  0  0  0  0  0
  -27.2038  -28.7678   20.6963 C   0  0  0  0  0  0
  -26.0791  -26.9615   19.5046 C   0  0  0  0  0  0
  -24.8762  -27.6932   19.5160 C   0  0  0  0  0  0
  -23.6027  -29.8236   20.1650 C   0  0  0  0  0  0
  -25.4080  -36.3114   24.0350 C   0  0  1  0  0  0
  -20.5871  -28.3647   23.1341 C   0  0  2  0  0  0
  -20.6758  -26.9386   22.5433 C   0  0  0  0  0  0
  -19.5734  -26.6381   21.5229 C   0  0  0  0  0  0
  -18.1913  -26.7927   22.1638 C   0  0  0  0  0  0
  -19.1528  -28.8826   23.2928 C   0  0  0  0  0  0
  -18.9460  -30.1430   23.8938 C   0  0  0  0  0  0
  -17.6466  -30.6578   24.0584 C   0  0  0  0  0  0
  -25.9027  -34.9487   23.5144 C   0  0  0  0  0  0
  -16.5354  -29.9092   23.6328 C   0  0  0  0  0  0
  -16.7271  -28.6517   23.0336 C   0  0  0  0  0  0
  -26.4451  -31.6611   25.0732 C   0  0  0  0  0  0
  -25.3708  -31.3729   26.1478 C   0  0  0  0  0  0
  -27.0277  -30.3056   24.6090 C   0  0  0  0  0  0
  -27.6044  -32.4311   25.7496 C   0  0  0  0  0  0
  -27.5574  -37.1777   24.8451 C   0  0  0  0  0  0
  -21.4120  -29.3013   22.3733 N   0  0  0  0  0  0
  -26.4248  -37.3816   23.9457 N   0  0  0  0  0  0
  -24.6578  -31.0884   22.0985 N   0  0  0  0  0  0
  -23.4185  -28.8237   23.3036 O   0  0  0  0  0  0
  -28.4106  -26.7877   20.1039 O   0  0  0  0  0  0
  -26.5588  -34.8941   22.4707 O   0  0  0  0  0  0
  -23.5295  -32.1453   23.7541 O   0  0  0  0  0  0
  -29.0859  -18.4550   21.0893 C   0  0  0  0  0  0
  -28.8564  -19.7967   20.7350 C   0  0  0  0  0  0
  -31.3359  -19.0374   21.7934 C   0  0  0  0  0  0
  -30.3651  -18.0515   21.5224 C   0  0  0  0  0  0
  -29.8977  -20.7505   20.8126 C   0  0  0  0  0  0
  -31.1099  -20.3870   21.4536 C   0  0  0  0  0  0
  -30.8010  -16.6519   21.4416 C   0  0  0  0  0  0
  -30.0636  -15.5968   21.0328 C   0  0  0  0  0  0
  -32.2199  -21.3942   21.7038 C   0  0  0  0  0  0
  -29.1681  -21.8708   18.6600 C   0  0  0  0  0  0
  -29.2130  -24.5623   20.2708 C   0  0  0  0  0  0
  -29.0073  -23.1580   20.8677 C   0  0  0  0  0  0
  -28.3777  -25.6446   20.9486 C   0  0  0  0  0  0
  -29.7634  -22.0820   20.0684 C   0  0  1  0  0  0
  -31.4579  -12.3124   19.1551 H   0  0  0  0  0  0
  -30.2542  -11.2589   19.8368 H   0  0  0  0  0  0
  -29.7490  -11.8088   17.4182 H   0  0  0  0  0  0
  -29.6817  -13.5089   17.8213 H   0  0  0  0  0  0
  -27.8309  -11.3077   18.8152 H   0  0  0  0  0  0
  -27.3746  -12.6380   17.7818 H   0  0  0  0  0  0
  -27.7002  -14.2522   19.5634 H   0  0  0  0  0  0
  -28.6516  -11.9808   21.3760 H   0  0  0  0  0  0
  -28.4681  -13.6369   21.8610 H   0  0  0  0  0  0
  -25.2717   -9.5739   22.4741 H   0  0  0  0  0  0
  -24.0010   -7.4643   22.7454 H   0  0  0  0  0  0
  -21.0826   -8.8726   19.8932 H   0  0  0  0  0  0
  -22.3640  -10.9640   19.6133 H   0  0  0  0  0  0
  -21.1981   -7.6133   23.9719 H   0  0  0  0  0  0
  -21.1492   -6.0496   25.9082 H   0  0  0  0  0  0
  -22.0598   -2.7600   23.2823 H   0  0  0  0  0  0
  -22.4059  -11.9956   22.4846 H   0  0  0  0  0  0
  -21.1086  -13.1315   22.2525 H   0  0  0  0  0  0
  -24.6639  -15.8457   20.5024 H   0  0  0  0  0  0
  -26.2899  -15.6264   20.0998 H   0  0  0  0  0  0
  -26.7110  -32.5581   23.1208 H   0  0  0  0  0  0
  -25.0032  -33.9807   25.0485 H   0  0  0  0  0  0
  -22.6813  -31.3091   21.4101 H   0  0  0  0  0  0
  -23.3758  -35.9595   23.3255 H   0  0  0  0  0  0
  -24.3577  -36.8948   22.2064 H   0  0  0  0  0  0
  -23.7164  -37.6468   23.6673 H   0  0  0  0  0  0
  -26.0213  -31.6284   20.5907 H   0  0  0  0  0  0
  -26.8080  -30.9135   21.9714 H   0  0  0  0  0  0
  -28.0972  -29.1721   21.1527 H   0  0  0  0  0  0
  -26.1083  -25.9858   19.0391 H   0  0  0  0  0  0
  -23.9871  -27.2750   19.0648 H   0  0  0  0  0  0
  -23.7060  -30.5961   19.4018 H   0  0  0  0  0  0
  -22.7312  -29.2352   19.8718 H   0  0  0  0  0  0
  -25.1238  -36.1958   25.0839 H   0  0  0  0  0  0
  -20.9981  -28.3206   24.1456 H   0  0  0  0  0  0
  -20.5673  -26.2245   23.3612 H   0  0  0  0  0  0
  -21.6625  -26.7428   22.1217 H   0  0  0  0  0  0
  -19.6882  -25.6297   21.1236 H   0  0  0  0  0  0
  -19.6680  -27.3210   20.6774 H   0  0  0  0  0  0
  -17.4189  -26.6699   21.4032 H   0  0  0  0  0  0
  -18.0299  -26.0068   22.9032 H   0  0  0  0  0  0
  -19.7941  -30.7231   24.2329 H   0  0  0  0  0  0
  -17.5027  -31.6257   24.5194 H   0  0  0  0  0  0
  -15.5355  -30.3005   23.7636 H   0  0  0  0  0  0
  -15.8672  -28.0852   22.7008 H   0  0  0  0  0  0
  -24.5840  -30.7140   25.7781 H   0  0  0  0  0  0
  -24.8953  -32.2907   26.4958 H   0  0  0  0  0  0
  -25.8037  -30.8838   27.0215 H   0  0  0  0  0  0
  -26.2816  -29.6831   24.1135 H   0  0  0  0  0  0
  -27.4040  -29.7283   25.4548 H   0  0  0  0  0  0
  -27.8655  -30.4381   23.9236 H   0  0  0  0  0  0
  -27.2675  -33.3582   26.2148 H   0  0  0  0  0  0
  -28.3826  -32.6915   25.0308 H   0  0  0  0  0  0
  -28.0752  -31.8386   26.5352 H   0  0  0  0  0  0
  -28.2527  -38.0140   24.7619 H   0  0  0  0  0  0
  -28.1127  -36.2684   24.6100 H   0  0  0  0  0  0
  -27.2333  -37.1217   25.8859 H   0  0  0  0  0  0
  -20.9262  -29.8712   21.6945 H   0  0  0  0  0  0
  -26.0125  -38.2865   24.1565 H   0  0  0  0  0  0
  -28.3098  -17.7306   20.8924 H   0  0  0  0  0  0
  -27.9062  -20.0553   20.2906 H   0  0  0  0  0  0
  -32.3128  -18.7423   22.1537 H   0  0  0  0  0  0
  -31.8571  -16.5015   21.6318 H   0  0  0  0  0  0
  -28.9944  -15.6716   20.9167 H   0  0  0  0  0  0
  -32.8843  -21.0537   22.4990 H   0  0  0  0  0  0
  -31.8136  -22.3581   22.0147 H   0  0  0  0  0  0
  -32.8193  -21.5413   20.8050 H   0  0  0  0  0  0
  -29.6497  -21.0325   18.1543 H   0  0  0  0  0  0
  -29.3210  -22.7420   18.0239 H   0  0  0  0  0  0
  -28.0965  -21.6687   18.6908 H   0  0  0  0  0  0
  -28.9460  -24.5592   19.2159 H   0  0  0  0  0  0
  -30.2680  -24.8365   20.3145 H   0  0  0  0  0  0
  -27.9463  -22.9071   20.9075 H   0  0  0  0  0  0
  -29.3598  -23.1702   21.8993 H   0  0  0  0  0  0
  -28.7877  -25.8999   21.9273 H   0  0  0  0  0  0
  -27.3628  -25.2810   21.1185 H   0  0  0  0  0  0
  -30.7711  -22.4590   19.8933 H   0  0  0  0  0  0
  1 25  1  0  0  0
  1 30  2  0  0  0
  1 78  1  0  0  0
  2  3  1  0  0  0
  2 25  1  0  0  0
  2 85  1  0  0  0
  2 86  1  0  0  0
  3  4  1  0  0  0
  3 87  1  0  0  0
  3 88  1  0  0  0
  4  5  1  0  0  0
  4 89  1  0  0  0
  4 90  1  0  0  0
  5  6  1  0  0  0
  5 26  1  0  0  0
  5 91  1  0  0  0
  6 25  1  0  0  0
  6 92  1  0  0  0
  6 93  1  0  0  0
  7  8  2  0  0  0
  7 26  1  0  0  0
  7 29  1  0  0  0
  8  9  1  0  0  0
  8 22  1  0  0  0
  9 10  1  0  0  0
  9 27  2  0  0  0
 10 11  2  0  0  0
 10 15  1  0  0  0
 11 12  1  0  0  0
 11 94  1  0  0  0
 12 13  2  0  0  0
 12 95  1  0  0  0
 13 14  1  0  0  0
 13 31  1  0  0  0
 14 15  2  0  0  0
 14 96  1  0  0  0
 15 97  1  0  0  0
 16 17  2  0  0  0
 16 21  1  0  0  0
 16 31  1  0  0  0
 17 18  1  0  0  0
 17 98  1  0  0  0
 18 19  2  0  0  0
 18 99  1  0  0  0
 19 20  1  0  0  0
 19 24  1  0  0  0
 20 21  2  0  0  0
 20100  1  0  0  0
 21 23  1  0  0  0
 22 28  1  0  0  0
 22 32  2  0  0  0
 26 27  1  0  0  0
 28101  1  0  0  0
 28102  1  0  0  0
 29103  1  0  0  0
 29104  1  0  0  0
 33 34  1  0  0  0
 33 66  1  0  0  0
 33 70  2  0  0  0
 34 36  1  0  0  0
 34 59  1  0  0  0
 34105  1  0  0  0
 35 44  2  0  0  0
 35 45  1  0  0  0
 35 68  1  0  0  0
 36 56  1  0  0  0
 36106  1  0  0  0
 37 39  1  0  0  0
 37 47  1  0  0  0
 37 66  1  0  0  0
 37107  1  0  0  0
 38 43  2  0  0  0
 38 46  1  0  0  0
 38 47  1  0  0  0
 39 64  1  0  0  0
 39 67  2  0  0  0
 40 52  1  0  0  0
 40 53  2  0  0  0
 40 58  1  0  0  0
 41108  1  0  0  0
 41109  1  0  0  0
 41110  1  0  0  0
 41 48  1  0  0  0
 42 43  1  0  0  0
 42 66  1  0  0  0
 42111  1  0  0  0
 42112  1  0  0  0
 43 44  1  0  0  0
 44113  1  0  0  0
 45 46  2  0  0  0
 45114  1  0  0  0
 46115  1  0  0  0
 47116  1  0  0  0
 47117  1  0  0  0
 48 56  1  0  0  0
 48 65  1  0  0  0
 48118  1  0  0  0
 49 50  1  0  0  0
 49 53  1  0  0  0
 49 64  1  0  0  0
 49119  1  0  0  0
 50 51  1  0  0  0
 50120  1  0  0  0
 50121  1  0  0  0
 51 52  1  0  0  0
 51122  1  0  0  0
 51123  1  0  0  0
 52124  1  0  0  0
 52125  1  0  0  0
 53 54  1  0  0  0
 54 55  2  0  0  0
 54126  1  0  0  0
 55 57  1  0  0  0
 55127  1  0  0  0
 56 69  2  0  0  0
 57 58  2  0  0  0
 57128  1  0  0  0
 58129  1  0  0  0
 59 60  1  0  0  0
 59 61  1  0  0  0
 59 62  1  0  0  0
 60130  1  0  0  0
 60131  1  0  0  0
 60132  1  0  0  0
 61133  1  0  0  0
 61134  1  0  0  0
 61135  1  0  0  0
 62136  1  0  0  0
 62137  1  0  0  0
 62138  1  0  0  0
 63 65  1  0  0  0
 63139  1  0  0  0
 63140  1  0  0  0
 63141  1  0  0  0
 64142  1  0  0  0
 65143  1  0  0  0
 68 83  1  0  0  0
 71 72  2  0  0  0
 71 74  1  0  0  0
 71144  1  0  0  0
 72 75  1  0  0  0
 72145  1  0  0  0
 73 74  2  0  0  0
 73 76  1  0  0  0
 73146  1  0  0  0
 74 77  1  0  0  0
 75 76  2  0  0  0
 75 84  1  0  0  0
 76 79  1  0  0  0
 77 78  2  0  0  0
 77147  1  0  0  0
 78148  1  0  0  0
 79149  1  0  0  0
 79150  1  0  0  0
 79151  1  0  0  0
 80152  1  0  0  0
 80153  1  0  0  0
 80154  1  0  0  0
 80 84  1  0  0  0
 81 82  1  0  0  0
 81 83  1  0  0  0
 81155  1  0  0  0
 81156  1  0  0  0
 82 84  1  0  0  0
 82157  1  0  0  0
 82158  1  0  0  0
 83159  1  0  0  0
 83160  1  0  0  0
 84161  1  0  0  0
M  ISO  4   1 100  68 101  78 100  83 101
M  END
> <chiral flag>
0

> <version>
0

> <s_m_source_file>
/data/baiqing/PycharmProjects/Reinvent-master-3.2/result/LINK_invent/BTK/process_docking_weight1_custom_product_contain_oxygen_bond_distance_aromatic_linkinvent_7_9_3/rearranged_h_0129.sdf

> <i_m_source_file_index>
2

> <r_mmod_Potential_Energy-OPLS-2005>
20.3062839508057

> <r_mmod_Stretch_Energy-OPLS-2005>
31.5839443206787

> <r_mmod_Bend_Energy-OPLS-2005>
91.5508193969727

> <r_mmod_Torsional_Energy-OPLS-2005>
246.098281860352

> <r_mmod_Improper_Torsional_Energy-OPLS-2005>
12.3776197433472

> <r_mmod_Van_der_Waal_Energy-OPLS-2005>
165.661117553711

> <r_mmod_Electrostatic_Energy-OPLS-2005>
-355.785125732422

> <r_mmod_Solvation_Energy-OPLS-2005>
-185.603988647461

> <b_mmod_Minimization_Converged-OPLS-2005>
0

> <r_mmod_RMS_Derivative-OPLS-2005>
2.4079577922821

$$$$
2
                    3D
 Structure written by MMmdl.
151159  0  0  1  0            999 V2000
  -30.6604  -14.4927   20.4770 C   0  0  0  0  0  0
  -30.3979  -12.2897   19.4294 C   0  0  0  0  0  0
  -29.4961  -12.5304   18.1993 C   0  0  0  0  0  0
  -28.0011  -12.4370   18.5800 C   0  0  0  0  0  0
  -27.6488  -13.2300   19.8699 C   0  0  2  0  0  0
  -28.6922  -13.0012   20.9867 C   0  0  0  0  0  0
  -25.2456  -13.8137   20.5737 C   0  0  0  0  0  0
  -24.1729  -13.0409   20.9164 C   0  0  0  0  0  0
  -24.6324  -11.6907   20.8661 C   0  0  0  0  0  0
  -23.9023  -10.4277   21.0337 C   0  0  0  0  0  0
  -24.3605   -9.4223   21.9136 C   0  0  0  0  0  0
  -23.6285   -8.2241   22.0713 C   0  0  0  0  0  0
  -22.4230   -8.0271   21.3558 C   0  0  0  0  0  0
  -21.9854   -9.0245   20.4691 C   0  0  0  0  0  0
  -22.7164  -10.2129   20.3045 C   0  0  0  0  0  0
  -21.6859   -6.0733   22.5259 C   0  0  0  0  0  0
  -21.4046   -6.5635   23.8203 C   0  0  0  0  0  0
  -21.3687   -5.6800   24.9161 C   0  0  0  0  0  0
  -21.6011   -4.3051   24.7206 C   0  0  0  0  0  0
  -21.8828   -3.8149   23.4339 C   0  0  0  0  0  0
  -21.9186   -4.6979   22.3411 C   0  0  0  0  0  0
  -22.7767  -13.5221   21.1841 C   0  0  0  0  0  0
  -22.1660   -4.2178   21.0973 F   0  0  0  0  0  0
  -21.5611   -3.4531   25.7730 F   0  0  0  0  0  0
  -30.0246  -13.2851   20.4424 N   0  0  0  0  0  0
  -26.2922  -12.9404   20.3323 N   0  0  0  0  0  0
  -25.9248  -11.6541   20.5620 N   0  0  0  0  0  0
  -22.0430  -12.8281   22.0472 N   0  0  0  0  0  0
  -25.4157  -15.1845   20.4310 N   0  0  0  0  0  0
  -31.8434  -14.6234   20.1482 O   0  0  0  0  0  0
  -21.6621   -6.8863   21.4216 O   0  0  0  0  0  0
  -22.3484  -14.5486   20.6669 O   0  0  0  0  0  0
  -24.6228  -31.8656   23.2060 C   0  0  0  0  0  0
  -25.9112  -32.4793   23.8369 C   0  0  1  0  0  0
  -27.2073  -27.3772   20.0741 C   0  0  0  0  0  0
  -25.5940  -33.8593   24.2285 N   0  0  0  0  0  0
  -23.4088  -30.4946   21.5500 C   0  0  2  0  0  0
  -24.8456  -28.9571   20.1157 C   0  0  0  0  0  0
  -22.7444  -29.4667   22.4953 C   0  0  0  0  0  0
  -18.0303  -28.1392   22.8475 C   0  0  0  0  0  0
  -24.1475  -36.7273   23.2636 C   0  0  0  0  0  0
  -25.9481  -30.8058   21.3757 C   0  0  0  0  0  0
  -26.0158  -29.4412   20.7135 C   0  0  0  0  0  0
  -27.2030  -28.6604   20.6889 C   0  0  0  0  0  0
  -26.0212  -26.9448   19.4407 C   0  0  0  0  0  0
  -24.8430  -27.7067   19.4812 C   0  0  0  0  0  0
  -23.6152  -29.8351   20.1653 C   0  0  0  0  0  0
  -25.4105  -36.3067   24.0317 C   0  0  1  0  0  0
  -20.5895  -28.3684   23.1298 C   0  0  2  0  0  0
  -20.6774  -26.9406   22.5455 C   0  0  0  0  0  0
  -19.5759  -26.6353   21.5239 C   0  0  0  0  0  0
  -18.1926  -26.7928   22.1618 C   0  0  0  0  0  0
  -19.1549  -28.8852   23.2873 C   0  0  0  0  0  0
  -18.9472  -30.1453   23.8884 C   0  0  0  0  0  0
  -17.6470  -30.6599   24.0552 C   0  0  0  0  0  0
  -25.9050  -34.9456   23.5083 C   0  0  0  0  0  0
  -16.5364  -29.9092   23.6344 C   0  0  0  0  0  0
  -16.7273  -28.6525   23.0340 C   0  0  0  0  0  0
  -26.4488  -31.6623   25.0723 C   0  0  0  0  0  0
  -25.3741  -31.3836   26.1488 C   0  0  0  0  0  0
  -27.0304  -30.3020   24.6230 C   0  0  0  0  0  0
  -27.6057  -32.4344   25.7490 C   0  0  0  0  0  0
  -27.5571  -37.1780   24.8451 C   0  0  0  0  0  0
  -21.4175  -29.3040   22.3693 N   0  0  0  0  0  0
  -26.4274  -37.3771   23.9408 N   0  0  0  0  0  0
  -24.6771  -31.0739   22.0980 N   0  0  0  0  0  0
  -23.4215  -28.8228   23.3024 O   0  0  0  0  0  0
  -28.3294  -26.5556   20.0764 O   0  0  0  0  0  0
  -26.5634  -34.8921   22.4663 O   0  0  0  0  0  0
  -23.5406  -32.1444   23.7450 O   0  0  0  0  0  0
  -27.7531  -18.1409   20.0228 C   0  0  0  0  0  0
  -27.5792  -19.5576   19.9099 C   0  0  0  0  0  0
  -29.0844  -17.8979   19.7824 C   0  0  0  0  0  0
  -28.8198  -20.1065   19.6716 C   0  0  0  0  0  0
  -29.8944  -16.7177   19.8397 C   0  0  0  0  0  0
  -29.7753  -15.6427   20.6576 C   0  0  0  0  0  0
  -28.9827  -24.1442   19.5663 C   0  0  0  0  0  0
  -29.4109  -21.5179   19.6385 C   0  0  0  0  0  0
  -28.4443  -22.7048   19.3060 C   0  0  0  0  0  0
  -28.0654  -25.1365   20.3365 C   0  0  0  0  0  0
  -30.0914  -24.4923   19.1470 O   0  0  0  0  0  0
  -29.7297  -19.0882   19.5558 O   0  0  0  0  0  0
  -31.4536  -12.3428   19.1628 H   0  0  0  0  0  0
  -30.2366  -11.2845   19.8161 H   0  0  0  0  0  0
  -29.7325  -11.8224   17.4065 H   0  0  0  0  0  0
  -29.7054  -13.5183   17.7826 H   0  0  0  0  0  0
  -27.7349  -11.3862   18.7004 H   0  0  0  0  0  0
  -27.3933  -12.8145   17.7555 H   0  0  0  0  0  0
  -27.6878  -14.2845   19.5952 H   0  0  0  0  0  0
  -28.6526  -11.9702   21.3448 H   0  0  0  0  0  0
  -28.4776  -13.6161   21.8597 H   0  0  0  0  0  0
  -25.2791   -9.5726   22.4673 H   0  0  0  0  0  0
  -24.0084   -7.4605   22.7381 H   0  0  0  0  0  0
  -21.0788   -8.8728   19.8999 H   0  0  0  0  0  0
  -22.3581  -10.9660   19.6152 H   0  0  0  0  0  0
  -21.2072   -7.6160   23.9732 H   0  0  0  0  0  0
  -21.1486   -6.0518   25.9084 H   0  0  0  0  0  0
  -22.0582   -2.7622   23.2793 H   0  0  0  0  0  0
  -22.4103  -12.0068   22.5035 H   0  0  0  0  0  0
  -21.1041  -13.1287   22.2636 H   0  0  0  0  0  0
  -24.6526  -15.8438   20.5473 H   0  0  0  0  0  0
  -26.2964  -15.6258   20.2022 H   0  0  0  0  0  0
  -26.7188  -32.5445   23.1111 H   0  0  0  0  0  0
  -25.0063  -33.9736   25.0408 H   0  0  0  0  0  0
  -22.6999  -31.3122   21.4144 H   0  0  0  0  0  0
  -23.3744  -35.9599   23.3308 H   0  0  0  0  0  0
  -24.3570  -36.8901   22.2052 H   0  0  0  0  0  0
  -23.7229  -37.6469   23.6673 H   0  0  0  0  0  0
  -26.0958  -31.5747   20.6167 H   0  0  0  0  0  0
  -26.8256  -30.8362   22.0096 H   0  0  0  0  0  0
  -28.1039  -29.0251   21.1632 H   0  0  0  0  0  0
  -25.9837  -26.0149   18.8939 H   0  0  0  0  0  0
  -23.9447  -27.3332   19.0084 H   0  0  0  0  0  0
  -23.7368  -30.6103   19.4079 H   0  0  0  0  0  0
  -22.7341  -29.2652   19.8628 H   0  0  0  0  0  0
  -25.1282  -36.1897   25.0808 H   0  0  0  0  0  0
  -20.9983  -28.3285   24.1403 H   0  0  0  0  0  0
  -20.5652  -26.2300   23.3656 H   0  0  0  0  0  0
  -21.6649  -26.7399   22.1268 H   0  0  0  0  0  0
  -19.6909  -25.6247   21.1288 H   0  0  0  0  0  0
  -19.6729  -27.3138   20.6748 H   0  0  0  0  0  0
  -17.4208  -26.6684   21.4007 H   0  0  0  0  0  0
  -18.0310  -26.0095   22.9030 H   0  0  0  0  0  0
  -19.7951  -30.7269   24.2249 H   0  0  0  0  0  0
  -17.5036  -31.6272   24.5140 H   0  0  0  0  0  0
  -15.5371  -30.2972   23.7672 H   0  0  0  0  0  0
  -15.8669  -28.0812   22.7055 H   0  0  0  0  0  0
  -24.5804  -30.7302   25.7842 H   0  0  0  0  0  0
  -24.9061  -32.3064   26.4942 H   0  0  0  0  0  0
  -25.8038  -30.8964   27.0247 H   0  0  0  0  0  0
  -26.2887  -29.6818   24.1176 H   0  0  0  0  0  0
  -27.3893  -29.7241   25.4757 H   0  0  0  0  0  0
  -27.8815  -30.4278   23.9524 H   0  0  0  0  0  0
  -27.2668  -33.3641   26.2092 H   0  0  0  0  0  0
  -28.3845  -32.6951   25.0298 H   0  0  0  0  0  0
  -28.0766  -31.8474   26.5385 H   0  0  0  0  0  0
  -28.2585  -38.0076   24.7482 H   0  0  0  0  0  0
  -28.1056  -36.2602   24.6259 H   0  0  0  0  0  0
  -27.2306  -37.1435   25.8863 H   0  0  0  0  0  0
  -20.9343  -29.8779   21.6910 H   0  0  0  0  0  0
  -26.0136  -38.2830   24.1467 H   0  0  0  0  0  0
  -26.9958  -17.3969   20.2604 H   0  0  0  0  0  0
  -26.6458  -20.0873   20.0486 H   0  0  0  0  0  0
  -30.6737  -16.6891   19.0866 H   0  0  0  0  0  0
  -29.0150  -15.6550   21.4242 H   0  0  0  0  0  0
  -30.2568  -21.5220   18.9471 H   0  0  0  0  0  0
  -29.8465  -21.7050   20.6219 H   0  0  0  0  0  0
  -28.1547  -22.6621   18.2562 H   0  0  0  0  0  0
  -27.5290  -22.5902   19.8832 H   0  0  0  0  0  0
  -28.1710  -24.9670   21.4086 H   0  0  0  0  0  0
  -27.0480  -24.8340   20.1026 H   0  0  0  0  0  0
  1 25  1  0  0  0
  1 30  2  0  0  0
  1 76  1  0  0  0
  2  3  1  0  0  0
  2 25  1  0  0  0
  2 83  1  0  0  0
  2 84  1  0  0  0
  3  4  1  0  0  0
  3 85  1  0  0  0
  3 86  1  0  0  0
  4  5  1  0  0  0
  4 87  1  0  0  0
  4 88  1  0  0  0
  5  6  1  0  0  0
  5 26  1  0  0  0
  5 89  1  0  0  0
  6 25  1  0  0  0
  6 90  1  0  0  0
  6 91  1  0  0  0
  7  8  2  0  0  0
  7 26  1  0  0  0
  7 29  1  0  0  0
  8  9  1  0  0  0
  8 22  1  0  0  0
  9 10  1  0  0  0
  9 27  2  0  0  0
 10 11  2  0  0  0
 10 15  1  0  0  0
 11 12  1  0  0  0
 11 92  1  0  0  0
 12 13  2  0  0  0
 12 93  1  0  0  0
 13 14  1  0  0  0
 13 31  1  0  0  0
 14 15  2  0  0  0
 14 94  1  0  0  0
 15 95  1  0  0  0
 16 17  2  0  0  0
 16 21  1  0  0  0
 16 31  1  0  0  0
 17 18  1  0  0  0
 17 96  1  0  0  0
 18 19  2  0  0  0
 18 97  1  0  0  0
 19 20  1  0  0  0
 19 24  1  0  0  0
 20 21  2  0  0  0
 20 98  1  0  0  0
 21 23  1  0  0  0
 22 28  1  0  0  0
 22 32  2  0  0  0
 26 27  1  0  0  0
 28 99  1  0  0  0
 28100  1  0  0  0
 29101  1  0  0  0
 29102  1  0  0  0
 33 34  1  0  0  0
 33 66  1  0  0  0
 33 70  2  0  0  0
 34 36  1  0  0  0
 34 59  1  0  0  0
 34103  1  0  0  0
 35 44  2  0  0  0
 35 45  1  0  0  0
 35 68  1  0  0  0
 36 56  1  0  0  0
 36104  1  0  0  0
 37 39  1  0  0  0
 37 47  1  0  0  0
 37 66  1  0  0  0
 37105  1  0  0  0
 38 43  2  0  0  0
 38 46  1  0  0  0
 38 47  1  0  0  0
 39 64  1  0  0  0
 39 67  2  0  0  0
 40 52  1  0  0  0
 40 53  2  0  0  0
 40 58  1  0  0  0
 41106  1  0  0  0
 41107  1  0  0  0
 41108  1  0  0  0
 41 48  1  0  0  0
 42 43  1  0  0  0
 42 66  1  0  0  0
 42109  1  0  0  0
 42110  1  0  0  0
 43 44  1  0  0  0
 44111  1  0  0  0
 45 46  2  0  0  0
 45112  1  0  0  0
 46113  1  0  0  0
 47114  1  0  0  0
 47115  1  0  0  0
 48 56  1  0  0  0
 48 65  1  0  0  0
 48116  1  0  0  0
 49 50  1  0  0  0
 49 53  1  0  0  0
 49 64  1  0  0  0
 49117  1  0  0  0
 50 51  1  0  0  0
 50118  1  0  0  0
 50119  1  0  0  0
 51 52  1  0  0  0
 51120  1  0  0  0
 51121  1  0  0  0
 52122  1  0  0  0
 52123  1  0  0  0
 53 54  1  0  0  0
 54 55  2  0  0  0
 54124  1  0  0  0
 55 57  1  0  0  0
 55125  1  0  0  0
 56 69  2  0  0  0
 57 58  2  0  0  0
 57126  1  0  0  0
 58127  1  0  0  0
 59 60  1  0  0  0
 59 61  1  0  0  0
 59 62  1  0  0  0
 60128  1  0  0  0
 60129  1  0  0  0
 60130  1  0  0  0
 61131  1  0  0  0
 61132  1  0  0  0
 61133  1  0  0  0
 62134  1  0  0  0
 62135  1  0  0  0
 62136  1  0  0  0
 63 65  1  0  0  0
 63137  1  0  0  0
 63138  1  0  0  0
 63139  1  0  0  0
 64140  1  0  0  0
 65141  1  0  0  0
 68 80  1  0  0  0
 71 72  1  0  0  0
 71 73  2  0  0  0
 71142  1  0  0  0
 72 74  2  0  0  0
 72143  1  0  0  0
 73 75  1  0  0  0
 73 82  1  0  0  0
 74 78  1  0  0  0
 74 82  1  0  0  0
 75 76  2  0  0  0
 75144  1  0  0  0
 76145  1  0  0  0
 77 79  1  0  0  0
 77 80  1  0  0  0
 77 81  2  0  0  0
 78 79  1  0  0  0
 78146  1  0  0  0
 78147  1  0  0  0
 79148  1  0  0  0
 79149  1  0  0  0
 80150  1  0  0  0
 80151  1  0  0  0
M  ISO  4   1 100  68 101  76 100  80 101
M  END
> <chiral flag>
0

> <version>
0

> <s_m_source_file>
/data/baiqing/PycharmProjects/Reinvent-master-3.2/result/LINK_invent/BTK/process_docking_weight1_custom_product_contain_oxygen_bond_distance_aromatic_linkinvent_7_9_3/rearranged_h_0129.sdf

> <i_m_source_file_index>
3

> <r_mmod_Potential_Energy-OPLS-2005>
-37.4646034240723

> <r_mmod_Stretch_Energy-OPLS-2005>
45.2319107055664

> <r_mmod_Bend_Energy-OPLS-2005>
96.653923034668

> <r_mmod_Torsional_Energy-OPLS-2005>
224.829223632812

> <r_mmod_Improper_Torsional_Energy-OPLS-2005>
7.1965184211731

> <r_mmod_Van_der_Waal_Energy-OPLS-2005>
130.938461303711

> <r_mmod_Electrostatic_Energy-OPLS-2005>
-345.483703613281

> <r_mmod_Solvation_Energy-OPLS-2005>
-222.824676513672

> <b_mmod_Minimization_Converged-OPLS-2005>
0

> <r_mmod_RMS_Derivative-OPLS-2005>
8.69717597961426

$$$$
3
                    3D
 Structure written by MMmdl.
154163  0  0  1  0            999 V2000
  -30.4965  -14.9341   20.4371 C   0  0  0  0  0  0
  -30.4577  -12.5769   19.4939 C   0  0  0  0  0  0
  -29.5282  -12.5368   18.2557 C   0  0  0  0  0  0
  -28.0591  -12.3200   18.6699 C   0  0  0  0  0  0
  -27.6387  -13.2362   19.8474 C   0  0  2  0  0  0
  -28.6827  -13.2166   20.9860 C   0  0  0  0  0  0
  -25.2484  -13.8164   20.5664 C   0  0  0  0  0  0
  -24.1799  -13.0416   20.9235 C   0  0  0  0  0  0
  -24.6403  -11.6900   20.8763 C   0  0  0  0  0  0
  -23.9076  -10.4281   21.0414 C   0  0  0  0  0  0
  -24.3623   -9.4195   21.9190 C   0  0  0  0  0  0
  -23.6292   -8.2236   22.0755 C   0  0  0  0  0  0
  -22.4275   -8.0279   21.3543 C   0  0  0  0  0  0
  -21.9914   -9.0255   20.4646 C   0  0  0  0  0  0
  -22.7249  -10.2130   20.3059 C   0  0  0  0  0  0
  -21.6852   -6.0734   22.5277 C   0  0  0  0  0  0
  -21.4013   -6.5638   23.8210 C   0  0  0  0  0  0
  -21.3659   -5.6791   24.9173 C   0  0  0  0  0  0
  -21.6044   -4.3054   24.7224 C   0  0  0  0  0  0
  -21.8820   -3.8145   23.4346 C   0  0  0  0  0  0
  -21.9192   -4.6961   22.3400 C   0  0  0  0  0  0
  -22.7821  -13.5203   21.1885 C   0  0  0  0  0  0
  -22.1662   -4.2146   21.0978 F   0  0  0  0  0  0
  -21.5627   -3.4539   25.7738 F   0  0  0  0  0  0
  -29.9659  -13.6455   20.4064 N   0  0  0  0  0  0
  -26.2921  -12.9385   20.3246 N   0  0  0  0  0  0
  -25.9335  -11.6529   20.5750 N   0  0  0  0  0  0
  -22.0462  -12.8199   22.0440 N   0  0  0  0  0  0
  -25.4114  -15.1872   20.3963 N   0  0  0  0  0  0
  -31.6802  -15.0848   20.1114 O   0  0  0  0  0  0
  -21.6637   -6.8879   21.4240 O   0  0  0  0  0  0
  -22.3511  -14.5508   20.6724 O   0  0  0  0  0  0
  -24.6427  -31.8446   23.1884 C   0  0  0  0  0  0
  -25.9198  -32.4700   23.8278 C   0  0  1  0  0  0
  -27.2230  -27.1419   20.1579 C   0  0  0  0  0  0
  -25.5945  -33.8504   24.2196 N   0  0  0  0  0  0
  -23.4471  -30.4627   21.5339 C   0  0  2  0  0  0
  -24.8989  -28.8882   20.1140 C   0  0  0  0  0  0
  -22.7568  -29.4546   22.4865 C   0  0  0  0  0  0
  -18.0306  -28.1395   22.8478 C   0  0  0  0  0  0
  -24.1492  -36.7261   23.2646 C   0  0  0  0  0  0
  -26.0026  -30.7199   21.3875 C   0  0  0  0  0  0
  -26.0757  -29.3300   20.7327 C   0  0  0  0  0  0
  -27.2404  -28.4738   20.7360 C   0  0  0  0  0  0
  -26.0237  -26.8041   19.4934 C   0  0  0  0  0  0
  -24.8852  -27.6380   19.4780 C   0  0  0  0  0  0
  -23.6747  -29.7897   20.1545 C   0  0  0  0  0  0
  -25.4126  -36.3037   24.0316 C   0  0  1  0  0  0
  -20.5918  -28.3721   23.1237 C   0  0  2  0  0  0
  -20.6789  -26.9425   22.5404 C   0  0  0  0  0  0
  -19.5761  -26.6381   21.5213 C   0  0  0  0  0  0
  -18.1945  -26.7934   22.1627 C   0  0  0  0  0  0
  -19.1563  -28.8877   23.2850 C   0  0  0  0  0  0
  -18.9478  -30.1472   23.8877 C   0  0  0  0  0  0
  -17.6474  -30.6590   24.0561 C   0  0  0  0  0  0
  -25.9070  -34.9409   23.5067 C   0  0  0  0  0  0
  -16.5365  -29.9084   23.6333 C   0  0  0  0  0  0
  -16.7291  -28.6502   23.0356 C   0  0  0  0  0  0
  -26.4522  -31.6566   25.0718 C   0  0  0  0  0  0
  -25.3706  -31.3751   26.1413 C   0  0  0  0  0  0
  -27.0392  -30.2964   24.6296 C   0  0  0  0  0  0
  -27.6050  -32.4336   25.7504 C   0  0  0  0  0  0
  -27.5567  -37.1802   24.8476 C   0  0  0  0  0  0
  -21.4261  -29.3047   22.3612 N   0  0  0  0  0  0
  -26.4298  -37.3739   23.9389 N   0  0  0  0  0  0
  -24.7172  -31.0303   22.0919 N   0  0  0  0  0  0
  -23.4210  -28.8096   23.3019 O   0  0  0  0  0  0
  -28.2805  -26.1615   20.1837 O   0  0  0  0  0  0
  -26.5657  -34.8902   22.4646 O   0  0  0  0  0  0
  -23.5544  -32.1323   23.7101 O   0  0  0  0  0  0
  -27.5486  -19.2676   20.5477 C   0  0  0  0  0  0
  -28.0175  -17.9178   20.6222 C   0  0  0  0  0  0
  -30.2618  -18.6787   20.4237 C   0  0  0  0  0  0
  -28.4009  -20.3952   20.4170 C   0  0  0  0  0  0
  -29.7818  -20.0824   20.3711 C   0  0  0  0  0  0
  -29.3834  -17.5146   20.5544 C   0  0  0  0  0  0
  -27.7997  -21.8814   20.3644 C   0  0  0  0  0  0
  -30.6860  -21.3385   20.2394 C   0  0  0  0  0  0
  -30.0884  -22.7605   20.6865 C   0  0  0  0  0  0
  -28.6939  -23.2035   20.1059 C   0  0  2  0  0  0
  -27.9988  -24.6798   20.5720 C   0  0  0  0  0  0
  -29.5993  -15.9980   20.7008 N   0  0  0  0  0  0
  -31.4873  -12.7588   19.1814 H   0  0  0  0  0  0
  -30.4665  -11.6126   20.0040 H   0  0  0  0  0  0
  -29.8440  -11.7490   17.5707 H   0  0  0  0  0  0
  -29.6161  -13.4742   17.7042 H   0  0  0  0  0  0
  -27.9500  -11.2748   18.9616 H   0  0  0  0  0  0
  -27.3973  -12.4683   17.8158 H   0  0  0  0  0  0
  -27.6150  -14.2470   19.4401 H   0  0  0  0  0  0
  -28.7656  -12.2198   21.4218 H   0  0  0  0  0  0
  -28.3799  -13.8775   21.7997 H   0  0  0  0  0  0
  -25.2767   -9.5668   22.4768 H   0  0  0  0  0  0
  -23.9996   -7.4625   22.7476 H   0  0  0  0  0  0
  -21.0844   -8.8780   19.8952 H   0  0  0  0  0  0
  -22.3711  -10.9673   19.6172 H   0  0  0  0  0  0
  -21.2007   -7.6146   23.9713 H   0  0  0  0  0  0
  -21.1478   -6.0521   25.9076 H   0  0  0  0  0  0
  -22.0599   -2.7607   23.2847 H   0  0  0  0  0  0
  -22.4080  -11.9863   22.4832 H   0  0  0  0  0  0
  -21.1080  -13.1223   22.2642 H   0  0  0  0  0  0
  -24.6208  -15.8191   20.4630 H   0  0  0  0  0  0
  -26.2037  -15.5960   19.9197 H   0  0  0  0  0  0
  -26.7268  -32.5315   23.1013 H   0  0  0  0  0  0
  -25.0065  -33.9620   25.0325 H   0  0  0  0  0  0
  -22.7493  -31.2879   21.3777 H   0  0  0  0  0  0
  -23.3740  -35.9612   23.3342 H   0  0  0  0  0  0
  -24.3563  -36.8857   22.2053 H   0  0  0  0  0  0
  -23.7272  -37.6479   23.6661 H   0  0  0  0  0  0
  -26.1565  -31.4728   20.6132 H   0  0  0  0  0  0
  -26.8735  -30.7731   22.0292 H   0  0  0  0  0  0
  -28.1388  -28.8093   21.2350 H   0  0  0  0  0  0
  -25.9476  -25.8546   18.9841 H   0  0  0  0  0  0
  -23.9907  -27.2978   18.9746 H   0  0  0  0  0  0
  -23.8117  -30.5627   19.3974 H   0  0  0  0  0  0
  -22.7903  -29.2305   19.8439 H   0  0  0  0  0  0
  -25.1321  -36.1879   25.0811 H   0  0  0  0  0  0
  -21.0010  -28.3312   24.1359 H   0  0  0  0  0  0
  -20.5685  -26.2335   23.3623 H   0  0  0  0  0  0
  -21.6656  -26.7432   22.1200 H   0  0  0  0  0  0
  -19.6923  -25.6287   21.1255 H   0  0  0  0  0  0
  -19.6693  -27.3180   20.6734 H   0  0  0  0  0  0
  -17.4211  -26.6675   21.4034 H   0  0  0  0  0  0
  -18.0346  -26.0082   22.9030 H   0  0  0  0  0  0
  -19.7953  -30.7296   24.2237 H   0  0  0  0  0  0
  -17.5025  -31.6266   24.5170 H   0  0  0  0  0  0
  -15.5364  -30.2979   23.7665 H   0  0  0  0  0  0
  -15.8692  -28.0810   22.7084 H   0  0  0  0  0  0
  -24.5885  -30.7102   25.7727 H   0  0  0  0  0  0
  -24.8895  -32.2932   26.4795 H   0  0  0  0  0  0
  -25.7985  -30.8946   27.0220 H   0  0  0  0  0  0
  -26.3012  -29.6683   24.1294 H   0  0  0  0  0  0
  -27.4001  -29.7266   25.4868 H   0  0  0  0  0  0
  -27.8920  -30.4205   23.9618 H   0  0  0  0  0  0
  -27.2639  -33.3650   26.2035 H   0  0  0  0  0  0
  -28.3885  -32.6875   25.0351 H   0  0  0  0  0  0
  -28.0695  -31.8496   26.5460 H   0  0  0  0  0  0
  -28.2628  -38.0053   24.7445 H   0  0  0  0  0  0
  -28.1019  -36.2579   24.6413 H   0  0  0  0  0  0
  -27.2268  -37.1583   25.8877 H   0  0  0  0  0  0
  -20.9475  -29.8758   21.6787 H   0  0  0  0  0  0
  -26.0172  -38.2821   24.1337 H   0  0  0  0  0  0
  -26.4820  -19.4352   20.6071 H   0  0  0  0  0  0
  -27.2625  -17.1562   20.7453 H   0  0  0  0  0  0
  -31.3278  -18.5044   20.3804 H   0  0  0  0  0  0
  -27.3104  -22.0188   21.3293 H   0  0  0  0  0  0
  -26.9846  -21.8785   19.6398 H   0  0  0  0  0  0
  -30.9862  -21.4034   19.1930 H   0  0  0  0  0  0
  -31.6045  -21.1525   20.7973 H   0  0  0  0  0  0
  -30.8231  -23.5340   20.4607 H   0  0  0  0  0  0
  -30.0034  -22.7546   21.7737 H   0  0  0  0  0  0
  -28.8279  -23.2656   19.0256 H   0  0  0  0  0  0
  -28.0516  -24.6868   21.6609 H   0  0  0  0  0  0
  -26.9383  -24.5220   20.3870 H   0  0  0  0  0  0
  -28.7342  -15.5582   20.9737 H   0  0  0  0  0  0
  1 25  1  0  0  0
  1 30  2  0  0  0
  1 82  1  0  0  0
  2  3  1  0  0  0
  2 25  1  0  0  0
  2 83  1  0  0  0
  2 84  1  0  0  0
  3  4  1  0  0  0
  3 85  1  0  0  0
  3 86  1  0  0  0
  4  5  1  0  0  0
  4 87  1  0  0  0
  4 88  1  0  0  0
  5  6  1  0  0  0
  5 26  1  0  0  0
  5 89  1  0  0  0
  6 25  1  0  0  0
  6 90  1  0  0  0
  6 91  1  0  0  0
  7  8  2  0  0  0
  7 26  1  0  0  0
  7 29  1  0  0  0
  8  9  1  0  0  0
  8 22  1  0  0  0
  9 10  1  0  0  0
  9 27  2  0  0  0
 10 11  2  0  0  0
 10 15  1  0  0  0
 11 12  1  0  0  0
 11 92  1  0  0  0
 12 13  2  0  0  0
 12 93  1  0  0  0
 13 14  1  0  0  0
 13 31  1  0  0  0
 14 15  2  0  0  0
 14 94  1  0  0  0
 15 95  1  0  0  0
 16 17  2  0  0  0
 16 21  1  0  0  0
 16 31  1  0  0  0
 17 18  1  0  0  0
 17 96  1  0  0  0
 18 19  2  0  0  0
 18 97  1  0  0  0
 19 20  1  0  0  0
 19 24  1  0  0  0
 20 21  2  0  0  0
 20 98  1  0  0  0
 21 23  1  0  0  0
 22 28  1  0  0  0
 22 32  2  0  0  0
 26 27  1  0  0  0
 28 99  1  0  0  0
 28100  1  0  0  0
 29101  1  0  0  0
 29102  1  0  0  0
 33 34  1  0  0  0
 33 66  1  0  0  0
 33 70  2  0  0  0
 34 36  1  0  0  0
 34 59  1  0  0  0
 34103  1  0  0  0
 35 44  2  0  0  0
 35 45  1  0  0  0
 35 68  1  0  0  0
 36 56  1  0  0  0
 36104  1  0  0  0
 37 39  1  0  0  0
 37 47  1  0  0  0
 37 66  1  0  0  0
 37105  1  0  0  0
 38 43  2  0  0  0
 38 46  1  0  0  0
 38 47  1  0  0  0
 39 64  1  0  0  0
 39 67  2  0  0  0
 40 52  1  0  0  0
 40 53  2  0  0  0
 40 58  1  0  0  0
 41106  1  0  0  0
 41107  1  0  0  0
 41108  1  0  0  0
 41 48  1  0  0  0
 42 43  1  0  0  0
 42 66  1  0  0  0
 42109  1  0  0  0
 42110  1  0  0  0
 43 44  1  0  0  0
 44111  1  0  0  0
 45 46  2  0  0  0
 45112  1  0  0  0
 46113  1  0  0  0
 47114  1  0  0  0
 47115  1  0  0  0
 48 56  1  0  0  0
 48 65  1  0  0  0
 48116  1  0  0  0
 49 50  1  0  0  0
 49 53  1  0  0  0
 49 64  1  0  0  0
 49117  1  0  0  0
 50 51  1  0  0  0
 50118  1  0  0  0
 50119  1  0  0  0
 51 52  1  0  0  0
 51120  1  0  0  0
 51121  1  0  0  0
 52122  1  0  0  0
 52123  1  0  0  0
 53 54  1  0  0  0
 54 55  2  0  0  0
 54124  1  0  0  0
 55 57  1  0  0  0
 55125  1  0  0  0
 56 69  2  0  0  0
 57 58  2  0  0  0
 57126  1  0  0  0
 58127  1  0  0  0
 59 60  1  0  0  0
 59 61  1  0  0  0
 59 62  1  0  0  0
 60128  1  0  0  0
 60129  1  0  0  0
 60130  1  0  0  0
 61131  1  0  0  0
 61132  1  0  0  0
 61133  1  0  0  0
 62134  1  0  0  0
 62135  1  0  0  0
 62136  1  0  0  0
 63 65  1  0  0  0
 63137  1  0  0  0
 63138  1  0  0  0
 63139  1  0  0  0
 64140  1  0  0  0
 65141  1  0  0  0
 68 81  1  0  0  0
 71 72  2  0  0  0
 71 74  1  0  0  0
 71142  1  0  0  0
 72 76  1  0  0  0
 72143  1  0  0  0
 73 75  1  0  0  0
 73 76  2  0  0  0
 73144  1  0  0  0
 74 75  2  0  0  0
 74 77  1  0  0  0
 75 78  1  0  0  0
 76 82  1  0  0  0
 77 80  1  0  0  0
 77145  1  0  0  0
 77146  1  0  0  0
 78 79  1  0  0  0
 78147  1  0  0  0
 78148  1  0  0  0
 79 80  1  0  0  0
 79149  1  0  0  0
 79150  1  0  0  0
 80 81  1  0  0  0
 80151  1  0  0  0
 81152  1  0  0  0
 81153  1  0  0  0
 82154  1  0  0  0
M  ISO  4   1 100  68 101  81 101  82 100
M  END
> <chiral flag>
0

> <version>
0

> <s_m_source_file>
/data/baiqing/PycharmProjects/Reinvent-master-3.2/result/LINK_invent/BTK/process_docking_weight1_custom_product_contain_oxygen_bond_distance_aromatic_linkinvent_7_9_3/rearranged_h_0129.sdf

> <i_m_source_file_index>
4

> <r_mmod_Potential_Energy-OPLS-2005>
497.254028320312

> <r_mmod_Stretch_Energy-OPLS-2005>
221.016662597656

> <r_mmod_Bend_Energy-OPLS-2005>
292.364196777344

> <r_mmod_Torsional_Energy-OPLS-2005>
236.766418457031

> <r_mmod_Improper_Torsional_Energy-OPLS-2005>
4.68629217147827

> <r_mmod_Van_der_Waal_Energy-OPLS-2005>
130.321441650391

> <r_mmod_Electrostatic_Energy-OPLS-2005>
-365.950592041016

> <r_mmod_Solvation_Energy-OPLS-2005>
-206.945999145508

> <b_mmod_Minimization_Converged-OPLS-2005>
0

> <r_mmod_RMS_Derivative-OPLS-2005>
0.394761621952057

$$$$
4
                    3D
 Structure written by MMmdl.
161170  0  0  1  0            999 V2000
  -30.6110  -14.7427   20.3492 C   0  0  0  0  0  0
  -30.4443  -12.4298   19.4633 C   0  0  0  0  0  0
  -29.5080  -12.4801   18.2332 C   0  0  0  0  0  0
  -28.0381  -12.2787   18.6577 C   0  0  0  0  0  0
  -27.6294  -13.1909   19.8410 C   0  0  2  0  0  0
  -28.6972  -13.1838   20.9625 C   0  0  0  0  0  0
  -25.2550  -13.8041   20.5787 C   0  0  0  0  0  0
  -24.1802  -13.0335   20.9264 C   0  0  0  0  0  0
  -24.6346  -11.6802   20.8830 C   0  0  0  0  0  0
  -23.9022  -10.4222   21.0470 C   0  0  0  0  0  0
  -24.3580   -9.4142   21.9236 C   0  0  0  0  0  0
  -23.6261   -8.2178   22.0776 C   0  0  0  0  0  0
  -22.4253   -8.0233   21.3555 C   0  0  0  0  0  0
  -21.9881   -9.0211   20.4665 C   0  0  0  0  0  0
  -22.7211  -10.2092   20.3095 C   0  0  0  0  0  0
  -21.6832   -6.0720   22.5283 C   0  0  0  0  0  0
  -21.4003   -6.5637   23.8216 C   0  0  0  0  0  0
  -21.3658   -5.6791   24.9185 C   0  0  0  0  0  0
  -21.6055   -4.3056   24.7247 C   0  0  0  0  0  0
  -21.8802   -3.8146   23.4366 C   0  0  0  0  0  0
  -21.9183   -4.6950   22.3421 C   0  0  0  0  0  0
  -22.7835  -13.5178   21.1888 C   0  0  0  0  0  0
  -22.1654   -4.2133   21.0993 F   0  0  0  0  0  0
  -21.5641   -3.4538   25.7762 F   0  0  0  0  0  0
  -30.0172  -13.4984   20.3860 N   0  0  0  0  0  0
  -26.2902  -12.9134   20.3367 N   0  0  0  0  0  0
  -25.9255  -11.6322   20.5835 N   0  0  0  0  0  0
  -22.0440  -12.8212   22.0440 N   0  0  0  0  0  0
  -25.4267  -15.1773   20.4208 N   0  0  0  0  0  0
  -31.8355  -14.8421   20.2513 O   0  0  0  0  0  0
  -21.6610   -6.8849   21.4248 O   0  0  0  0  0  0
  -22.3572  -14.5495   20.6728 O   0  0  0  0  0  0
  -24.6276  -31.8566   23.1984 C   0  0  0  0  0  0
  -25.9119  -32.4761   23.8336 C   0  0  1  0  0  0
  -27.2359  -27.3168   20.1245 C   0  0  0  0  0  0
  -25.5914  -33.8559   24.2263 N   0  0  0  0  0  0
  -23.4234  -30.4779   21.5395 C   0  0  2  0  0  0
  -24.8773  -28.9280   20.1116 C   0  0  0  0  0  0
  -22.7482  -29.4607   22.4907 C   0  0  0  0  0  0
  -18.0287  -28.1385   22.8481 C   0  0  0  0  0  0
  -24.1490  -36.7288   23.2640 C   0  0  0  0  0  0
  -25.9649  -30.7885   21.3703 C   0  0  0  0  0  0
  -26.0451  -29.4132   20.7160 C   0  0  0  0  0  0
  -27.2308  -28.6177   20.7157 C   0  0  0  0  0  0
  -26.0523  -26.8857   19.4902 C   0  0  0  0  0  0
  -24.8814  -27.6684   19.4909 C   0  0  0  0  0  0
  -23.6423  -29.8052   20.1582 C   0  0  0  0  0  0
  -25.4113  -36.3067   24.0329 C   0  0  1  0  0  0
  -20.5889  -28.3696   23.1267 C   0  0  2  0  0  0
  -20.6775  -26.9415   22.5410 C   0  0  0  0  0  0
  -19.5754  -26.6386   21.5205 C   0  0  0  0  0  0
  -18.1930  -26.7930   22.1620 C   0  0  0  0  0  0
  -19.1542  -28.8854   23.2870 C   0  0  0  0  0  0
  -18.9466  -30.1452   23.8892 C   0  0  0  0  0  0
  -17.6468  -30.6587   24.0560 C   0  0  0  0  0  0
  -25.9050  -34.9434   23.5098 C   0  0  0  0  0  0
  -16.5355  -29.9089   23.6324 C   0  0  0  0  0  0
  -16.7276  -28.6503   23.0350 C   0  0  0  0  0  0
  -26.4501  -31.6567   25.0706 C   0  0  0  0  0  0
  -25.3740  -31.3706   26.1436 C   0  0  0  0  0  0
  -27.0340  -30.2985   24.6162 C   0  0  0  0  0  0
  -27.6050  -32.4305   25.7486 C   0  0  0  0  0  0
  -27.5576  -37.1796   24.8465 C   0  0  0  0  0  0
  -21.4193  -29.3038   22.3656 N   0  0  0  0  0  0
  -26.4288  -37.3767   23.9410 N   0  0  0  0  0  0
  -24.6903  -31.0588   22.0925 N   0  0  0  0  0  0
  -23.4195  -28.8147   23.2995 O   0  0  0  0  0  0
  -28.3105  -26.4144   20.1751 O   0  0  0  0  0  0
  -26.5627  -34.8909   22.4669 O   0  0  0  0  0  0
  -23.5435  -32.1352   23.7310 O   0  0  0  0  0  0
  -30.6099  -21.2277   21.3201 C   0  0  0  0  0  0
  -31.3674  -20.1035   21.7284 C   0  0  0  0  0  0
  -29.2159  -19.7242   20.0526 C   0  0  0  0  0  0
  -29.9593  -18.5475   20.4546 C   0  0  0  0  0  0
  -29.4759  -21.0764   20.4953 C   0  0  0  0  0  0
  -31.0424  -18.7775   21.3374 C   0  0  0  0  0  0
  -27.1007  -21.8738   20.4323 C   0  0  0  0  0  0
  -29.4993  -17.1968   19.8995 C   0  0  0  0  0  0
  -29.6945  -15.8218   19.8546 C   0  0  0  0  0  0
  -26.6951  -22.3412   21.8070 C   0  0  0  0  0  0
  -27.9264  -23.1408   22.2612 C   0  0  0  0  0  0
  -28.5377  -22.3208   20.1290 C   0  0  1  0  0  0
  -28.6368  -23.7174   20.9877 C   0  0  1  0  0  0
  -31.8637  -17.6308   21.8929 C   0  0  0  0  0  0
  -28.0768  -25.2565   21.0690 C   0  0  0  0  0  0
  -26.3706  -21.2428   19.6646 O   0  0  0  0  0  0
  -31.4832  -12.5527   19.1529 H   0  0  0  0  0  0
  -30.3850  -11.4580   19.9572 H   0  0  0  0  0  0
  -29.7923  -11.7084   17.5163 H   0  0  0  0  0  0
  -29.6183  -13.4352   17.7158 H   0  0  0  0  0  0
  -27.9181  -11.2341   18.9499 H   0  0  0  0  0  0
  -27.3699  -12.4393   17.8109 H   0  0  0  0  0  0
  -27.5381  -14.1763   19.4114 H   0  0  0  0  0  0
  -28.7321  -12.2107   21.4543 H   0  0  0  0  0  0
  -28.4421  -13.9076   21.7359 H   0  0  0  0  0  0
  -25.2690   -9.5629   22.4856 H   0  0  0  0  0  0
  -23.9951   -7.4563   22.7473 H   0  0  0  0  0  0
  -21.0813   -8.8740   19.8963 H   0  0  0  0  0  0
  -22.3661  -10.9657   19.6237 H   0  0  0  0  0  0
  -21.1981   -7.6138   23.9725 H   0  0  0  0  0  0
  -21.1507   -6.0529   25.9099 H   0  0  0  0  0  0
  -22.0589   -2.7601   23.2878 H   0  0  0  0  0  0
  -22.3971  -11.9854   22.4852 H   0  0  0  0  0  0
  -21.1089  -13.1345   22.2608 H   0  0  0  0  0  0
  -24.6684  -15.8393   20.5499 H   0  0  0  0  0  0
  -26.2893  -15.6213   20.1274 H   0  0  0  0  0  0
  -26.7187  -32.5438   23.1087 H   0  0  0  0  0  0
  -25.0049  -33.9705   25.0398 H   0  0  0  0  0  0
  -22.7187  -31.2979   21.3898 H   0  0  0  0  0  0
  -23.3743  -35.9630   23.3302 H   0  0  0  0  0  0
  -24.3576  -36.8911   22.2054 H   0  0  0  0  0  0
  -23.7261  -37.6496   23.6664 H   0  0  0  0  0  0
  -26.0958  -31.5512   20.6014 H   0  0  0  0  0  0
  -26.8441  -30.8416   21.9994 H   0  0  0  0  0  0
  -28.1240  -28.9790   21.2053 H   0  0  0  0  0  0
  -26.0267  -25.9129   19.0192 H   0  0  0  0  0  0
  -23.9862  -27.2876   19.0204 H   0  0  0  0  0  0
  -23.7593  -30.5765   19.3963 H   0  0  0  0  0  0
  -22.7646  -29.2299   19.8569 H   0  0  0  0  0  0
  -25.1293  -36.1911   25.0823 H   0  0  0  0  0  0
  -20.9985  -28.3280   24.1384 H   0  0  0  0  0  0
  -20.5653  -26.2306   23.3614 H   0  0  0  0  0  0
  -21.6647  -26.7426   22.1212 H   0  0  0  0  0  0
  -19.6920  -25.6291   21.1238 H   0  0  0  0  0  0
  -19.6698  -27.3187   20.6726 H   0  0  0  0  0  0
  -17.4200  -26.6656   21.4026 H   0  0  0  0  0  0
  -18.0350  -26.0071   22.9018 H   0  0  0  0  0  0
  -19.7942  -30.7266   24.2263 H   0  0  0  0  0  0
  -17.5024  -31.6269   24.5165 H   0  0  0  0  0  0
  -15.5356  -30.2997   23.7656 H   0  0  0  0  0  0
  -15.8668  -28.0826   22.7077 H   0  0  0  0  0  0
  -24.5935  -30.7026   25.7777 H   0  0  0  0  0  0
  -24.8911  -32.2868   26.4841 H   0  0  0  0  0  0
  -25.8085  -30.8914   27.0217 H   0  0  0  0  0  0
  -26.2912  -29.6738   24.1188 H   0  0  0  0  0  0
  -27.4031  -29.7246   25.4672 H   0  0  0  0  0  0
  -27.8783  -30.4259   23.9386 H   0  0  0  0  0  0
  -27.2654  -33.3615   26.2036 H   0  0  0  0  0  0
  -28.3883  -32.6844   25.0331 H   0  0  0  0  0  0
  -28.0684  -31.8439   26.5430 H   0  0  0  0  0  0
  -28.2589  -38.0096   24.7501 H   0  0  0  0  0  0
  -28.1076  -36.2624   24.6296 H   0  0  0  0  0  0
  -27.2290  -37.1447   25.8868 H   0  0  0  0  0  0
  -20.9372  -29.8758   21.6856 H   0  0  0  0  0  0
  -26.0162  -38.2838   24.1412 H   0  0  0  0  0  0
  -30.8927  -22.2112   21.6731 H   0  0  0  0  0  0
  -32.2116  -20.2723   22.3835 H   0  0  0  0  0  0
  -28.3818  -19.5797   19.3811 H   0  0  0  0  0  0
  -28.6570  -17.4032   19.2543 H   0  0  0  0  0  0
  -28.9975  -15.4209   19.1493 H   0  0  0  0  0  0
  -26.4753  -21.5033   22.4671 H   0  0  0  0  0  0
  -25.8129  -22.9747   21.7215 H   0  0  0  0  0  0
  -28.6103  -22.4812   22.7953 H   0  0  0  0  0  0
  -27.6350  -23.8825   23.0080 H   0  0  0  0  0  0
  -28.6473  -22.4989   19.0564 H   0  0  0  0  0  0
  -28.0502  -23.9932   20.1085 H   0  0  0  0  0  0
  -31.2141  -16.8268   22.2385 H   0  0  0  0  0  0
  -32.4600  -17.9486   22.7478 H   0  0  0  0  0  0
  -32.5431  -17.2379   21.1366 H   0  0  0  0  0  0
  -28.5020  -25.6441   21.9972 H   0  0  0  0  0  0
  -27.0037  -25.2209   21.2903 H   0  0  0  0  0  0
  1 25  1  0  0  0
  1 30  2  0  0  0
  1 79  1  0  0  0
  2  3  1  0  0  0
  2 25  1  0  0  0
  2 87  1  0  0  0
  2 88  1  0  0  0
  3  4  1  0  0  0
  3 89  1  0  0  0
  3 90  1  0  0  0
  4  5  1  0  0  0
  4 91  1  0  0  0
  4 92  1  0  0  0
  5  6  1  0  0  0
  5 26  1  0  0  0
  5 93  1  0  0  0
  6 25  1  0  0  0
  6 94  1  0  0  0
  6 95  1  0  0  0
  7  8  2  0  0  0
  7 26  1  0  0  0
  7 29  1  0  0  0
  8  9  1  0  0  0
  8 22  1  0  0  0
  9 10  1  0  0  0
  9 27  2  0  0  0
 10 11  2  0  0  0
 10 15  1  0  0  0
 11 12  1  0  0  0
 11 96  1  0  0  0
 12 13  2  0  0  0
 12 97  1  0  0  0
 13 14  1  0  0  0
 13 31  1  0  0  0
 14 15  2  0  0  0
 14 98  1  0  0  0
 15 99  1  0  0  0
 16 17  2  0  0  0
 16 21  1  0  0  0
 16 31  1  0  0  0
 17 18  1  0  0  0
 17100  1  0  0  0
 18 19  2  0  0  0
 18101  1  0  0  0
 19 20  1  0  0  0
 19 24  1  0  0  0
 20 21  2  0  0  0
 20102  1  0  0  0
 21 23  1  0  0  0
 22 28  1  0  0  0
 22 32  2  0  0  0
 26 27  1  0  0  0
 28103  1  0  0  0
 28104  1  0  0  0
 29105  1  0  0  0
 29106  1  0  0  0
 33 34  1  0  0  0
 33 66  1  0  0  0
 33 70  2  0  0  0
 34 36  1  0  0  0
 34 59  1  0  0  0
 34107  1  0  0  0
 35 44  2  0  0  0
 35 45  1  0  0  0
 35 68  1  0  0  0
 36 56  1  0  0  0
 36108  1  0  0  0
 37 39  1  0  0  0
 37 47  1  0  0  0
 37 66  1  0  0  0
 37109  1  0  0  0
 38 43  2  0  0  0
 38 46  1  0  0  0
 38 47  1  0  0  0
 39 64  1  0  0  0
 39 67  2  0  0  0
 40 52  1  0  0  0
 40 53  2  0  0  0
 40 58  1  0  0  0
 41110  1  0  0  0
 41111  1  0  0  0
 41112  1  0  0  0
 41 48  1  0  0  0
 42 43  1  0  0  0
 42 66  1  0  0  0
 42113  1  0  0  0
 42114  1  0  0  0
 43 44  1  0  0  0
 44115  1  0  0  0
 45 46  2  0  0  0
 45116  1  0  0  0
 46117  1  0  0  0
 47118  1  0  0  0
 47119  1  0  0  0
 48 56  1  0  0  0
 48 65  1  0  0  0
 48120  1  0  0  0
 49 50  1  0  0  0
 49 53  1  0  0  0
 49 64  1  0  0  0
 49121  1  0  0  0
 50 51  1  0  0  0
 50122  1  0  0  0
 50123  1  0  0  0
 51 52  1  0  0  0
 51124  1  0  0  0
 51125  1  0  0  0
 52126  1  0  0  0
 52127  1  0  0  0
 53 54  1  0  0  0
 54 55  2  0  0  0
 54128  1  0  0  0
 55 57  1  0  0  0
 55129  1  0  0  0
 56 69  2  0  0  0
 57 58  2  0  0  0
 57130  1  0  0  0
 58131  1  0  0  0
 59 60  1  0  0  0
 59 61  1  0  0  0
 59 62  1  0  0  0
 60132  1  0  0  0
 60133  1  0  0  0
 60134  1  0  0  0
 61135  1  0  0  0
 61136  1  0  0  0
 61137  1  0  0  0
 62138  1  0  0  0
 62139  1  0  0  0
 62140  1  0  0  0
 63 65  1  0  0  0
 63141  1  0  0  0
 63142  1  0  0  0
 63143  1  0  0  0
 64144  1  0  0  0
 65145  1  0  0  0
 68 85  1  0  0  0
 71 72  2  0  0  0
 71 75  1  0  0  0
 71146  1  0  0  0
 72 76  1  0  0  0
 72147  1  0  0  0
 73 74  1  0  0  0
 73 75  2  0  0  0
 73148  1  0  0  0
 74 76  2  0  0  0
 74 78  1  0  0  0
 75 82  1  0  0  0
 76 84  1  0  0  0
 77 80  1  0  0  0
 77 82  1  0  0  0
 77 86  2  0  0  0
 78 79  2  0  0  0
 78149  1  0  0  0
 79150  1  0  0  0
 80 81  1  0  0  0
 80151  1  0  0  0
 80152  1  0  0  0
 81 83  1  0  0  0
 81153  1  0  0  0
 81154  1  0  0  0
 82 83  1  0  0  0
 82155  1  0  0  0
 83 85  1  0  0  0
 83156  1  0  0  0
 84157  1  0  0  0
 84158  1  0  0  0
 84159  1  0  0  0
 85160  1  0  0  0
 85161  1  0  0  0
M  ISO  4   1 100  68 101  79 100  85 101
M  END
> <chiral flag>
0

> <version>
0

> <s_m_source_file>
/data/baiqing/PycharmProjects/Reinvent-master-3.2/result/LINK_invent/BTK/process_docking_weight1_custom_product_contain_oxygen_bond_distance_aromatic_linkinvent_7_9_3/rearranged_h_0129.sdf

> <i_m_source_file_index>
5

> <r_mmod_Potential_Energy-OPLS-2005>
655.280944824219

> <r_mmod_Stretch_Energy-OPLS-2005>
116.050750732422

> <r_mmod_Bend_Energy-OPLS-2005>
542.220642089844

> <r_mmod_Torsional_Energy-OPLS-2005>
254.018127441406

> <r_mmod_Improper_Torsional_Energy-OPLS-2005>
19.1851978302002

> <r_mmod_Van_der_Waal_Energy-OPLS-2005>
167.938674926758

> <r_mmod_Electrostatic_Energy-OPLS-2005>
-323.565979003906

> <r_mmod_Solvation_Energy-OPLS-2005>
-205.489807128906

> <b_mmod_Minimization_Converged-OPLS-2005>
0

> <r_mmod_RMS_Derivative-OPLS-2005>
2.71511602401733

$$$$
5
                    3D
 Structure written by MMmdl.
150158  0  0  1  0            999 V2000
  -30.5964  -14.5843   20.5654 C   0  0  0  0  0  0
  -30.4675  -12.3737   19.4281 C   0  0  0  0  0  0
  -29.5288  -12.5218   18.2065 C   0  0  0  0  0  0
  -28.0377  -12.4022   18.6067 C   0  0  0  0  0  0
  -27.6721  -13.2104   19.8827 C   0  0  2  0  0  0
  -28.7147  -12.9365   20.9836 C   0  0  0  0  0  0
  -25.2649  -13.8164   20.5723 C   0  0  0  0  0  0
  -24.1892  -13.0429   20.9183 C   0  0  0  0  0  0
  -24.6408  -11.6887   20.8692 C   0  0  0  0  0  0
  -23.9071  -10.4291   21.0381 C   0  0  0  0  0  0
  -24.3631   -9.4181   21.9132 C   0  0  0  0  0  0
  -23.6312   -8.2216   22.0715 C   0  0  0  0  0  0
  -22.4278   -8.0259   21.3528 C   0  0  0  0  0  0
  -21.9903   -9.0250   20.4663 C   0  0  0  0  0  0
  -22.7224  -10.2127   20.3045 C   0  0  0  0  0  0
  -21.6861   -6.0740   22.5251 C   0  0  0  0  0  0
  -21.4019   -6.5618   23.8202 C   0  0  0  0  0  0
  -21.3683   -5.6752   24.9155 C   0  0  0  0  0  0
  -21.6066   -4.3026   24.7222 C   0  0  0  0  0  0
  -21.8819   -3.8135   23.4348 C   0  0  0  0  0  0
  -21.9165   -4.6949   22.3386 C   0  0  0  0  0  0
  -22.7888  -13.5243   21.1785 C   0  0  0  0  0  0
  -22.1638   -4.2140   21.0970 F   0  0  0  0  0  0
  -21.5632   -3.4495   25.7732 F   0  0  0  0  0  0
  -30.0244  -13.3433   20.4506 N   0  0  0  0  0  0
  -26.3085  -12.9330   20.3376 N   0  0  0  0  0  0
  -25.9358  -11.6482   20.5726 N   0  0  0  0  0  0
  -22.0487  -12.8353   22.0413 N   0  0  0  0  0  0
  -25.4344  -15.1887   20.4221 N   0  0  0  0  0  0
  -31.7294  -14.7979   20.1138 O   0  0  0  0  0  0
  -21.6637   -6.8862   21.4208 O   0  0  0  0  0  0
  -22.3555  -14.5490   20.6513 O   0  0  0  0  0  0
  -24.6177  -31.8643   23.2025 C   0  0  0  0  0  0
  -25.9057  -32.4797   23.8350 C   0  0  1  0  0  0
  -27.1990  -27.3516   20.1347 C   0  0  0  0  0  0
  -25.5908  -33.8593   24.2294 N   0  0  0  0  0  0
  -23.4099  -30.4898   21.5423 C   0  0  2  0  0  0
  -24.8570  -28.9633   20.0975 C   0  0  0  0  0  0
  -22.7424  -29.4612   22.4871 C   0  0  0  0  0  0
  -18.0252  -28.1369   22.8442 C   0  0  0  0  0  0
  -24.1500  -36.7312   23.2626 C   0  0  0  0  0  0
  -25.9476  -30.8143   21.3643 C   0  0  0  0  0  0
  -26.0187  -29.4446   20.7108 C   0  0  0  0  0  0
  -27.1974  -28.6481   20.7231 C   0  0  0  0  0  0
  -26.0260  -26.9334   19.4635 C   0  0  0  0  0  0
  -24.8586  -27.7150   19.4621 C   0  0  0  0  0  0
  -23.6217  -29.8348   20.1518 C   0  0  0  0  0  0
  -25.4108  -36.3076   24.0313 C   0  0  1  0  0  0
  -20.5861  -28.3660   23.1266 C   0  0  2  0  0  0
  -20.6762  -26.9367   22.5404 C   0  0  0  0  0  0
  -19.5759  -26.6341   21.5193 C   0  0  0  0  0  0
  -18.1923  -26.7907   22.1582 C   0  0  0  0  0  0
  -19.1514  -28.8820   23.2865 C   0  0  0  0  0  0
  -18.9439  -30.1425   23.8875 C   0  0  0  0  0  0
  -17.6456  -30.6578   24.0528 C   0  0  0  0  0  0
  -25.9041  -34.9460   23.5090 C   0  0  0  0  0  0
  -16.5335  -29.9081   23.6304 C   0  0  0  0  0  0
  -16.7252  -28.6500   23.0313 C   0  0  0  0  0  0
  -26.4496  -31.6577   25.0691 C   0  0  0  0  0  0
  -25.3776  -31.3708   26.1452 C   0  0  0  0  0  0
  -27.0327  -30.3005   24.6086 C   0  0  0  0  0  0
  -27.6041  -32.4308   25.7471 C   0  0  0  0  0  0
  -27.5584  -37.1763   24.8421 C   0  0  0  0  0  0
  -21.4160  -29.3036   22.3668 N   0  0  0  0  0  0
  -26.4273  -37.3773   23.9412 N   0  0  0  0  0  0
  -24.6774  -31.0727   22.0917 N   0  0  0  0  0  0
  -23.4204  -28.8140   23.2923 O   0  0  0  0  0  0
  -28.2846  -26.4868   20.2562 O   0  0  0  0  0  0
  -26.5586  -34.8910   22.4649 O   0  0  0  0  0  0
  -23.5355  -32.1399   23.7362 O   0  0  0  0  0  0
  -28.1410  -18.0313   22.5449 C   0  0  0  0  0  0
  -27.7899  -19.3835   22.8237 C   0  0  0  0  0  0
  -29.0589  -18.0554   21.5283 C   0  0  0  0  0  0
  -28.5006  -20.1907   21.9775 C   0  0  0  0  0  0
  -29.8202  -16.9791   20.9058 C   0  0  0  0  0  0
  -28.5614  -21.6512   21.9296 C   0  0  0  0  0  0
  -29.7457  -15.6415   21.1760 C   0  0  0  0  0  0
  -28.7351  -22.5854   20.9568 C   0  0  0  0  0  0
  -28.8614  -24.1245   21.1720 C   0  0  0  0  0  0
  -27.9711  -25.0496   20.2698 C   0  0  0  0  0  0
  -29.2514  -19.3810   21.1392 O   0  0  0  0  0  0
  -31.5107  -12.5176   19.1402 H   0  0  0  0  0  0
  -30.4308  -11.3580   19.8242 H   0  0  0  0  0  0
  -29.7683  -11.7680   17.4558 H   0  0  0  0  0  0
  -29.7068  -13.4865   17.7254 H   0  0  0  0  0  0
  -27.8254  -11.3460   18.7767 H   0  0  0  0  0  0
  -27.4074  -12.7126   17.7720 H   0  0  0  0  0  0
  -27.7291  -14.2701   19.6287 H   0  0  0  0  0  0
  -28.7341  -11.8706   21.2160 H   0  0  0  0  0  0
  -28.4651  -13.4043   21.9315 H   0  0  0  0  0  0
  -25.2785   -9.5649   22.4674 H   0  0  0  0  0  0
  -24.0004   -7.4627   22.7441 H   0  0  0  0  0  0
  -21.0786   -8.8802   19.9056 H   0  0  0  0  0  0
  -22.3640  -10.9668   19.6171 H   0  0  0  0  0  0
  -21.2031   -7.6119   23.9704 H   0  0  0  0  0  0
  -21.1495   -6.0480   25.9047 H   0  0  0  0  0  0
  -22.0596   -2.7595   23.2820 H   0  0  0  0  0  0
  -22.4109  -12.0129   22.5006 H   0  0  0  0  0  0
  -21.1097  -13.1409   22.2537 H   0  0  0  0  0  0
  -24.6791  -15.8530   20.5603 H   0  0  0  0  0  0
  -26.2924  -15.6293   20.1101 H   0  0  0  0  0  0
  -26.7128  -32.5500   23.1115 H   0  0  0  0  0  0
  -25.0093  -33.9756   25.0460 H   0  0  0  0  0  0
  -22.6980  -31.3065   21.4040 H   0  0  0  0  0  0
  -23.3753  -35.9645   23.3219 H   0  0  0  0  0  0
  -24.3638  -36.9010   22.2060 H   0  0  0  0  0  0
  -23.7266  -37.6487   23.6724 H   0  0  0  0  0  0
  -26.0694  -31.5748   20.5914 H   0  0  0  0  0  0
  -26.8323  -30.8717   21.9850 H   0  0  0  0  0  0
  -28.0888  -28.9977   21.2244 H   0  0  0  0  0  0
  -25.9759  -25.9825   18.9553 H   0  0  0  0  0  0
  -23.9711  -27.3451   18.9719 H   0  0  0  0  0  0
  -23.7338  -30.6167   19.3986 H   0  0  0  0  0  0
  -22.7467  -29.2594   19.8468 H   0  0  0  0  0  0
  -25.1277  -36.1913   25.0797 H   0  0  0  0  0  0
  -20.9967  -28.3279   24.1389 H   0  0  0  0  0  0
  -20.5641  -26.2273   23.3621 H   0  0  0  0  0  0
  -21.6646  -26.7394   22.1234 H   0  0  0  0  0  0
  -19.6930  -25.6251   21.1232 H   0  0  0  0  0  0
  -19.6746  -27.3136   20.6725 H   0  0  0  0  0  0
  -17.4202  -26.6600   21.3980 H   0  0  0  0  0  0
  -18.0327  -26.0082   22.9014 H   0  0  0  0  0  0
  -19.7934  -30.7193   24.2278 H   0  0  0  0  0  0
  -17.5022  -31.6258   24.5131 H   0  0  0  0  0  0
  -15.5337  -30.2975   23.7642 H   0  0  0  0  0  0
  -15.8647  -28.0815   22.7042 H   0  0  0  0  0  0
  -24.5931  -30.7076   25.7813 H   0  0  0  0  0  0
  -24.9012  -32.2888   26.4898 H   0  0  0  0  0  0
  -25.8145  -30.8884   27.0208 H   0  0  0  0  0  0
  -26.2871  -29.6745   24.1174 H   0  0  0  0  0  0
  -27.4131  -29.7265   25.4548 H   0  0  0  0  0  0
  -27.8704  -30.4293   23.9224 H   0  0  0  0  0  0
  -27.2628  -33.3587   26.2070 H   0  0  0  0  0  0
  -28.3856  -32.6893   25.0319 H   0  0  0  0  0  0
  -28.0730  -31.8439   26.5379 H   0  0  0  0  0  0
  -28.2478  -38.0172   24.7563 H   0  0  0  0  0  0
  -28.1191  -36.2690   24.6100 H   0  0  0  0  0  0
  -27.2321  -37.1227   25.8823 H   0  0  0  0  0  0
  -20.9279  -29.8856   21.6988 H   0  0  0  0  0  0
  -26.0131  -38.2804   24.1543 H   0  0  0  0  0  0
  -27.7888  -17.1505   23.0664 H   0  0  0  0  0  0
  -27.1098  -19.7272   23.5919 H   0  0  0  0  0  0
  -30.5299  -17.3077   20.1598 H   0  0  0  0  0  0
  -28.4770  -22.0631   22.9240 H   0  0  0  0  0  0
  -29.0097  -15.3659   21.9106 H   0  0  0  0  0  0
  -28.8139  -22.2402   19.9373 H   0  0  0  0  0  0
  -29.9054  -24.3748   20.9860 H   0  0  0  0  0  0
  -28.6681  -24.3671   22.2234 H   0  0  0  0  0  0
  -26.9530  -24.8821   20.6259 H   0  0  0  0  0  0
  -27.9920  -24.6963   19.2375 H   0  0  0  0  0  0
  1 25  1  0  0  0
  1 30  2  0  0  0
  1 77  1  0  0  0
  2  3  1  0  0  0
  2 25  1  0  0  0
  2 82  1  0  0  0
  2 83  1  0  0  0
  3  4  1  0  0  0
  3 84  1  0  0  0
  3 85  1  0  0  0
  4  5  1  0  0  0
  4 86  1  0  0  0
  4 87  1  0  0  0
  5  6  1  0  0  0
  5 26  1  0  0  0
  5 88  1  0  0  0
  6 25  1  0  0  0
  6 89  1  0  0  0
  6 90  1  0  0  0
  7  8  2  0  0  0
  7 26  1  0  0  0
  7 29  1  0  0  0
  8  9  1  0  0  0
  8 22  1  0  0  0
  9 10  1  0  0  0
  9 27  2  0  0  0
 10 11  2  0  0  0
 10 15  1  0  0  0
 11 12  1  0  0  0
 11 91  1  0  0  0
 12 13  2  0  0  0
 12 92  1  0  0  0
 13 14  1  0  0  0
 13 31  1  0  0  0
 14 15  2  0  0  0
 14 93  1  0  0  0
 15 94  1  0  0  0
 16 17  2  0  0  0
 16 21  1  0  0  0
 16 31  1  0  0  0
 17 18  1  0  0  0
 17 95  1  0  0  0
 18 19  2  0  0  0
 18 96  1  0  0  0
 19 20  1  0  0  0
 19 24  1  0  0  0
 20 21  2  0  0  0
 20 97  1  0  0  0
 21 23  1  0  0  0
 22 28  1  0  0  0
 22 32  2  0  0  0
 26 27  1  0  0  0
 28 98  1  0  0  0
 28 99  1  0  0  0
 29100  1  0  0  0
 29101  1  0  0  0
 33 34  1  0  0  0
 33 66  1  0  0  0
 33 70  2  0  0  0
 34 36  1  0  0  0
 34 59  1  0  0  0
 34102  1  0  0  0
 35 44  2  0  0  0
 35 45  1  0  0  0
 35 68  1  0  0  0
 36 56  1  0  0  0
 36103  1  0  0  0
 37 39  1  0  0  0
 37 47  1  0  0  0
 37 66  1  0  0  0
 37104  1  0  0  0
 38 43  2  0  0  0
 38 46  1  0  0  0
 38 47  1  0  0  0
 39 64  1  0  0  0
 39 67  2  0  0  0
 40 52  1  0  0  0
 40 53  2  0  0  0
 40 58  1  0  0  0
 41105  1  0  0  0
 41106  1  0  0  0
 41107  1  0  0  0
 41 48  1  0  0  0
 42 43  1  0  0  0
 42 66  1  0  0  0
 42108  1  0  0  0
 42109  1  0  0  0
 43 44  1  0  0  0
 44110  1  0  0  0
 45 46  2  0  0  0
 45111  1  0  0  0
 46112  1  0  0  0
 47113  1  0  0  0
 47114  1  0  0  0
 48 56  1  0  0  0
 48 65  1  0  0  0
 48115  1  0  0  0
 49 50  1  0  0  0
 49 53  1  0  0  0
 49 64  1  0  0  0
 49116  1  0  0  0
 50 51  1  0  0  0
 50117  1  0  0  0
 50118  1  0  0  0
 51 52  1  0  0  0
 51119  1  0  0  0
 51120  1  0  0  0
 52121  1  0  0  0
 52122  1  0  0  0
 53 54  1  0  0  0
 54 55  2  0  0  0
 54123  1  0  0  0
 55 57  1  0  0  0
 55124  1  0  0  0
 56 69  2  0  0  0
 57 58  2  0  0  0
 57125  1  0  0  0
 58126  1  0  0  0
 59 60  1  0  0  0
 59 61  1  0  0  0
 59 62  1  0  0  0
 60127  1  0  0  0
 60128  1  0  0  0
 60129  1  0  0  0
 61130  1  0  0  0
 61131  1  0  0  0
 61132  1  0  0  0
 62133  1  0  0  0
 62134  1  0  0  0
 62135  1  0  0  0
 63 65  1  0  0  0
 63136  1  0  0  0
 63137  1  0  0  0
 63138  1  0  0  0
 64139  1  0  0  0
 65140  1  0  0  0
 68 80  1  0  0  0
 71 72  1  0  0  0
 71 73  2  0  0  0
 71141  1  0  0  0
 72 74  2  0  0  0
 72142  1  0  0  0
 73 75  1  0  0  0
 73 81  1  0  0  0
 74 76  1  0  0  0
 74 81  1  0  0  0
 75 77  2  0  0  0
 75143  1  0  0  0
 76 78  2  0  0  0
 76144  1  0  0  0
 77145  1  0  0  0
 78 79  1  0  0  0
 78146  1  0  0  0
 79 80  1  0  0  0
 79147  1  0  0  0
 79148  1  0  0  0
 80149  1  0  0  0
 80150  1  0  0  0
M  ISO  4   1 100  68 101  77 100  80 101
M  END
> <chiral flag>
0

> <version>
0

> <s_m_source_file>
/data/baiqing/PycharmProjects/Reinvent-master-3.2/result/LINK_invent/BTK/process_docking_weight1_custom_product_contain_oxygen_bond_distance_aromatic_linkinvent_7_9_3/rearranged_h_0129.sdf

> <i_m_source_file_index>
6

> <r_mmod_Potential_Energy-OPLS-2005>
7.96636056900024

> <r_mmod_Stretch_Energy-OPLS-2005>
58.8125839233398

> <r_mmod_Bend_Energy-OPLS-2005>
116.861442565918

> <r_mmod_Torsional_Energy-OPLS-2005>
191.807647705078

> <r_mmod_Improper_Torsional_Energy-OPLS-2005>
2.9294056892395

> <r_mmod_Van_der_Waal_Energy-OPLS-2005>
132.886688232422

> <r_mmod_Electrostatic_Energy-OPLS-2005>
-339.716949462891

> <r_mmod_Solvation_Energy-OPLS-2005>
-197.038177490234

> <b_mmod_Minimization_Converged-OPLS-2005>
0

> <r_mmod_RMS_Derivative-OPLS-2005>
6.36392784118652

$$$$
6
                    3D
 Structure written by MMmdl.
158166  0  0  1  0            999 V2000
  -30.7025  -14.4992   20.4612 C   0  0  0  0  0  0
  -30.4241  -12.2886   19.4469 C   0  0  0  0  0  0
  -29.5022  -12.4631   18.2205 C   0  0  0  0  0  0
  -28.0212  -12.3280   18.6294 C   0  0  0  0  0  0
  -27.6564  -13.1963   19.8625 C   0  0  2  0  0  0
  -28.7037  -13.0317   20.9882 C   0  0  0  0  0  0
  -25.2605  -13.8122   20.5806 C   0  0  0  0  0  0
  -24.1820  -13.0405   20.9192 C   0  0  0  0  0  0
  -24.6359  -11.6885   20.8721 C   0  0  0  0  0  0
  -23.9026  -10.4281   21.0382 C   0  0  0  0  0  0
  -24.3590   -9.4215   21.9169 C   0  0  0  0  0  0
  -23.6278   -8.2249   22.0750 C   0  0  0  0  0  0
  -22.4257   -8.0286   21.3546 C   0  0  0  0  0  0
  -21.9879   -9.0252   20.4642 C   0  0  0  0  0  0
  -22.7197  -10.2129   20.3037 C   0  0  0  0  0  0
  -21.6849   -6.0733   22.5277 C   0  0  0  0  0  0
  -21.4020   -6.5634   23.8213 C   0  0  0  0  0  0
  -21.3638   -5.6781   24.9171 C   0  0  0  0  0  0
  -21.6038   -4.3047   24.7218 C   0  0  0  0  0  0
  -21.8826   -3.8146   23.4338 C   0  0  0  0  0  0
  -21.9198   -4.6964   22.3395 C   0  0  0  0  0  0
  -22.7847  -13.5235   21.1841 C   0  0  0  0  0  0
  -22.1679   -4.2153   21.0971 F   0  0  0  0  0  0
  -21.5616   -3.4526   25.7726 F   0  0  0  0  0  0
  -30.0378  -13.3096   20.4309 N   0  0  0  0  0  0
  -26.3004  -12.9279   20.3347 N   0  0  0  0  0  0
  -25.9278  -11.6451   20.5715 N   0  0  0  0  0  0
  -22.0477  -12.8238   22.0387 N   0  0  0  0  0  0
  -25.4328  -15.1852   20.4513 N   0  0  0  0  0  0
  -31.8995  -14.5849   20.1751 O   0  0  0  0  0  0
  -21.6636   -6.8882   21.4245 O   0  0  0  0  0  0
  -22.3541  -14.5551   20.6702 O   0  0  0  0  0  0
  -24.6155  -31.8697   23.2133 C   0  0  0  0  0  0
  -25.9065  -32.4820   23.8403 C   0  0  1  0  0  0
  -27.2285  -27.4412   20.0787 C   0  0  0  0  0  0
  -25.5945  -33.8612   24.2348 N   0  0  0  0  0  0
  -23.3996  -30.4994   21.5538 C   0  0  2  0  0  0
  -24.8434  -28.9736   20.1122 C   0  0  0  0  0  0
  -22.7397  -29.4683   22.4974 C   0  0  0  0  0  0
  -18.0278  -28.1351   22.8490 C   0  0  0  0  0  0
  -24.1487  -36.7292   23.2628 C   0  0  0  0  0  0
  -25.9314  -30.8351   21.3704 C   0  0  0  0  0  0
  -26.0047  -29.4728   20.7134 C   0  0  0  0  0  0
  -27.1956  -28.7104   20.7008 C   0  0  0  0  0  0
  -26.0450  -26.9714   19.4525 C   0  0  0  0  0  0
  -24.8593  -27.7217   19.4810 C   0  0  0  0  0  0
  -23.6069  -29.8407   20.1654 C   0  0  0  0  0  0
  -25.4108  -36.3092   24.0339 C   0  0  1  0  0  0
  -20.5869  -28.3645   23.1304 C   0  0  2  0  0  0
  -20.6768  -26.9392   22.5375 C   0  0  0  0  0  0
  -19.5734  -26.6379   21.5184 C   0  0  0  0  0  0
  -18.1915  -26.7910   22.1590 C   0  0  0  0  0  0
  -19.1522  -28.8813   23.2907 C   0  0  0  0  0  0
  -18.9438  -30.1415   23.8917 C   0  0  0  0  0  0
  -17.6438  -30.6554   24.0582 C   0  0  0  0  0  0
  -25.9042  -34.9462   23.5131 C   0  0  0  0  0  0
  -16.5339  -29.9058   23.6324 C   0  0  0  0  0  0
  -16.7267  -28.6487   23.0329 C   0  0  0  0  0  0
  -26.4515  -31.6573   25.0710 C   0  0  0  0  0  0
  -25.3797  -31.3670   26.1467 C   0  0  0  0  0  0
  -27.0349  -30.3016   24.6071 C   0  0  0  0  0  0
  -27.6097  -32.4277   25.7472 C   0  0  0  0  0  0
  -27.5576  -37.1799   24.8474 C   0  0  0  0  0  0
  -21.4124  -29.3047   22.3725 N   0  0  0  0  0  0
  -26.4287  -37.3784   23.9418 N   0  0  0  0  0  0
  -24.6661  -31.0822   22.1033 N   0  0  0  0  0  0
  -23.4185  -28.8200   23.2987 O   0  0  0  0  0  0
  -28.4014  -26.7053   20.1105 O   0  0  0  0  0  0
  -26.5572  -34.8915   22.4667 O   0  0  0  0  0  0
  -23.5352  -32.1441   23.7549 O   0  0  0  0  0  0
  -27.8184  -20.3619   19.4853 C   0  0  0  0  0  0
  -27.4574  -19.1408   18.8980 C   0  0  0  0  0  0
  -29.8390  -19.3315   20.3710 C   0  0  0  0  0  0
  -29.4534  -18.0763   19.8343 C   0  0  0  0  0  0
  -29.0413  -20.4883   20.1781 C   0  0  0  0  0  0
  -28.2826  -18.0091   19.0303 C   0  0  0  0  0  0
  -30.2952  -16.8817   20.0555 C   0  0  0  0  0  0
  -29.8454  -15.6855   20.5075 C   0  0  0  0  0  0
  -27.8928  -16.7731   18.2337 C   0  0  0  0  0  0
  -29.4676  -21.8562   20.7187 C   0  0  0  0  0  0
  -29.3559  -23.0037   19.6777 C   0  0  0  0  0  0
  -29.4566  -24.4447   20.2406 C   0  0  0  0  0  0
  -28.3275  -25.3382   19.6872 C   0  0  0  0  0  0
  -31.4713  -12.3606   19.1487 H   0  0  0  0  0  0
  -30.3114  -11.2943   19.8821 H   0  0  0  0  0  0
  -29.7445  -11.7184   17.4621 H   0  0  0  0  0  0
  -29.6755  -13.4375   17.7618 H   0  0  0  0  0  0
  -27.8370  -11.2752   18.8526 H   0  0  0  0  0  0
  -27.3710  -12.5790   17.7906 H   0  0  0  0  0  0
  -27.6782  -14.2258   19.5190 H   0  0  0  0  0  0
  -28.6745  -12.0163   21.3863 H   0  0  0  0  0  0
  -28.4790  -13.6846   21.8323 H   0  0  0  0  0  0
  -25.2728   -9.5718   22.4747 H   0  0  0  0  0  0
  -23.9990   -7.4649   22.7472 H   0  0  0  0  0  0
  -21.0802   -8.8776   19.8956 H   0  0  0  0  0  0
  -22.3651  -10.9683   19.6158 H   0  0  0  0  0  0
  -21.2037   -7.6147   23.9716 H   0  0  0  0  0  0
  -21.1435   -6.0511   25.9064 H   0  0  0  0  0  0
  -22.0625   -2.7610   23.2843 H   0  0  0  0  0  0
  -22.4054  -11.9886   22.4771 H   0  0  0  0  0  0
  -21.1135  -13.1335   22.2641 H   0  0  0  0  0  0
  -24.6818  -15.8405   20.6404 H   0  0  0  0  0  0
  -26.3088  -15.6441   20.2385 H   0  0  0  0  0  0
  -26.7129  -32.5549   23.1156 H   0  0  0  0  0  0
  -25.0191  -33.9771   25.0563 H   0  0  0  0  0  0
  -22.6872  -31.3176   21.4209 H   0  0  0  0  0  0
  -23.3744  -35.9629   23.3303 H   0  0  0  0  0  0
  -24.3581  -36.8882   22.2037 H   0  0  0  0  0  0
  -23.7245  -37.6506   23.6628 H   0  0  0  0  0  0
  -26.0501  -31.6063   20.6068 H   0  0  0  0  0  0
  -26.8171  -30.8791   21.9922 H   0  0  0  0  0  0
  -28.0881  -29.0894   21.1785 H   0  0  0  0  0  0
  -26.0067  -26.0335   18.9201 H   0  0  0  0  0  0
  -23.9689  -27.3383   19.0013 H   0  0  0  0  0  0
  -23.7179  -30.6202   19.4106 H   0  0  0  0  0  0
  -22.7290  -29.2652   19.8640 H   0  0  0  0  0  0
  -25.1275  -36.1948   25.0831 H   0  0  0  0  0  0
  -20.9978  -28.3178   24.1414 H   0  0  0  0  0  0
  -20.5675  -26.2252   23.3550 H   0  0  0  0  0  0
  -21.6621  -26.7424   22.1133 H   0  0  0  0  0  0
  -19.6883  -25.6304   21.1172 H   0  0  0  0  0  0
  -19.6664  -27.3227   20.6735 H   0  0  0  0  0  0
  -17.4197  -26.6706   21.3976 H   0  0  0  0  0  0
  -18.0287  -26.0018   22.8946 H   0  0  0  0  0  0
  -19.7916  -30.7226   24.2289 H   0  0  0  0  0  0
  -17.4984  -31.6218   24.5196 H   0  0  0  0  0  0
  -15.5327  -30.2946   23.7623 H   0  0  0  0  0  0
  -15.8687  -28.0816   22.6987 H   0  0  0  0  0  0
  -24.5994  -30.6989   25.7822 H   0  0  0  0  0  0
  -24.8982  -32.2819   26.4916 H   0  0  0  0  0  0
  -25.8181  -30.8861   27.0218 H   0  0  0  0  0  0
  -26.2891  -29.6752   24.1171 H   0  0  0  0  0  0
  -27.4177  -29.7271   25.4514 H   0  0  0  0  0  0
  -27.8700  -30.4333   23.9185 H   0  0  0  0  0  0
  -27.2732  -33.3570   26.2075 H   0  0  0  0  0  0
  -28.3902  -32.6830   25.0293 H   0  0  0  0  0  0
  -28.0764  -31.8378   26.5364 H   0  0  0  0  0  0
  -28.2607  -38.0085   24.7503 H   0  0  0  0  0  0
  -28.1053  -36.2612   24.6316 H   0  0  0  0  0  0
  -27.2286  -37.1468   25.8876 H   0  0  0  0  0  0
  -20.9247  -29.8820   21.7011 H   0  0  0  0  0  0
  -26.0167  -38.2857   24.1432 H   0  0  0  0  0  0
  -27.1541  -21.2064   19.3630 H   0  0  0  0  0  0
  -26.5470  -19.0830   18.3154 H   0  0  0  0  0  0
  -30.7615  -19.4098   20.9324 H   0  0  0  0  0  0
  -31.3272  -16.9857   19.7485 H   0  0  0  0  0  0
  -28.8235  -15.6229   20.8448 H   0  0  0  0  0  0
  -27.5757  -17.0600   17.2301 H   0  0  0  0  0  0
  -27.0495  -16.2784   18.7044 H   0  0  0  0  0  0
  -28.7046  -16.0568   18.1125 H   0  0  0  0  0  0
  -30.4910  -21.8064   21.0942 H   0  0  0  0  0  0
  -28.8365  -22.0748   21.5805 H   0  0  0  0  0  0
  -28.3974  -22.9286   19.1686 H   0  0  0  0  0  0
  -30.0962  -22.8620   18.8900 H   0  0  0  0  0  0
  -30.4295  -24.8711   19.9962 H   0  0  0  0  0  0
  -29.3931  -24.4298   21.3281 H   0  0  0  0  0  0
  -27.3998  -24.8794   20.0333 H   0  0  0  0  0  0
  -28.3260  -25.3139   18.5959 H   0  0  0  0  0  0
  1 25  1  0  0  0
  1 30  2  0  0  0
  1 78  1  0  0  0
  2  3  1  0  0  0
  2 25  1  0  0  0
  2 84  1  0  0  0
  2 85  1  0  0  0
  3  4  1  0  0  0
  3 86  1  0  0  0
  3 87  1  0  0  0
  4  5  1  0  0  0
  4 88  1  0  0  0
  4 89  1  0  0  0
  5  6  1  0  0  0
  5 26  1  0  0  0
  5 90  1  0  0  0
  6 25  1  0  0  0
  6 91  1  0  0  0
  6 92  1  0  0  0
  7  8  2  0  0  0
  7 26  1  0  0  0
  7 29  1  0  0  0
  8  9  1  0  0  0
  8 22  1  0  0  0
  9 10  1  0  0  0
  9 27  2  0  0  0
 10 11  2  0  0  0
 10 15  1  0  0  0
 11 12  1  0  0  0
 11 93  1  0  0  0
 12 13  2  0  0  0
 12 94  1  0  0  0
 13 14  1  0  0  0
 13 31  1  0  0  0
 14 15  2  0  0  0
 14 95  1  0  0  0
 15 96  1  0  0  0
 16 17  2  0  0  0
 16 21  1  0  0  0
 16 31  1  0  0  0
 17 18  1  0  0  0
 17 97  1  0  0  0
 18 19  2  0  0  0
 18 98  1  0  0  0
 19 20  1  0  0  0
 19 24  1  0  0  0
 20 21  2  0  0  0
 20 99  1  0  0  0
 21 23  1  0  0  0
 22 28  1  0  0  0
 22 32  2  0  0  0
 26 27  1  0  0  0
 28100  1  0  0  0
 28101  1  0  0  0
 29102  1  0  0  0
 29103  1  0  0  0
 33 34  1  0  0  0
 33 66  1  0  0  0
 33 70  2  0  0  0
 34 36  1  0  0  0
 34 59  1  0  0  0
 34104  1  0  0  0
 35 44  2  0  0  0
 35 45  1  0  0  0
 35 68  1  0  0  0
 36 56  1  0  0  0
 36105  1  0  0  0
 37 39  1  0  0  0
 37 47  1  0  0  0
 37 66  1  0  0  0
 37106  1  0  0  0
 38 43  2  0  0  0
 38 46  1  0  0  0
 38 47  1  0  0  0
 39 64  1  0  0  0
 39 67  2  0  0  0
 40 52  1  0  0  0
 40 53  2  0  0  0
 40 58  1  0  0  0
 41107  1  0  0  0
 41108  1  0  0  0
 41109  1  0  0  0
 41 48  1  0  0  0
 42 43  1  0  0  0
 42 66  1  0  0  0
 42110  1  0  0  0
 42111  1  0  0  0
 43 44  1  0  0  0
 44112  1  0  0  0
 45 46  2  0  0  0
 45113  1  0  0  0
 46114  1  0  0  0
 47115  1  0  0  0
 47116  1  0  0  0
 48 56  1  0  0  0
 48 65  1  0  0  0
 48117  1  0  0  0
 49 50  1  0  0  0
 49 53  1  0  0  0
 49 64  1  0  0  0
 49118  1  0  0  0
 50 51  1  0  0  0
 50119  1  0  0  0
 50120  1  0  0  0
 51 52  1  0  0  0
 51121  1  0  0  0
 51122  1  0  0  0
 52123  1  0  0  0
 52124  1  0  0  0
 53 54  1  0  0  0
 54 55  2  0  0  0
 54125  1  0  0  0
 55 57  1  0  0  0
 55126  1  0  0  0
 56 69  2  0  0  0
 57 58  2  0  0  0
 57127  1  0  0  0
 58128  1  0  0  0
 59 60  1  0  0  0
 59 61  1  0  0  0
 59 62  1  0  0  0
 60129  1  0  0  0
 60130  1  0  0  0
 60131  1  0  0  0
 61132  1  0  0  0
 61133  1  0  0  0
 61134  1  0  0  0
 62135  1  0  0  0
 62136  1  0  0  0
 62137  1  0  0  0
 63 65  1  0  0  0
 63138  1  0  0  0
 63139  1  0  0  0
 63140  1  0  0  0
 64141  1  0  0  0
 65142  1  0  0  0
 68 83  1  0  0  0
 71 72  2  0  0  0
 71 75  1  0  0  0
 71143  1  0  0  0
 72 76  1  0  0  0
 72144  1  0  0  0
 73 74  1  0  0  0
 73 75  2  0  0  0
 73145  1  0  0  0
 74 76  2  0  0  0
 74 77  1  0  0  0
 75 80  1  0  0  0
 76 79  1  0  0  0
 77 78  2  0  0  0
 77146  1  0  0  0
 78147  1  0  0  0
 79148  1  0  0  0
 79149  1  0  0  0
 79150  1  0  0  0
 80 81  1  0  0  0
 80151  1  0  0  0
 80152  1  0  0  0
 81 82  1  0  0  0
 81153  1  0  0  0
 81154  1  0  0  0
 82 83  1  0  0  0
 82155  1  0  0  0
 82156  1  0  0  0
 83157  1  0  0  0
 83158  1  0  0  0
M  ISO  4   1 100  68 101  78 100  83 101
M  END
> <chiral flag>
0

> <version>
0

> <s_m_source_file>
/data/baiqing/PycharmProjects/Reinvent-master-3.2/result/LINK_invent/BTK/process_docking_weight1_custom_product_contain_oxygen_bond_distance_aromatic_linkinvent_7_9_3/rearranged_h_0129.sdf

> <i_m_source_file_index>
7

> <r_mmod_Potential_Energy-OPLS-2005>
21.9371509552002

> <r_mmod_Stretch_Energy-OPLS-2005>
37.2104225158691

> <r_mmod_Bend_Energy-OPLS-2005>
94.4404602050781

> <r_mmod_Torsional_Energy-OPLS-2005>
220.151931762695

> <r_mmod_Improper_Torsional_Energy-OPLS-2005>
9.62217998504639

> <r_mmod_Van_der_Waal_Energy-OPLS-2005>
166.375152587891

> <r_mmod_Electrostatic_Energy-OPLS-2005>
-340.45263671875

> <r_mmod_Solvation_Energy-OPLS-2005>
-187.893142700195

> <b_mmod_Minimization_Converged-OPLS-2005>
0

> <r_mmod_RMS_Derivative-OPLS-2005>
2.26290225982666

$$$$
7
                    3D
 Structure written by MMmdl.
152160  0  0  1  0            999 V2000
  -30.7248  -14.4306   20.4993 C   0  0  0  0  0  0
  -30.4051  -12.2563   19.4392 C   0  0  0  0  0  0
  -29.4951  -12.4797   18.2133 C   0  0  0  0  0  0
  -28.0122  -12.3596   18.6159 C   0  0  0  0  0  0
  -27.6571  -13.2107   19.8651 C   0  0  2  0  0  0
  -28.6953  -13.0179   20.9928 C   0  0  0  0  0  0
  -25.2580  -13.8180   20.5684 C   0  0  0  0  0  0
  -24.1833  -13.0449   20.9172 C   0  0  0  0  0  0
  -24.6389  -11.6916   20.8724 C   0  0  0  0  0  0
  -23.9059  -10.4299   21.0397 C   0  0  0  0  0  0
  -24.3613   -9.4217   21.9177 C   0  0  0  0  0  0
  -23.6293   -8.2250   22.0751 C   0  0  0  0  0  0
  -22.4274   -8.0284   21.3544 C   0  0  0  0  0  0
  -21.9905   -9.0256   20.4645 C   0  0  0  0  0  0
  -22.7230  -10.2136   20.3051 C   0  0  0  0  0  0
  -21.6856   -6.0737   22.5280 C   0  0  0  0  0  0
  -21.4015   -6.5641   23.8212 C   0  0  0  0  0  0
  -21.3659   -5.6794   24.9175 C   0  0  0  0  0  0
  -21.6043   -4.3057   24.7225 C   0  0  0  0  0  0
  -21.8819   -3.8148   23.4347 C   0  0  0  0  0  0
  -21.9194   -4.6965   22.3403 C   0  0  0  0  0  0
  -22.7856  -13.5242   21.1842 C   0  0  0  0  0  0
  -22.1662   -4.2150   21.0981 F   0  0  0  0  0  0
  -21.5629   -3.4540   25.7737 F   0  0  0  0  0  0
  -30.0352  -13.2634   20.4434 N   0  0  0  0  0  0
  -26.3004  -12.9354   20.3322 N   0  0  0  0  0  0
  -25.9313  -11.6509   20.5742 N   0  0  0  0  0  0
  -22.0502  -12.8233   22.0401 N   0  0  0  0  0  0
  -25.4323  -15.1898   20.4132 N   0  0  0  0  0  0
  -31.9068  -14.5196   20.1586 O   0  0  0  0  0  0
  -21.6641   -6.8879   21.4242 O   0  0  0  0  0  0
  -22.3535  -14.5546   20.6693 O   0  0  0  0  0  0
  -24.6113  -31.8710   23.2126 C   0  0  0  0  0  0
  -25.9021  -32.4837   23.8411 C   0  0  1  0  0  0
  -27.2309  -27.4656   20.0936 C   0  0  0  0  0  0
  -25.5892  -33.8635   24.2345 N   0  0  0  0  0  0
  -23.3966  -30.4952   21.5533 C   0  0  2  0  0  0
  -24.8409  -28.9640   20.1178 C   0  0  0  0  0  0
  -22.7388  -29.4674   22.5013 C   0  0  0  0  0  0
  -18.0267  -28.1373   22.8496 C   0  0  0  0  0  0
  -24.1487  -36.7324   23.2637 C   0  0  0  0  0  0
  -25.9219  -30.8479   21.3585 C   0  0  0  0  0  0
  -26.0001  -29.4848   20.7062 C   0  0  0  0  0  0
  -27.2005  -28.7446   20.6859 C   0  0  0  0  0  0
  -26.0542  -26.9485   19.5072 C   0  0  0  0  0  0
  -24.8611  -27.6939   19.5159 C   0  0  0  0  0  0
  -23.6020  -29.8273   20.1677 C   0  0  0  0  0  0
  -25.4105  -36.3122   24.0341 C   0  0  1  0  0  0
  -20.5854  -28.3654   23.1333 C   0  0  2  0  0  0
  -20.6760  -26.9396   22.5422 C   0  0  0  0  0  0
  -19.5740  -26.6387   21.5215 C   0  0  0  0  0  0
  -18.1917  -26.7922   22.1624 C   0  0  0  0  0  0
  -19.1515  -28.8830   23.2913 C   0  0  0  0  0  0
  -18.9445  -30.1439   23.8920 C   0  0  0  0  0  0
  -17.6449  -30.6583   24.0567 C   0  0  0  0  0  0
  -25.9030  -34.9485   23.5139 C   0  0  0  0  0  0
  -16.5340  -29.9087   23.6323 C   0  0  0  0  0  0
  -16.7257  -28.6502   23.0347 C   0  0  0  0  0  0
  -26.4462  -31.6603   25.0723 C   0  0  0  0  0  0
  -25.3743  -31.3700   26.1483 C   0  0  0  0  0  0
  -27.0281  -30.3051   24.6067 C   0  0  0  0  0  0
  -27.6054  -32.4308   25.7474 C   0  0  0  0  0  0
  -27.5585  -37.1811   24.8462 C   0  0  0  0  0  0
  -21.4121  -29.3030   22.3747 N   0  0  0  0  0  0
  -26.4295  -37.3802   23.9411 N   0  0  0  0  0  0
  -24.6617  -31.0843   22.1008 N   0  0  0  0  0  0
  -23.4178  -28.8216   23.3041 O   0  0  0  0  0  0
  -28.4095  -26.7609   20.0860 O   0  0  0  0  0  0
  -26.5590  -34.8930   22.4698 O   0  0  0  0  0  0
  -23.5316  -32.1445   23.7544 O   0  0  0  0  0  0
  -28.6509  -19.9806   20.4128 C   0  0  0  0  0  0
  -29.0270  -19.7565   18.0217 C   0  0  0  0  0  0
  -28.9928  -18.6223   20.5965 C   0  0  0  0  0  0
  -29.3814  -18.4106   18.2057 C   0  0  0  0  0  0
  -28.6916  -20.5650   19.1242 C   0  0  0  0  0  0
  -29.4099  -17.8442   19.4956 C   0  0  0  0  0  0
  -28.5063  -22.0034   18.8785 C   0  0  0  0  0  0
  -29.9536  -16.4882   19.6211 C   0  0  0  0  0  0
  -28.5021  -22.9789   19.8071 C   0  0  0  0  0  0
  -29.9290  -15.6354   20.6679 C   0  0  0  0  0  0
  -28.3718  -24.3952   19.4266 C   0  0  0  0  0  0
  -28.3246  -25.4169   20.5695 C   0  0  0  0  0  0
  -28.3158  -24.7763   18.2509 O   0  0  0  0  0  0
  -31.4553  -12.3109   19.1470 H   0  0  0  0  0  0
  -30.2619  -11.2539   19.8457 H   0  0  0  0  0  0
  -29.7292  -11.7536   17.4338 H   0  0  0  0  0  0
  -29.6838  -13.4644   17.7825 H   0  0  0  0  0  0
  -27.8106  -11.3066   18.8152 H   0  0  0  0  0  0
  -27.3709  -12.6367   17.7785 H   0  0  0  0  0  0
  -27.6940  -14.2539   19.5520 H   0  0  0  0  0  0
  -28.6468  -12.0018   21.3865 H   0  0  0  0  0  0
  -28.4794  -13.6748   21.8363 H   0  0  0  0  0  0
  -25.2759   -9.5697   22.4749 H   0  0  0  0  0  0
  -24.0008   -7.4646   22.7472 H   0  0  0  0  0  0
  -21.0834   -8.8774   19.8953 H   0  0  0  0  0  0
  -22.3687  -10.9675   19.6161 H   0  0  0  0  0  0
  -21.2006   -7.6149   23.9714 H   0  0  0  0  0  0
  -21.1481   -6.0525   25.9078 H   0  0  0  0  0  0
  -22.0596   -2.7609   23.2850 H   0  0  0  0  0  0
  -22.4124  -11.9896   22.4787 H   0  0  0  0  0  0
  -21.1122  -13.1260   22.2617 H   0  0  0  0  0  0
  -24.6727  -15.8511   20.5314 H   0  0  0  0  0  0
  -26.2979  -15.6279   20.1228 H   0  0  0  0  0  0
  -26.7096  -32.5563   23.1183 H   0  0  0  0  0  0
  -25.0051  -33.9806   25.0495 H   0  0  0  0  0  0
  -22.6835  -31.3107   21.4164 H   0  0  0  0  0  0
  -23.3748  -35.9658   23.3302 H   0  0  0  0  0  0
  -24.3585  -36.8934   22.2051 H   0  0  0  0  0  0
  -23.7238  -37.6530   23.6646 H   0  0  0  0  0  0
  -26.0273  -31.6154   20.5905 H   0  0  0  0  0  0
  -26.8126  -30.9026   21.9727 H   0  0  0  0  0  0
  -28.0993  -29.1462   21.1332 H   0  0  0  0  0  0
  -26.0511  -25.9798   19.0297 H   0  0  0  0  0  0
  -23.9691  -27.2875   19.0590 H   0  0  0  0  0  0
  -23.7073  -30.6019   19.4072 H   0  0  0  0  0  0
  -22.7267  -29.2450   19.8740 H   0  0  0  0  0  0
  -25.1278  -36.1994   25.0834 H   0  0  0  0  0  0
  -20.9945  -28.3216   24.1454 H   0  0  0  0  0  0
  -20.5667  -26.2260   23.3602 H   0  0  0  0  0  0
  -21.6632  -26.7448   22.1212 H   0  0  0  0  0  0
  -19.6903  -25.6303   21.1229 H   0  0  0  0  0  0
  -19.6681  -27.3211   20.6756 H   0  0  0  0  0  0
  -17.4189  -26.6676   21.4023 H   0  0  0  0  0  0
  -18.0315  -26.0057   22.9012 H   0  0  0  0  0  0
  -19.7922  -30.7248   24.2299 H   0  0  0  0  0  0
  -17.5005  -31.6265   24.5164 H   0  0  0  0  0  0
  -15.5342  -30.2997   23.7634 H   0  0  0  0  0  0
  -15.8657  -28.0830   22.7048 H   0  0  0  0  0  0
  -24.5904  -30.7060   25.7822 H   0  0  0  0  0  0
  -24.8948  -32.2854   26.4961 H   0  0  0  0  0  0
  -25.8107  -30.8846   27.0221 H   0  0  0  0  0  0
  -26.2807  -29.6821   24.1138 H   0  0  0  0  0  0
  -27.4083  -29.7276   25.4503 H   0  0  0  0  0  0
  -27.8629  -30.4380   23.9181 H   0  0  0  0  0  0
  -27.2692  -33.3599   26.2089 H   0  0  0  0  0  0
  -28.3842  -32.6879   25.0281 H   0  0  0  0  0  0
  -28.0746  -31.8405   26.5357 H   0  0  0  0  0  0
  -28.2602  -38.0110   24.7520 H   0  0  0  0  0  0
  -28.1082  -36.2644   24.6271 H   0  0  0  0  0  0
  -27.2306  -37.1445   25.8866 H   0  0  0  0  0  0
  -20.9273  -29.8755   21.6979 H   0  0  0  0  0  0
  -26.0189  -38.2882   24.1416 H   0  0  0  0  0  0
  -28.3908  -20.5713   21.2790 H   0  0  0  0  0  0
  -29.0674  -20.1777   17.0266 H   0  0  0  0  0  0
  -28.9980  -18.2076   21.5946 H   0  0  0  0  0  0
  -29.6844  -17.8293   17.3458 H   0  0  0  0  0  0
  -28.3753  -22.2802   17.8405 H   0  0  0  0  0  0
  -30.4936  -16.1674   18.7378 H   0  0  0  0  0  0
  -28.6153  -22.7577   20.8576 H   0  0  0  0  0  0
  -29.3967  -15.8433   21.5836 H   0  0  0  0  0  0
  -29.1726  -25.2360   21.2301 H   0  0  0  0  0  0
  -27.4238  -25.2604   21.1647 H   0  0  0  0  0  0
  1 25  1  0  0  0
  1 30  2  0  0  0
  1 80  1  0  0  0
  2  3  1  0  0  0
  2 25  1  0  0  0
  2 84  1  0  0  0
  2 85  1  0  0  0
  3  4  1  0  0  0
  3 86  1  0  0  0
  3 87  1  0  0  0
  4  5  1  0  0  0
  4 88  1  0  0  0
  4 89  1  0  0  0
  5  6  1  0  0  0
  5 26  1  0  0  0
  5 90  1  0  0  0
  6 25  1  0  0  0
  6 91  1  0  0  0
  6 92  1  0  0  0
  7  8  2  0  0  0
  7 26  1  0  0  0
  7 29  1  0  0  0
  8  9  1  0  0  0
  8 22  1  0  0  0
  9 10  1  0  0  0
  9 27  2  0  0  0
 10 11  2  0  0  0
 10 15  1  0  0  0
 11 12  1  0  0  0
 11 93  1  0  0  0
 12 13  2  0  0  0
 12 94  1  0  0  0
 13 14  1  0  0  0
 13 31  1  0  0  0
 14 15  2  0  0  0
 14 95  1  0  0  0
 15 96  1  0  0  0
 16 17  2  0  0  0
 16 21  1  0  0  0
 16 31  1  0  0  0
 17 18  1  0  0  0
 17 97  1  0  0  0
 18 19  2  0  0  0
 18 98  1  0  0  0
 19 20  1  0  0  0
 19 24  1  0  0  0
 20 21  2  0  0  0
 20 99  1  0  0  0
 21 23  1  0  0  0
 22 28  1  0  0  0
 22 32  2  0  0  0
 26 27  1  0  0  0
 28100  1  0  0  0
 28101  1  0  0  0
 29102  1  0  0  0
 29103  1  0  0  0
 33 34  1  0  0  0
 33 66  1  0  0  0
 33 70  2  0  0  0
 34 36  1  0  0  0
 34 59  1  0  0  0
 34104  1  0  0  0
 35 44  2  0  0  0
 35 45  1  0  0  0
 35 68  1  0  0  0
 36 56  1  0  0  0
 36105  1  0  0  0
 37 39  1  0  0  0
 37 47  1  0  0  0
 37 66  1  0  0  0
 37106  1  0  0  0
 38 43  2  0  0  0
 38 46  1  0  0  0
 38 47  1  0  0  0
 39 64  1  0  0  0
 39 67  2  0  0  0
 40 52  1  0  0  0
 40 53  2  0  0  0
 40 58  1  0  0  0
 41107  1  0  0  0
 41108  1  0  0  0
 41109  1  0  0  0
 41 48  1  0  0  0
 42 43  1  0  0  0
 42 66  1  0  0  0
 42110  1  0  0  0
 42111  1  0  0  0
 43 44  1  0  0  0
 44112  1  0  0  0
 45 46  2  0  0  0
 45113  1  0  0  0
 46114  1  0  0  0
 47115  1  0  0  0
 47116  1  0  0  0
 48 56  1  0  0  0
 48 65  1  0  0  0
 48117  1  0  0  0
 49 50  1  0  0  0
 49 53  1  0  0  0
 49 64  1  0  0  0
 49118  1  0  0  0
 50 51  1  0  0  0
 50119  1  0  0  0
 50120  1  0  0  0
 51 52  1  0  0  0
 51121  1  0  0  0
 51122  1  0  0  0
 52123  1  0  0  0
 52124  1  0  0  0
 53 54  1  0  0  0
 54 55  2  0  0  0
 54125  1  0  0  0
 55 57  1  0  0  0
 55126  1  0  0  0
 56 69  2  0  0  0
 57 58  2  0  0  0
 57127  1  0  0  0
 58128  1  0  0  0
 59 60  1  0  0  0
 59 61  1  0  0  0
 59 62  1  0  0  0
 60129  1  0  0  0
 60130  1  0  0  0
 60131  1  0  0  0
 61132  1  0  0  0
 61133  1  0  0  0
 61134  1  0  0  0
 62135  1  0  0  0
 62136  1  0  0  0
 62137  1  0  0  0
 63 65  1  0  0  0
 63138  1  0  0  0
 63139  1  0  0  0
 63140  1  0  0  0
 64141  1  0  0  0
 65142  1  0  0  0
 68 82  1  0  0  0
 71 73  2  0  0  0
 71 75  1  0  0  0
 71143  1  0  0  0
 72 74  1  0  0  0
 72 75  2  0  0  0
 72144  1  0  0  0
 73 76  1  0  0  0
 73145  1  0  0  0
 74 76  2  0  0  0
 74146  1  0  0  0
 75 77  1  0  0  0
 76 78  1  0  0  0
 77 79  2  0  0  0
 77147  1  0  0  0
 78 80  2  0  0  0
 78148  1  0  0  0
 79 81  1  0  0  0
 79149  1  0  0  0
 80150  1  0  0  0
 81 82  1  0  0  0
 81 83  2  0  0  0
 82151  1  0  0  0
 82152  1  0  0  0
M  ISO  4   1 100  68 101  80 100  82 101
M  END
> <chiral flag>
0

> <version>
0

> <s_m_source_file>
/data/baiqing/PycharmProjects/Reinvent-master-3.2/result/LINK_invent/BTK/process_docking_weight1_custom_product_contain_oxygen_bond_distance_aromatic_linkinvent_7_9_3/rearranged_h_0129.sdf

> <i_m_source_file_index>
8

> <r_mmod_Potential_Energy-OPLS-2005>
-3.71305370330811

> <r_mmod_Stretch_Energy-OPLS-2005>
31.0262031555176

> <r_mmod_Bend_Energy-OPLS-2005>
95.3743515014648

> <r_mmod_Torsional_Energy-OPLS-2005>
223.386169433594

> <r_mmod_Improper_Torsional_Energy-OPLS-2005>
8.48616027832031

> <r_mmod_Van_der_Waal_Energy-OPLS-2005>
158.798187255859

> <r_mmod_Electrostatic_Energy-OPLS-2005>
-324.685516357422

> <r_mmod_Solvation_Energy-OPLS-2005>
-212.663970947266

> <b_mmod_Minimization_Converged-OPLS-2005>
0

> <r_mmod_RMS_Derivative-OPLS-2005>
0.274206280708313

$$$$
8
                    3D
 Structure written by MMmdl.
159167  0  0  1  0            999 V2000
  -30.5327  -14.6814   20.5135 C   0  0  0  0  0  0
  -30.4618  -12.4186   19.4465 C   0  0  0  0  0  0
  -29.5205  -12.5033   18.2198 C   0  0  0  0  0  0
  -28.0363  -12.3539   18.6219 C   0  0  0  0  0  0
  -27.6574  -13.2070   19.8633 C   0  0  2  0  0  0
  -28.7003  -13.0141   20.9862 C   0  0  0  0  0  0
  -25.2616  -13.8153   20.5711 C   0  0  0  0  0  0
  -24.1860  -13.0430   20.9187 C   0  0  0  0  0  0
  -24.6400  -11.6892   20.8693 C   0  0  0  0  0  0
  -23.9067  -10.4280   21.0381 C   0  0  0  0  0  0
  -24.3624   -9.4194   21.9169 C   0  0  0  0  0  0
  -23.6299   -8.2229   22.0744 C   0  0  0  0  0  0
  -22.4281   -8.0275   21.3546 C   0  0  0  0  0  0
  -21.9906   -9.0241   20.4655 C   0  0  0  0  0  0
  -22.7225  -10.2123   20.3044 C   0  0  0  0  0  0
  -21.6862   -6.0732   22.5290 C   0  0  0  0  0  0
  -21.4004   -6.5639   23.8218 C   0  0  0  0  0  0
  -21.3647   -5.6787   24.9187 C   0  0  0  0  0  0
  -21.6038   -4.3052   24.7244 C   0  0  0  0  0  0
  -21.8830   -3.8144   23.4366 C   0  0  0  0  0  0
  -21.9194   -4.6953   22.3412 C   0  0  0  0  0  0
  -22.7892  -13.5231   21.1862 C   0  0  0  0  0  0
  -22.1672   -4.2141   21.0995 F   0  0  0  0  0  0
  -21.5618   -3.4537   25.7748 F   0  0  0  0  0  0
  -30.0060  -13.4132   20.4401 N   0  0  0  0  0  0
  -26.3002  -12.9295   20.3259 N   0  0  0  0  0  0
  -25.9309  -11.6456   20.5665 N   0  0  0  0  0  0
  -22.0532  -12.8222   22.0423 N   0  0  0  0  0  0
  -25.4399  -15.1873   20.4287 N   0  0  0  0  0  0
  -31.6749  -14.9239   20.1034 O   0  0  0  0  0  0
  -21.6649   -6.8878   21.4253 O   0  0  0  0  0  0
  -22.3567  -14.5541   20.6732 O   0  0  0  0  0  0
  -24.6185  -31.8625   23.1958 C   0  0  0  0  0  0
  -25.9028  -32.4824   23.8299 C   0  0  1  0  0  0
  -27.2419  -27.3515   20.1286 C   0  0  0  0  0  0
  -25.5859  -33.8610   24.2261 N   0  0  0  0  0  0
  -23.4123  -30.4826   21.5399 C   0  0  2  0  0  0
  -24.8587  -28.9275   20.1177 C   0  0  0  0  0  0
  -22.7438  -29.4685   22.4965 C   0  0  0  0  0  0
  -18.0309  -28.1424   22.8570 C   0  0  0  0  0  0
  -24.1471  -36.7290   23.2646 C   0  0  0  0  0  0
  -25.9397  -30.8188   21.3383 C   0  0  0  0  0  0
  -26.0240  -29.4325   20.7085 C   0  0  0  0  0  0
  -27.2209  -28.6635   20.6947 C   0  0  0  0  0  0
  -26.0535  -26.8797   19.5293 C   0  0  0  0  0  0
  -24.8743  -27.6575   19.5122 C   0  0  0  0  0  0
  -23.6218  -29.8015   20.1597 C   0  0  0  0  0  0
  -25.4097  -36.3105   24.0358 C   0  0  1  0  0  0
  -20.5912  -28.3690   23.1355 C   0  0  2  0  0  0
  -20.6787  -26.9418   22.5456 C   0  0  0  0  0  0
  -19.5774  -26.6440   21.5242 C   0  0  0  0  0  0
  -18.1935  -26.8002   22.1632 C   0  0  0  0  0  0
  -19.1578  -28.8866   23.2980 C   0  0  0  0  0  0
  -18.9496  -30.1485   23.8980 C   0  0  0  0  0  0
  -17.6500  -30.6631   24.0623 C   0  0  0  0  0  0
  -25.9052  -34.9507   23.5125 C   0  0  0  0  0  0
  -16.5392  -29.9161   23.6344 C   0  0  0  0  0  0
  -16.7307  -28.6573   23.0356 C   0  0  0  0  0  0
  -26.4410  -31.6579   25.0613 C   0  0  0  0  0  0
  -25.3655  -31.3757   26.1346 C   0  0  0  0  0  0
  -27.0129  -30.3034   24.5867 C   0  0  0  0  0  0
  -27.6088  -32.4164   25.7365 C   0  0  0  0  0  0
  -27.5584  -37.1802   24.8490 C   0  0  0  0  0  0
  -21.4160  -29.3066   22.3735 N   0  0  0  0  0  0
  -26.4281  -37.3797   23.9451 N   0  0  0  0  0  0
  -24.6789  -31.0716   22.0849 N   0  0  0  0  0  0
  -23.4166  -28.8260   23.3081 O   0  0  0  0  0  0
  -28.4056  -26.5797   20.0890 O   0  0  0  0  0  0
  -26.5627  -34.8970   22.4700 O   0  0  0  0  0  0
  -23.5391  -32.1348   23.7381 O   0  0  0  0  0  0
  -29.9087  -19.3868   19.9348 C   0  0  0  0  0  0
  -30.1639  -17.9708   19.9839 C   0  0  0  0  0  0
  -28.2841  -19.1367   21.6751 C   0  0  0  0  0  0
  -28.9476  -20.0097   20.7800 C   0  0  0  0  0  0
  -28.5186  -17.7284   21.7395 C   0  0  0  0  0  0
  -29.4880  -17.1003   20.8917 C   0  0  0  0  0  0
  -26.4188  -17.4999   23.2966 C   0  0  0  0  0  0
  -28.5839  -21.5519   20.8469 C   0  0  0  0  0  0
  -27.7443  -16.9008   22.7762 C   0  0  0  0  0  0
  -28.9399  -22.5802   19.6887 C   0  0  0  0  0  0
  -28.1801  -23.9925   19.5707 C   0  0  0  0  0  0
  -28.4256  -25.1883   20.5802 C   0  0  0  0  0  0
  -29.6528  -15.6348   20.9764 N   0  0  0  0  0  0
  -31.4945  -12.5952   19.1380 H   0  0  0  0  0  0
  -30.4516  -11.4144   19.8742 H   0  0  0  0  0  0
  -29.7882  -11.7381   17.4896 H   0  0  0  0  0  0
  -29.6692  -13.4598   17.7193 H   0  0  0  0  0  0
  -27.8531  -11.3002   18.8292 H   0  0  0  0  0  0
  -27.3944  -12.6108   17.7789 H   0  0  0  0  0  0
  -27.6832  -14.2506   19.5438 H   0  0  0  0  0  0
  -28.7246  -11.9657   21.2895 H   0  0  0  0  0  0
  -28.4354  -13.5691   21.8858 H   0  0  0  0  0  0
  -25.2780   -9.5686   22.4730 H   0  0  0  0  0  0
  -24.0017   -7.4629   22.7457 H   0  0  0  0  0  0
  -21.0824   -8.8761   19.8977 H   0  0  0  0  0  0
  -22.3672  -10.9661   19.6152 H   0  0  0  0  0  0
  -21.1995   -7.6142   23.9716 H   0  0  0  0  0  0
  -21.1451   -6.0527   25.9087 H   0  0  0  0  0  0
  -22.0616   -2.7604   23.2876 H   0  0  0  0  0  0
  -22.4156  -11.9879   22.4799 H   0  0  0  0  0  0
  -21.1146  -13.1246   22.2633 H   0  0  0  0  0  0
  -24.7023  -15.8496   20.6411 H   0  0  0  0  0  0
  -26.3039  -15.6335   20.1495 H   0  0  0  0  0  0
  -26.7106  -32.5515   23.1079 H   0  0  0  0  0  0
  -24.9937  -33.9740   25.0359 H   0  0  0  0  0  0
  -22.7152  -31.3087   21.3964 H   0  0  0  0  0  0
  -23.3766  -35.9581   23.3295 H   0  0  0  0  0  0
  -24.3618  -36.8896   22.2067 H   0  0  0  0  0  0
  -23.7146  -37.6474   23.6643 H   0  0  0  0  0  0
  -26.0234  -31.5668   20.5476 H   0  0  0  0  0  0
  -26.8390  -30.9087   21.9366 H   0  0  0  0  0  0
  -28.1257  -29.0732   21.1256 H   0  0  0  0  0  0
  -26.0414  -25.9084   19.0548 H   0  0  0  0  0  0
  -23.9806  -27.2804   19.0337 H   0  0  0  0  0  0
  -23.7266  -30.5651   19.3874 H   0  0  0  0  0  0
  -22.7424  -29.2175   19.8766 H   0  0  0  0  0  0
  -25.1272  -36.1980   25.0848 H   0  0  0  0  0  0
  -21.0062  -28.3244   24.1456 H   0  0  0  0  0  0
  -20.5666  -26.2295   23.3648 H   0  0  0  0  0  0
  -21.6658  -26.7438   22.1259 H   0  0  0  0  0  0
  -19.6892  -25.6354   21.1233 H   0  0  0  0  0  0
  -19.6714  -27.3308   20.6819 H   0  0  0  0  0  0
  -17.4226  -26.6855   21.3998 H   0  0  0  0  0  0
  -18.0299  -26.0126   22.9007 H   0  0  0  0  0  0
  -19.7967  -30.7330   24.2329 H   0  0  0  0  0  0
  -17.5058  -31.6310   24.5235 H   0  0  0  0  0  0
  -15.5392  -30.3096   23.7625 H   0  0  0  0  0  0
  -15.8721  -28.0935   22.6971 H   0  0  0  0  0  0
  -24.5961  -30.6912   25.7765 H   0  0  0  0  0  0
  -24.8645  -32.2902   26.4546 H   0  0  0  0  0  0
  -25.7985  -30.9190   27.0250 H   0  0  0  0  0  0
  -26.2570  -29.6921   24.0912 H   0  0  0  0  0  0
  -27.3942  -29.7156   25.4225 H   0  0  0  0  0  0
  -27.8401  -30.4421   23.8903 H   0  0  0  0  0  0
  -27.2894  -33.3603   26.1794 H   0  0  0  0  0  0
  -28.3973  -32.6389   25.0174 H   0  0  0  0  0  0
  -28.0551  -31.8238   26.5357 H   0  0  0  0  0  0
  -28.2635  -38.0074   24.7526 H   0  0  0  0  0  0
  -28.1028  -36.2613   24.6290 H   0  0  0  0  0  0
  -27.2350  -37.1449   25.8910 H   0  0  0  0  0  0
  -20.9305  -29.8799   21.6976 H   0  0  0  0  0  0
  -26.0182  -38.2881   24.1477 H   0  0  0  0  0  0
  -30.4655  -19.9958   19.2369 H   0  0  0  0  0  0
  -30.8887  -17.5594   19.2952 H   0  0  0  0  0  0
  -27.5725  -19.5889   22.3485 H   0  0  0  0  0  0
  -25.9330  -16.8000   23.9785 H   0  0  0  0  0  0
  -25.7167  -17.7057   22.4880 H   0  0  0  0  0  0
  -26.5675  -18.4208   23.8626 H   0  0  0  0  0  0
  -29.0031  -21.9393   21.7783 H   0  0  0  0  0  0
  -27.5029  -21.5947   20.9963 H   0  0  0  0  0  0
  -28.4133  -16.7393   23.6213 H   0  0  0  0  0  0
  -27.5175  -15.9149   22.3704 H   0  0  0  0  0  0
  -28.7177  -22.0743   18.7451 H   0  0  0  0  0  0
  -30.0198  -22.7401   19.6620 H   0  0  0  0  0  0
  -27.1073  -23.8144   19.5019 H   0  0  0  0  0  0
  -28.4440  -24.3862   18.5873 H   0  0  0  0  0  0
  -29.4297  -25.0529   20.9894 H   0  0  0  0  0  0
  -27.7575  -25.0994   21.4389 H   0  0  0  0  0  0
  -28.8576  -15.1813   21.3975 H   0  0  0  0  0  0
  1 25  1  0  0  0
  1 30  2  0  0  0
  1 83  1  0  0  0
  2  3  1  0  0  0
  2 25  1  0  0  0
  2 84  1  0  0  0
  2 85  1  0  0  0
  3  4  1  0  0  0
  3 86  1  0  0  0
  3 87  1  0  0  0
  4  5  1  0  0  0
  4 88  1  0  0  0
  4 89  1  0  0  0
  5  6  1  0  0  0
  5 26  1  0  0  0
  5 90  1  0  0  0
  6 25  1  0  0  0
  6 91  1  0  0  0
  6 92  1  0  0  0
  7  8  2  0  0  0
  7 26  1  0  0  0
  7 29  1  0  0  0
  8  9  1  0  0  0
  8 22  1  0  0  0
  9 10  1  0  0  0
  9 27  2  0  0  0
 10 11  2  0  0  0
 10 15  1  0  0  0
 11 12  1  0  0  0
 11 93  1  0  0  0
 12 13  2  0  0  0
 12 94  1  0  0  0
 13 14  1  0  0  0
 13 31  1  0  0  0
 14 15  2  0  0  0
 14 95  1  0  0  0
 15 96  1  0  0  0
 16 17  2  0  0  0
 16 21  1  0  0  0
 16 31  1  0  0  0
 17 18  1  0  0  0
 17 97  1  0  0  0
 18 19  2  0  0  0
 18 98  1  0  0  0
 19 20  1  0  0  0
 19 24  1  0  0  0
 20 21  2  0  0  0
 20 99  1  0  0  0
 21 23  1  0  0  0
 22 28  1  0  0  0
 22 32  2  0  0  0
 26 27  1  0  0  0
 28100  1  0  0  0
 28101  1  0  0  0
 29102  1  0  0  0
 29103  1  0  0  0
 33 34  1  0  0  0
 33 66  1  0  0  0
 33 70  2  0  0  0
 34 36  1  0  0  0
 34 59  1  0  0  0
 34104  1  0  0  0
 35 44  2  0  0  0
 35 45  1  0  0  0
 35 68  1  0  0  0
 36 56  1  0  0  0
 36105  1  0  0  0
 37 39  1  0  0  0
 37 47  1  0  0  0
 37 66  1  0  0  0
 37106  1  0  0  0
 38 43  2  0  0  0
 38 46  1  0  0  0
 38 47  1  0  0  0
 39 64  1  0  0  0
 39 67  2  0  0  0
 40 52  1  0  0  0
 40 53  2  0  0  0
 40 58  1  0  0  0
 41107  1  0  0  0
 41108  1  0  0  0
 41109  1  0  0  0
 41 48  1  0  0  0
 42 43  1  0  0  0
 42 66  1  0  0  0
 42110  1  0  0  0
 42111  1  0  0  0
 43 44  1  0  0  0
 44112  1  0  0  0
 45 46  2  0  0  0
 45113  1  0  0  0
 46114  1  0  0  0
 47115  1  0  0  0
 47116  1  0  0  0
 48 56  1  0  0  0
 48 65  1  0  0  0
 48117  1  0  0  0
 49 50  1  0  0  0
 49 53  1  0  0  0
 49 64  1  0  0  0
 49118  1  0  0  0
 50 51  1  0  0  0
 50119  1  0  0  0
 50120  1  0  0  0
 51 52  1  0  0  0
 51121  1  0  0  0
 51122  1  0  0  0
 52123  1  0  0  0
 52124  1  0  0  0
 53 54  1  0  0  0
 54 55  2  0  0  0
 54125  1  0  0  0
 55 57  1  0  0  0
 55126  1  0  0  0
 56 69  2  0  0  0
 57 58  2  0  0  0
 57127  1  0  0  0
 58128  1  0  0  0
 59 60  1  0  0  0
 59 61  1  0  0  0
 59 62  1  0  0  0
 60129  1  0  0  0
 60130  1  0  0  0
 60131  1  0  0  0
 61132  1  0  0  0
 61133  1  0  0  0
 61134  1  0  0  0
 62135  1  0  0  0
 62136  1  0  0  0
 62137  1  0  0  0
 63 65  1  0  0  0
 63138  1  0  0  0
 63139  1  0  0  0
 63140  1  0  0  0
 64141  1  0  0  0
 65142  1  0  0  0
 68 82  1  0  0  0
 71 72  2  0  0  0
 71 74  1  0  0  0
 71143  1  0  0  0
 72 76  1  0  0  0
 72144  1  0  0  0
 73 74  2  0  0  0
 73 75  1  0  0  0
 73145  1  0  0  0
 74 78  1  0  0  0
 75 76  2  0  0  0
 75 79  1  0  0  0
 76 83  1  0  0  0
 77 79  1  0  0  0
 77146  1  0  0  0
 77147  1  0  0  0
 77148  1  0  0  0
 78 80  1  0  0  0
 78149  1  0  0  0
 78150  1  0  0  0
 79151  1  0  0  0
 79152  1  0  0  0
 80 81  1  0  0  0
 80153  1  0  0  0
 80154  1  0  0  0
 81 82  1  0  0  0
 81155  1  0  0  0
 81156  1  0  0  0
 82157  1  0  0  0
 82158  1  0  0  0
 83159  1  0  0  0
M  ISO  4   1 100  68 101  82 101  83 100
M  END
> <chiral flag>
0

> <version>
0

> <s_m_source_file>
/data/baiqing/PycharmProjects/Reinvent-master-3.2/result/LINK_invent/BTK/process_docking_weight1_custom_product_contain_oxygen_bond_distance_aromatic_linkinvent_7_9_3/rearranged_h_0129.sdf

> <i_m_source_file_index>
9

> <r_mmod_Potential_Energy-OPLS-2005>
109.51001739502

> <r_mmod_Stretch_Energy-OPLS-2005>
87.7397842407227

> <r_mmod_Bend_Energy-OPLS-2005>
177.589004516602

> <r_mmod_Torsional_Energy-OPLS-2005>
234.628082275391

> <r_mmod_Improper_Torsional_Energy-OPLS-2005>
3.30152487754822

> <r_mmod_Van_der_Waal_Energy-OPLS-2005>
132.659530639648

> <r_mmod_Electrostatic_Energy-OPLS-2005>
-379.081176757812

> <r_mmod_Solvation_Energy-OPLS-2005>
-197.209701538086

> <b_mmod_Minimization_Converged-OPLS-2005>
0

> <r_mmod_RMS_Derivative-OPLS-2005>
5.76249551773071

$$$$
9
                    3D
 Structure written by MMmdl.
160168  0  0  1  0            999 V2000
  -30.7176  -14.4318   20.5510 C   0  0  0  0  0  0
  -30.4117  -12.2738   19.4232 C   0  0  0  0  0  0
  -29.4915  -12.4988   18.2061 C   0  0  0  0  0  0
  -28.0108  -12.3711   18.6153 C   0  0  0  0  0  0
  -27.6617  -13.2073   19.8763 C   0  0  2  0  0  0
  -28.7014  -12.9825   20.9979 C   0  0  0  0  0  0
  -25.2584  -13.8168   20.5678 C   0  0  0  0  0  0
  -24.1834  -13.0444   20.9173 C   0  0  0  0  0  0
  -24.6388  -11.6911   20.8729 C   0  0  0  0  0  0
  -23.9057  -10.4294   21.0400 C   0  0  0  0  0  0
  -24.3610   -9.4210   21.9180 C   0  0  0  0  0  0
  -23.6289   -8.2243   22.0750 C   0  0  0  0  0  0
  -22.4272   -8.0276   21.3542 C   0  0  0  0  0  0
  -21.9906   -9.0249   20.4643 C   0  0  0  0  0  0
  -22.7230  -10.2132   20.3050 C   0  0  0  0  0  0
  -21.6850   -6.0734   22.5278 C   0  0  0  0  0  0
  -21.4014   -6.5639   23.8211 C   0  0  0  0  0  0
  -21.3661   -5.6792   24.9173 C   0  0  0  0  0  0
  -21.6043   -4.3055   24.7225 C   0  0  0  0  0  0
  -21.8821   -3.8147   23.4346 C   0  0  0  0  0  0
  -21.9194   -4.6962   22.3402 C   0  0  0  0  0  0
  -22.7856  -13.5239   21.1844 C   0  0  0  0  0  0
  -22.1662   -4.2147   21.0979 F   0  0  0  0  0  0
  -21.5630   -3.4540   25.7740 F   0  0  0  0  0  0
  -30.0378  -13.2609   20.4463 N   0  0  0  0  0  0
  -26.3021  -12.9340   20.3371 N   0  0  0  0  0  0
  -25.9315  -11.6499   20.5763 N   0  0  0  0  0  0
  -22.0503  -12.8221   22.0398 N   0  0  0  0  0  0
  -25.4324  -15.1881   20.4084 N   0  0  0  0  0  0
  -31.8626  -14.5747   20.1134 O   0  0  0  0  0  0
  -21.6636   -6.8874   21.4239 O   0  0  0  0  0  0
  -22.3538  -14.5549   20.6701 O   0  0  0  0  0  0
  -24.6112  -31.8700   23.2123 C   0  0  0  0  0  0
  -25.9017  -32.4827   23.8409 C   0  0  1  0  0  0
  -27.2322  -27.4494   20.0821 C   0  0  0  0  0  0
  -25.5883  -33.8629   24.2339 N   0  0  0  0  0  0
  -23.3970  -30.4948   21.5525 C   0  0  2  0  0  0
  -24.8411  -28.9631   20.1145 C   0  0  0  0  0  0
  -22.7383  -29.4673   22.5001 C   0  0  0  0  0  0
  -18.0265  -28.1359   22.8491 C   0  0  0  0  0  0
  -24.1485  -36.7330   23.2635 C   0  0  0  0  0  0
  -25.9244  -30.8364   21.3651 C   0  0  0  0  0  0
  -25.9984  -29.4707   20.7160 C   0  0  0  0  0  0
  -27.1908  -28.7154   20.7073 C   0  0  0  0  0  0
  -26.0543  -26.9557   19.4724 C   0  0  0  0  0  0
  -24.8624  -27.7026   19.4947 C   0  0  0  0  0  0
  -23.6035  -29.8287   20.1659 C   0  0  0  0  0  0
  -25.4103  -36.3120   24.0338 C   0  0  1  0  0  0
  -20.5852  -28.3652   23.1324 C   0  0  2  0  0  0
  -20.6756  -26.9392   22.5415 C   0  0  0  0  0  0
  -19.5742  -26.6379   21.5202 C   0  0  0  0  0  0
  -18.1918  -26.7908   22.1613 C   0  0  0  0  0  0
  -19.1511  -28.8822   23.2905 C   0  0  0  0  0  0
  -18.9444  -30.1427   23.8919 C   0  0  0  0  0  0
  -17.6449  -30.6573   24.0562 C   0  0  0  0  0  0
  -25.9027  -34.9479   23.5138 C   0  0  0  0  0  0
  -16.5340  -29.9078   23.6317 C   0  0  0  0  0  0
  -16.7257  -28.6488   23.0348 C   0  0  0  0  0  0
  -26.4460  -31.6597   25.0726 C   0  0  0  0  0  0
  -25.3736  -31.3680   26.1480 C   0  0  0  0  0  0
  -27.0289  -30.3045   24.6081 C   0  0  0  0  0  0
  -27.6049  -32.4307   25.7479 C   0  0  0  0  0  0
  -27.5583  -37.1810   24.8458 C   0  0  0  0  0  0
  -21.4115  -29.3031   22.3737 N   0  0  0  0  0  0
  -26.4293  -37.3801   23.9407 N   0  0  0  0  0  0
  -24.6623  -31.0813   22.1018 N   0  0  0  0  0  0
  -23.4165  -28.8213   23.3034 O   0  0  0  0  0  0
  -28.4278  -26.7609   20.0982 O   0  0  0  0  0  0
  -26.5595  -34.8927   22.4704 O   0  0  0  0  0  0
  -23.5313  -32.1458   23.7527 O   0  0  0  0  0  0
  -31.1521  -18.7183   19.5097 C   0  0  0  0  0  0
  -30.5690  -19.6386   20.3950 C   0  0  0  0  0  0
  -30.9798  -17.3398   19.7109 C   0  0  0  0  0  0
  -29.6239  -17.7964   21.6813 C   0  0  0  0  0  0
  -29.7965  -19.1902   21.4926 C   0  0  0  0  0  0
  -30.2289  -16.8584   20.8125 C   0  0  0  0  0  0
  -28.4000  -22.5205   21.7562 C   0  0  0  0  0  0
  -29.3616  -21.6447   22.0971 C   0  0  0  0  0  0
  -29.6127  -19.9366   23.9081 C   0  0  0  0  0  0
  -28.6684  -23.9592   21.3451 C   0  0  0  0  0  0
  -28.0263  -24.2972   19.9888 C   0  0  0  0  0  0
  -28.5834  -25.5734   19.3198 C   0  0  0  0  0  0
  -29.1430  -20.1817   22.4646 C   0  0  2  0  0  0
  -30.0133  -15.4656   21.0481 N   0  0  0  0  0  0
  -31.4593  -12.3482   19.1259 H   0  0  0  0  0  0
  -30.2872  -11.2637   19.8162 H   0  0  0  0  0  0
  -29.7243  -11.7803   17.4188 H   0  0  0  0  0  0
  -29.6726  -13.4877   17.7816 H   0  0  0  0  0  0
  -27.8113  -11.3159   18.8047 H   0  0  0  0  0  0
  -27.3651  -12.6574   17.7847 H   0  0  0  0  0  0
  -27.7089  -14.2562   19.5829 H   0  0  0  0  0  0
  -28.6617  -11.9507   21.3498 H   0  0  0  0  0  0
  -28.4726  -13.5950   21.8711 H   0  0  0  0  0  0
  -25.2756   -9.5687   22.4753 H   0  0  0  0  0  0
  -24.0002   -7.4634   22.7467 H   0  0  0  0  0  0
  -21.0839   -8.8763   19.8946 H   0  0  0  0  0  0
  -22.3688  -10.9666   19.6155 H   0  0  0  0  0  0
  -21.2004   -7.6146   23.9714 H   0  0  0  0  0  0
  -21.1482   -6.0522   25.9075 H   0  0  0  0  0  0
  -22.0600   -2.7610   23.2847 H   0  0  0  0  0  0
  -22.4119  -11.9875   22.4772 H   0  0  0  0  0  0
  -21.1120  -13.1236   22.2612 H   0  0  0  0  0  0
  -24.6697  -15.8483   20.5123 H   0  0  0  0  0  0
  -26.2906  -15.6235   20.0938 H   0  0  0  0  0  0
  -26.7087  -32.5546   23.1175 H   0  0  0  0  0  0
  -25.0025  -33.9796   25.0480 H   0  0  0  0  0  0
  -22.6847  -31.3112   21.4157 H   0  0  0  0  0  0
  -23.3739  -35.9667   23.3294 H   0  0  0  0  0  0
  -24.3584  -36.8952   22.2050 H   0  0  0  0  0  0
  -23.7248  -37.6542   23.6653 H   0  0  0  0  0  0
  -26.0343  -31.6003   20.5940 H   0  0  0  0  0  0
  -26.8137  -30.8915   21.9805 H   0  0  0  0  0  0
  -28.0858  -29.1044   21.1731 H   0  0  0  0  0  0
  -26.0297  -26.0017   18.9698 H   0  0  0  0  0  0
  -23.9729  -27.3072   19.0240 H   0  0  0  0  0  0
  -23.7084  -30.6045   19.4060 H   0  0  0  0  0  0
  -22.7279  -29.2471   19.8729 H   0  0  0  0  0  0
  -25.1273  -36.1990   25.0829 H   0  0  0  0  0  0
  -20.9948  -28.3215   24.1442 H   0  0  0  0  0  0
  -20.5651  -26.2258   23.3595 H   0  0  0  0  0  0
  -21.6631  -26.7430   22.1216 H   0  0  0  0  0  0
  -19.6905  -25.6296   21.1220 H   0  0  0  0  0  0
  -19.6686  -27.3193   20.6734 H   0  0  0  0  0  0
  -17.4189  -26.6661   21.4009 H   0  0  0  0  0  0
  -18.0322  -26.0033   22.8994 H   0  0  0  0  0  0
  -19.7924  -30.7225   24.2309 H   0  0  0  0  0  0
  -17.5008  -31.6259   24.5153 H   0  0  0  0  0  0
  -15.5342  -30.2987   23.7629 H   0  0  0  0  0  0
  -15.8653  -28.0812   22.7063 H   0  0  0  0  0  0
  -24.5916  -30.7015   25.7820 H   0  0  0  0  0  0
  -24.8913  -32.2819   26.4954 H   0  0  0  0  0  0
  -25.8100  -30.8839   27.0225 H   0  0  0  0  0  0
  -26.2824  -29.6801   24.1154 H   0  0  0  0  0  0
  -27.4099  -29.7278   25.4522 H   0  0  0  0  0  0
  -27.8635  -30.4379   23.9195 H   0  0  0  0  0  0
  -27.2693  -33.3608   26.2080 H   0  0  0  0  0  0
  -28.3842  -32.6863   25.0287 H   0  0  0  0  0  0
  -28.0727  -31.8407   26.5373 H   0  0  0  0  0  0
  -28.2591  -38.0116   24.7527 H   0  0  0  0  0  0
  -28.1092  -36.2653   24.6255 H   0  0  0  0  0  0
  -27.2308  -37.1429   25.8862 H   0  0  0  0  0  0
  -20.9261  -29.8773   21.6986 H   0  0  0  0  0  0
  -26.0184  -38.2882   24.1409 H   0  0  0  0  0  0
  -31.7319  -19.0723   18.6682 H   0  0  0  0  0  0
  -30.7247  -20.6899   20.1990 H   0  0  0  0  0  0
  -31.4305  -16.6716   18.9918 H   0  0  0  0  0  0
  -29.0254  -17.4441   22.5098 H   0  0  0  0  0  0
  -27.3657  -22.2038   21.7569 H   0  0  0  0  0  0
  -30.3897  -21.9781   22.1106 H   0  0  0  0  0  0
  -29.3569  -18.9349   24.2541 H   0  0  0  0  0  0
  -29.1469  -20.6404   24.5988 H   0  0  0  0  0  0
  -30.6935  -20.0498   23.9983 H   0  0  0  0  0  0
  -29.7457  -24.1243   21.2986 H   0  0  0  0  0  0
  -28.2807  -24.6294   22.1137 H   0  0  0  0  0  0
  -26.9457  -24.3552   20.1102 H   0  0  0  0  0  0
  -28.1994  -23.4682   19.3007 H   0  0  0  0  0  0
  -28.1629  -25.7069   18.3223 H   0  0  0  0  0  0
  -29.6535  -25.4403   19.1570 H   0  0  0  0  0  0
  -28.0684  -19.9924   22.4254 H   0  0  0  0  0  0
  -29.1578  -15.2186   21.5209 H   0  0  0  0  0  0
  1 25  1  0  0  0
  1 30  2  0  0  0
  1 84  1  0  0  0
  2  3  1  0  0  0
  2 25  1  0  0  0
  2 85  1  0  0  0
  2 86  1  0  0  0
  3  4  1  0  0  0
  3 87  1  0  0  0
  3 88  1  0  0  0
  4  5  1  0  0  0
  4 89  1  0  0  0
  4 90  1  0  0  0
  5  6  1  0  0  0
  5 26  1  0  0  0
  5 91  1  0  0  0
  6 25  1  0  0  0
  6 92  1  0  0  0
  6 93  1  0  0  0
  7  8  2  0  0  0
  7 26  1  0  0  0
  7 29  1  0  0  0
  8  9  1  0  0  0
  8 22  1  0  0  0
  9 10  1  0  0  0
  9 27  2  0  0  0
 10 11  2  0  0  0
 10 15  1  0  0  0
 11 12  1  0  0  0
 11 94  1  0  0  0
 12 13  2  0  0  0
 12 95  1  0  0  0
 13 14  1  0  0  0
 13 31  1  0  0  0
 14 15  2  0  0  0
 14 96  1  0  0  0
 15 97  1  0  0  0
 16 17  2  0  0  0
 16 21  1  0  0  0
 16 31  1  0  0  0
 17 18  1  0  0  0
 17 98  1  0  0  0
 18 19  2  0  0  0
 18 99  1  0  0  0
 19 20  1  0  0  0
 19 24  1  0  0  0
 20 21  2  0  0  0
 20100  1  0  0  0
 21 23  1  0  0  0
 22 28  1  0  0  0
 22 32  2  0  0  0
 26 27  1  0  0  0
 28101  1  0  0  0
 28102  1  0  0  0
 29103  1  0  0  0
 29104  1  0  0  0
 33 34  1  0  0  0
 33 66  1  0  0  0
 33 70  2  0  0  0
 34 36  1  0  0  0
 34 59  1  0  0  0
 34105  1  0  0  0
 35 44  2  0  0  0
 35 45  1  0  0  0
 35 68  1  0  0  0
 36 56  1  0  0  0
 36106  1  0  0  0
 37 39  1  0  0  0
 37 47  1  0  0  0
 37 66  1  0  0  0
 37107  1  0  0  0
 38 43  2  0  0  0
 38 46  1  0  0  0
 38 47  1  0  0  0
 39 64  1  0  0  0
 39 67  2  0  0  0
 40 52  1  0  0  0
 40 53  2  0  0  0
 40 58  1  0  0  0
 41108  1  0  0  0
 41109  1  0  0  0
 41110  1  0  0  0
 41 48  1  0  0  0
 42 43  1  0  0  0
 42 66  1  0  0  0
 42111  1  0  0  0
 42112  1  0  0  0
 43 44  1  0  0  0
 44113  1  0  0  0
 45 46  2  0  0  0
 45114  1  0  0  0
 46115  1  0  0  0
 47116  1  0  0  0
 47117  1  0  0  0
 48 56  1  0  0  0
 48 65  1  0  0  0
 48118  1  0  0  0
 49 50  1  0  0  0
 49 53  1  0  0  0
 49 64  1  0  0  0
 49119  1  0  0  0
 50 51  1  0  0  0
 50120  1  0  0  0
 50121  1  0  0  0
 51 52  1  0  0  0
 51122  1  0  0  0
 51123  1  0  0  0
 52124  1  0  0  0
 52125  1  0  0  0
 53 54  1  0  0  0
 54 55  2  0  0  0
 54126  1  0  0  0
 55 57  1  0  0  0
 55127  1  0  0  0
 56 69  2  0  0  0
 57 58  2  0  0  0
 57128  1  0  0  0
 58129  1  0  0  0
 59 60  1  0  0  0
 59 61  1  0  0  0
 59 62  1  0  0  0
 60130  1  0  0  0
 60131  1  0  0  0
 60132  1  0  0  0
 61133  1  0  0  0
 61134  1  0  0  0
 61135  1  0  0  0
 62136  1  0  0  0
 62137  1  0  0  0
 62138  1  0  0  0
 63 65  1  0  0  0
 63139  1  0  0  0
 63140  1  0  0  0
 63141  1  0  0  0
 64142  1  0  0  0
 65143  1  0  0  0
 68 82  1  0  0  0
 71 72  2  0  0  0
 71 73  1  0  0  0
 71144  1  0  0  0
 72 75  1  0  0  0
 72145  1  0  0  0
 73 76  2  0  0  0
 73146  1  0  0  0
 74 75  2  0  0  0
 74 76  1  0  0  0
 74147  1  0  0  0
 75 83  1  0  0  0
 76 84  1  0  0  0
 77 78  2  0  0  0
 77 80  1  0  0  0
 77148  1  0  0  0
 78 83  1  0  0  0
 78149  1  0  0  0
 79150  1  0  0  0
 79151  1  0  0  0
 79152  1  0  0  0
 79 83  1  0  0  0
 80 81  1  0  0  0
 80153  1  0  0  0
 80154  1  0  0  0
 81 82  1  0  0  0
 81155  1  0  0  0
 81156  1  0  0  0
 82157  1  0  0  0
 82158  1  0  0  0
 83159  1  0  0  0
 84160  1  0  0  0
M  ISO  4   1 100  68 101  82 101  84 100
M  END
> <chiral flag>
0

> <version>
0

> <s_m_source_file>
/data/baiqing/PycharmProjects/Reinvent-master-3.2/result/LINK_invent/BTK/process_docking_weight1_custom_product_contain_oxygen_bond_distance_aromatic_linkinvent_7_9_3/rearranged_h_0129.sdf

> <i_m_source_file_index>
10

> <r_mmod_Potential_Energy-OPLS-2005>
-45.0218620300293

> <r_mmod_Stretch_Energy-OPLS-2005>
34.4089508056641

> <r_mmod_Bend_Energy-OPLS-2005>
98.2164993286133

> <r_mmod_Torsional_Energy-OPLS-2005>
207.532745361328

> <r_mmod_Improper_Torsional_Energy-OPLS-2005>
3.36150932312012

> <r_mmod_Van_der_Waal_Energy-OPLS-2005>
164.634841918945

> <r_mmod_Electrostatic_Energy-OPLS-2005>
-370.043487548828

> <r_mmod_Solvation_Energy-OPLS-2005>
-195.485900878906

> <b_mmod_Minimization_Converged-OPLS-2005>
0

> <r_mmod_RMS_Derivative-OPLS-2005>
0.850681841373444

$$$$
10
                    3D
 Structure written by MMmdl.
161169  0  0  1  0            999 V2000
  -30.7161  -14.6726   20.4690 C   0  0  0  0  0  0
  -30.4151  -12.3993   19.5015 C   0  0  0  0  0  0
  -29.5191  -12.5256   18.2531 C   0  0  0  0  0  0
  -28.0439  -12.3605   18.6506 C   0  0  0  0  0  0
  -27.6585  -13.2450   19.8691 C   0  0  2  0  0  0
  -28.7008  -13.1894   21.0107 C   0  0  0  0  0  0
  -25.2567  -13.8246   20.5709 C   0  0  0  0  0  0
  -24.1876  -13.0470   20.9188 C   0  0  0  0  0  0
  -24.6504  -11.6954   20.8785 C   0  0  0  0  0  0
  -23.9193  -10.4308   21.0398 C   0  0  0  0  0  0
  -24.3707   -9.4212   21.9157 C   0  0  0  0  0  0
  -23.6346   -8.2288   22.0745 C   0  0  0  0  0  0
  -22.4322   -8.0338   21.3555 C   0  0  0  0  0  0
  -21.9980   -9.0316   20.4643 C   0  0  0  0  0  0
  -22.7357  -10.2179   20.3036 C   0  0  0  0  0  0
  -21.6877   -6.0765   22.5273 C   0  0  0  0  0  0
  -21.4032   -6.5640   23.8216 C   0  0  0  0  0  0
  -21.3680   -5.6793   24.9164 C   0  0  0  0  0  0
  -21.6061   -4.3060   24.7192 C   0  0  0  0  0  0
  -21.8814   -3.8155   23.4308 C   0  0  0  0  0  0
  -21.9182   -4.6988   22.3379 C   0  0  0  0  0  0
  -22.7878  -13.5223   21.1747 C   0  0  0  0  0  0
  -22.1640   -4.2192   21.0952 F   0  0  0  0  0  0
  -21.5634   -3.4527   25.7685 F   0  0  0  0  0  0
  -30.0241  -13.4815   20.4396 N   0  0  0  0  0  0
  -26.3066  -12.9495   20.3409 N   0  0  0  0  0  0
  -25.9446  -11.6612   20.5825 N   0  0  0  0  0  0
  -22.0495  -12.8302   22.0349 N   0  0  0  0  0  0
  -25.4234  -15.1954   20.4149 N   0  0  0  0  0  0
  -31.8405  -14.7215   19.9651 O   0  0  0  0  0  0
  -21.6669   -6.8937   21.4232 O   0  0  0  0  0  0
  -22.3565  -14.5494   20.6520 O   0  0  0  0  0  0
  -24.6275  -31.8525   23.1948 C   0  0  0  0  0  0
  -25.9061  -32.4741   23.8352 C   0  0  1  0  0  0
  -27.2404  -27.2848   20.1328 C   0  0  0  0  0  0
  -25.5846  -33.8561   24.2238 N   0  0  0  0  0  0
  -23.4281  -30.4722   21.5374 C   0  0  2  0  0  0
  -24.8785  -28.9173   20.1091 C   0  0  0  0  0  0
  -22.7486  -29.4605   22.4924 C   0  0  0  0  0  0
  -18.0298  -28.1452   22.8490 C   0  0  0  0  0  0
  -24.1484  -36.7343   23.2639 C   0  0  0  0  0  0
  -25.9682  -30.7736   21.3677 C   0  0  0  0  0  0
  -26.0430  -29.3911   20.7269 C   0  0  0  0  0  0
  -27.2212  -28.5818   20.7337 C   0  0  0  0  0  0
  -26.0529  -26.8727   19.4797 C   0  0  0  0  0  0
  -24.8865  -27.6610   19.4830 C   0  0  0  0  0  0
  -23.6433  -29.7920   20.1594 C   0  0  0  0  0  0
  -25.4106  -36.3091   24.0328 C   0  0  1  0  0  0
  -20.5903  -28.3754   23.1288 C   0  0  2  0  0  0
  -20.6822  -26.9479   22.5421 C   0  0  0  0  0  0
  -19.5759  -26.6419   21.5275 C   0  0  0  0  0  0
  -18.1933  -26.7983   22.1668 C   0  0  0  0  0  0
  -19.1554  -28.8923   23.2876 C   0  0  0  0  0  0
  -18.9466  -30.1539   23.8859 C   0  0  0  0  0  0
  -17.6455  -30.6620   24.0607 C   0  0  0  0  0  0
  -25.9050  -34.9452   23.5102 C   0  0  0  0  0  0
  -16.5357  -29.9121   23.6348 C   0  0  0  0  0  0
  -16.7278  -28.6585   23.0284 C   0  0  0  0  0  0
  -26.4370  -31.6561   25.0761 C   0  0  0  0  0  0
  -25.3602  -31.3744   26.1496 C   0  0  0  0  0  0
  -27.0122  -30.2932   24.6242 C   0  0  0  0  0  0
  -27.5901  -32.4286   25.7559 C   0  0  0  0  0  0
  -27.5584  -37.1818   24.8429 C   0  0  0  0  0  0
  -21.4208  -29.3049   22.3617 N   0  0  0  0  0  0
  -26.4258  -37.3809   23.9424 N   0  0  0  0  0  0
  -24.6953  -31.0523   22.0894 N   0  0  0  0  0  0
  -23.4170  -28.8184   23.3054 O   0  0  0  0  0  0
  -28.3609  -26.4291   20.2005 O   0  0  0  0  0  0
  -26.5674  -34.8918   22.4699 O   0  0  0  0  0  0
  -23.5421  -32.1330   23.7257 O   0  0  0  0  0  0
  -30.6600  -18.6836   22.3641 C   0  0  0  0  0  0
  -29.6649  -19.7749   20.4512 C   0  0  0  0  0  0
  -30.1422  -18.5565   21.0685 C   0  0  0  0  0  0
  -30.8286  -19.9365   22.9831 C   0  0  0  0  0  0
  -29.7187  -21.0862   21.0774 C   0  0  0  0  0  0
  -30.4012  -21.1376   22.3413 C   0  0  0  0  0  0
  -30.2749  -17.1601   20.4535 C   0  0  0  0  0  0
  -30.1421  -15.9217   21.0581 C   0  0  0  0  0  0
  -31.5120  -19.9286   24.3499 C   0  0  0  0  0  0
  -29.5604  -22.9823   23.8929 C   0  0  0  0  0  0
  -28.9463  -22.3286   20.4063 C   0  0  0  0  0  0
  -30.7172  -22.4636   23.0290 C   0  0  0  0  0  0
  -29.2561  -23.9128   20.5766 C   0  0  0  0  0  0
  -28.1845  -24.9573   19.9980 C   0  0  0  0  0  0
  -31.4696  -12.4437   19.2187 H   0  0  0  0  0  0
  -30.2836  -11.4254   19.9728 H   0  0  0  0  0  0
  -29.7948  -11.7755   17.5125 H   0  0  0  0  0  0
  -29.6701  -13.5015   17.7877 H   0  0  0  0  0  0
  -27.8805  -11.3048   18.8798 H   0  0  0  0  0  0
  -27.4044  -12.5917   17.7996 H   0  0  0  0  0  0
  -27.6574  -14.2710   19.4998 H   0  0  0  0  0  0
  -28.7074  -12.2127   21.4947 H   0  0  0  0  0  0
  -28.4410  -13.9126   21.7841 H   0  0  0  0  0  0
  -25.2842   -9.5670   22.4748 H   0  0  0  0  0  0
  -24.0043   -7.4654   22.7463 H   0  0  0  0  0  0
  -21.0915   -8.8886   19.8925 H   0  0  0  0  0  0
  -22.3842  -10.9741   19.6165 H   0  0  0  0  0  0
  -21.2051   -7.6154   23.9746 H   0  0  0  0  0  0
  -21.1505   -6.0495   25.9079 H   0  0  0  0  0  0
  -22.0572   -2.7625   23.2782 H   0  0  0  0  0  0
  -22.4101  -12.0065   22.4929 H   0  0  0  0  0  0
  -21.1071  -13.1334   22.2359 H   0  0  0  0  0  0
  -24.6593  -15.8483   20.5577 H   0  0  0  0  0  0
  -26.2875  -15.6555   20.1504 H   0  0  0  0  0  0
  -26.7159  -32.5370   23.1156 H   0  0  0  0  0  0
  -24.9812  -33.9679   25.0256 H   0  0  0  0  0  0
  -22.7268  -31.2960   21.3858 H   0  0  0  0  0  0
  -23.3723  -35.9676   23.3203 H   0  0  0  0  0  0
  -24.3620  -36.9067   22.2067 H   0  0  0  0  0  0
  -23.7206  -37.6525   23.6717 H   0  0  0  0  0  0
  -26.0907  -31.5132   20.5776 H   0  0  0  0  0  0
  -26.8537  -30.8453   21.9876 H   0  0  0  0  0  0
  -28.1114  -28.9324   21.2405 H   0  0  0  0  0  0
  -26.0021  -25.9186   18.9736 H   0  0  0  0  0  0
  -23.9950  -27.2913   18.9931 H   0  0  0  0  0  0
  -23.7520  -30.5558   19.3886 H   0  0  0  0  0  0
  -22.7654  -29.2096   19.8732 H   0  0  0  0  0  0
  -25.1259  -36.1964   25.0815 H   0  0  0  0  0  0
  -21.0035  -28.3379   24.1400 H   0  0  0  0  0  0
  -20.5879  -26.2363   23.3636 H   0  0  0  0  0  0
  -21.6661  -26.7584   22.1114 H   0  0  0  0  0  0
  -19.6935  -25.6337   21.1286 H   0  0  0  0  0  0
  -19.6691  -27.3256   20.6830 H   0  0  0  0  0  0
  -17.4229  -26.6762   21.4032 H   0  0  0  0  0  0
  -18.0284  -26.0148   22.9083 H   0  0  0  0  0  0
  -19.7938  -30.7416   24.2147 H   0  0  0  0  0  0
  -17.4992  -31.6279   24.5237 H   0  0  0  0  0  0
  -15.5347  -30.3000   23.7698 H   0  0  0  0  0  0
  -15.8701  -28.0954   22.6883 H   0  0  0  0  0  0
  -24.5789  -30.7041   25.7886 H   0  0  0  0  0  0
  -24.8766  -32.2912   26.4871 H   0  0  0  0  0  0
  -25.7928  -30.9004   27.0319 H   0  0  0  0  0  0
  -26.2672  -29.6801   24.1134 H   0  0  0  0  0  0
  -27.3563  -29.7081   25.4789 H   0  0  0  0  0  0
  -27.8677  -30.4098   23.9582 H   0  0  0  0  0  0
  -27.2433  -33.3533   26.2179 H   0  0  0  0  0  0
  -28.3695  -32.6916   25.0405 H   0  0  0  0  0  0
  -28.0569  -31.8397   26.5470 H   0  0  0  0  0  0
  -28.2512  -38.0205   24.7555 H   0  0  0  0  0  0
  -28.1158  -36.2730   24.6101 H   0  0  0  0  0  0
  -27.2346  -37.1300   25.8843 H   0  0  0  0  0  0
  -20.9447  -29.8669   21.6722 H   0  0  0  0  0  0
  -26.0131  -38.2867   24.1468 H   0  0  0  0  0  0
  -31.0315  -17.7989   22.8614 H   0  0  0  0  0  0
  -29.2417  -19.7065   19.4586 H   0  0  0  0  0  0
  -30.6538  -17.1670   19.4374 H   0  0  0  0  0  0
  -29.7093  -15.8653   22.0462 H   0  0  0  0  0  0
  -31.5936  -18.9202   24.7601 H   0  0  0  0  0  0
  -30.9572  -20.5236   25.0750 H   0  0  0  0  0  0
  -32.5285  -20.3214   24.2827 H   0  0  0  0  0  0
  -29.7095  -24.0311   24.1529 H   0  0  0  0  0  0
  -29.4676  -22.4192   24.8199 H   0  0  0  0  0  0
  -28.6095  -22.9028   23.3635 H   0  0  0  0  0  0
  -27.9088  -22.1941   20.7132 H   0  0  0  0  0  0
  -28.9323  -22.1401   19.3307 H   0  0  0  0  0  0
  -31.0458  -23.1869   22.2870 H   0  0  0  0  0  0
  -31.6134  -22.3730   23.6462 H   0  0  0  0  0  0
  -30.2347  -24.1291   20.1462 H   0  0  0  0  0  0
  -29.3125  -24.1922   21.6220 H   0  0  0  0  0  0
  -27.2329  -24.6656   20.4422 H   0  0  0  0  0  0
  -28.0859  -24.7783   18.9281 H   0  0  0  0  0  0
  1 25  1  0  0  0
  1 30  2  0  0  0
  1 78  1  0  0  0
  2  3  1  0  0  0
  2 25  1  0  0  0
  2 85  1  0  0  0
  2 86  1  0  0  0
  3  4  1  0  0  0
  3 87  1  0  0  0
  3 88  1  0  0  0
  4  5  1  0  0  0
  4 89  1  0  0  0
  4 90  1  0  0  0
  5  6  1  0  0  0
  5 26  1  0  0  0
  5 91  1  0  0  0
  6 25  1  0  0  0
  6 92  1  0  0  0
  6 93  1  0  0  0
  7  8  2  0  0  0
  7 26  1  0  0  0
  7 29  1  0  0  0
  8  9  1  0  0  0
  8 22  1  0  0  0
  9 10  1  0  0  0
  9 27  2  0  0  0
 10 11  2  0  0  0
 10 15  1  0  0  0
 11 12  1  0  0  0
 11 94  1  0  0  0
 12 13  2  0  0  0
 12 95  1  0  0  0
 13 14  1  0  0  0
 13 31  1  0  0  0
 14 15  2  0  0  0
 14 96  1  0  0  0
 15 97  1  0  0  0
 16 17  2  0  0  0
 16 21  1  0  0  0
 16 31  1  0  0  0
 17 18  1  0  0  0
 17 98  1  0  0  0
 18 19  2  0  0  0
 18 99  1  0  0  0
 19 20  1  0  0  0
 19 24  1  0  0  0
 20 21  2  0  0  0
 20100  1  0  0  0
 21 23  1  0  0  0
 22 28  1  0  0  0
 22 32  2  0  0  0
 26 27  1  0  0  0
 28101  1  0  0  0
 28102  1  0  0  0
 29103  1  0  0  0
 29104  1  0  0  0
 33 34  1  0  0  0
 33 66  1  0  0  0
 33 70  2  0  0  0
 34 36  1  0  0  0
 34 59  1  0  0  0
 34105  1  0  0  0
 35 44  2  0  0  0
 35 45  1  0  0  0
 35 68  1  0  0  0
 36 56  1  0  0  0
 36106  1  0  0  0
 37 39  1  0  0  0
 37 47  1  0  0  0
 37 66  1  0  0  0
 37107  1  0  0  0
 38 43  2  0  0  0
 38 46  1  0  0  0
 38 47  1  0  0  0
 39 64  1  0  0  0
 39 67  2  0  0  0
 40 52  1  0  0  0
 40 53  2  0  0  0
 40 58  1  0  0  0
 41108  1  0  0  0
 41109  1  0  0  0
 41110  1  0  0  0
 41 48  1  0  0  0
 42 43  1  0  0  0
 42 66  1  0  0  0
 42111  1  0  0  0
 42112  1  0  0  0
 43 44  1  0  0  0
 44113  1  0  0  0
 45 46  2  0  0  0
 45114  1  0  0  0
 46115  1  0  0  0
 47116  1  0  0  0
 47117  1  0  0  0
 48 56  1  0  0  0
 48 65  1  0  0  0
 48118  1  0  0  0
 49 50  1  0  0  0
 49 53  1  0  0  0
 49 64  1  0  0  0
 49119  1  0  0  0
 50 51  1  0  0  0
 50120  1  0  0  0
 50121  1  0  0  0
 51 52  1  0  0  0
 51122  1  0  0  0
 51123  1  0  0  0
 52124  1  0  0  0
 52125  1  0  0  0
 53 54  1  0  0  0
 54 55  2  0  0  0
 54126  1  0  0  0
 55 57  1  0  0  0
 55127  1  0  0  0
 56 69  2  0  0  0
 57 58  2  0  0  0
 57128  1  0  0  0
 58129  1  0  0  0
 59 60  1  0  0  0
 59 61  1  0  0  0
 59 62  1  0  0  0
 60130  1  0  0  0
 60131  1  0  0  0
 60132  1  0  0  0
 61133  1  0  0  0
 61134  1  0  0  0
 61135  1  0  0  0
 62136  1  0  0  0
 62137  1  0  0  0
 62138  1  0  0  0
 63 65  1  0  0  0
 63139  1  0  0  0
 63140  1  0  0  0
 63141  1  0  0  0
 64142  1  0  0  0
 65143  1  0  0  0
 68 84  1  0  0  0
 71 73  2  0  0  0
 71 74  1  0  0  0
 71144  1  0  0  0
 72 73  1  0  0  0
 72 75  2  0  0  0
 72145  1  0  0  0
 73 77  1  0  0  0
 74 76  2  0  0  0
 74 79  1  0  0  0
 75 76  1  0  0  0
 75 81  1  0  0  0
 76 82  1  0  0  0
 77 78  2  0  0  0
 77146  1  0  0  0
 78147  1  0  0  0
 79148  1  0  0  0
 79149  1  0  0  0
 79150  1  0  0  0
 80 82  1  0  0  0
 80151  1  0  0  0
 80152  1  0  0  0
 80153  1  0  0  0
 81 83  1  0  0  0
 81154  1  0  0  0
 81155  1  0  0  0
 82156  1  0  0  0
 82157  1  0  0  0
 83 84  1  0  0  0
 83158  1  0  0  0
 83159  1  0  0  0
 84160  1  0  0  0
 84161  1  0  0  0
M  ISO  4   1 100  68 101  78 100  84 101
M  END
> <chiral flag>
0

> <version>
0

> <s_m_source_file>
/data/baiqing/PycharmProjects/Reinvent-master-3.2/result/LINK_invent/BTK/process_docking_weight1_custom_product_contain_oxygen_bond_distance_aromatic_linkinvent_7_9_3/rearranged_h_0129.sdf

> <i_m_source_file_index>
11

> <r_mmod_Potential_Energy-OPLS-2005>
182.57682800293

> <r_mmod_Stretch_Energy-OPLS-2005>
112.190124511719

> <r_mmod_Bend_Energy-OPLS-2005>
176.321350097656

> <r_mmod_Torsional_Energy-OPLS-2005>
217.123474121094

> <r_mmod_Improper_Torsional_Energy-OPLS-2005>
6.8064136505127

> <r_mmod_Van_der_Waal_Energy-OPLS-2005>
152.332656860352

> <r_mmod_Electrostatic_Energy-OPLS-2005>
-357.232391357422

> <r_mmod_Solvation_Energy-OPLS-2005>
-191.360214233398

> <b_mmod_Minimization_Converged-OPLS-2005>
0

> <r_mmod_RMS_Derivative-OPLS-2005>
5.89463329315186

$$$$
11
                    3D
 Structure written by MMmdl.
166174  0  0  1  0            999 V2000
  -30.7159  -14.4818   20.5854 C   0  0  0  0  0  0
  -30.4252  -12.3138   19.4246 C   0  0  0  0  0  0
  -29.4967  -12.4998   18.2059 C   0  0  0  0  0  0
  -28.0178  -12.3639   18.6189 C   0  0  0  0  0  0
  -27.6624  -13.2105   19.8717 C   0  0  2  0  0  0
  -28.7043  -12.9972   20.9931 C   0  0  0  0  0  0
  -25.2594  -13.8160   20.5669 C   0  0  0  0  0  0
  -24.1846  -13.0457   20.9202 C   0  0  0  0  0  0
  -24.6398  -11.6922   20.8763 C   0  0  0  0  0  0
  -23.9055  -10.4316   21.0424 C   0  0  0  0  0  0
  -24.3613   -9.4226   21.9203 C   0  0  0  0  0  0
  -23.6309   -8.2252   22.0759 C   0  0  0  0  0  0
  -22.4289   -8.0285   21.3553 C   0  0  0  0  0  0
  -21.9918   -9.0245   20.4647 C   0  0  0  0  0  0
  -22.7240  -10.2142   20.3064 C   0  0  0  0  0  0
  -21.6850   -6.0744   22.5280 C   0  0  0  0  0  0
  -21.4016   -6.5651   23.8221 C   0  0  0  0  0  0
  -21.3662   -5.6796   24.9177 C   0  0  0  0  0  0
  -21.6050   -4.3056   24.7217 C   0  0  0  0  0  0
  -21.8814   -3.8158   23.4339 C   0  0  0  0  0  0
  -21.9194   -4.6979   22.3403 C   0  0  0  0  0  0
  -22.7878  -13.5273   21.1867 C   0  0  0  0  0  0
  -22.1654   -4.2175   21.0978 F   0  0  0  0  0  0
  -21.5631   -3.4531   25.7720 F   0  0  0  0  0  0
  -30.0391  -13.3053   20.4442 N   0  0  0  0  0  0
  -26.3031  -12.9336   20.3352 N   0  0  0  0  0  0
  -25.9333  -11.6504   20.5788 N   0  0  0  0  0  0
  -22.0470  -12.8258   22.0368 N   0  0  0  0  0  0
  -25.4323  -15.1856   20.4000 N   0  0  0  0  0  0
  -31.8355  -14.6536   20.0952 O   0  0  0  0  0  0
  -21.6653   -6.8893   21.4250 O   0  0  0  0  0  0
  -22.3589  -14.5590   20.6723 O   0  0  0  0  0  0
  -24.6157  -31.8685   23.2111 C   0  0  0  0  0  0
  -25.9039  -32.4846   23.8411 C   0  0  1  0  0  0
  -27.2327  -27.4232   20.1083 C   0  0  0  0  0  0
  -25.5904  -33.8648   24.2355 N   0  0  0  0  0  0
  -23.4026  -30.4930   21.5533 C   0  0  2  0  0  0
  -24.8468  -28.9586   20.1157 C   0  0  0  0  0  0
  -22.7428  -29.4644   22.4993 C   0  0  0  0  0  0
  -18.0276  -28.1390   22.8546 C   0  0  0  0  0  0
  -24.1466  -36.7289   23.2641 C   0  0  0  0  0  0
  -25.9324  -30.8341   21.3607 C   0  0  0  0  0  0
  -26.0104  -29.4663   20.7109 C   0  0  0  0  0  0
  -27.2055  -28.7086   20.6998 C   0  0  0  0  0  0
  -26.0510  -26.9334   19.5028 C   0  0  0  0  0  0
  -24.8653  -27.6924   19.5071 C   0  0  0  0  0  0
  -23.6085  -29.8282   20.1667 C   0  0  0  0  0  0
  -25.4091  -36.3122   24.0348 C   0  0  1  0  0  0
  -20.5891  -28.3636   23.1360 C   0  0  2  0  0  0
  -20.6776  -26.9368   22.5444 C   0  0  0  0  0  0
  -19.5747  -26.6392   21.5257 C   0  0  0  0  0  0
  -18.1921  -26.7959   22.1644 C   0  0  0  0  0  0
  -19.1539  -28.8827   23.2957 C   0  0  0  0  0  0
  -18.9459  -30.1462   23.8917 C   0  0  0  0  0  0
  -17.6468  -30.6608   24.0578 C   0  0  0  0  0  0
  -25.9030  -34.9504   23.5140 C   0  0  0  0  0  0
  -16.5358  -29.9104   23.6364 C   0  0  0  0  0  0
  -16.7271  -28.6525   23.0377 C   0  0  0  0  0  0
  -26.4456  -31.6620   25.0735 C   0  0  0  0  0  0
  -25.3693  -31.3744   26.1466 C   0  0  0  0  0  0
  -27.0295  -30.3083   24.6079 C   0  0  0  0  0  0
  -27.6051  -32.4293   25.7494 C   0  0  0  0  0  0
  -27.5569  -37.1800   24.8468 C   0  0  0  0  0  0
  -21.4144  -29.3021   22.3762 N   0  0  0  0  0  0
  -26.4272  -37.3804   23.9427 N   0  0  0  0  0  0
  -24.6694  -31.0772   22.1009 N   0  0  0  0  0  0
  -23.4197  -28.8188   23.3030 O   0  0  0  0  0  0
  -28.4062  -26.6924   20.1051 O   0  0  0  0  0  0
  -26.5589  -34.8951   22.4703 O   0  0  0  0  0  0
  -23.5346  -32.1448   23.7511 O   0  0  0  0  0  0
  -31.6548  -18.9146   21.0933 C   0  0  0  0  0  0
  -31.4663  -17.5235   20.9221 C   0  0  0  0  0  0
  -29.4374  -19.0952   22.0373 C   0  0  0  0  0  0
  -30.6443  -19.7176   21.6594 C   0  0  0  0  0  0
  -29.2267  -17.7001   21.8643 C   0  0  0  0  0  0
  -30.2584  -16.8883   21.3131 C   0  0  0  0  0  0
  -29.8761  -23.3581   21.2331 C   0  0  0  0  0  0
  -30.7087  -22.3123   20.9913 C   0  0  0  0  0  0
  -26.6743  -17.9965   22.1703 C   0  0  0  0  0  0
  -32.9350  -22.9533   19.9172 C   0  0  0  0  0  0
  -30.9004  -21.1913   22.0258 C   0  0  0  0  0  0
  -27.9009  -17.0833   22.3194 C   0  0  0  0  0  0
  -29.7104  -24.6359   20.3985 C   0  0  0  0  0  0
  -31.5871  -22.2315   19.7457 C   0  0  0  0  0  0
  -28.3142  -25.2987   20.4572 C   0  0  0  0  0  0
  -30.0317  -15.4667   21.2104 N   0  0  0  0  0  0
  -31.4710  -12.4058   19.1247 H   0  0  0  0  0  0
  -30.3231  -11.3053   19.8298 H   0  0  0  0  0  0
  -29.7380  -11.7665   17.4359 H   0  0  0  0  0  0
  -29.6636  -13.4795   17.7562 H   0  0  0  0  0  0
  -27.8259  -11.3101   18.8238 H   0  0  0  0  0  0
  -27.3696  -12.6315   17.7827 H   0  0  0  0  0  0
  -27.7057  -14.2578   19.5700 H   0  0  0  0  0  0
  -28.6785  -11.9610   21.3312 H   0  0  0  0  0  0
  -28.4594  -13.5933   21.8719 H   0  0  0  0  0  0
  -25.2744   -9.5725   22.4785 H   0  0  0  0  0  0
  -24.0023   -7.4652   22.7472 H   0  0  0  0  0  0
  -21.0857   -8.8774   19.8937 H   0  0  0  0  0  0
  -22.3700  -10.9686   19.6172 H   0  0  0  0  0  0
  -21.1995   -7.6153   23.9732 H   0  0  0  0  0  0
  -21.1494   -6.0519   25.9089 H   0  0  0  0  0  0
  -22.0585   -2.7620   23.2819 H   0  0  0  0  0  0
  -22.4025  -11.9893   22.4755 H   0  0  0  0  0  0
  -21.1091  -13.1328   22.2533 H   0  0  0  0  0  0
  -24.6760  -15.8480   20.5256 H   0  0  0  0  0  0
  -26.2789  -15.6122   20.0471 H   0  0  0  0  0  0
  -26.7114  -32.5522   23.1176 H   0  0  0  0  0  0
  -25.0098  -33.9812   25.0535 H   0  0  0  0  0  0
  -22.6945  -31.3144   21.4211 H   0  0  0  0  0  0
  -23.3767  -35.9571   23.3307 H   0  0  0  0  0  0
  -24.3597  -36.8895   22.2054 H   0  0  0  0  0  0
  -23.7188  -37.6481   23.6653 H   0  0  0  0  0  0
  -26.0429  -31.5997   20.5900 H   0  0  0  0  0  0
  -26.8222  -30.8909   21.9762 H   0  0  0  0  0  0
  -28.1019  -29.1032   21.1591 H   0  0  0  0  0  0
  -26.0381  -25.9762   19.0028 H   0  0  0  0  0  0
  -23.9711  -27.3008   19.0400 H   0  0  0  0  0  0
  -23.7094  -30.6095   19.4128 H   0  0  0  0  0  0
  -22.7291  -29.2501   19.8720 H   0  0  0  0  0  0
  -25.1275  -36.1967   25.0840 H   0  0  0  0  0  0
  -20.9993  -28.3167   24.1479 H   0  0  0  0  0  0
  -20.5729  -26.2219   23.3621 H   0  0  0  0  0  0
  -21.6630  -26.7446   22.1193 H   0  0  0  0  0  0
  -19.6896  -25.6308   21.1261 H   0  0  0  0  0  0
  -19.6712  -27.3241   20.6825 H   0  0  0  0  0  0
  -17.4221  -26.6800   21.3994 H   0  0  0  0  0  0
  -18.0235  -26.0085   22.9010 H   0  0  0  0  0  0
  -19.7924  -30.7320   24.2242 H   0  0  0  0  0  0
  -17.5011  -31.6280   24.5192 H   0  0  0  0  0  0
  -15.5352  -30.3010   23.7673 H   0  0  0  0  0  0
  -15.8691  -28.0872   22.7016 H   0  0  0  0  0  0
  -24.5891  -30.7060   25.7828 H   0  0  0  0  0  0
  -24.8830  -32.2894   26.4839 H   0  0  0  0  0  0
  -25.8016  -30.8993   27.0279 H   0  0  0  0  0  0
  -26.2853  -29.6862   24.1093 H   0  0  0  0  0  0
  -27.4095  -29.7297   25.4509 H   0  0  0  0  0  0
  -27.8667  -30.4483   23.9237 H   0  0  0  0  0  0
  -27.2741  -33.3636   26.2030 H   0  0  0  0  0  0
  -28.3884  -32.6750   25.0320 H   0  0  0  0  0  0
  -28.0676  -31.8418   26.5428 H   0  0  0  0  0  0
  -28.2582  -38.0104   24.7536 H   0  0  0  0  0  0
  -28.1076  -36.2647   24.6246 H   0  0  0  0  0  0
  -27.2318  -37.1366   25.8882 H   0  0  0  0  0  0
  -20.9291  -29.8769   21.7026 H   0  0  0  0  0  0
  -26.0167  -38.2875   24.1478 H   0  0  0  0  0  0
  -32.6050  -19.3542   20.8238 H   0  0  0  0  0  0
  -32.2898  -16.9644   20.5101 H   0  0  0  0  0  0
  -28.6825  -19.7018   22.5131 H   0  0  0  0  0  0
  -29.2907  -23.3481   22.1452 H   0  0  0  0  0  0
  -25.7615  -17.4475   22.4000 H   0  0  0  0  0  0
  -26.5845  -18.3712   21.1500 H   0  0  0  0  0  0
  -26.7056  -18.8498   22.8476 H   0  0  0  0  0  0
  -33.4811  -22.9859   18.9745 H   0  0  0  0  0  0
  -33.5753  -22.4552   20.6480 H   0  0  0  0  0  0
  -32.7953  -23.9865   20.2422 H   0  0  0  0  0  0
  -31.9337  -21.2622   22.3689 H   0  0  0  0  0  0
  -30.3031  -21.4240   22.9076 H   0  0  0  0  0  0
  -27.9987  -16.7659   23.3577 H   0  0  0  0  0  0
  -27.6935  -16.1816   21.7456 H   0  0  0  0  0  0
  -29.9890  -24.4731   19.3587 H   0  0  0  0  0  0
  -30.4350  -25.3473   20.7959 H   0  0  0  0  0  0
  -31.0582  -22.6590   18.8954 H   0  0  0  0  0  0
  -31.7563  -21.1903   19.4732 H   0  0  0  0  0  0
  -27.9027  -25.2271   21.4663 H   0  0  0  0  0  0
  -27.6443  -24.7559   19.7906 H   0  0  0  0  0  0
  -29.1405  -15.1577   21.5664 H   0  0  0  0  0  0
  1 25  1  0  0  0
  1 30  2  0  0  0
  1 86  1  0  0  0
  2  3  1  0  0  0
  2 25  1  0  0  0
  2 87  1  0  0  0
  2 88  1  0  0  0
  3  4  1  0  0  0
  3 89  1  0  0  0
  3 90  1  0  0  0
  4  5  1  0  0  0
  4 91  1  0  0  0
  4 92  1  0  0  0
  5  6  1  0  0  0
  5 26  1  0  0  0
  5 93  1  0  0  0
  6 25  1  0  0  0
  6 94  1  0  0  0
  6 95  1  0  0  0
  7  8  2  0  0  0
  7 26  1  0  0  0
  7 29  1  0  0  0
  8  9  1  0  0  0
  8 22  1  0  0  0
  9 10  1  0  0  0
  9 27  2  0  0  0
 10 11  2  0  0  0
 10 15  1  0  0  0
 11 12  1  0  0  0
 11 96  1  0  0  0
 12 13  2  0  0  0
 12 97  1  0  0  0
 13 14  1  0  0  0
 13 31  1  0  0  0
 14 15  2  0  0  0
 14 98  1  0  0  0
 15 99  1  0  0  0
 16 17  2  0  0  0
 16 21  1  0  0  0
 16 31  1  0  0  0
 17 18  1  0  0  0
 17100  1  0  0  0
 18 19  2  0  0  0
 18101  1  0  0  0
 19 20  1  0  0  0
 19 24  1  0  0  0
 20 21  2  0  0  0
 20102  1  0  0  0
 21 23  1  0  0  0
 22 28  1  0  0  0
 22 32  2  0  0  0
 26 27  1  0  0  0
 28103  1  0  0  0
 28104  1  0  0  0
 29105  1  0  0  0
 29106  1  0  0  0
 33 34  1  0  0  0
 33 66  1  0  0  0
 33 70  2  0  0  0
 34 36  1  0  0  0
 34 59  1  0  0  0
 34107  1  0  0  0
 35 44  2  0  0  0
 35 45  1  0  0  0
 35 68  1  0  0  0
 36 56  1  0  0  0
 36108  1  0  0  0
 37 39  1  0  0  0
 37 47  1  0  0  0
 37 66  1  0  0  0
 37109  1  0  0  0
 38 43  2  0  0  0
 38 46  1  0  0  0
 38 47  1  0  0  0
 39 64  1  0  0  0
 39 67  2  0  0  0
 40 52  1  0  0  0
 40 53  2  0  0  0
 40 58  1  0  0  0
 41110  1  0  0  0
 41111  1  0  0  0
 41112  1  0  0  0
 41 48  1  0  0  0
 42 43  1  0  0  0
 42 66  1  0  0  0
 42113  1  0  0  0
 42114  1  0  0  0
 43 44  1  0  0  0
 44115  1  0  0  0
 45 46  2  0  0  0
 45116  1  0  0  0
 46117  1  0  0  0
 47118  1  0  0  0
 47119  1  0  0  0
 48 56  1  0  0  0
 48 65  1  0  0  0
 48120  1  0  0  0
 49 50  1  0  0  0
 49 53  1  0  0  0
 49 64  1  0  0  0
 49121  1  0  0  0
 50 51  1  0  0  0
 50122  1  0  0  0
 50123  1  0  0  0
 51 52  1  0  0  0
 51124  1  0  0  0
 51125  1  0  0  0
 52126  1  0  0  0
 52127  1  0  0  0
 53 54  1  0  0  0
 54 55  2  0  0  0
 54128  1  0  0  0
 55 57  1  0  0  0
 55129  1  0  0  0
 56 69  2  0  0  0
 57 58  2  0  0  0
 57130  1  0  0  0
 58131  1  0  0  0
 59 60  1  0  0  0
 59 61  1  0  0  0
 59 62  1  0  0  0
 60132  1  0  0  0
 60133  1  0  0  0
 60134  1  0  0  0
 61135  1  0  0  0
 61136  1  0  0  0
 61137  1  0  0  0
 62138  1  0  0  0
 62139  1  0  0  0
 62140  1  0  0  0
 63 65  1  0  0  0
 63141  1  0  0  0
 63142  1  0  0  0
 63143  1  0  0  0
 64144  1  0  0  0
 65145  1  0  0  0
 68 85  1  0  0  0
 71 72  2  0  0  0
 71 74  1  0  0  0
 71146  1  0  0  0
 72 76  1  0  0  0
 72147  1  0  0  0
 73 74  2  0  0  0
 73 75  1  0  0  0
 73148  1  0  0  0
 74 81  1  0  0  0
 75 76  2  0  0  0
 75 82  1  0  0  0
 76 86  1  0  0  0
 77 78  2  0  0  0
 77 83  1  0  0  0
 77149  1  0  0  0
 78 81  1  0  0  0
 78 84  1  0  0  0
 79 82  1  0  0  0
 79150  1  0  0  0
 79151  1  0  0  0
 79152  1  0  0  0
 80 84  1  0  0  0
 80153  1  0  0  0
 80154  1  0  0  0
 80155  1  0  0  0
 81156  1  0  0  0
 81157  1  0  0  0
 82158  1  0  0  0
 82159  1  0  0  0
 83 85  1  0  0  0
 83160  1  0  0  0
 83161  1  0  0  0
 84162  1  0  0  0
 84163  1  0  0  0
 85164  1  0  0  0
 85165  1  0  0  0
 86166  1  0  0  0
M  ISO  4   1 100  68 101  85 101  86 100
M  END
> <chiral flag>
0

> <version>
0

> <s_m_source_file>
/data/baiqing/PycharmProjects/Reinvent-master-3.2/result/LINK_invent/BTK/process_docking_weight1_custom_product_contain_oxygen_bond_distance_aromatic_linkinvent_7_9_3/rearranged_h_0129.sdf

> <i_m_source_file_index>
12

> <r_mmod_Potential_Energy-OPLS-2005>
-9.36693572998047

> <r_mmod_Stretch_Energy-OPLS-2005>
44.1895866394043

> <r_mmod_Bend_Energy-OPLS-2005>
111.423896789551

> <r_mmod_Torsional_Energy-OPLS-2005>
234.745498657227

> <r_mmod_Improper_Torsional_Energy-OPLS-2005>
4.75753307342529

> <r_mmod_Van_der_Waal_Energy-OPLS-2005>
152.781951904297

> <r_mmod_Electrostatic_Energy-OPLS-2005>
-380.279663085938

> <r_mmod_Solvation_Energy-OPLS-2005>
-190.283111572266

> <b_mmod_Minimization_Converged-OPLS-2005>
0

> <r_mmod_RMS_Derivative-OPLS-2005>
3.9725296497345

$$$$
12
                    3D
 Structure written by MMmdl.
159167  0  0  1  0            999 V2000
  -30.6972  -14.4706   20.5905 C   0  0  0  0  0  0
  -30.4215  -12.3073   19.4211 C   0  0  0  0  0  0
  -29.4915  -12.5037   18.2062 C   0  0  0  0  0  0
  -28.0140  -12.3608   18.6214 C   0  0  0  0  0  0
  -27.6610  -13.2067   19.8738 C   0  0  2  0  0  0
  -28.7037  -12.9928   20.9940 C   0  0  0  0  0  0
  -25.2583  -13.8161   20.5690 C   0  0  0  0  0  0
  -24.1835  -13.0433   20.9174 C   0  0  0  0  0  0
  -24.6392  -11.6901   20.8735 C   0  0  0  0  0  0
  -23.9061  -10.4286   21.0400 C   0  0  0  0  0  0
  -24.3608   -9.4203   21.9187 C   0  0  0  0  0  0
  -23.6282   -8.2244   22.0759 C   0  0  0  0  0  0
  -22.4273   -8.0277   21.3541 C   0  0  0  0  0  0
  -21.9912   -9.0243   20.4636 C   0  0  0  0  0  0
  -22.7239  -10.2123   20.3042 C   0  0  0  0  0  0
  -21.6845   -6.0730   22.5276 C   0  0  0  0  0  0
  -21.4010   -6.5634   23.8206 C   0  0  0  0  0  0
  -21.3659   -5.6793   24.9171 C   0  0  0  0  0  0
  -21.6048   -4.3056   24.7224 C   0  0  0  0  0  0
  -21.8823   -3.8149   23.4341 C   0  0  0  0  0  0
  -21.9190   -4.6964   22.3397 C   0  0  0  0  0  0
  -22.7857  -13.5214   21.1842 C   0  0  0  0  0  0
  -22.1661   -4.2151   21.0973 F   0  0  0  0  0  0
  -21.5631   -3.4539   25.7735 F   0  0  0  0  0  0
  -30.0326  -13.2917   20.4426 N   0  0  0  0  0  0
  -26.3021  -12.9332   20.3368 N   0  0  0  0  0  0
  -25.9320  -11.6489   20.5766 N   0  0  0  0  0  0
  -22.0506  -12.8195   22.0394 N   0  0  0  0  0  0
  -25.4282  -15.1885   20.4128 N   0  0  0  0  0  0
  -31.8105  -14.6531   20.0875 O   0  0  0  0  0  0
  -21.6627   -6.8877   21.4239 O   0  0  0  0  0  0
  -22.3548  -14.5530   20.6704 O   0  0  0  0  0  0
  -24.6138  -31.8675   23.2086 C   0  0  0  0  0  0
  -25.9045  -32.4819   23.8376 C   0  0  1  0  0  0
  -27.2389  -27.4446   20.0992 C   0  0  0  0  0  0
  -25.5918  -33.8613   24.2321 N   0  0  0  0  0  0
  -23.4011  -30.4873   21.5502 C   0  0  2  0  0  0
  -24.8496  -28.9506   20.1168 C   0  0  0  0  0  0
  -22.7402  -29.4640   22.5015 C   0  0  0  0  0  0
  -18.0260  -28.1349   22.8490 C   0  0  0  0  0  0
  -24.1476  -36.7289   23.2638 C   0  0  0  0  0  0
  -25.9257  -30.8383   21.3555 C   0  0  0  0  0  0
  -26.0074  -29.4699   20.7091 C   0  0  0  0  0  0
  -27.2080  -28.7250   20.6952 C   0  0  0  0  0  0
  -26.0671  -26.9322   19.5063 C   0  0  0  0  0  0
  -24.8733  -27.6807   19.5112 C   0  0  0  0  0  0
  -23.6071  -29.8122   20.1664 C   0  0  0  0  0  0
  -25.4105  -36.3098   24.0330 C   0  0  1  0  0  0
  -20.5852  -28.3640   23.1318 C   0  0  2  0  0  0
  -20.6758  -26.9383   22.5395 C   0  0  0  0  0  0
  -19.5735  -26.6371   21.5195 C   0  0  0  0  0  0
  -18.1908  -26.7903   22.1599 C   0  0  0  0  0  0
  -19.1515  -28.8812   23.2887 C   0  0  0  0  0  0
  -18.9451  -30.1425   23.8886 C   0  0  0  0  0  0
  -17.6459  -30.6571   24.0548 C   0  0  0  0  0  0
  -25.9045  -34.9468   23.5120 C   0  0  0  0  0  0
  -16.5344  -29.9069   23.6331 C   0  0  0  0  0  0
  -16.7256  -28.6478   23.0367 C   0  0  0  0  0  0
  -26.4488  -31.6596   25.0696 C   0  0  0  0  0  0
  -25.3759  -31.3636   26.1424 C   0  0  0  0  0  0
  -27.0372  -30.3081   24.6022 C   0  0  0  0  0  0
  -27.6014  -32.4339   25.7511 C   0  0  0  0  0  0
  -27.5577  -37.1786   24.8462 C   0  0  0  0  0  0
  -21.4135  -29.3014   22.3744 N   0  0  0  0  0  0
  -26.4277  -37.3800   23.9428 N   0  0  0  0  0  0
  -24.6649  -31.0782   22.0976 N   0  0  0  0  0  0
  -23.4173  -28.8188   23.3061 O   0  0  0  0  0  0
  -28.4022  -26.7126   20.0731 O   0  0  0  0  0  0
  -26.5597  -34.8925   22.4674 O   0  0  0  0  0  0
  -23.5338  -32.1416   23.7504 O   0  0  0  0  0  0
  -29.7046  -18.2793   22.9632 C   0  0  0  0  0  0
  -29.0980  -19.3890   23.5774 C   0  0  0  0  0  0
  -29.5366  -19.3995   20.8103 C   0  0  0  0  0  0
  -29.9166  -18.2643   21.5707 C   0  0  0  0  0  0
  -28.6943  -20.5077   22.8194 C   0  0  0  0  0  0
  -28.9287  -20.5296   21.4183 C   0  0  0  0  0  0
  -28.6790  -24.2563   20.0655 C   0  0  0  0  0  0
  -28.0139  -21.6537   23.5539 C   0  0  0  0  0  0
  -30.5911  -17.0559   20.9094 C   0  0  0  0  0  0
  -28.4943  -21.7185   20.5449 C   0  0  0  0  0  0
  -29.2445  -23.0454   20.8281 C   0  0  0  0  0  0
  -28.3828  -25.5273   20.8838 C   0  0  0  0  0  0
  -30.0196  -15.6634   21.3125 C   0  0  0  0  0  0
  -28.4681  -24.2030   18.8498 O   0  0  0  0  0  0
  -31.4656  -12.4032   19.1195 H   0  0  0  0  0  0
  -30.3197  -11.2967   19.8205 H   0  0  0  0  0  0
  -29.7305  -11.7784   17.4269 H   0  0  0  0  0  0
  -29.6571  -13.4901   17.7705 H   0  0  0  0  0  0
  -27.8301  -11.3054   18.8259 H   0  0  0  0  0  0
  -27.3601  -12.6261   17.7904 H   0  0  0  0  0  0
  -27.7025  -14.2521   19.5695 H   0  0  0  0  0  0
  -28.6773  -11.9580   21.3398 H   0  0  0  0  0  0
  -28.4705  -13.5982   21.8695 H   0  0  0  0  0  0
  -25.2746   -9.5686   22.4767 H   0  0  0  0  0  0
  -23.9989   -7.4638   22.7489 H   0  0  0  0  0  0
  -21.0852   -8.8757   19.8929 H   0  0  0  0  0  0
  -22.3707  -10.9659   19.6146 H   0  0  0  0  0  0
  -21.1998   -7.6143   23.9712 H   0  0  0  0  0  0
  -21.1480   -6.0519   25.9076 H   0  0  0  0  0  0
  -22.0602   -2.7611   23.2837 H   0  0  0  0  0  0
  -22.4121  -11.9844   22.4756 H   0  0  0  0  0  0
  -21.1126  -13.1215   22.2608 H   0  0  0  0  0  0
  -24.6613  -15.8422   20.5250 H   0  0  0  0  0  0
  -26.2891  -15.6351   20.1224 H   0  0  0  0  0  0
  -26.7120  -32.5551   23.1147 H   0  0  0  0  0  0
  -25.0133  -33.9779   25.0509 H   0  0  0  0  0  0
  -22.6873  -31.3010   21.4096 H   0  0  0  0  0  0
  -23.3766  -35.9586   23.3259 H   0  0  0  0  0  0
  -24.3580  -36.8965   22.2064 H   0  0  0  0  0  0
  -23.7181  -37.6451   23.6697 H   0  0  0  0  0  0
  -26.0256  -31.6010   20.5812 H   0  0  0  0  0  0
  -26.8174  -30.9014   21.9670 H   0  0  0  0  0  0
  -28.1059  -29.1252   21.1458 H   0  0  0  0  0  0
  -26.0808  -25.9590   19.0350 H   0  0  0  0  0  0
  -23.9848  -27.2744   19.0483 H   0  0  0  0  0  0
  -23.7030  -30.5805   19.3983 H   0  0  0  0  0  0
  -22.7331  -29.2219   19.8831 H   0  0  0  0  0  0
  -25.1272  -36.1950   25.0818 H   0  0  0  0  0  0
  -20.9922  -28.3201   24.1445 H   0  0  0  0  0  0
  -20.5688  -26.2242   23.3573 H   0  0  0  0  0  0
  -21.6634  -26.7440   22.1186 H   0  0  0  0  0  0
  -19.6900  -25.6283   21.1218 H   0  0  0  0  0  0
  -19.6672  -27.3186   20.6724 H   0  0  0  0  0  0
  -17.4184  -26.6655   21.3990 H   0  0  0  0  0  0
  -18.0291  -26.0022   22.8970 H   0  0  0  0  0  0
  -19.7934  -30.7225   24.2253 H   0  0  0  0  0  0
  -17.5025  -31.6264   24.5128 H   0  0  0  0  0  0
  -15.5350  -30.2973   23.7664 H   0  0  0  0  0  0
  -15.8650  -28.0797   22.7104 H   0  0  0  0  0  0
  -24.5952  -30.6976   25.7734 H   0  0  0  0  0  0
  -24.8918  -32.2762   26.4910 H   0  0  0  0  0  0
  -25.8118  -30.8774   27.0161 H   0  0  0  0  0  0
  -26.2912  -29.6787   24.1151 H   0  0  0  0  0  0
  -27.4303  -29.7353   25.4434 H   0  0  0  0  0  0
  -27.8657  -30.4476   23.9068 H   0  0  0  0  0  0
  -27.2590  -33.3642   26.2063 H   0  0  0  0  0  0
  -28.3866  -32.6906   25.0388 H   0  0  0  0  0  0
  -28.0630  -31.8479   26.5471 H   0  0  0  0  0  0
  -28.2530  -38.0151   24.7644 H   0  0  0  0  0  0
  -28.1141  -36.2686   24.6150 H   0  0  0  0  0  0
  -27.2290  -37.1272   25.8858 H   0  0  0  0  0  0
  -20.9302  -29.8757   21.6978 H   0  0  0  0  0  0
  -26.0150  -38.2854   24.1502 H   0  0  0  0  0  0
  -30.0052  -17.4417   23.5766 H   0  0  0  0  0  0
  -28.9412  -19.3729   24.6477 H   0  0  0  0  0  0
  -29.7112  -19.4019   19.7425 H   0  0  0  0  0  0
  -27.5151  -21.2938   24.4543 H   0  0  0  0  0  0
  -27.2553  -22.1446   22.9460 H   0  0  0  0  0  0
  -28.7469  -22.3980   23.8649 H   0  0  0  0  0  0
  -31.6527  -17.1009   21.1536 H   0  0  0  0  0  0
  -30.5285  -17.1679   19.8262 H   0  0  0  0  0  0
  -27.4206  -21.8641   20.6662 H   0  0  0  0  0  0
  -28.6290  -21.4555   19.4949 H   0  0  0  0  0  0
  -29.2109  -23.2849   21.8886 H   0  0  0  0  0  0
  -30.2986  -22.9369   20.5759 H   0  0  0  0  0  0
  -29.1396  -25.6267   21.6626 H   0  0  0  0  0  0
  -27.4236  -25.4027   21.3891 H   0  0  0  0  0  0
  -28.9530  -15.6690   21.0935 H   0  0  0  0  0  0
  -30.1241  -15.4994   22.3843 H   0  0  0  0  0  0
  1 25  1  0  0  0
  1 30  2  0  0  0
  1 83  1  0  0  0
  2  3  1  0  0  0
  2 25  1  0  0  0
  2 85  1  0  0  0
  2 86  1  0  0  0
  3  4  1  0  0  0
  3 87  1  0  0  0
  3 88  1  0  0  0
  4  5  1  0  0  0
  4 89  1  0  0  0
  4 90  1  0  0  0
  5  6  1  0  0  0
  5 26  1  0  0  0
  5 91  1  0  0  0
  6 25  1  0  0  0
  6 92  1  0  0  0
  6 93  1  0  0  0
  7  8  2  0  0  0
  7 26  1  0  0  0
  7 29  1  0  0  0
  8  9  1  0  0  0
  8 22  1  0  0  0
  9 10  1  0  0  0
  9 27  2  0  0  0
 10 11  2  0  0  0
 10 15  1  0  0  0
 11 12  1  0  0  0
 11 94  1  0  0  0
 12 13  2  0  0  0
 12 95  1  0  0  0
 13 14  1  0  0  0
 13 31  1  0  0  0
 14 15  2  0  0  0
 14 96  1  0  0  0
 15 97  1  0  0  0
 16 17  2  0  0  0
 16 21  1  0  0  0
 16 31  1  0  0  0
 17 18  1  0  0  0
 17 98  1  0  0  0
 18 19  2  0  0  0
 18 99  1  0  0  0
 19 20  1  0  0  0
 19 24  1  0  0  0
 20 21  2  0  0  0
 20100  1  0  0  0
 21 23  1  0  0  0
 22 28  1  0  0  0
 22 32  2  0  0  0
 26 27  1  0  0  0
 28101  1  0  0  0
 28102  1  0  0  0
 29103  1  0  0  0
 29104  1  0  0  0
 33 34  1  0  0  0
 33 66  1  0  0  0
 33 70  2  0  0  0
 34 36  1  0  0  0
 34 59  1  0  0  0
 34105  1  0  0  0
 35 44  2  0  0  0
 35 45  1  0  0  0
 35 68  1  0  0  0
 36 56  1  0  0  0
 36106  1  0  0  0
 37 39  1  0  0  0
 37 47  1  0  0  0
 37 66  1  0  0  0
 37107  1  0  0  0
 38 43  2  0  0  0
 38 46  1  0  0  0
 38 47  1  0  0  0
 39 64  1  0  0  0
 39 67  2  0  0  0
 40 52  1  0  0  0
 40 53  2  0  0  0
 40 58  1  0  0  0
 41108  1  0  0  0
 41109  1  0  0  0
 41110  1  0  0  0
 41 48  1  0  0  0
 42 43  1  0  0  0
 42 66  1  0  0  0
 42111  1  0  0  0
 42112  1  0  0  0
 43 44  1  0  0  0
 44113  1  0  0  0
 45 46  2  0  0  0
 45114  1  0  0  0
 46115  1  0  0  0
 47116  1  0  0  0
 47117  1  0  0  0
 48 56  1  0  0  0
 48 65  1  0  0  0
 48118  1  0  0  0
 49 50  1  0  0  0
 49 53  1  0  0  0
 49 64  1  0  0  0
 49119  1  0  0  0
 50 51  1  0  0  0
 50120  1  0  0  0
 50121  1  0  0  0
 51 52  1  0  0  0
 51122  1  0  0  0
 51123  1  0  0  0
 52124  1  0  0  0
 52125  1  0  0  0
 53 54  1  0  0  0
 54 55  2  0  0  0
 54126  1  0  0  0
 55 57  1  0  0  0
 55127  1  0  0  0
 56 69  2  0  0  0
 57 58  2  0  0  0
 57128  1  0  0  0
 58129  1  0  0  0
 59 60  1  0  0  0
 59 61  1  0  0  0
 59 62  1  0  0  0
 60130  1  0  0  0
 60131  1  0  0  0
 60132  1  0  0  0
 61133  1  0  0  0
 61134  1  0  0  0
 61135  1  0  0  0
 62136  1  0  0  0
 62137  1  0  0  0
 62138  1  0  0  0
 63 65  1  0  0  0
 63139  1  0  0  0
 63140  1  0  0  0
 63141  1  0  0  0
 64142  1  0  0  0
 65143  1  0  0  0
 68 82  1  0  0  0
 71 72  2  0  0  0
 71 74  1  0  0  0
 71144  1  0  0  0
 72 75  1  0  0  0
 72145  1  0  0  0
 73 74  2  0  0  0
 73 76  1  0  0  0
 73146  1  0  0  0
 74 79  1  0  0  0
 75 76  2  0  0  0
 75 78  1  0  0  0
 76 80  1  0  0  0
 77 81  1  0  0  0
 77 82  1  0  0  0
 77 84  2  0  0  0
 78147  1  0  0  0
 78148  1  0  0  0
 78149  1  0  0  0
 79 83  1  0  0  0
 79150  1  0  0  0
 79151  1  0  0  0
 80 81  1  0  0  0
 80152  1  0  0  0
 80153  1  0  0  0
 81154  1  0  0  0
 81155  1  0  0  0
 82156  1  0  0  0
 82157  1  0  0  0
 83158  1  0  0  0
 83159  1  0  0  0
M  ISO  4   1 100  68 101  82 101  83 100
M  END
> <chiral flag>
0

> <version>
0

> <s_m_source_file>
/data/baiqing/PycharmProjects/Reinvent-master-3.2/result/LINK_invent/BTK/process_docking_weight1_custom_product_contain_oxygen_bond_distance_aromatic_linkinvent_7_9_3/rearranged_h_0129.sdf

> <i_m_source_file_index>
13

> <r_mmod_Potential_Energy-OPLS-2005>
-76.2309875488281

> <r_mmod_Stretch_Energy-OPLS-2005>
38.0902824401855

> <r_mmod_Bend_Energy-OPLS-2005>
86.8879089355469

> <r_mmod_Torsional_Energy-OPLS-2005>
195.622024536133

> <r_mmod_Improper_Torsional_Energy-OPLS-2005>
2.42376613616943

> <r_mmod_Van_der_Waal_Energy-OPLS-2005>
146.427734375

> <r_mmod_Electrostatic_Energy-OPLS-2005>
-348.979400634766

> <r_mmod_Solvation_Energy-OPLS-2005>
-207.495254516602

> <b_mmod_Minimization_Converged-OPLS-2005>
0

> <r_mmod_RMS_Derivative-OPLS-2005>
1.55145144462585

$$$$
13
                    3D
 Structure written by MMmdl.
159168  0  0  1  0            999 V2000
  -30.6460  -14.5405   20.4304 C   0  0  0  0  0  0
  -30.4164  -12.3106   19.4334 C   0  0  0  0  0  0
  -29.4949  -12.4767   18.2068 C   0  0  0  0  0  0
  -28.0146  -12.3357   18.6143 C   0  0  0  0  0  0
  -27.6506  -13.1960   19.8575 C   0  0  2  0  0  0
  -28.6997  -13.0203   20.9811 C   0  0  0  0  0  0
  -25.2567  -13.8105   20.5675 C   0  0  0  0  0  0
  -24.1792  -13.0385   20.9186 C   0  0  0  0  0  0
  -24.6339  -11.6871   20.8738 C   0  0  0  0  0  0
  -23.9026  -10.4247   21.0381 C   0  0  0  0  0  0
  -24.3612   -9.4188   21.9174 C   0  0  0  0  0  0
  -23.6291   -8.2249   22.0780 C   0  0  0  0  0  0
  -22.4253   -8.0261   21.3582 C   0  0  0  0  0  0
  -21.9860   -9.0205   20.4662 C   0  0  0  0  0  0
  -22.7179  -10.2081   20.3040 C   0  0  0  0  0  0
  -21.6829   -6.0749   22.5292 C   0  0  0  0  0  0
  -21.4014   -6.5662   23.8225 C   0  0  0  0  0  0
  -21.3652   -5.6838   24.9194 C   0  0  0  0  0  0
  -21.6016   -4.3095   24.7256 C   0  0  0  0  0  0
  -21.8831   -3.8181   23.4389 C   0  0  0  0  0  0
  -21.9186   -4.6978   22.3425 C   0  0  0  0  0  0
  -22.7829  -13.5213   21.1851 C   0  0  0  0  0  0
  -22.1654   -4.2161   21.1003 F   0  0  0  0  0  0
  -21.5609   -3.4572   25.7781 F   0  0  0  0  0  0
  -30.0249  -13.3265   20.4210 N   0  0  0  0  0  0
  -26.2969  -12.9244   20.3307 N   0  0  0  0  0  0
  -25.9263  -11.6412   20.5772 N   0  0  0  0  0  0
  -22.0515  -12.8117   22.0407 N   0  0  0  0  0  0
  -25.4310  -15.1807   20.4124 N   0  0  0  0  0  0
  -31.8402  -14.6479   20.1335 O   0  0  0  0  0  0
  -21.6648   -6.8846   21.4252 O   0  0  0  0  0  0
  -22.3474  -14.5528   20.6768 O   0  0  0  0  0  0
  -24.6303  -31.8618   23.2073 C   0  0  0  0  0  0
  -25.9167  -32.4768   23.8369 C   0  0  1  0  0  0
  -27.1714  -27.3295   20.0587 C   0  0  0  0  0  0
  -25.6009  -33.8582   24.2300 N   0  0  0  0  0  0
  -23.4162  -30.4953   21.5556 C   0  0  2  0  0  0
  -24.8369  -28.9594   20.1028 C   0  0  0  0  0  0
  -22.7475  -29.4652   22.4971 C   0  0  0  0  0  0
  -18.0301  -28.1380   22.8498 C   0  0  0  0  0  0
  -24.1491  -36.7293   23.2619 C   0  0  0  0  0  0
  -25.9588  -30.7848   21.3769 C   0  0  0  0  0  0
  -26.0133  -29.4207   20.7045 C   0  0  0  0  0  0
  -27.1858  -28.6165   20.6732 C   0  0  0  0  0  0
  -25.9572  -26.8995   19.4771 C   0  0  0  0  0  0
  -24.8080  -27.7039   19.4805 C   0  0  0  0  0  0
  -23.6170  -29.8482   20.1647 C   0  0  0  0  0  0
  -25.4116  -36.3079   24.0319 C   0  0  1  0  0  0
  -20.5890  -28.3703   23.1280 C   0  0  2  0  0  0
  -20.6802  -26.9436   22.5398 C   0  0  0  0  0  0
  -19.5758  -26.6390   21.5217 C   0  0  0  0  0  0
  -18.1938  -26.7925   22.1624 C   0  0  0  0  0  0
  -19.1540  -28.8867   23.2881 C   0  0  0  0  0  0
  -18.9457  -30.1478   23.8880 C   0  0  0  0  0  0
  -17.6456  -30.6587   24.0587 C   0  0  0  0  0  0
  -25.9072  -34.9451   23.5089 C   0  0  0  0  0  0
  -16.5356  -29.9094   23.6343 C   0  0  0  0  0  0
  -16.7287  -28.6510   23.0364 C   0  0  0  0  0  0
  -26.4548  -31.6564   25.0728 C   0  0  0  0  0  0
  -25.3778  -31.3705   26.1449 C   0  0  0  0  0  0
  -27.0394  -30.2981   24.6180 C   0  0  0  0  0  0
  -27.6105  -32.4306   25.7515 C   0  0  0  0  0  0
  -27.5600  -37.1792   24.8454 C   0  0  0  0  0  0
  -21.4193  -29.3054   22.3679 N   0  0  0  0  0  0
  -26.4291  -37.3779   23.9422 N   0  0  0  0  0  0
  -24.6900  -31.0626   22.1026 N   0  0  0  0  0  0
  -23.4186  -28.8165   23.3032 O   0  0  0  0  0  0
  -28.2944  -26.5032   20.0666 O   0  0  0  0  0  0
  -26.5611  -34.8913   22.4639 O   0  0  0  0  0  0
  -23.5484  -32.1456   23.7413 O   0  0  0  0  0  0
  -27.8851  -18.1463   20.0978 C   0  0  0  0  0  0
  -27.1386  -19.3420   20.0464 C   0  0  0  0  0  0
  -29.9102  -19.4525   19.9460 C   0  0  0  0  0  0
  -29.2940  -18.1802   20.0517 C   0  0  0  0  0  0
  -27.7481  -20.6205   19.9495 C   0  0  0  0  0  0
  -29.1780  -20.6747   19.8820 C   0  0  0  0  0  0
  -30.1207  -16.9376   20.0994 C   0  0  0  0  0  0
  -29.7519  -15.7103   20.5514 C   0  0  0  0  0  0
  -26.7548  -21.8026   19.8179 C   0  0  0  0  0  0
  -30.0262  -21.9387   19.6472 C   0  0  0  0  0  0
  -27.1041  -23.2591   20.2392 C   0  0  0  0  0  0
  -29.5784  -23.3168   20.1851 C   0  0  0  0  0  0
  -28.3187  -23.8587   19.4997 C   0  0  2  0  0  0
  -28.3793  -25.3986   19.1089 C   0  0  0  0  0  0
  -31.4657  -12.3866   19.1464 H   0  0  0  0  0  0
  -30.2963  -11.3179   19.8659 H   0  0  0  0  0  0
  -29.7426  -11.7270   17.4535 H   0  0  0  0  0  0
  -29.6623  -13.4469   17.7381 H   0  0  0  0  0  0
  -27.8314  -11.2817   18.8246 H   0  0  0  0  0  0
  -27.3720  -12.6002   17.7715 H   0  0  0  0  0  0
  -27.6710  -14.2301   19.5203 H   0  0  0  0  0  0
  -28.6911  -11.9950   21.3559 H   0  0  0  0  0  0
  -28.4763  -13.6487   21.8447 H   0  0  0  0  0  0
  -25.2752   -9.5684   22.4754 H   0  0  0  0  0  0
  -24.0012   -7.4617   22.7460 H   0  0  0  0  0  0
  -21.0815   -8.8660   19.8912 H   0  0  0  0  0  0
  -22.3608  -10.9633   19.6170 H   0  0  0  0  0  0
  -21.2037   -7.6172   23.9714 H   0  0  0  0  0  0
  -21.1444   -6.0601   25.9087 H   0  0  0  0  0  0
  -22.0617   -2.7639   23.2931 H   0  0  0  0  0  0
  -22.4176  -11.9809   22.4799 H   0  0  0  0  0  0
  -21.1133  -13.1066   22.2669 H   0  0  0  0  0  0
  -24.6762  -15.8498   20.5170 H   0  0  0  0  0  0
  -26.2884  -15.5992   20.0822 H   0  0  0  0  0  0
  -26.7200  -32.5395   23.1083 H   0  0  0  0  0  0
  -25.0231  -33.9734   25.0489 H   0  0  0  0  0  0
  -22.7115  -31.3203   21.4263 H   0  0  0  0  0  0
  -23.3773  -35.9606   23.3260 H   0  0  0  0  0  0
  -24.3575  -36.8950   22.2039 H   0  0  0  0  0  0
  -23.7227  -37.6473   23.6666 H   0  0  0  0  0  0
  -26.0933  -31.5499   20.6144 H   0  0  0  0  0  0
  -26.8415  -30.8176   22.0049 H   0  0  0  0  0  0
  -28.1014  -28.9626   21.1280 H   0  0  0  0  0  0
  -25.8502  -25.9213   19.0364 H   0  0  0  0  0  0
  -23.8920  -27.3550   19.0224 H   0  0  0  0  0  0
  -23.7436  -30.6348   19.4211 H   0  0  0  0  0  0
  -22.7306  -29.2938   19.8542 H   0  0  0  0  0  0
  -25.1288  -36.1935   25.0817 H   0  0  0  0  0  0
  -20.9981  -28.3282   24.1405 H   0  0  0  0  0  0
  -20.5777  -26.2313   23.3590 H   0  0  0  0  0  0
  -21.6666  -26.7519   22.1132 H   0  0  0  0  0  0
  -19.6944  -25.6301   21.1261 H   0  0  0  0  0  0
  -19.6687  -27.3221   20.6759 H   0  0  0  0  0  0
  -17.4219  -26.6723   21.4023 H   0  0  0  0  0  0
  -18.0339  -26.0054   22.9008 H   0  0  0  0  0  0
  -19.7925  -30.7345   24.2212 H   0  0  0  0  0  0
  -17.4992  -31.6253   24.5208 H   0  0  0  0  0  0
  -15.5362  -30.2993   23.7641 H   0  0  0  0  0  0
  -15.8692  -28.0848   22.7041 H   0  0  0  0  0  0
  -24.5936  -30.7083   25.7757 H   0  0  0  0  0  0
  -24.8993  -32.2874   26.4903 H   0  0  0  0  0  0
  -25.8090  -30.8833   27.0201 H   0  0  0  0  0  0
  -26.2945  -29.6712   24.1249 H   0  0  0  0  0  0
  -27.4137  -29.7253   25.4682 H   0  0  0  0  0  0
  -27.8810  -30.4261   23.9364 H   0  0  0  0  0  0
  -27.2712  -33.3611   26.2082 H   0  0  0  0  0  0
  -28.3933  -32.6866   25.0359 H   0  0  0  0  0  0
  -28.0751  -31.8436   26.5446 H   0  0  0  0  0  0
  -28.2556  -38.0147   24.7580 H   0  0  0  0  0  0
  -28.1170  -36.2693   24.6192 H   0  0  0  0  0  0
  -27.2327  -37.1330   25.8848 H   0  0  0  0  0  0
  -20.9393  -29.8758   21.6867 H   0  0  0  0  0  0
  -26.0184  -38.2845   24.1472 H   0  0  0  0  0  0
  -27.3607  -17.2001   20.1331 H   0  0  0  0  0  0
  -26.0574  -19.2601   20.0487 H   0  0  0  0  0  0
  -30.9907  -19.4881   19.8790 H   0  0  0  0  0  0
  -31.1117  -17.0433   19.6763 H   0  0  0  0  0  0
  -28.7697  -15.6039   20.9826 H   0  0  0  0  0  0
  -25.8768  -21.5334   20.4107 H   0  0  0  0  0  0
  -26.3987  -21.8105   18.7858 H   0  0  0  0  0  0
  -30.2110  -22.0058   18.5718 H   0  0  0  0  0  0
  -31.0050  -21.7569   20.0975 H   0  0  0  0  0  0
  -27.2457  -23.2978   21.3197 H   0  0  0  0  0  0
  -26.2180  -23.8656   20.0478 H   0  0  0  0  0  0
  -30.4030  -24.0081   20.0074 H   0  0  0  0  0  0
  -29.4623  -23.2951   21.2715 H   0  0  0  0  0  0
  -28.2898  -23.4008   18.5077 H   0  0  0  0  0  0
  -27.7450  -25.5595   18.2343 H   0  0  0  0  0  0
  -29.3679  -25.5347   18.6683 H   0  0  0  0  0  0
  1 25  1  0  0  0
  1 30  2  0  0  0
  1 78  1  0  0  0
  2  3  1  0  0  0
  2 25  1  0  0  0
  2 85  1  0  0  0
  2 86  1  0  0  0
  3  4  1  0  0  0
  3 87  1  0  0  0
  3 88  1  0  0  0
  4  5  1  0  0  0
  4 89  1  0  0  0
  4 90  1  0  0  0
  5  6  1  0  0  0
  5 26  1  0  0  0
  5 91  1  0  0  0
  6 25  1  0  0  0
  6 92  1  0  0  0
  6 93  1  0  0  0
  7  8  2  0  0  0
  7 26  1  0  0  0
  7 29  1  0  0  0
  8  9  1  0  0  0
  8 22  1  0  0  0
  9 10  1  0  0  0
  9 27  2  0  0  0
 10 11  2  0  0  0
 10 15  1  0  0  0
 11 12  1  0  0  0
 11 94  1  0  0  0
 12 13  2  0  0  0
 12 95  1  0  0  0
 13 14  1  0  0  0
 13 31  1  0  0  0
 14 15  2  0  0  0
 14 96  1  0  0  0
 15 97  1  0  0  0
 16 17  2  0  0  0
 16 21  1  0  0  0
 16 31  1  0  0  0
 17 18  1  0  0  0
 17 98  1  0  0  0
 18 19  2  0  0  0
 18 99  1  0  0  0
 19 20  1  0  0  0
 19 24  1  0  0  0
 20 21  2  0  0  0
 20100  1  0  0  0
 21 23  1  0  0  0
 22 28  1  0  0  0
 22 32  2  0  0  0
 26 27  1  0  0  0
 28101  1  0  0  0
 28102  1  0  0  0
 29103  1  0  0  0
 29104  1  0  0  0
 33 34  1  0  0  0
 33 66  1  0  0  0
 33 70  2  0  0  0
 34 36  1  0  0  0
 34 59  1  0  0  0
 34105  1  0  0  0
 35 44  2  0  0  0
 35 45  1  0  0  0
 35 68  1  0  0  0
 36 56  1  0  0  0
 36106  1  0  0  0
 37 39  1  0  0  0
 37 47  1  0  0  0
 37 66  1  0  0  0
 37107  1  0  0  0
 38 43  2  0  0  0
 38 46  1  0  0  0
 38 47  1  0  0  0
 39 64  1  0  0  0
 39 67  2  0  0  0
 40 52  1  0  0  0
 40 53  2  0  0  0
 40 58  1  0  0  0
 41108  1  0  0  0
 41109  1  0  0  0
 41110  1  0  0  0
 41 48  1  0  0  0
 42 43  1  0  0  0
 42 66  1  0  0  0
 42111  1  0  0  0
 42112  1  0  0  0
 43 44  1  0  0  0
 44113  1  0  0  0
 45 46  2  0  0  0
 45114  1  0  0  0
 46115  1  0  0  0
 47116  1  0  0  0
 47117  1  0  0  0
 48 56  1  0  0  0
 48 65  1  0  0  0
 48118  1  0  0  0
 49 50  1  0  0  0
 49 53  1  0  0  0
 49 64  1  0  0  0
 49119  1  0  0  0
 50 51  1  0  0  0
 50120  1  0  0  0
 50121  1  0  0  0
 51 52  1  0  0  0
 51122  1  0  0  0
 51123  1  0  0  0
 52124  1  0  0  0
 52125  1  0  0  0
 53 54  1  0  0  0
 54 55  2  0  0  0
 54126  1  0  0  0
 55 57  1  0  0  0
 55127  1  0  0  0
 56 69  2  0  0  0
 57 58  2  0  0  0
 57128  1  0  0  0
 58129  1  0  0  0
 59 60  1  0  0  0
 59 61  1  0  0  0
 59 62  1  0  0  0
 60130  1  0  0  0
 60131  1  0  0  0
 60132  1  0  0  0
 61133  1  0  0  0
 61134  1  0  0  0
 61135  1  0  0  0
 62136  1  0  0  0
 62137  1  0  0  0
 62138  1  0  0  0
 63 65  1  0  0  0
 63139  1  0  0  0
 63140  1  0  0  0
 63141  1  0  0  0
 64142  1  0  0  0
 65143  1  0  0  0
 68 84  1  0  0  0
 71 72  2  0  0  0
 71 74  1  0  0  0
 71144  1  0  0  0
 72 75  1  0  0  0
 72145  1  0  0  0
 73 74  2  0  0  0
 73 76  1  0  0  0
 73146  1  0  0  0
 74 77  1  0  0  0
 75 76  2  0  0  0
 75 79  1  0  0  0
 76 80  1  0  0  0
 77 78  2  0  0  0
 77147  1  0  0  0
 78148  1  0  0  0
 79 81  1  0  0  0
 79149  1  0  0  0
 79150  1  0  0  0
 80 82  1  0  0  0
 80151  1  0  0  0
 80152  1  0  0  0
 81 83  1  0  0  0
 81153  1  0  0  0
 81154  1  0  0  0
 82 83  1  0  0  0
 82155  1  0  0  0
 82156  1  0  0  0
 83 84  1  0  0  0
 83157  1  0  0  0
 84158  1  0  0  0
 84159  1  0  0  0
M  ISO  4   1 100  68 101  78 100  84 101
M  END
> <chiral flag>
0

> <version>
0

> <s_m_source_file>
/data/baiqing/PycharmProjects/Reinvent-master-3.2/result/LINK_invent/BTK/process_docking_weight1_custom_product_contain_oxygen_bond_distance_aromatic_linkinvent_7_9_3/rearranged_h_0129.sdf

> <i_m_source_file_index>
14

> <r_mmod_Potential_Energy-OPLS-2005>
113.334419250488

> <r_mmod_Stretch_Energy-OPLS-2005>
55.4391899108887

> <r_mmod_Bend_Energy-OPLS-2005>
168.098114013672

> <r_mmod_Torsional_Energy-OPLS-2005>
214.478424072266

> <r_mmod_Improper_Torsional_Energy-OPLS-2005>
6.88004636764526

> <r_mmod_Van_der_Waal_Energy-OPLS-2005>
158.663635253906

> <r_mmod_Electrostatic_Energy-OPLS-2005>
-337.275024414062

> <r_mmod_Solvation_Energy-OPLS-2005>
-192.839904785156

> <b_mmod_Minimization_Converged-OPLS-2005>
0

> <r_mmod_RMS_Derivative-OPLS-2005>
6.1664891242981

$$$$
14
                    3D
 Structure written by MMmdl.
164172  0  0  1  0            999 V2000
  -30.6348  -14.6064   20.5246 C   0  0  0  0  0  0
  -30.4391  -12.3761   19.4471 C   0  0  0  0  0  0
  -29.5073  -12.5127   18.2223 C   0  0  0  0  0  0
  -28.0294  -12.3542   18.6327 C   0  0  0  0  0  0
  -27.6580  -13.2139   19.8703 C   0  0  2  0  0  0
  -28.7020  -13.0419   20.9973 C   0  0  0  0  0  0
  -25.2572  -13.8163   20.5674 C   0  0  0  0  0  0
  -24.1835  -13.0436   20.9188 C   0  0  0  0  0  0
  -24.6399  -11.6906   20.8740 C   0  0  0  0  0  0
  -23.9064  -10.4292   21.0404 C   0  0  0  0  0  0
  -24.3614   -9.4208   21.9182 C   0  0  0  0  0  0
  -23.6289   -8.2243   22.0753 C   0  0  0  0  0  0
  -22.4271   -8.0282   21.3543 C   0  0  0  0  0  0
  -21.9906   -9.0256   20.4647 C   0  0  0  0  0  0
  -22.7235  -10.2136   20.3054 C   0  0  0  0  0  0
  -21.6853   -6.0734   22.5278 C   0  0  0  0  0  0
  -21.4014   -6.5637   23.8211 C   0  0  0  0  0  0
  -21.3659   -5.6789   24.9174 C   0  0  0  0  0  0
  -21.6042   -4.3052   24.7224 C   0  0  0  0  0  0
  -21.8819   -3.8145   23.4346 C   0  0  0  0  0  0
  -21.9193   -4.6961   22.3402 C   0  0  0  0  0  0
  -22.7857  -13.5234   21.1848 C   0  0  0  0  0  0
  -22.1662   -4.2147   21.0980 F   0  0  0  0  0  0
  -21.5628   -3.4537   25.7737 F   0  0  0  0  0  0
  -30.0231  -13.3836   20.4419 N   0  0  0  0  0  0
  -26.3011  -12.9345   20.3344 N   0  0  0  0  0  0
  -25.9329  -11.6501   20.5764 N   0  0  0  0  0  0
  -22.0494  -12.8231   22.0406 N   0  0  0  0  0  0
  -25.4269  -15.1879   20.4048 N   0  0  0  0  0  0
  -31.7786  -14.7870   20.0955 O   0  0  0  0  0  0
  -21.6637   -6.8878   21.4240 O   0  0  0  0  0  0
  -22.3543  -14.5541   20.6698 O   0  0  0  0  0  0
  -24.6242  -31.8618   23.2049 C   0  0  0  0  0  0
  -25.9102  -32.4788   23.8367 C   0  0  1  0  0  0
  -27.2259  -27.3400   20.1080 C   0  0  0  0  0  0
  -25.5927  -33.8588   24.2296 N   0  0  0  0  0  0
  -23.4166  -30.4868   21.5475 C   0  0  2  0  0  0
  -24.8629  -28.9475   20.1103 C   0  0  0  0  0  0
  -22.7466  -29.4633   22.4945 C   0  0  0  0  0  0
  -18.0285  -28.1384   22.8488 C   0  0  0  0  0  0
  -24.1488  -36.7293   23.2637 C   0  0  0  0  0  0
  -25.9566  -30.7980   21.3743 C   0  0  0  0  0  0
  -26.0308  -29.4279   20.7153 C   0  0  0  0  0  0
  -27.2143  -28.6347   20.7076 C   0  0  0  0  0  0
  -26.0341  -26.9127   19.4738 C   0  0  0  0  0  0
  -24.8653  -27.6941   19.4822 C   0  0  0  0  0  0
  -23.6300  -29.8248   20.1613 C   0  0  0  0  0  0
  -25.4110  -36.3088   24.0332 C   0  0  1  0  0  0
  -20.5885  -28.3685   23.1290 C   0  0  2  0  0  0
  -20.6774  -26.9410   22.5414 C   0  0  0  0  0  0
  -19.5752  -26.6387   21.5213 C   0  0  0  0  0  0
  -18.1930  -26.7929   22.1622 C   0  0  0  0  0  0
  -19.1538  -28.8851   23.2885 C   0  0  0  0  0  0
  -18.9461  -30.1454   23.8897 C   0  0  0  0  0  0
  -17.6461  -30.6585   24.0565 C   0  0  0  0  0  0
  -25.9047  -34.9457   23.5112 C   0  0  0  0  0  0
  -16.5352  -29.9085   23.6330 C   0  0  0  0  0  0
  -16.7274  -28.6504   23.0349 C   0  0  0  0  0  0
  -26.4490  -31.6589   25.0727 C   0  0  0  0  0  0
  -25.3734  -31.3729   26.1465 C   0  0  0  0  0  0
  -27.0327  -30.3014   24.6167 C   0  0  0  0  0  0
  -27.6056  -32.4319   25.7492 C   0  0  0  0  0  0
  -27.5581  -37.1799   24.8460 C   0  0  0  0  0  0
  -21.4182  -29.3041   22.3686 N   0  0  0  0  0  0
  -26.4288  -37.3782   23.9412 N   0  0  0  0  0  0
  -24.6846  -31.0648   22.0992 N   0  0  0  0  0  0
  -23.4200  -28.8168   23.3013 O   0  0  0  0  0  0
  -28.3479  -26.5018   20.1641 O   0  0  0  0  0  0
  -26.5611  -34.8919   22.4674 O   0  0  0  0  0  0
  -23.5411  -32.1409   23.7389 O   0  0  0  0  0  0
  -29.0308  -19.2785   21.6328 C   0  0  0  0  0  0
  -30.8015  -17.7982   20.0554 C   0  0  0  0  0  0
  -29.9280  -20.0052   20.8139 C   0  0  0  0  0  0
  -29.0208  -17.8552   21.6829 C   0  0  0  0  0  0
  -30.8083  -19.2272   20.0013 C   0  0  0  0  0  0
  -29.9236  -17.0755   20.9067 C   0  0  0  0  0  0
  -29.2093  -24.0730   20.4489 C   0  0  0  0  0  0
  -28.0357  -17.1719   22.6177 C   0  0  0  0  0  0
  -34.1672  -20.8543   18.8420 C   0  0  0  0  0  0
  -30.0304  -21.5663   20.9651 C   0  0  0  0  0  0
  -31.8101  -19.8966   19.0717 C   0  0  0  0  0  0
  -29.0159  -22.5241   20.2224 C   0  0  0  0  0  0
  -28.1231  -25.0654   19.9061 C   0  0  0  0  0  0
  -33.1790  -20.1009   19.7401 C   0  0  0  0  0  0
  -29.8524  -15.6201   20.9980 N   0  0  0  0  0  0
  -30.2028  -24.4989   21.0471 O   0  0  0  0  0  0
  -31.4806  -12.4987   19.1452 H   0  0  0  0  0  0
  -30.3692  -11.3744   19.8738 H   0  0  0  0  0  0
  -29.7667  -11.7703   17.4663 H   0  0  0  0  0  0
  -29.6550  -13.4880   17.7556 H   0  0  0  0  0  0
  -27.8595  -11.2995   18.8527 H   0  0  0  0  0  0
  -27.3761  -12.5982   17.7940 H   0  0  0  0  0  0
  -27.6854  -14.2544   19.5457 H   0  0  0  0  0  0
  -28.7061  -12.0121   21.3578 H   0  0  0  0  0  0
  -28.4465  -13.6526   21.8642 H   0  0  0  0  0  0
  -25.2759   -9.5683   22.4757 H   0  0  0  0  0  0
  -23.9998   -7.4633   22.7470 H   0  0  0  0  0  0
  -21.0838   -8.8775   19.8952 H   0  0  0  0  0  0
  -22.3694  -10.9674   19.6163 H   0  0  0  0  0  0
  -21.2008   -7.6143   23.9714 H   0  0  0  0  0  0
  -21.1478   -6.0519   25.9076 H   0  0  0  0  0  0
  -22.0598   -2.7608   23.2846 H   0  0  0  0  0  0
  -22.4100  -11.9888   22.4793 H   0  0  0  0  0  0
  -21.1112  -13.1262   22.2608 H   0  0  0  0  0  0
  -24.6556  -15.8389   20.5034 H   0  0  0  0  0  0
  -26.2693  -15.6241   20.0527 H   0  0  0  0  0  0
  -26.7168  -32.5464   23.1115 H   0  0  0  0  0  0
  -25.0085  -33.9737   25.0448 H   0  0  0  0  0  0
  -22.7094  -31.3068   21.4074 H   0  0  0  0  0  0
  -23.3751  -35.9624   23.3297 H   0  0  0  0  0  0
  -24.3581  -36.8914   22.2052 H   0  0  0  0  0  0
  -23.7239  -37.6496   23.6655 H   0  0  0  0  0  0
  -26.0874  -31.5633   20.6079 H   0  0  0  0  0  0
  -26.8375  -30.8447   22.0030 H   0  0  0  0  0  0
  -28.1092  -28.9983   21.1931 H   0  0  0  0  0  0
  -25.9721  -25.9606   18.9679 H   0  0  0  0  0  0
  -23.9712  -27.3224   19.0008 H   0  0  0  0  0  0
  -23.7472  -30.6028   19.4061 H   0  0  0  0  0  0
  -22.7504  -29.2536   19.8592 H   0  0  0  0  0  0
  -25.1288  -36.1941   25.0824 H   0  0  0  0  0  0
  -20.9981  -28.3259   24.1409 H   0  0  0  0  0  0
  -20.5678  -26.2293   23.3611 H   0  0  0  0  0  0
  -21.6644  -26.7443   22.1207 H   0  0  0  0  0  0
  -19.6911  -25.6300   21.1237 H   0  0  0  0  0  0
  -19.6689  -27.3203   20.6746 H   0  0  0  0  0  0
  -17.4204  -26.6686   21.4019 H   0  0  0  0  0  0
  -18.0321  -26.0069   22.9015 H   0  0  0  0  0  0
  -19.7937  -30.7272   24.2265 H   0  0  0  0  0  0
  -17.5015  -31.6263   24.5173 H   0  0  0  0  0  0
  -15.5352  -30.2986   23.7652 H   0  0  0  0  0  0
  -15.8676  -28.0824   22.7058 H   0  0  0  0  0  0
  -24.5902  -30.7081   25.7804 H   0  0  0  0  0  0
  -24.8934  -32.2900   26.4892 H   0  0  0  0  0  0
  -25.8071  -30.8910   27.0237 H   0  0  0  0  0  0
  -26.2894  -29.6772   24.1194 H   0  0  0  0  0  0
  -27.4035  -29.7261   25.4660 H   0  0  0  0  0  0
  -27.8760  -30.4301   23.9378 H   0  0  0  0  0  0
  -27.2668  -33.3617   26.2073 H   0  0  0  0  0  0
  -28.3861  -32.6884   25.0318 H   0  0  0  0  0  0
  -28.0726  -31.8444   26.5406 H   0  0  0  0  0  0
  -28.2592  -38.0103   24.7521 H   0  0  0  0  0  0
  -28.1085  -36.2636   24.6263 H   0  0  0  0  0  0
  -27.2304  -37.1427   25.8864 H   0  0  0  0  0  0
  -20.9355  -29.8767   21.6903 H   0  0  0  0  0  0
  -26.0170  -38.2855   24.1423 H   0  0  0  0  0  0
  -28.3563  -19.8310   22.2727 H   0  0  0  0  0  0
  -31.4958  -17.2568   19.4287 H   0  0  0  0  0  0
  -27.3999  -17.8944   23.1299 H   0  0  0  0  0  0
  -28.5669  -16.5997   23.3789 H   0  0  0  0  0  0
  -27.3850  -16.4933   22.0670 H   0  0  0  0  0  0
  -35.1256  -20.9879   19.3449 H   0  0  0  0  0  0
  -33.7898  -21.8441   18.5827 H   0  0  0  0  0  0
  -34.3525  -20.3123   17.9141 H   0  0  0  0  0  0
  -31.0435  -21.8819   20.7199 H   0  0  0  0  0  0
  -29.9478  -21.7738   22.0330 H   0  0  0  0  0  0
  -31.4096  -20.8460   18.7150 H   0  0  0  0  0  0
  -31.9284  -19.2818   18.1781 H   0  0  0  0  0  0
  -29.0729  -22.3416   19.1497 H   0  0  0  0  0  0
  -27.9992  -22.2704   20.5214 H   0  0  0  0  0  0
  -27.1823  -24.7564   20.3626 H   0  0  0  0  0  0
  -28.0280  -24.9091   18.8313 H   0  0  0  0  0  0
  -33.0576  -20.6526   20.6728 H   0  0  0  0  0  0
  -33.6009  -19.1325   20.0128 H   0  0  0  0  0  0
  -29.0029  -15.2780   21.4183 H   0  0  0  0  0  0
  1 25  1  0  0  0
  1 30  2  0  0  0
  1 85  1  0  0  0
  2  3  1  0  0  0
  2 25  1  0  0  0
  2 87  1  0  0  0
  2 88  1  0  0  0
  3  4  1  0  0  0
  3 89  1  0  0  0
  3 90  1  0  0  0
  4  5  1  0  0  0
  4 91  1  0  0  0
  4 92  1  0  0  0
  5  6  1  0  0  0
  5 26  1  0  0  0
  5 93  1  0  0  0
  6 25  1  0  0  0
  6 94  1  0  0  0
  6 95  1  0  0  0
  7  8  2  0  0  0
  7 26  1  0  0  0
  7 29  1  0  0  0
  8  9  1  0  0  0
  8 22  1  0  0  0
  9 10  1  0  0  0
  9 27  2  0  0  0
 10 11  2  0  0  0
 10 15  1  0  0  0
 11 12  1  0  0  0
 11 96  1  0  0  0
 12 13  2  0  0  0
 12 97  1  0  0  0
 13 14  1  0  0  0
 13 31  1  0  0  0
 14 15  2  0  0  0
 14 98  1  0  0  0
 15 99  1  0  0  0
 16 17  2  0  0  0
 16 21  1  0  0  0
 16 31  1  0  0  0
 17 18  1  0  0  0
 17100  1  0  0  0
 18 19  2  0  0  0
 18101  1  0  0  0
 19 20  1  0  0  0
 19 24  1  0  0  0
 20 21  2  0  0  0
 20102  1  0  0  0
 21 23  1  0  0  0
 22 28  1  0  0  0
 22 32  2  0  0  0
 26 27  1  0  0  0
 28103  1  0  0  0
 28104  1  0  0  0
 29105  1  0  0  0
 29106  1  0  0  0
 33 34  1  0  0  0
 33 66  1  0  0  0
 33 70  2  0  0  0
 34 36  1  0  0  0
 34 59  1  0  0  0
 34107  1  0  0  0
 35 44  2  0  0  0
 35 45  1  0  0  0
 35 68  1  0  0  0
 36 56  1  0  0  0
 36108  1  0  0  0
 37 39  1  0  0  0
 37 47  1  0  0  0
 37 66  1  0  0  0
 37109  1  0  0  0
 38 43  2  0  0  0
 38 46  1  0  0  0
 38 47  1  0  0  0
 39 64  1  0  0  0
 39 67  2  0  0  0
 40 52  1  0  0  0
 40 53  2  0  0  0
 40 58  1  0  0  0
 41110  1  0  0  0
 41111  1  0  0  0
 41112  1  0  0  0
 41 48  1  0  0  0
 42 43  1  0  0  0
 42 66  1  0  0  0
 42113  1  0  0  0
 42114  1  0  0  0
 43 44  1  0  0  0
 44115  1  0  0  0
 45 46  2  0  0  0
 45116  1  0  0  0
 46117  1  0  0  0
 47118  1  0  0  0
 47119  1  0  0  0
 48 56  1  0  0  0
 48 65  1  0  0  0
 48120  1  0  0  0
 49 50  1  0  0  0
 49 53  1  0  0  0
 49 64  1  0  0  0
 49121  1  0  0  0
 50 51  1  0  0  0
 50122  1  0  0  0
 50123  1  0  0  0
 51 52  1  0  0  0
 51124  1  0  0  0
 51125  1  0  0  0
 52126  1  0  0  0
 52127  1  0  0  0
 53 54  1  0  0  0
 54 55  2  0  0  0
 54128  1  0  0  0
 55 57  1  0  0  0
 55129  1  0  0  0
 56 69  2  0  0  0
 57 58  2  0  0  0
 57130  1  0  0  0
 58131  1  0  0  0
 59 60  1  0  0  0
 59 61  1  0  0  0
 59 62  1  0  0  0
 60132  1  0  0  0
 60133  1  0  0  0
 60134  1  0  0  0
 61135  1  0  0  0
 61136  1  0  0  0
 61137  1  0  0  0
 62138  1  0  0  0
 62139  1  0  0  0
 62140  1  0  0  0
 63 65  1  0  0  0
 63141  1  0  0  0
 63142  1  0  0  0
 63143  1  0  0  0
 64144  1  0  0  0
 65145  1  0  0  0
 68 83  1  0  0  0
 71 73  2  0  0  0
 71 74  1  0  0  0
 71146  1  0  0  0
 72 75  2  0  0  0
 72 76  1  0  0  0
 72147  1  0  0  0
 73 75  1  0  0  0
 73 80  1  0  0  0
 74 76  2  0  0  0
 74 78  1  0  0  0
 75 81  1  0  0  0
 76 85  1  0  0  0
 77 82  1  0  0  0
 77 83  1  0  0  0
 77 86  2  0  0  0
 78148  1  0  0  0
 78149  1  0  0  0
 78150  1  0  0  0
 79 84  1  0  0  0
 79151  1  0  0  0
 79152  1  0  0  0
 79153  1  0  0  0
 80 82  1  0  0  0
 80154  1  0  0  0
 80155  1  0  0  0
 81 84  1  0  0  0
 81156  1  0  0  0
 81157  1  0  0  0
 82158  1  0  0  0
 82159  1  0  0  0
 83160  1  0  0  0
 83161  1  0  0  0
 84162  1  0  0  0
 84163  1  0  0  0
 85164  1  0  0  0
M  ISO  4   1 100  68 101  83 101  85 100
M  END
> <chiral flag>
0

> <version>
0

> <s_m_source_file>
/data/baiqing/PycharmProjects/Reinvent-master-3.2/result/LINK_invent/BTK/process_docking_weight1_custom_product_contain_oxygen_bond_distance_aromatic_linkinvent_7_9_3/rearranged_h_0129.sdf

> <i_m_source_file_index>
15

> <r_mmod_Potential_Energy-OPLS-2005>
-11.800440788269

> <r_mmod_Stretch_Energy-OPLS-2005>
71.0843200683594

> <r_mmod_Bend_Energy-OPLS-2005>
128.096405029297

> <r_mmod_Torsional_Energy-OPLS-2005>
208.963714599609

> <r_mmod_Improper_Torsional_Energy-OPLS-2005>
3.92751550674438

> <r_mmod_Van_der_Waal_Energy-OPLS-2005>
143.967208862305

> <r_mmod_Electrostatic_Energy-OPLS-2005>
-385.619445800781

> <r_mmod_Solvation_Energy-OPLS-2005>
-221.30078125

> <b_mmod_Minimization_Converged-OPLS-2005>
0

> <r_mmod_RMS_Derivative-OPLS-2005>
0.408460229635239

$$$$
15
                    3D
 Structure written by MMmdl.
156164  0  0  1  0            999 V2000
  -30.6534  -14.5340   20.4843 C   0  0  0  0  0  0
  -30.4315  -12.3174   19.4381 C   0  0  0  0  0  0
  -29.5018  -12.4889   18.2146 C   0  0  0  0  0  0
  -28.0202  -12.3390   18.6208 C   0  0  0  0  0  0
  -27.6539  -13.1940   19.8614 C   0  0  2  0  0  0
  -28.7000  -13.0013   20.9852 C   0  0  0  0  0  0
  -25.2561  -13.8091   20.5689 C   0  0  0  0  0  0
  -24.1809  -13.0388   20.9175 C   0  0  0  0  0  0
  -24.6361  -11.6863   20.8725 C   0  0  0  0  0  0
  -23.9033  -10.4265   21.0401 C   0  0  0  0  0  0
  -24.3598   -9.4191   21.9180 C   0  0  0  0  0  0
  -23.6279   -8.2227   22.0754 C   0  0  0  0  0  0
  -22.4260   -8.0265   21.3545 C   0  0  0  0  0  0
  -21.9887   -9.0235   20.4646 C   0  0  0  0  0  0
  -22.7209  -10.2114   20.3050 C   0  0  0  0  0  0
  -21.6852   -6.0723   22.5281 C   0  0  0  0  0  0
  -21.4011   -6.5631   23.8211 C   0  0  0  0  0  0
  -21.3657   -5.6789   24.9175 C   0  0  0  0  0  0
  -21.6047   -4.3051   24.7232 C   0  0  0  0  0  0
  -21.8823   -3.8140   23.4354 C   0  0  0  0  0  0
  -21.9195   -4.6952   22.3407 C   0  0  0  0  0  0
  -22.7844  -13.5212   21.1856 C   0  0  0  0  0  0
  -22.1665   -4.2134   21.0987 F   0  0  0  0  0  0
  -21.5631   -3.4538   25.7746 F   0  0  0  0  0  0
  -30.0300  -13.3193   20.4393 N   0  0  0  0  0  0
  -26.2978  -12.9246   20.3304 N   0  0  0  0  0  0
  -25.9277  -11.6423   20.5731 N   0  0  0  0  0  0
  -22.0491  -12.8211   22.0420 N   0  0  0  0  0  0
  -25.4255  -15.1805   20.4182 N   0  0  0  0  0  0
  -31.8391  -14.6668   20.1669 O   0  0  0  0  0  0
  -21.6635   -6.8860   21.4239 O   0  0  0  0  0  0
  -22.3537  -14.5529   20.6716 O   0  0  0  0  0  0
  -24.6153  -31.8672   23.2093 C   0  0  0  0  0  0
  -25.9043  -32.4816   23.8391 C   0  0  1  0  0  0
  -27.2402  -27.4204   20.0868 C   0  0  0  0  0  0
  -25.5896  -33.8617   24.2323 N   0  0  0  0  0  0
  -23.4034  -30.4908   21.5507 C   0  0  2  0  0  0
  -24.8484  -28.9539   20.1166 C   0  0  0  0  0  0
  -22.7413  -29.4656   22.4992 C   0  0  0  0  0  0
  -18.0272  -28.1372   22.8492 C   0  0  0  0  0  0
  -24.1486  -36.7313   23.2640 C   0  0  0  0  0  0
  -25.9339  -30.8266   21.3651 C   0  0  0  0  0  0
  -26.0089  -29.4594   20.7125 C   0  0  0  0  0  0
  -27.2016  -28.6986   20.6972 C   0  0  0  0  0  0
  -26.0478  -26.9248   19.5046 C   0  0  0  0  0  0
  -24.8631  -27.6855   19.5143 C   0  0  0  0  0  0
  -23.6119  -29.8229   20.1656 C   0  0  0  0  0  0
  -25.4109  -36.3110   24.0337 C   0  0  1  0  0  0
  -20.5863  -28.3662   23.1319 C   0  0  2  0  0  0
  -20.6762  -26.9399   22.5420 C   0  0  0  0  0  0
  -19.5744  -26.6387   21.5211 C   0  0  0  0  0  0
  -18.1922  -26.7919   22.1621 C   0  0  0  0  0  0
  -19.1520  -28.8833   23.2902 C   0  0  0  0  0  0
  -18.9447  -30.1438   23.8914 C   0  0  0  0  0  0
  -17.6450  -30.6579   24.0564 C   0  0  0  0  0  0
  -25.9036  -34.9474   23.5129 C   0  0  0  0  0  0
  -16.5343  -29.9081   23.6323 C   0  0  0  0  0  0
  -16.7261  -28.6496   23.0350 C   0  0  0  0  0  0
  -26.4469  -31.6598   25.0723 C   0  0  0  0  0  0
  -25.3736  -31.3705   26.1473 C   0  0  0  0  0  0
  -27.0300  -30.3040   24.6100 C   0  0  0  0  0  0
  -27.6047  -32.4320   25.7482 C   0  0  0  0  0  0
  -27.5581  -37.1813   24.8467 C   0  0  0  0  0  0
  -21.4142  -29.3030   22.3730 N   0  0  0  0  0  0
  -26.4297  -37.3793   23.9406 N   0  0  0  0  0  0
  -24.6691  -31.0765   22.0996 N   0  0  0  0  0  0
  -23.4186  -28.8199   23.3036 O   0  0  0  0  0  0
  -28.4380  -26.7217   20.1021 O   0  0  0  0  0  0
  -26.5602  -34.8925   22.4694 O   0  0  0  0  0  0
  -23.5343  -32.1431   23.7480 O   0  0  0  0  0  0
  -27.8018  -17.7478   19.6976 C   0  0  0  0  0  0
  -26.8588  -18.7518   19.4513 C   0  0  0  0  0  0
  -29.4297  -19.4388   20.2836 C   0  0  0  0  0  0
  -29.1109  -18.0660   20.0987 C   0  0  0  0  0  0
  -27.1801  -20.1188   19.5809 C   0  0  0  0  0  0
  -28.4930  -20.4877   20.0326 C   0  0  0  0  0  0
  -24.8123  -20.9171   19.6440 C   0  0  0  0  0  0
  -30.0853  -16.9500   20.2572 C   0  0  0  0  0  0
  -26.0838  -21.0405   19.2272 C   0  0  0  0  0  0
  -29.7441  -15.6842   20.6149 C   0  0  0  0  0  0
  -28.8312  -24.2726   20.2898 C   0  0  0  0  0  0
  -28.5908  -25.4885   19.3664 C   0  0  0  0  0  0
  -28.2062  -22.9345   19.8517 C   0  0  0  0  0  0
  -29.4890  -24.3703   21.3329 O   0  0  0  0  0  0
  -28.9575  -21.7825   20.2785 O   0  0  0  0  0  0
  -31.4754  -12.4219   19.1380 H   0  0  0  0  0  0
  -30.3398  -11.3118   19.8513 H   0  0  0  0  0  0
  -29.7522  -11.7556   17.4470 H   0  0  0  0  0  0
  -29.6612  -13.4694   17.7633 H   0  0  0  0  0  0
  -27.8407  -11.2846   18.8334 H   0  0  0  0  0  0
  -27.3708  -12.5935   17.7826 H   0  0  0  0  0  0
  -27.6762  -14.2285   19.5249 H   0  0  0  0  0  0
  -28.6866  -11.9684   21.3361 H   0  0  0  0  0  0
  -28.4644  -13.6031   21.8638 H   0  0  0  0  0  0
  -25.2746   -9.5677   22.4746 H   0  0  0  0  0  0
  -23.9997   -7.4622   22.7468 H   0  0  0  0  0  0
  -21.0821   -8.8747   19.8952 H   0  0  0  0  0  0
  -22.3668  -10.9652   19.6158 H   0  0  0  0  0  0
  -21.1999   -7.6140   23.9707 H   0  0  0  0  0  0
  -21.1476   -6.0521   25.9075 H   0  0  0  0  0  0
  -22.0604   -2.7600   23.2864 H   0  0  0  0  0  0
  -22.4103  -11.9859   22.4789 H   0  0  0  0  0  0
  -21.1114  -13.1241   22.2647 H   0  0  0  0  0  0
  -24.6628  -15.8360   20.5477 H   0  0  0  0  0  0
  -26.2909  -15.6256   20.1510 H   0  0  0  0  0  0
  -26.7113  -32.5523   23.1153 H   0  0  0  0  0  0
  -25.0045  -33.9780   25.0465 H   0  0  0  0  0  0
  -22.6922  -31.3076   21.4116 H   0  0  0  0  0  0
  -23.3741  -35.9653   23.3318 H   0  0  0  0  0  0
  -24.3579  -36.8912   22.2052 H   0  0  0  0  0  0
  -23.7244  -37.6526   23.6643 H   0  0  0  0  0  0
  -26.0493  -31.5913   20.5957 H   0  0  0  0  0  0
  -26.8209  -30.8790   21.9846 H   0  0  0  0  0  0
  -28.0981  -29.0909   21.1566 H   0  0  0  0  0  0
  -25.9855  -25.9507   19.0470 H   0  0  0  0  0  0
  -23.9658  -27.2856   19.0620 H   0  0  0  0  0  0
  -23.7216  -30.5973   19.4056 H   0  0  0  0  0  0
  -22.7348  -29.2445   19.8699 H   0  0  0  0  0  0
  -25.1284  -36.1981   25.0831 H   0  0  0  0  0  0
  -20.9952  -28.3225   24.1439 H   0  0  0  0  0  0
  -20.5660  -26.2269   23.3607 H   0  0  0  0  0  0
  -21.6635  -26.7442   22.1216 H   0  0  0  0  0  0
  -19.6910  -25.6304   21.1222 H   0  0  0  0  0  0
  -19.6682  -27.3213   20.6753 H   0  0  0  0  0  0
  -17.4195  -26.6668   21.4020 H   0  0  0  0  0  0
  -18.0322  -26.0054   22.9009 H   0  0  0  0  0  0
  -19.7925  -30.7245   24.2297 H   0  0  0  0  0  0
  -17.5008  -31.6262   24.5160 H   0  0  0  0  0  0
  -15.5343  -30.2990   23.7634 H   0  0  0  0  0  0
  -15.8661  -28.0817   22.7061 H   0  0  0  0  0  0
  -24.5903  -30.7057   25.7811 H   0  0  0  0  0  0
  -24.8931  -32.2860   26.4935 H   0  0  0  0  0  0
  -25.8090  -30.8863   27.0222 H   0  0  0  0  0  0
  -26.2842  -29.6806   24.1149 H   0  0  0  0  0  0
  -27.4067  -29.7272   25.4556 H   0  0  0  0  0  0
  -27.8679  -30.4362   23.9249 H   0  0  0  0  0  0
  -27.2663  -33.3606   26.2092 H   0  0  0  0  0  0
  -28.3834  -32.6905   25.0294 H   0  0  0  0  0  0
  -28.0737  -31.8424   26.5370 H   0  0  0  0  0  0
  -28.2613  -38.0096   24.7501 H   0  0  0  0  0  0
  -28.1060  -36.2628   24.6308 H   0  0  0  0  0  0
  -27.2297  -37.1484   25.8872 H   0  0  0  0  0  0
  -20.9305  -29.8754   21.6952 H   0  0  0  0  0  0
  -26.0186  -38.2874   24.1395 H   0  0  0  0  0  0
  -27.5177  -16.7250   19.5108 H   0  0  0  0  0  0
  -25.8761  -18.4557   19.1113 H   0  0  0  0  0  0
  -30.4267  -19.7011   20.6072 H   0  0  0  0  0  0
  -24.0514  -21.6128   19.3194 H   0  0  0  0  0  0
  -24.5089  -20.1243   20.3137 H   0  0  0  0  0  0
  -31.1056  -17.1664   19.9701 H   0  0  0  0  0  0
  -26.3099  -21.8405   18.5395 H   0  0  0  0  0  0
  -28.7336  -15.5352   20.9532 H   0  0  0  0  0  0
  -27.7928  -25.2755   18.6613 H   0  0  0  0  0  0
  -29.4843  -25.5965   18.7516 H   0  0  0  0  0  0
  -28.1134  -22.9322   18.7658 H   0  0  0  0  0  0
  -27.2141  -22.9221   20.2988 H   0  0  0  0  0  0
  1 25  1  0  0  0
  1 30  2  0  0  0
  1 80  1  0  0  0
  2  3  1  0  0  0
  2 25  1  0  0  0
  2 86  1  0  0  0
  2 87  1  0  0  0
  3  4  1  0  0  0
  3 88  1  0  0  0
  3 89  1  0  0  0
  4  5  1  0  0  0
  4 90  1  0  0  0
  4 91  1  0  0  0
  5  6  1  0  0  0
  5 26  1  0  0  0
  5 92  1  0  0  0
  6 25  1  0  0  0
  6 93  1  0  0  0
  6 94  1  0  0  0
  7  8  2  0  0  0
  7 26  1  0  0  0
  7 29  1  0  0  0
  8  9  1  0  0  0
  8 22  1  0  0  0
  9 10  1  0  0  0
  9 27  2  0  0  0
 10 11  2  0  0  0
 10 15  1  0  0  0
 11 12  1  0  0  0
 11 95  1  0  0  0
 12 13  2  0  0  0
 12 96  1  0  0  0
 13 14  1  0  0  0
 13 31  1  0  0  0
 14 15  2  0  0  0
 14 97  1  0  0  0
 15 98  1  0  0  0
 16 17  2  0  0  0
 16 21  1  0  0  0
 16 31  1  0  0  0
 17 18  1  0  0  0
 17 99  1  0  0  0
 18 19  2  0  0  0
 18100  1  0  0  0
 19 20  1  0  0  0
 19 24  1  0  0  0
 20 21  2  0  0  0
 20101  1  0  0  0
 21 23  1  0  0  0
 22 28  1  0  0  0
 22 32  2  0  0  0
 26 27  1  0  0  0
 28102  1  0  0  0
 28103  1  0  0  0
 29104  1  0  0  0
 29105  1  0  0  0
 33 34  1  0  0  0
 33 66  1  0  0  0
 33 70  2  0  0  0
 34 36  1  0  0  0
 34 59  1  0  0  0
 34106  1  0  0  0
 35 44  2  0  0  0
 35 45  1  0  0  0
 35 68  1  0  0  0
 36 56  1  0  0  0
 36107  1  0  0  0
 37 39  1  0  0  0
 37 47  1  0  0  0
 37 66  1  0  0  0
 37108  1  0  0  0
 38 43  2  0  0  0
 38 46  1  0  0  0
 38 47  1  0  0  0
 39 64  1  0  0  0
 39 67  2  0  0  0
 40 52  1  0  0  0
 40 53  2  0  0  0
 40 58  1  0  0  0
 41109  1  0  0  0
 41110  1  0  0  0
 41111  1  0  0  0
 41 48  1  0  0  0
 42 43  1  0  0  0
 42 66  1  0  0  0
 42112  1  0  0  0
 42113  1  0  0  0
 43 44  1  0  0  0
 44114  1  0  0  0
 45 46  2  0  0  0
 45115  1  0  0  0
 46116  1  0  0  0
 47117  1  0  0  0
 47118  1  0  0  0
 48 56  1  0  0  0
 48 65  1  0  0  0
 48119  1  0  0  0
 49 50  1  0  0  0
 49 53  1  0  0  0
 49 64  1  0  0  0
 49120  1  0  0  0
 50 51  1  0  0  0
 50121  1  0  0  0
 50122  1  0  0  0
 51 52  1  0  0  0
 51123  1  0  0  0
 51124  1  0  0  0
 52125  1  0  0  0
 52126  1  0  0  0
 53 54  1  0  0  0
 54 55  2  0  0  0
 54127  1  0  0  0
 55 57  1  0  0  0
 55128  1  0  0  0
 56 69  2  0  0  0
 57 58  2  0  0  0
 57129  1  0  0  0
 58130  1  0  0  0
 59 60  1  0  0  0
 59 61  1  0  0  0
 59 62  1  0  0  0
 60131  1  0  0  0
 60132  1  0  0  0
 60133  1  0  0  0
 61134  1  0  0  0
 61135  1  0  0  0
 61136  1  0  0  0
 62137  1  0  0  0
 62138  1  0  0  0
 62139  1  0  0  0
 63 65  1  0  0  0
 63140  1  0  0  0
 63141  1  0  0  0
 63142  1  0  0  0
 64143  1  0  0  0
 65144  1  0  0  0
 68 82  1  0  0  0
 71 72  2  0  0  0
 71 74  1  0  0  0
 71145  1  0  0  0
 72 75  1  0  0  0
 72146  1  0  0  0
 73 74  2  0  0  0
 73 76  1  0  0  0
 73147  1  0  0  0
 74 78  1  0  0  0
 75 76  2  0  0  0
 75 79  1  0  0  0
 76 85  1  0  0  0
 77 79  2  0  0  0
 77148  1  0  0  0
 77149  1  0  0  0
 78 80  2  0  0  0
 78150  1  0  0  0
 79151  1  0  0  0
 80152  1  0  0  0
 81 82  1  0  0  0
 81 83  1  0  0  0
 81 84  2  0  0  0
 82153  1  0  0  0
 82154  1  0  0  0
 83 85  1  0  0  0
 83155  1  0  0  0
 83156  1  0  0  0
M  ISO  4   1 100  68 101  80 100  82 101
M  END
> <chiral flag>
0

> <version>
0

> <s_m_source_file>
/data/baiqing/PycharmProjects/Reinvent-master-3.2/result/LINK_invent/BTK/process_docking_weight1_custom_product_contain_oxygen_bond_distance_aromatic_linkinvent_7_9_3/rearranged_h_0129.sdf

> <i_m_source_file_index>
16

> <r_mmod_Potential_Energy-OPLS-2005>
74.6138305664062

> <r_mmod_Stretch_Energy-OPLS-2005>
46.615348815918

> <r_mmod_Bend_Energy-OPLS-2005>
125.614097595215

> <r_mmod_Torsional_Energy-OPLS-2005>
218.293334960938

> <r_mmod_Improper_Torsional_Energy-OPLS-2005>
9.73469829559326

> <r_mmod_Van_der_Waal_Energy-OPLS-2005>
168.458374023438

> <r_mmod_Electrostatic_Energy-OPLS-2005>
-285.209869384766

> <r_mmod_Solvation_Energy-OPLS-2005>
-229.916885375977

> <b_mmod_Minimization_Converged-OPLS-2005>
0

> <r_mmod_RMS_Derivative-OPLS-2005>
0.65642923116684

$$$$
16
                    3D
 Structure written by MMmdl.
155163  0  0  1  0            999 V2000
  -30.8002  -14.4071   20.4970 C   0  0  0  0  0  0
  -30.3747  -12.2437   19.4519 C   0  0  0  0  0  0
  -29.4859  -12.4708   18.2158 C   0  0  0  0  0  0
  -28.0041  -12.3643   18.6170 C   0  0  0  0  0  0
  -27.6513  -13.2270   19.8603 C   0  0  2  0  0  0
  -28.6913  -13.0718   20.9922 C   0  0  0  0  0  0
  -25.2535  -13.8221   20.5694 C   0  0  0  0  0  0
  -24.1810  -13.0470   20.9186 C   0  0  0  0  0  0
  -24.6385  -11.6942   20.8736 C   0  0  0  0  0  0
  -23.9064  -10.4313   21.0403 C   0  0  0  0  0  0
  -24.3614   -9.4228   21.9182 C   0  0  0  0  0  0
  -23.6290   -8.2258   22.0758 C   0  0  0  0  0  0
  -22.4271   -8.0290   21.3546 C   0  0  0  0  0  0
  -21.9904   -9.0265   20.4653 C   0  0  0  0  0  0
  -22.7235  -10.2145   20.3058 C   0  0  0  0  0  0
  -21.6859   -6.0736   22.5276 C   0  0  0  0  0  0
  -21.4023   -6.5638   23.8209 C   0  0  0  0  0  0
  -21.3661   -5.6790   24.9172 C   0  0  0  0  0  0
  -21.6039   -4.3051   24.7223 C   0  0  0  0  0  0
  -21.8818   -3.8146   23.4344 C   0  0  0  0  0  0
  -21.9195   -4.6965   22.3399 C   0  0  0  0  0  0
  -22.7830  -13.5250   21.1842 C   0  0  0  0  0  0
  -22.1663   -4.2153   21.0979 F   0  0  0  0  0  0
  -21.5624   -3.4534   25.7735 F   0  0  0  0  0  0
  -30.0289  -13.2898   20.4300 N   0  0  0  0  0  0
  -26.2976  -12.9433   20.3319 N   0  0  0  0  0  0
  -25.9315  -11.6568   20.5757 N   0  0  0  0  0  0
  -22.0464  -12.8253   22.0405 N   0  0  0  0  0  0
  -25.4247  -15.1939   20.4128 N   0  0  0  0  0  0
  -31.9782  -14.3595   20.1400 O   0  0  0  0  0  0
  -21.6643   -6.8878   21.4237 O   0  0  0  0  0  0
  -22.3511  -14.5550   20.6685 O   0  0  0  0  0  0
  -24.6097  -31.8723   23.2149 C   0  0  0  0  0  0
  -25.9010  -32.4844   23.8426 C   0  0  1  0  0  0
  -27.2191  -27.4806   20.0892 C   0  0  0  0  0  0
  -25.5880  -33.8642   24.2353 N   0  0  0  0  0  0
  -23.3939  -30.4987   21.5551 C   0  0  2  0  0  0
  -24.8370  -28.9765   20.1105 C   0  0  0  0  0  0
  -22.7382  -29.4675   22.5010 C   0  0  0  0  0  0
  -18.0265  -28.1367   22.8494 C   0  0  0  0  0  0
  -24.1483  -36.7333   23.2636 C   0  0  0  0  0  0
  -25.9191  -30.8535   21.3607 C   0  0  0  0  0  0
  -25.9963  -29.4949   20.7021 C   0  0  0  0  0  0
  -27.1952  -28.7546   20.6868 C   0  0  0  0  0  0
  -26.0496  -26.9694   19.4848 C   0  0  0  0  0  0
  -24.8566  -27.7122   19.4976 C   0  0  0  0  0  0
  -23.5975  -29.8376   20.1662 C   0  0  0  0  0  0
  -25.4098  -36.3129   24.0342 C   0  0  1  0  0  0
  -20.5851  -28.3644   23.1335 C   0  0  2  0  0  0
  -20.6753  -26.9386   22.5420 C   0  0  0  0  0  0
  -19.5733  -26.6379   21.5210 C   0  0  0  0  0  0
  -18.1912  -26.7915   22.1623 C   0  0  0  0  0  0
  -19.1512  -28.8823   23.2912 C   0  0  0  0  0  0
  -18.9445  -30.1432   23.8915 C   0  0  0  0  0  0
  -17.6448  -30.6580   24.0566 C   0  0  0  0  0  0
  -25.9024  -34.9489   23.5145 C   0  0  0  0  0  0
  -16.5339  -29.9084   23.6322 C   0  0  0  0  0  0
  -16.7256  -28.6500   23.0343 C   0  0  0  0  0  0
  -26.4458  -31.6608   25.0734 C   0  0  0  0  0  0
  -25.3745  -31.3703   26.1502 C   0  0  0  0  0  0
  -27.0279  -30.3058   24.6073 C   0  0  0  0  0  0
  -27.6046  -32.4321   25.7484 C   0  0  0  0  0  0
  -27.5587  -37.1811   24.8457 C   0  0  0  0  0  0
  -21.4117  -29.3025   22.3756 N   0  0  0  0  0  0
  -26.4291  -37.3807   23.9415 N   0  0  0  0  0  0
  -24.6590  -31.0868   22.1027 N   0  0  0  0  0  0
  -23.4182  -28.8205   23.3019 O   0  0  0  0  0  0
  -28.3648  -26.7370   20.1337 O   0  0  0  0  0  0
  -26.5592  -34.8936   22.4711 O   0  0  0  0  0  0
  -23.5305  -32.1452   23.7580 O   0  0  0  0  0  0
  -29.5235  -20.2125   21.3560 C   0  0  0  0  0  0
  -29.6523  -18.8080   21.2707 C   0  0  0  0  0  0
  -31.4115  -20.4788   19.8509 C   0  0  0  0  0  0
  -30.4310  -21.0526   20.6716 C   0  0  0  0  0  0
  -30.6809  -18.2343   20.4911 C   0  0  0  0  0  0
  -31.5351  -19.0870   19.7377 C   0  0  0  0  0  0
  -30.3821  -22.5146   20.6911 C   0  0  0  0  0  0
  -30.9119  -16.7856   20.4202 C   0  0  0  0  0  0
  -29.3414  -23.2743   21.0619 C   0  0  0  0  0  0
  -30.1698  -15.7025   20.7672 C   0  0  0  0  0  0
  -29.4389  -24.7341   20.9810 C   0  0  0  0  0  0
  -32.6034  -18.5599   18.7857 C   0  0  0  0  0  0
  -28.1297  -25.4697   20.7421 C   0  0  0  0  0  0
  -30.5034  -25.3574   21.0752 O   0  0  0  0  0  0
  -31.4271  -12.2362   19.1630 H   0  0  0  0  0  0
  -30.1862  -11.2578   19.8788 H   0  0  0  0  0  0
  -29.7172  -11.7357   17.4440 H   0  0  0  0  0  0
  -29.6895  -13.4506   17.7806 H   0  0  0  0  0  0
  -27.7958  -11.3140   18.8219 H   0  0  0  0  0  0
  -27.3665  -12.6398   17.7761 H   0  0  0  0  0  0
  -27.6808  -14.2667   19.5331 H   0  0  0  0  0  0
  -28.6384  -12.0716   21.4240 H   0  0  0  0  0  0
  -28.4806  -13.7601   21.8117 H   0  0  0  0  0  0
  -25.2754   -9.5709   22.4762 H   0  0  0  0  0  0
  -24.0002   -7.4652   22.7476 H   0  0  0  0  0  0
  -21.0835   -8.8781   19.8956 H   0  0  0  0  0  0
  -22.3684  -10.9681   19.6169 H   0  0  0  0  0  0
  -21.2019   -7.6147   23.9713 H   0  0  0  0  0  0
  -21.1483   -6.0522   25.9073 H   0  0  0  0  0  0
  -22.0594   -2.7609   23.2844 H   0  0  0  0  0  0
  -22.4075  -11.9922   22.4807 H   0  0  0  0  0  0
  -21.1083  -13.1297   22.2593 H   0  0  0  0  0  0
  -24.6605  -15.8518   20.5248 H   0  0  0  0  0  0
  -26.2832  -15.6333   20.1043 H   0  0  0  0  0  0
  -26.7085  -32.5569   23.1200 H   0  0  0  0  0  0
  -25.0021  -33.9812   25.0491 H   0  0  0  0  0  0
  -22.6795  -31.3138   21.4229 H   0  0  0  0  0  0
  -23.3743  -35.9669   23.3301 H   0  0  0  0  0  0
  -24.3587  -36.8946   22.2052 H   0  0  0  0  0  0
  -23.7238  -37.6541   23.6647 H   0  0  0  0  0  0
  -26.0276  -31.6252   20.5974 H   0  0  0  0  0  0
  -26.8085  -30.9024   21.9771 H   0  0  0  0  0  0
  -28.0905  -29.1444   21.1510 H   0  0  0  0  0  0
  -26.0507  -26.0018   19.0037 H   0  0  0  0  0  0
  -23.9656  -27.3090   19.0362 H   0  0  0  0  0  0
  -23.7011  -30.6170   19.4101 H   0  0  0  0  0  0
  -22.7218  -29.2565   19.8712 H   0  0  0  0  0  0
  -25.1269  -36.2004   25.0835 H   0  0  0  0  0  0
  -20.9938  -28.3199   24.1456 H   0  0  0  0  0  0
  -20.5651  -26.2244   23.3595 H   0  0  0  0  0  0
  -21.6625  -26.7431   22.1215 H   0  0  0  0  0  0
  -19.6892  -25.6294   21.1226 H   0  0  0  0  0  0
  -19.6676  -27.3200   20.6749 H   0  0  0  0  0  0
  -17.4180  -26.6666   21.4028 H   0  0  0  0  0  0
  -18.0315  -26.0050   22.9012 H   0  0  0  0  0  0
  -19.7923  -30.7243   24.2285 H   0  0  0  0  0  0
  -17.5009  -31.6263   24.5161 H   0  0  0  0  0  0
  -15.5340  -30.2994   23.7636 H   0  0  0  0  0  0
  -15.8655  -28.0831   22.7042 H   0  0  0  0  0  0
  -24.5881  -30.7092   25.7846 H   0  0  0  0  0  0
  -24.8982  -32.2859   26.5018 H   0  0  0  0  0  0
  -25.8110  -30.8817   27.0221 H   0  0  0  0  0  0
  -26.2807  -29.6829   24.1140 H   0  0  0  0  0  0
  -27.4086  -29.7280   25.4506 H   0  0  0  0  0  0
  -27.8629  -30.4395   23.9189 H   0  0  0  0  0  0
  -27.2663  -33.3591   26.2130 H   0  0  0  0  0  0
  -28.3812  -32.6933   25.0282 H   0  0  0  0  0  0
  -28.0766  -31.8409   26.5343 H   0  0  0  0  0  0
  -28.2588  -38.0125   24.7537 H   0  0  0  0  0  0
  -28.1097  -36.2662   24.6228 H   0  0  0  0  0  0
  -27.2318  -37.1404   25.8862 H   0  0  0  0  0  0
  -20.9253  -29.8775   21.7022 H   0  0  0  0  0  0
  -26.0188  -38.2886   24.1428 H   0  0  0  0  0  0
  -28.7405  -20.6320   21.9712 H   0  0  0  0  0  0
  -28.9749  -18.1788   21.8302 H   0  0  0  0  0  0
  -32.0759  -21.1199   19.2876 H   0  0  0  0  0  0
  -31.2873  -23.0111   20.3649 H   0  0  0  0  0  0
  -31.8926  -16.5902   20.0225 H   0  0  0  0  0  0
  -28.4099  -22.8430   21.3976 H   0  0  0  0  0  0
  -29.1828  -15.7978   21.1918 H   0  0  0  0  0  0
  -33.0327  -19.3574   18.1781 H   0  0  0  0  0  0
  -32.1804  -17.8275   18.0968 H   0  0  0  0  0  0
  -33.4210  -18.0942   19.3363 H   0  0  0  0  0  0
  -27.6208  -25.5977   21.6988 H   0  0  0  0  0  0
  -27.4977  -24.8460   20.1100 H   0  0  0  0  0  0
  1 25  1  0  0  0
  1 30  2  0  0  0
  1 80  1  0  0  0
  2  3  1  0  0  0
  2 25  1  0  0  0
  2 85  1  0  0  0
  2 86  1  0  0  0
  3  4  1  0  0  0
  3 87  1  0  0  0
  3 88  1  0  0  0
  4  5  1  0  0  0
  4 89  1  0  0  0
  4 90  1  0  0  0
  5  6  1  0  0  0
  5 26  1  0  0  0
  5 91  1  0  0  0
  6 25  1  0  0  0
  6 92  1  0  0  0
  6 93  1  0  0  0
  7  8  2  0  0  0
  7 26  1  0  0  0
  7 29  1  0  0  0
  8  9  1  0  0  0
  8 22  1  0  0  0
  9 10  1  0  0  0
  9 27  2  0  0  0
 10 11  2  0  0  0
 10 15  1  0  0  0
 11 12  1  0  0  0
 11 94  1  0  0  0
 12 13  2  0  0  0
 12 95  1  0  0  0
 13 14  1  0  0  0
 13 31  1  0  0  0
 14 15  2  0  0  0
 14 96  1  0  0  0
 15 97  1  0  0  0
 16 17  2  0  0  0
 16 21  1  0  0  0
 16 31  1  0  0  0
 17 18  1  0  0  0
 17 98  1  0  0  0
 18 19  2  0  0  0
 18 99  1  0  0  0
 19 20  1  0  0  0
 19 24  1  0  0  0
 20 21  2  0  0  0
 20100  1  0  0  0
 21 23  1  0  0  0
 22 28  1  0  0  0
 22 32  2  0  0  0
 26 27  1  0  0  0
 28101  1  0  0  0
 28102  1  0  0  0
 29103  1  0  0  0
 29104  1  0  0  0
 33 34  1  0  0  0
 33 66  1  0  0  0
 33 70  2  0  0  0
 34 36  1  0  0  0
 34 59  1  0  0  0
 34105  1  0  0  0
 35 44  2  0  0  0
 35 45  1  0  0  0
 35 68  1  0  0  0
 36 56  1  0  0  0
 36106  1  0  0  0
 37 39  1  0  0  0
 37 47  1  0  0  0
 37 66  1  0  0  0
 37107  1  0  0  0
 38 43  2  0  0  0
 38 46  1  0  0  0
 38 47  1  0  0  0
 39 64  1  0  0  0
 39 67  2  0  0  0
 40 52  1  0  0  0
 40 53  2  0  0  0
 40 58  1  0  0  0
 41108  1  0  0  0
 41109  1  0  0  0
 41110  1  0  0  0
 41 48  1  0  0  0
 42 43  1  0  0  0
 42 66  1  0  0  0
 42111  1  0  0  0
 42112  1  0  0  0
 43 44  1  0  0  0
 44113  1  0  0  0
 45 46  2  0  0  0
 45114  1  0  0  0
 46115  1  0  0  0
 47116  1  0  0  0
 47117  1  0  0  0
 48 56  1  0  0  0
 48 65  1  0  0  0
 48118  1  0  0  0
 49 50  1  0  0  0
 49 53  1  0  0  0
 49 64  1  0  0  0
 49119  1  0  0  0
 50 51  1  0  0  0
 50120  1  0  0  0
 50121  1  0  0  0
 51 52  1  0  0  0
 51122  1  0  0  0
 51123  1  0  0  0
 52124  1  0  0  0
 52125  1  0  0  0
 53 54  1  0  0  0
 54 55  2  0  0  0
 54126  1  0  0  0
 55 57  1  0  0  0
 55127  1  0  0  0
 56 69  2  0  0  0
 57 58  2  0  0  0
 57128  1  0  0  0
 58129  1  0  0  0
 59 60  1  0  0  0
 59 61  1  0  0  0
 59 62  1  0  0  0
 60130  1  0  0  0
 60131  1  0  0  0
 60132  1  0  0  0
 61133  1  0  0  0
 61134  1  0  0  0
 61135  1  0  0  0
 62136  1  0  0  0
 62137  1  0  0  0
 62138  1  0  0  0
 63 65  1  0  0  0
 63139  1  0  0  0
 63140  1  0  0  0
 63141  1  0  0  0
 64142  1  0  0  0
 65143  1  0  0  0
 68 83  1  0  0  0
 71 72  2  0  0  0
 71 74  1  0  0  0
 71144  1  0  0  0
 72 75  1  0  0  0
 72145  1  0  0  0
 73 74  2  0  0  0
 73 76  1  0  0  0
 73146  1  0  0  0
 74 77  1  0  0  0
 75 76  2  0  0  0
 75 78  1  0  0  0
 76 82  1  0  0  0
 77 79  2  0  0  0
 77147  1  0  0  0
 78 80  2  0  0  0
 78148  1  0  0  0
 79 81  1  0  0  0
 79149  1  0  0  0
 80150  1  0  0  0
 81 83  1  0  0  0
 81 84  2  0  0  0
 82151  1  0  0  0
 82152  1  0  0  0
 82153  1  0  0  0
 83154  1  0  0  0
 83155  1  0  0  0
M  ISO  4   1 100  68 101  80 100  83 101
M  END
> <chiral flag>
0

> <version>
0

> <s_m_source_file>
/data/baiqing/PycharmProjects/Reinvent-master-3.2/result/LINK_invent/BTK/process_docking_weight1_custom_product_contain_oxygen_bond_distance_aromatic_linkinvent_7_9_3/rearranged_h_0129.sdf

> <i_m_source_file_index>
17

> <r_mmod_Potential_Energy-OPLS-2005>
20.0497512817383

> <r_mmod_Stretch_Energy-OPLS-2005>
32.1937065124512

> <r_mmod_Bend_Energy-OPLS-2005>
109.478408813477

> <r_mmod_Torsional_Energy-OPLS-2005>
209.366653442383

> <r_mmod_Improper_Torsional_Energy-OPLS-2005>
5.19498300552368

> <r_mmod_Van_der_Waal_Energy-OPLS-2005>
181.977462768555

> <r_mmod_Electrostatic_Energy-OPLS-2005>
-333.136260986328

> <r_mmod_Solvation_Energy-OPLS-2005>
-213.854568481445

> <b_mmod_Minimization_Converged-OPLS-2005>
0

> <r_mmod_RMS_Derivative-OPLS-2005>
0.951142311096191

$$$$
17
                    3D
 Structure written by MMmdl.
157165  0  0  1  0            999 V2000
  -30.6465  -14.6041   20.4604 C   0  0  0  0  0  0
  -30.4167  -12.3553   19.4663 C   0  0  0  0  0  0
  -29.5030  -12.4720   18.2281 C   0  0  0  0  0  0
  -28.0133  -12.3864   18.6132 C   0  0  0  0  0  0
  -27.6481  -13.2317   19.8675 C   0  0  2  0  0  0
  -28.6880  -13.0681   20.9937 C   0  0  0  0  0  0
  -25.2508  -13.8194   20.5698 C   0  0  0  0  0  0
  -24.1791  -13.0444   20.9191 C   0  0  0  0  0  0
  -24.6379  -11.6916   20.8711 C   0  0  0  0  0  0
  -23.9052  -10.4291   21.0396 C   0  0  0  0  0  0
  -24.3617   -9.4195   21.9157 C   0  0  0  0  0  0
  -23.6286   -8.2238   22.0740 C   0  0  0  0  0  0
  -22.4251   -8.0287   21.3549 C   0  0  0  0  0  0
  -21.9867   -9.0282   20.4659 C   0  0  0  0  0  0
  -22.7212  -10.2164   20.3058 C   0  0  0  0  0  0
  -21.6833   -6.0738   22.5270 C   0  0  0  0  0  0
  -21.4037   -6.5638   23.8213 C   0  0  0  0  0  0
  -21.3652   -5.6788   24.9162 C   0  0  0  0  0  0
  -21.6034   -4.3048   24.7223 C   0  0  0  0  0  0
  -21.8810   -3.8144   23.4339 C   0  0  0  0  0  0
  -21.9198   -4.6970   22.3394 C   0  0  0  0  0  0
  -22.7806  -13.5253   21.1826 C   0  0  0  0  0  0
  -22.1649   -4.2156   21.0964 F   0  0  0  0  0  0
  -21.5617   -3.4517   25.7732 F   0  0  0  0  0  0
  -30.0020  -13.3938   20.4303 N   0  0  0  0  0  0
  -26.2953  -12.9420   20.3321 N   0  0  0  0  0  0
  -25.9309  -11.6550   20.5727 N   0  0  0  0  0  0
  -22.0467  -12.8298   22.0423 N   0  0  0  0  0  0
  -25.4195  -15.1920   20.4230 N   0  0  0  0  0  0
  -31.8268  -14.6714   20.1031 O   0  0  0  0  0  0
  -21.6607   -6.8887   21.4233 O   0  0  0  0  0  0
  -22.3491  -14.5546   20.6650 O   0  0  0  0  0  0
  -24.6199  -31.8626   23.2031 C   0  0  0  0  0  0
  -25.9042  -32.4809   23.8383 C   0  0  1  0  0  0
  -27.2436  -27.3527   20.1237 C   0  0  0  0  0  0
  -25.5833  -33.8601   24.2264 N   0  0  0  0  0  0
  -23.4187  -30.4802   21.5431 C   0  0  2  0  0  0
  -24.8711  -28.9250   20.1271 C   0  0  0  0  0  0
  -22.7459  -29.4626   22.4937 C   0  0  0  0  0  0
  -18.0290  -28.1423   22.8490 C   0  0  0  0  0  0
  -24.1456  -36.7320   23.2651 C   0  0  0  0  0  0
  -25.9585  -30.7927   21.3821 C   0  0  0  0  0  0
  -26.0362  -29.4213   20.7279 C   0  0  0  0  0  0
  -27.2266  -28.6464   20.7176 C   0  0  0  0  0  0
  -26.0592  -26.8831   19.5219 C   0  0  0  0  0  0
  -24.8806  -27.6547   19.5228 C   0  0  0  0  0  0
  -23.6399  -29.8055   20.1624 C   0  0  0  0  0  0
  -25.4092  -36.3100   24.0315 C   0  0  1  0  0  0
  -20.5877  -28.3705   23.1291 C   0  0  2  0  0  0
  -20.6755  -26.9421   22.5445 C   0  0  0  0  0  0
  -19.5738  -26.6392   21.5237 C   0  0  0  0  0  0
  -18.1913  -26.7961   22.1628 C   0  0  0  0  0  0
  -19.1546  -28.8883   23.2883 C   0  0  0  0  0  0
  -18.9475  -30.1489   23.8911 C   0  0  0  0  0  0
  -17.6480  -30.6606   24.0588 C   0  0  0  0  0  0
  -25.9048  -34.9478   23.5098 C   0  0  0  0  0  0
  -16.5364  -29.9113   23.6358 C   0  0  0  0  0  0
  -16.7282  -28.6535   23.0365 C   0  0  0  0  0  0
  -26.4445  -31.6673   25.0792 C   0  0  0  0  0  0
  -25.3697  -31.3826   26.1554 C   0  0  0  0  0  0
  -27.0369  -30.3102   24.6348 C   0  0  0  0  0  0
  -27.6017  -32.4471   25.7507 C   0  0  0  0  0  0
  -27.5575  -37.1807   24.8440 C   0  0  0  0  0  0
  -21.4183  -29.3036   22.3664 N   0  0  0  0  0  0
  -26.4269  -37.3800   23.9411 N   0  0  0  0  0  0
  -24.6833  -31.0636   22.0986 N   0  0  0  0  0  0
  -23.4194  -28.8181   23.3024 O   0  0  0  0  0  0
  -28.3869  -26.5665   20.0404 O   0  0  0  0  0  0
  -26.5669  -34.8932   22.4719 O   0  0  0  0  0  0
  -23.5334  -32.1449   23.7330 O   0  0  0  0  0  0
  -28.8948  -18.9980   21.2258 C   0  0  0  0  0  0
  -28.7107  -20.4100   21.3625 C   0  0  0  0  0  0
  -30.3162  -19.4046   19.3315 C   0  0  0  0  0  0
  -29.7691  -18.4648   20.2475 C   0  0  0  0  0  0
  -29.3849  -21.3576   20.5350 C   0  0  0  0  0  0
  -30.1424  -20.8111   19.4581 C   0  0  0  0  0  0
  -30.2192  -17.0198   20.1324 C   0  0  0  0  0  0
  -29.8688  -15.8437   20.7525 C   0  0  0  0  0  0
  -28.5909  -23.9931   20.2974 C   0  0  0  0  0  0
  -30.8401  -21.7137   18.4448 C   0  0  0  0  0  0
  -29.6323  -23.0169   22.4844 C   0  0  0  0  0  0
  -28.5254  -25.4289   20.9521 C   0  0  0  0  0  0
  -29.5131  -22.8811   20.9470 C   0  0  1  0  0  0
  -27.9477  -23.7569   19.2699 O   0  0  0  0  0  0
  -31.4616  -12.4426   19.1679 H   0  0  0  0  0  0
  -30.3333  -11.3666   19.9201 H   0  0  0  0  0  0
  -29.7500  -11.6833   17.5141 H   0  0  0  0  0  0
  -29.6934  -13.4141   17.7135 H   0  0  0  0  0  0
  -27.7694  -11.3374   18.7882 H   0  0  0  0  0  0
  -27.3992  -12.6977   17.7671 H   0  0  0  0  0  0
  -27.6760  -14.2779   19.5591 H   0  0  0  0  0  0
  -28.6852  -12.0399   21.3638 H   0  0  0  0  0  0
  -28.4464  -13.6926   21.8541 H   0  0  0  0  0  0
  -25.2793   -9.5644   22.4720 H   0  0  0  0  0  0
  -23.9996   -7.4603   22.7455 H   0  0  0  0  0  0
  -21.0775   -8.8825   19.8989 H   0  0  0  0  0  0
  -22.3652  -10.9724   19.6193 H   0  0  0  0  0  0
  -21.2032   -7.6147   23.9716 H   0  0  0  0  0  0
  -21.1472   -6.0508   25.9069 H   0  0  0  0  0  0
  -22.0596   -2.7610   23.2815 H   0  0  0  0  0  0
  -22.4095  -12.0019   22.4908 H   0  0  0  0  0  0
  -21.1115  -13.1374   22.2675 H   0  0  0  0  0  0
  -24.6569  -15.8495   20.5502 H   0  0  0  0  0  0
  -26.2740  -15.6331   20.1076 H   0  0  0  0  0  0
  -26.7118  -32.5499   23.1137 H   0  0  0  0  0  0
  -24.9796  -33.9747   25.0263 H   0  0  0  0  0  0
  -22.7121  -31.2990   21.3909 H   0  0  0  0  0  0
  -23.3713  -35.9663   23.3314 H   0  0  0  0  0  0
  -24.3514  -36.8990   22.2075 H   0  0  0  0  0  0
  -23.7233  -37.6505   23.6722 H   0  0  0  0  0  0
  -26.1088  -31.5587   20.6204 H   0  0  0  0  0  0
  -26.8266  -30.8287   22.0286 H   0  0  0  0  0  0
  -28.1295  -29.0313   21.1730 H   0  0  0  0  0  0
  -26.0524  -25.9128   19.0454 H   0  0  0  0  0  0
  -23.9833  -27.2616   19.0685 H   0  0  0  0  0  0
  -23.7692  -30.5798   19.4040 H   0  0  0  0  0  0
  -22.7616  -29.2333   19.8580 H   0  0  0  0  0  0
  -25.1275  -36.1925   25.0799 H   0  0  0  0  0  0
  -20.9996  -28.3307   24.1402 H   0  0  0  0  0  0
  -20.5625  -26.2329   23.3662 H   0  0  0  0  0  0
  -21.6633  -26.7431   22.1280 H   0  0  0  0  0  0
  -19.6884  -25.6295   21.1290 H   0  0  0  0  0  0
  -19.6682  -27.3196   20.6761 H   0  0  0  0  0  0
  -17.4196  -26.6748   21.4011 H   0  0  0  0  0  0
  -18.0285  -26.0106   22.9025 H   0  0  0  0  0  0
  -19.7955  -30.7302   24.2264 H   0  0  0  0  0  0
  -17.5044  -31.6281   24.5216 H   0  0  0  0  0  0
  -15.5371  -30.3023   23.7688 H   0  0  0  0  0  0
  -15.8680  -28.0860   22.7080 H   0  0  0  0  0  0
  -24.5734  -30.7339   25.7866 H   0  0  0  0  0  0
  -24.9037  -32.3012   26.5148 H   0  0  0  0  0  0
  -25.8011  -30.8837   27.0250 H   0  0  0  0  0  0
  -26.3029  -29.6813   24.1304 H   0  0  0  0  0  0
  -27.3958  -29.7404   25.4930 H   0  0  0  0  0  0
  -27.8921  -30.4366   23.9709 H   0  0  0  0  0  0
  -27.2596  -33.3727   26.2150 H   0  0  0  0  0  0
  -28.3744  -32.7167   25.0295 H   0  0  0  0  0  0
  -28.0827  -31.8635   26.5364 H   0  0  0  0  0  0
  -28.2598  -38.0103   24.7525 H   0  0  0  0  0  0
  -28.1068  -36.2656   24.6198 H   0  0  0  0  0  0
  -27.2312  -37.1395   25.8845 H   0  0  0  0  0  0
  -20.9373  -29.8715   21.6830 H   0  0  0  0  0  0
  -26.0136  -38.2857   24.1458 H   0  0  0  0  0  0
  -28.4138  -18.3335   21.9310 H   0  0  0  0  0  0
  -28.1038  -20.7534   22.1901 H   0  0  0  0  0  0
  -30.9494  -19.0394   18.5329 H   0  0  0  0  0  0
  -31.0224  -16.9255   19.4138 H   0  0  0  0  0  0
  -29.0583  -15.8264   21.4687 H   0  0  0  0  0  0
  -31.2696  -21.1401   17.6213 H   0  0  0  0  0  0
  -31.6479  -22.2802   18.9071 H   0  0  0  0  0  0
  -30.1387  -22.4175   17.9999 H   0  0  0  0  0  0
  -30.2658  -22.2288   22.8963 H   0  0  0  0  0  0
  -28.6658  -22.9572   22.9857 H   0  0  0  0  0  0
  -30.1085  -23.9542   22.7771 H   0  0  0  0  0  0
  -29.4579  -25.5988   21.4877 H   0  0  0  0  0  0
  -27.7298  -25.4404   21.6975 H   0  0  0  0  0  0
  -30.5043  -23.1559   20.5892 H   0  0  0  0  0  0
  1 25  1  0  0  0
  1 30  2  0  0  0
  1 78  1  0  0  0
  2  3  1  0  0  0
  2 25  1  0  0  0
  2 85  1  0  0  0
  2 86  1  0  0  0
  3  4  1  0  0  0
  3 87  1  0  0  0
  3 88  1  0  0  0
  4  5  1  0  0  0
  4 89  1  0  0  0
  4 90  1  0  0  0
  5  6  1  0  0  0
  5 26  1  0  0  0
  5 91  1  0  0  0
  6 25  1  0  0  0
  6 92  1  0  0  0
  6 93  1  0  0  0
  7  8  2  0  0  0
  7 26  1  0  0  0
  7 29  1  0  0  0
  8  9  1  0  0  0
  8 22  1  0  0  0
  9 10  1  0  0  0
  9 27  2  0  0  0
 10 11  2  0  0  0
 10 15  1  0  0  0
 11 12  1  0  0  0
 11 94  1  0  0  0
 12 13  2  0  0  0
 12 95  1  0  0  0
 13 14  1  0  0  0
 13 31  1  0  0  0
 14 15  2  0  0  0
 14 96  1  0  0  0
 15 97  1  0  0  0
 16 17  2  0  0  0
 16 21  1  0  0  0
 16 31  1  0  0  0
 17 18  1  0  0  0
 17 98  1  0  0  0
 18 19  2  0  0  0
 18 99  1  0  0  0
 19 20  1  0  0  0
 19 24  1  0  0  0
 20 21  2  0  0  0
 20100  1  0  0  0
 21 23  1  0  0  0
 22 28  1  0  0  0
 22 32  2  0  0  0
 26 27  1  0  0  0
 28101  1  0  0  0
 28102  1  0  0  0
 29103  1  0  0  0
 29104  1  0  0  0
 33 34  1  0  0  0
 33 66  1  0  0  0
 33 70  2  0  0  0
 34 36  1  0  0  0
 34 59  1  0  0  0
 34105  1  0  0  0
 35 44  2  0  0  0
 35 45  1  0  0  0
 35 68  1  0  0  0
 36 56  1  0  0  0
 36106  1  0  0  0
 37 39  1  0  0  0
 37 47  1  0  0  0
 37 66  1  0  0  0
 37107  1  0  0  0
 38 43  2  0  0  0
 38 46  1  0  0  0
 38 47  1  0  0  0
 39 64  1  0  0  0
 39 67  2  0  0  0
 40 52  1  0  0  0
 40 53  2  0  0  0
 40 58  1  0  0  0
 41108  1  0  0  0
 41109  1  0  0  0
 41110  1  0  0  0
 41 48  1  0  0  0
 42 43  1  0  0  0
 42 66  1  0  0  0
 42111  1  0  0  0
 42112  1  0  0  0
 43 44  1  0  0  0
 44113  1  0  0  0
 45 46  2  0  0  0
 45114  1  0  0  0
 46115  1  0  0  0
 47116  1  0  0  0
 47117  1  0  0  0
 48 56  1  0  0  0
 48 65  1  0  0  0
 48118  1  0  0  0
 49 50  1  0  0  0
 49 53  1  0  0  0
 49 64  1  0  0  0
 49119  1  0  0  0
 50 51  1  0  0  0
 50120  1  0  0  0
 50121  1  0  0  0
 51 52  1  0  0  0
 51122  1  0  0  0
 51123  1  0  0  0
 52124  1  0  0  0
 52125  1  0  0  0
 53 54  1  0  0  0
 54 55  2  0  0  0
 54126  1  0  0  0
 55 57  1  0  0  0
 55127  1  0  0  0
 56 69  2  0  0  0
 57 58  2  0  0  0
 57128  1  0  0  0
 58129  1  0  0  0
 59 60  1  0  0  0
 59 61  1  0  0  0
 59 62  1  0  0  0
 60130  1  0  0  0
 60131  1  0  0  0
 60132  1  0  0  0
 61133  1  0  0  0
 61134  1  0  0  0
 61135  1  0  0  0
 62136  1  0  0  0
 62137  1  0  0  0
 62138  1  0  0  0
 63 65  1  0  0  0
 63139  1  0  0  0
 63140  1  0  0  0
 63141  1  0  0  0
 64142  1  0  0  0
 65143  1  0  0  0
 68 82  1  0  0  0
 71 72  2  0  0  0
 71 74  1  0  0  0
 71144  1  0  0  0
 72 75  1  0  0  0
 72145  1  0  0  0
 73 74  2  0  0  0
 73 76  1  0  0  0
 73146  1  0  0  0
 74 77  1  0  0  0
 75 76  2  0  0  0
 75 83  1  0  0  0
 76 80  1  0  0  0
 77 78  2  0  0  0
 77147  1  0  0  0
 78148  1  0  0  0
 79 82  1  0  0  0
 79 83  1  0  0  0
 79 84  2  0  0  0
 80149  1  0  0  0
 80150  1  0  0  0
 80151  1  0  0  0
 81152  1  0  0  0
 81153  1  0  0  0
 81154  1  0  0  0
 81 83  1  0  0  0
 82155  1  0  0  0
 82156  1  0  0  0
 83157  1  0  0  0
M  ISO  4   1 100  68 101  78 100  82 101
M  END
> <chiral flag>
0

> <version>
0

> <s_m_source_file>
/data/baiqing/PycharmProjects/Reinvent-master-3.2/result/LINK_invent/BTK/process_docking_weight1_custom_product_contain_oxygen_bond_distance_aromatic_linkinvent_7_9_3/rearranged_h_0129.sdf

> <i_m_source_file_index>
18

> <r_mmod_Potential_Energy-OPLS-2005>
139.741424560547

> <r_mmod_Stretch_Energy-OPLS-2005>
74.0889129638672

> <r_mmod_Bend_Energy-OPLS-2005>
144.156829833984

> <r_mmod_Torsional_Energy-OPLS-2005>
240.689559936523

> <r_mmod_Improper_Torsional_Energy-OPLS-2005>
6.00698041915894

> <r_mmod_Van_der_Waal_Energy-OPLS-2005>
142.01301574707

> <r_mmod_Electrostatic_Energy-OPLS-2005>
-294.231323242188

> <r_mmod_Solvation_Energy-OPLS-2005>
-208.825271606445

> <b_mmod_Minimization_Converged-OPLS-2005>
0

> <r_mmod_RMS_Derivative-OPLS-2005>
5.20395088195801

$$$$
18
                    3D
 Structure written by MMmdl.
152160  0  0  1  0            999 V2000
  -30.6768  -14.5573   20.4728 C   0  0  0  0  0  0
  -30.4124  -12.3232   19.4655 C   0  0  0  0  0  0
  -29.4997  -12.4738   18.2278 C   0  0  0  0  0  0
  -28.0166  -12.3358   18.6292 C   0  0  0  0  0  0
  -27.6458  -13.2117   19.8571 C   0  0  2  0  0  0
  -28.6862  -13.0669   20.9896 C   0  0  0  0  0  0
  -25.2498  -13.8180   20.5709 C   0  0  0  0  0  0
  -24.1769  -13.0439   20.9205 C   0  0  0  0  0  0
  -24.6348  -11.6909   20.8763 C   0  0  0  0  0  0
  -23.9040  -10.4278   21.0414 C   0  0  0  0  0  0
  -24.3595   -9.4190   21.9185 C   0  0  0  0  0  0
  -23.6265   -8.2238   22.0766 C   0  0  0  0  0  0
  -22.4230   -8.0298   21.3577 C   0  0  0  0  0  0
  -21.9860   -9.0278   20.4680 C   0  0  0  0  0  0
  -22.7203  -10.2148   20.3074 C   0  0  0  0  0  0
  -21.6841   -6.0734   22.5283 C   0  0  0  0  0  0
  -21.4014   -6.5630   23.8228 C   0  0  0  0  0  0
  -21.3666   -5.6791   24.9195 C   0  0  0  0  0  0
  -21.6028   -4.3056   24.7237 C   0  0  0  0  0  0
  -21.8814   -3.8139   23.4363 C   0  0  0  0  0  0
  -21.9180   -4.6956   22.3409 C   0  0  0  0  0  0
  -22.7797  -13.5249   21.1855 C   0  0  0  0  0  0
  -22.1644   -4.2147   21.0992 F   0  0  0  0  0  0
  -21.5626   -3.4542   25.7750 F   0  0  0  0  0  0
  -30.0112  -13.3640   20.4308 N   0  0  0  0  0  0
  -26.2919  -12.9356   20.3306 N   0  0  0  0  0  0
  -25.9250  -11.6514   20.5734 N   0  0  0  0  0  0
  -22.0413  -12.8312   22.0447 N   0  0  0  0  0  0
  -25.4219  -15.1905   20.4157 N   0  0  0  0  0  0
  -31.8664  -14.6180   20.1491 O   0  0  0  0  0  0
  -21.6626   -6.8874   21.4245 O   0  0  0  0  0  0
  -22.3512  -14.5557   20.6682 O   0  0  0  0  0  0
  -24.6228  -31.8642   23.2080 C   0  0  0  0  0  0
  -25.9091  -32.4803   23.8389 C   0  0  1  0  0  0
  -27.2132  -27.3487   20.1044 C   0  0  0  0  0  0
  -25.5920  -33.8600   24.2299 N   0  0  0  0  0  0
  -23.4135  -30.4927   21.5513 C   0  0  2  0  0  0
  -24.8568  -28.9616   20.1153 C   0  0  0  0  0  0
  -22.7456  -29.4646   22.4957 C   0  0  0  0  0  0
  -18.0292  -28.1379   22.8522 C   0  0  0  0  0  0
  -24.1482  -36.7309   23.2639 C   0  0  0  0  0  0
  -25.9563  -30.8039   21.3794 C   0  0  0  0  0  0
  -26.0289  -29.4371   20.7149 C   0  0  0  0  0  0
  -27.2111  -28.6416   20.7033 C   0  0  0  0  0  0
  -26.0098  -26.9269   19.4806 C   0  0  0  0  0  0
  -24.8449  -27.7075   19.4964 C   0  0  0  0  0  0
  -23.6270  -29.8378   20.1642 C   0  0  0  0  0  0
  -25.4108  -36.3087   24.0322 C   0  0  1  0  0  0
  -20.5888  -28.3679   23.1319 C   0  0  2  0  0  0
  -20.6778  -26.9410   22.5430 C   0  0  0  0  0  0
  -19.5744  -26.6384   21.5237 C   0  0  0  0  0  0
  -18.1925  -26.7933   22.1648 C   0  0  0  0  0  0
  -19.1541  -28.8846   23.2919 C   0  0  0  0  0  0
  -18.9466  -30.1455   23.8921 C   0  0  0  0  0  0
  -17.6461  -30.6590   24.0569 C   0  0  0  0  0  0
  -25.9055  -34.9461   23.5112 C   0  0  0  0  0  0
  -16.5357  -29.9092   23.6327 C   0  0  0  0  0  0
  -16.7276  -28.6503   23.0371 C   0  0  0  0  0  0
  -26.4484  -31.6612   25.0749 C   0  0  0  0  0  0
  -25.3727  -31.3778   26.1491 C   0  0  0  0  0  0
  -27.0318  -30.3023   24.6218 C   0  0  0  0  0  0
  -27.6043  -32.4365   25.7505 C   0  0  0  0  0  0
  -27.5575  -37.1804   24.8460 C   0  0  0  0  0  0
  -21.4174  -29.3037   22.3702 N   0  0  0  0  0  0
  -26.4280  -37.3785   23.9412 N   0  0  0  0  0  0
  -24.6827  -31.0686   22.1033 N   0  0  0  0  0  0
  -23.4200  -28.8179   23.3005 O   0  0  0  0  0  0
  -28.3281  -26.4972   20.1613 O   0  0  0  0  0  0
  -26.5629  -34.8914   22.4675 O   0  0  0  0  0  0
  -23.5403  -32.1447   23.7420 O   0  0  0  0  0  0
  -28.5115  -18.6883   20.5676 C   0  0  0  0  0  0
  -30.7684  -19.5064   20.3110 C   0  0  0  0  0  0
  -28.0382  -20.0203   20.4508 C   0  0  0  0  0  0
  -30.2964  -20.8415   20.1989 C   0  0  0  0  0  0
  -29.8915  -18.3991   20.4741 C   0  0  0  0  0  0
  -28.9121  -21.1219   20.2493 C   0  0  0  0  0  0
  -30.4641  -17.0134   20.4772 C   0  0  0  0  0  0
  -29.8780  -15.7934   20.6575 C   0  0  0  0  0  0
  -28.2865  -22.5198   19.9816 C   0  0  0  0  0  0
  -29.0161  -23.8874   20.2770 C   0  0  0  0  0  0
  -28.0430  -25.0758   19.9260 C   0  0  0  0  0  0
  -31.4612  -12.3931   19.1758 H   0  0  0  0  0  0
  -30.2999  -11.3337   19.9137 H   0  0  0  0  0  0
  -29.7547  -11.7219   17.4802 H   0  0  0  0  0  0
  -29.6690  -13.4424   17.7534 H   0  0  0  0  0  0
  -27.8347  -11.2847   18.8588 H   0  0  0  0  0  0
  -27.3717  -12.5764   17.7830 H   0  0  0  0  0  0
  -27.6665  -14.2442   19.5101 H   0  0  0  0  0  0
  -28.6737  -12.0521   21.3904 H   0  0  0  0  0  0
  -28.4486  -13.7205   21.8294 H   0  0  0  0  0  0
  -25.2742   -9.5677   22.4768 H   0  0  0  0  0  0
  -23.9998   -7.4610   22.7452 H   0  0  0  0  0  0
  -21.0793   -8.8789   19.8986 H   0  0  0  0  0  0
  -22.3639  -10.9702   19.6212 H   0  0  0  0  0  0
  -21.2020   -7.6141   23.9741 H   0  0  0  0  0  0
  -21.1487   -6.0516   25.9106 H   0  0  0  0  0  0
  -22.0575   -2.7593   23.2856 H   0  0  0  0  0  0
  -22.4017  -12.0036   22.4935 H   0  0  0  0  0  0
  -21.1057  -13.1419   22.2647 H   0  0  0  0  0  0
  -24.6575  -15.8439   20.5459 H   0  0  0  0  0  0
  -26.2753  -15.6365   20.1034 H   0  0  0  0  0  0
  -26.7154  -32.5467   23.1132 H   0  0  0  0  0  0
  -24.9985  -33.9772   25.0386 H   0  0  0  0  0  0
  -22.7042  -31.3105   21.4130 H   0  0  0  0  0  0
  -23.3728  -35.9657   23.3309 H   0  0  0  0  0  0
  -24.3580  -36.8933   22.2054 H   0  0  0  0  0  0
  -23.7250  -37.6517   23.6669 H   0  0  0  0  0  0
  -26.0883  -31.5728   20.6174 H   0  0  0  0  0  0
  -26.8362  -30.8442   22.0108 H   0  0  0  0  0  0
  -28.1089  -29.0002   21.1884 H   0  0  0  0  0  0
  -25.9143  -25.9712   18.9888 H   0  0  0  0  0  0
  -23.9406  -27.3321   19.0381 H   0  0  0  0  0  0
  -23.7520  -30.6185   19.4133 H   0  0  0  0  0  0
  -22.7466  -29.2703   19.8566 H   0  0  0  0  0  0
  -25.1275  -36.1937   25.0814 H   0  0  0  0  0  0
  -20.9979  -28.3248   24.1440 H   0  0  0  0  0  0
  -20.5701  -26.2282   23.3621 H   0  0  0  0  0  0
  -21.6645  -26.7460   22.1198 H   0  0  0  0  0  0
  -19.6902  -25.6292   21.1270 H   0  0  0  0  0  0
  -19.6671  -27.3194   20.6767 H   0  0  0  0  0  0
  -17.4195  -26.6716   21.4047 H   0  0  0  0  0  0
  -18.0309  -26.0058   22.9024 H   0  0  0  0  0  0
  -19.7941  -30.7283   24.2286 H   0  0  0  0  0  0
  -17.5017  -31.6273   24.5163 H   0  0  0  0  0  0
  -15.5356  -30.2999   23.7629 H   0  0  0  0  0  0
  -15.8686  -28.0814   22.7082 H   0  0  0  0  0  0
  -24.5793  -30.7273   25.7800 H   0  0  0  0  0  0
  -24.9061  -32.2982   26.5013 H   0  0  0  0  0  0
  -25.8024  -30.8828   27.0206 H   0  0  0  0  0  0
  -26.2905  -29.6790   24.1208 H   0  0  0  0  0  0
  -27.3960  -29.7265   25.4737 H   0  0  0  0  0  0
  -27.8798  -30.4288   23.9482 H   0  0  0  0  0  0
  -27.2604  -33.3594   26.2183 H   0  0  0  0  0  0
  -28.3770  -32.7069   25.0298 H   0  0  0  0  0  0
  -28.0814  -31.8464   26.5338 H   0  0  0  0  0  0
  -28.2593  -38.0097   24.7478 H   0  0  0  0  0  0
  -28.1059  -36.2629   24.6286 H   0  0  0  0  0  0
  -27.2313  -37.1457   25.8870 H   0  0  0  0  0  0
  -20.9340  -29.8766   21.6934 H   0  0  0  0  0  0
  -26.0156  -38.2852   24.1434 H   0  0  0  0  0  0
  -27.7930  -17.8876   20.6841 H   0  0  0  0  0  0
  -31.8322  -19.3282   20.2339 H   0  0  0  0  0  0
  -26.9697  -20.1886   20.4786 H   0  0  0  0  0  0
  -31.0087  -21.6404   20.0344 H   0  0  0  0  0  0
  -31.5240  -17.0140   20.2615 H   0  0  0  0  0  0
  -28.8279  -15.7411   20.8977 H   0  0  0  0  0  0
  -27.3446  -22.5344   20.5346 H   0  0  0  0  0  0
  -27.9932  -22.5168   18.9301 H   0  0  0  0  0  0
  -29.9299  -23.9677   19.6870 H   0  0  0  0  0  0
  -29.3074  -23.9390   21.3270 H   0  0  0  0  0  0
  -27.1296  -24.8421   20.4761 H   0  0  0  0  0  0
  -27.8123  -24.9737   18.8645 H   0  0  0  0  0  0
  1 25  1  0  0  0
  1 30  2  0  0  0
  1 78  1  0  0  0
  2  3  1  0  0  0
  2 25  1  0  0  0
  2 82  1  0  0  0
  2 83  1  0  0  0
  3  4  1  0  0  0
  3 84  1  0  0  0
  3 85  1  0  0  0
  4  5  1  0  0  0
  4 86  1  0  0  0
  4 87  1  0  0  0
  5  6  1  0  0  0
  5 26  1  0  0  0
  5 88  1  0  0  0
  6 25  1  0  0  0
  6 89  1  0  0  0
  6 90  1  0  0  0
  7  8  2  0  0  0
  7 26  1  0  0  0
  7 29  1  0  0  0
  8  9  1  0  0  0
  8 22  1  0  0  0
  9 10  1  0  0  0
  9 27  2  0  0  0
 10 11  2  0  0  0
 10 15  1  0  0  0
 11 12  1  0  0  0
 11 91  1  0  0  0
 12 13  2  0  0  0
 12 92  1  0  0  0
 13 14  1  0  0  0
 13 31  1  0  0  0
 14 15  2  0  0  0
 14 93  1  0  0  0
 15 94  1  0  0  0
 16 17  2  0  0  0
 16 21  1  0  0  0
 16 31  1  0  0  0
 17 18  1  0  0  0
 17 95  1  0  0  0
 18 19  2  0  0  0
 18 96  1  0  0  0
 19 20  1  0  0  0
 19 24  1  0  0  0
 20 21  2  0  0  0
 20 97  1  0  0  0
 21 23  1  0  0  0
 22 28  1  0  0  0
 22 32  2  0  0  0
 26 27  1  0  0  0
 28 98  1  0  0  0
 28 99  1  0  0  0
 29100  1  0  0  0
 29101  1  0  0  0
 33 34  1  0  0  0
 33 66  1  0  0  0
 33 70  2  0  0  0
 34 36  1  0  0  0
 34 59  1  0  0  0
 34102  1  0  0  0
 35 44  2  0  0  0
 35 45  1  0  0  0
 35 68  1  0  0  0
 36 56  1  0  0  0
 36103  1  0  0  0
 37 39  1  0  0  0
 37 47  1  0  0  0
 37 66  1  0  0  0
 37104  1  0  0  0
 38 43  2  0  0  0
 38 46  1  0  0  0
 38 47  1  0  0  0
 39 64  1  0  0  0
 39 67  2  0  0  0
 40 52  1  0  0  0
 40 53  2  0  0  0
 40 58  1  0  0  0
 41105  1  0  0  0
 41106  1  0  0  0
 41107  1  0  0  0
 41 48  1  0  0  0
 42 43  1  0  0  0
 42 66  1  0  0  0
 42108  1  0  0  0
 42109  1  0  0  0
 43 44  1  0  0  0
 44110  1  0  0  0
 45 46  2  0  0  0
 45111  1  0  0  0
 46112  1  0  0  0
 47113  1  0  0  0
 47114  1  0  0  0
 48 56  1  0  0  0
 48 65  1  0  0  0
 48115  1  0  0  0
 49 50  1  0  0  0
 49 53  1  0  0  0
 49 64  1  0  0  0
 49116  1  0  0  0
 50 51  1  0  0  0
 50117  1  0  0  0
 50118  1  0  0  0
 51 52  1  0  0  0
 51119  1  0  0  0
 51120  1  0  0  0
 52121  1  0  0  0
 52122  1  0  0  0
 53 54  1  0  0  0
 54 55  2  0  0  0
 54123  1  0  0  0
 55 57  1  0  0  0
 55124  1  0  0  0
 56 69  2  0  0  0
 57 58  2  0  0  0
 57125  1  0  0  0
 58126  1  0  0  0
 59 60  1  0  0  0
 59 61  1  0  0  0
 59 62  1  0  0  0
 60127  1  0  0  0
 60128  1  0  0  0
 60129  1  0  0  0
 61130  1  0  0  0
 61131  1  0  0  0
 61132  1  0  0  0
 62133  1  0  0  0
 62134  1  0  0  0
 62135  1  0  0  0
 63 65  1  0  0  0
 63136  1  0  0  0
 63137  1  0  0  0
 63138  1  0  0  0
 64139  1  0  0  0
 65140  1  0  0  0
 68 81  1  0  0  0
 71 73  2  0  0  0
 71 75  1  0  0  0
 71141  1  0  0  0
 72 74  1  0  0  0
 72 75  2  0  0  0
 72142  1  0  0  0
 73 76  1  0  0  0
 73143  1  0  0  0
 74 76  2  0  0  0
 74144  1  0  0  0
 75 77  1  0  0  0
 76 79  1  0  0  0
 77 78  2  0  0  0
 77145  1  0  0  0
 78146  1  0  0  0
 79 80  1  0  0  0
 79147  1  0  0  0
 79148  1  0  0  0
 80 81  1  0  0  0
 80149  1  0  0  0
 80150  1  0  0  0
 81151  1  0  0  0
 81152  1  0  0  0
M  ISO  4   1 100  68 101  78 100  81 101
M  END
> <chiral flag>
0

> <version>
0

> <s_m_source_file>
/data/baiqing/PycharmProjects/Reinvent-master-3.2/result/LINK_invent/BTK/process_docking_weight1_custom_product_contain_oxygen_bond_distance_aromatic_linkinvent_7_9_3/rearranged_h_0129.sdf

> <i_m_source_file_index>
19

> <r_mmod_Potential_Energy-OPLS-2005>
53.9852981567383

> <r_mmod_Stretch_Energy-OPLS-2005>
58.0835304260254

> <r_mmod_Bend_Energy-OPLS-2005>
136.699890136719

> <r_mmod_Torsional_Energy-OPLS-2005>
180.458831787109

> <r_mmod_Improper_Torsional_Energy-OPLS-2005>
6.45808601379395

> <r_mmod_Van_der_Waal_Energy-OPLS-2005>
162.085784912109

> <r_mmod_Electrostatic_Energy-OPLS-2005>
-334.26708984375

> <r_mmod_Solvation_Energy-OPLS-2005>
-193.531509399414

> <b_mmod_Minimization_Converged-OPLS-2005>
0

> <r_mmod_RMS_Derivative-OPLS-2005>
3.39928030967712

$$$$
19
                    3D
 Structure written by MMmdl.
157165  0  0  1  0            999 V2000
  -30.6225  -14.6258   20.5060 C   0  0  0  0  0  0
  -30.4389  -12.3845   19.4496 C   0  0  0  0  0  0
  -29.5064  -12.5084   18.2233 C   0  0  0  0  0  0
  -28.0286  -12.3495   18.6345 C   0  0  0  0  0  0
  -27.6552  -13.2143   19.8677 C   0  0  2  0  0  0
  -28.6997  -13.0541   20.9957 C   0  0  0  0  0  0
  -25.2553  -13.8139   20.5651 C   0  0  0  0  0  0
  -24.1825  -13.0419   20.9191 C   0  0  0  0  0  0
  -24.6395  -11.6893   20.8753 C   0  0  0  0  0  0
  -23.9062  -10.4281   21.0419 C   0  0  0  0  0  0
  -24.3613   -9.4196   21.9194 C   0  0  0  0  0  0
  -23.6285   -8.2234   22.0760 C   0  0  0  0  0  0
  -22.4268   -8.0276   21.3547 C   0  0  0  0  0  0
  -21.9907   -9.0250   20.4651 C   0  0  0  0  0  0
  -22.7238  -10.2128   20.3063 C   0  0  0  0  0  0
  -21.6848   -6.0730   22.5279 C   0  0  0  0  0  0
  -21.4013   -6.5638   23.8211 C   0  0  0  0  0  0
  -21.3661   -5.6793   24.9174 C   0  0  0  0  0  0
  -21.6044   -4.3054   24.7228 C   0  0  0  0  0  0
  -21.8818   -3.8145   23.4349 C   0  0  0  0  0  0
  -21.9190   -4.6959   22.3403 C   0  0  0  0  0  0
  -22.7850  -13.5222   21.1852 C   0  0  0  0  0  0
  -22.1659   -4.2146   21.0980 F   0  0  0  0  0  0
  -21.5631   -3.4540   25.7741 F   0  0  0  0  0  0
  -30.0178  -13.3982   20.4369 N   0  0  0  0  0  0
  -26.2995  -12.9330   20.3337 N   0  0  0  0  0  0
  -25.9328  -11.6489   20.5783 N   0  0  0  0  0  0
  -22.0493  -12.8219   22.0413 N   0  0  0  0  0  0
  -25.4237  -15.1836   20.3974 N   0  0  0  0  0  0
  -31.7771  -14.7947   20.1022 O   0  0  0  0  0  0
  -21.6631   -6.8875   21.4241 O   0  0  0  0  0  0
  -22.3534  -14.5530   20.6703 O   0  0  0  0  0  0
  -24.6254  -31.8607   23.2042 C   0  0  0  0  0  0
  -25.9110  -32.4783   23.8363 C   0  0  1  0  0  0
  -27.2265  -27.3312   20.1113 C   0  0  0  0  0  0
  -25.5930  -33.8583   24.2292 N   0  0  0  0  0  0
  -23.4183  -30.4845   21.5466 C   0  0  2  0  0  0
  -24.8643  -28.9421   20.1115 C   0  0  0  0  0  0
  -22.7474  -29.4623   22.4943 C   0  0  0  0  0  0
  -18.0284  -28.1375   22.8480 C   0  0  0  0  0  0
  -24.1490  -36.7291   23.2639 C   0  0  0  0  0  0
  -25.9588  -30.7947   21.3739 C   0  0  0  0  0  0
  -26.0333  -29.4236   20.7144 C   0  0  0  0  0  0
  -27.2175  -28.6303   20.7040 C   0  0  0  0  0  0
  -26.0319  -26.8987   19.4883 C   0  0  0  0  0  0
  -24.8649  -27.6840   19.4907 C   0  0  0  0  0  0
  -23.6324  -29.8216   20.1607 C   0  0  0  0  0  0
  -25.4113  -36.3086   24.0329 C   0  0  1  0  0  0
  -20.5884  -28.3681   23.1279 C   0  0  2  0  0  0
  -20.6779  -26.9404   22.5406 C   0  0  0  0  0  0
  -19.5757  -26.6377   21.5204 C   0  0  0  0  0  0
  -18.1934  -26.7919   22.1614 C   0  0  0  0  0  0
  -19.1536  -28.8842   23.2876 C   0  0  0  0  0  0
  -18.9465  -30.1446   23.8892 C   0  0  0  0  0  0
  -17.6467  -30.6583   24.0552 C   0  0  0  0  0  0
  -25.9048  -34.9454   23.5110 C   0  0  0  0  0  0
  -16.5355  -29.9081   23.6326 C   0  0  0  0  0  0
  -16.7273  -28.6496   23.0347 C   0  0  0  0  0  0
  -26.4500  -31.6586   25.0725 C   0  0  0  0  0  0
  -25.3741  -31.3713   26.1456 C   0  0  0  0  0  0
  -27.0341  -30.3015   24.6163 C   0  0  0  0  0  0
  -27.6063  -32.4320   25.7494 C   0  0  0  0  0  0
  -27.5580  -37.1804   24.8466 C   0  0  0  0  0  0
  -21.4188  -29.3036   22.3679 N   0  0  0  0  0  0
  -26.4294  -37.3776   23.9406 N   0  0  0  0  0  0
  -24.6862  -31.0629   22.0987 N   0  0  0  0  0  0
  -23.4200  -28.8165   23.3022 O   0  0  0  0  0  0
  -28.3527  -26.4963   20.1551 O   0  0  0  0  0  0
  -26.5613  -34.8919   22.4674 O   0  0  0  0  0  0
  -23.5420  -32.1399   23.7376 O   0  0  0  0  0  0
  -30.8000  -19.1900   19.7537 C   0  0  0  0  0  0
  -30.8171  -17.7768   19.9286 C   0  0  0  0  0  0
  -28.8841  -19.3657   21.1795 C   0  0  0  0  0  0
  -29.8415  -20.0315   20.3764 C   0  0  0  0  0  0
  -28.8755  -17.9440   21.3599 C   0  0  0  0  0  0
  -29.8616  -17.1089   20.7387 C   0  0  0  0  0  0
  -29.9110  -21.5389   20.1832 C   0  0  0  0  0  0
  -29.0858  -22.5520   20.5951 C   0  0  0  0  0  0
  -26.4026  -17.9499   22.1034 C   0  0  0  0  0  0
  -27.8029  -17.3371   22.2690 C   0  0  0  0  0  0
  -29.3497  -24.0889   20.4268 C   0  0  0  0  0  0
  -28.1402  -25.0374   20.0541 C   0  0  0  0  0  0
  -29.8218  -15.6550   20.9232 N   0  0  0  0  0  0
  -31.4798  -12.5104   19.1462 H   0  0  0  0  0  0
  -30.3739  -11.3855   19.8839 H   0  0  0  0  0  0
  -29.7675  -11.7596   17.4743 H   0  0  0  0  0  0
  -29.6507  -13.4796   17.7475 H   0  0  0  0  0  0
  -27.8596  -11.2957   18.8590 H   0  0  0  0  0  0
  -27.3750  -12.5885   17.7947 H   0  0  0  0  0  0
  -27.6781  -14.2524   19.5361 H   0  0  0  0  0  0
  -28.7083  -12.0272   21.3646 H   0  0  0  0  0  0
  -28.4449  -13.6725   21.8575 H   0  0  0  0  0  0
  -25.2758   -9.5668   22.4770 H   0  0  0  0  0  0
  -23.9992   -7.4625   22.7479 H   0  0  0  0  0  0
  -21.0839   -8.8768   19.8957 H   0  0  0  0  0  0
  -22.3698  -10.9668   19.6173 H   0  0  0  0  0  0
  -21.2007   -7.6147   23.9712 H   0  0  0  0  0  0
  -21.1486   -6.0527   25.9077 H   0  0  0  0  0  0
  -22.0598   -2.7607   23.2851 H   0  0  0  0  0  0
  -22.4095  -11.9865   22.4784 H   0  0  0  0  0  0
  -21.1120  -13.1260   22.2631 H   0  0  0  0  0  0
  -24.6559  -15.8353   20.5100 H   0  0  0  0  0  0
  -26.2676  -15.6225   20.0545 H   0  0  0  0  0  0
  -26.7178  -32.5456   23.1110 H   0  0  0  0  0  0
  -25.0093  -33.9723   25.0449 H   0  0  0  0  0  0
  -22.7113  -31.3046   21.4051 H   0  0  0  0  0  0
  -23.3753  -35.9625   23.3307 H   0  0  0  0  0  0
  -24.3582  -36.8902   22.2053 H   0  0  0  0  0  0
  -23.7241  -37.6494   23.6656 H   0  0  0  0  0  0
  -26.0899  -31.5606   20.6080 H   0  0  0  0  0  0
  -26.8393  -30.8409   22.0033 H   0  0  0  0  0  0
  -28.1153  -28.9957   21.1829 H   0  0  0  0  0  0
  -25.9708  -25.9386   18.9983 H   0  0  0  0  0  0
  -23.9685  -27.3082   19.0159 H   0  0  0  0  0  0
  -23.7534  -30.5994   19.4057 H   0  0  0  0  0  0
  -22.7525  -29.2512   19.8583 H   0  0  0  0  0  0
  -25.1295  -36.1939   25.0821 H   0  0  0  0  0  0
  -20.9968  -28.3256   24.1402 H   0  0  0  0  0  0
  -20.5681  -26.2288   23.3603 H   0  0  0  0  0  0
  -21.6651  -26.7442   22.1197 H   0  0  0  0  0  0
  -19.6921  -25.6289   21.1233 H   0  0  0  0  0  0
  -19.6696  -27.3189   20.6734 H   0  0  0  0  0  0
  -17.4203  -26.6653   21.4016 H   0  0  0  0  0  0
  -18.0341  -26.0063   22.9013 H   0  0  0  0  0  0
  -19.7945  -30.7253   24.2265 H   0  0  0  0  0  0
  -17.5026  -31.6265   24.5156 H   0  0  0  0  0  0
  -15.5355  -30.2983   23.7658 H   0  0  0  0  0  0
  -15.8669  -28.0818   22.7066 H   0  0  0  0  0  0
  -24.5923  -30.7051   25.7790 H   0  0  0  0  0  0
  -24.8922  -32.2876   26.4884 H   0  0  0  0  0  0
  -25.8075  -30.8898   27.0228 H   0  0  0  0  0  0
  -26.2906  -29.6762   24.1210 H   0  0  0  0  0  0
  -27.4073  -29.7272   25.4649 H   0  0  0  0  0  0
  -27.8763  -30.4307   23.9359 H   0  0  0  0  0  0
  -27.2682  -33.3627   26.2060 H   0  0  0  0  0  0
  -28.3885  -32.6863   25.0330 H   0  0  0  0  0  0
  -28.0720  -31.8449   26.5419 H   0  0  0  0  0  0
  -28.2602  -38.0099   24.7517 H   0  0  0  0  0  0
  -28.1073  -36.2630   24.6295 H   0  0  0  0  0  0
  -27.2296  -37.1455   25.8869 H   0  0  0  0  0  0
  -20.9365  -29.8763   21.6892 H   0  0  0  0  0  0
  -26.0176  -38.2849   24.1412 H   0  0  0  0  0  0
  -31.5585  -19.6338   19.1238 H   0  0  0  0  0  0
  -31.5842  -17.2147   19.4168 H   0  0  0  0  0  0
  -28.1477  -19.9720   21.6834 H   0  0  0  0  0  0
  -30.7950  -21.8572   19.6479 H   0  0  0  0  0  0
  -28.1822  -22.2977   21.1305 H   0  0  0  0  0  0
  -25.6718  -17.3941   22.6911 H   0  0  0  0  0  0
  -26.0787  -17.9203   21.0633 H   0  0  0  0  0  0
  -26.3584  -18.9841   22.4418 H   0  0  0  0  0  0
  -28.1299  -17.4503   23.3031 H   0  0  0  0  0  0
  -27.7059  -16.2653   22.1034 H   0  0  0  0  0  0
  -30.1545  -24.2326   19.7049 H   0  0  0  0  0  0
  -29.7476  -24.4303   21.3831 H   0  0  0  0  0  0
  -27.3017  -24.7703   20.6997 H   0  0  0  0  0  0
  -27.8395  -24.7966   19.0343 H   0  0  0  0  0  0
  -28.9641  -15.3184   21.3304 H   0  0  0  0  0  0
  1 25  1  0  0  0
  1 30  2  0  0  0
  1 83  1  0  0  0
  2  3  1  0  0  0
  2 25  1  0  0  0
  2 84  1  0  0  0
  2 85  1  0  0  0
  3  4  1  0  0  0
  3 86  1  0  0  0
  3 87  1  0  0  0
  4  5  1  0  0  0
  4 88  1  0  0  0
  4 89  1  0  0  0
  5  6  1  0  0  0
  5 26  1  0  0  0
  5 90  1  0  0  0
  6 25  1  0  0  0
  6 91  1  0  0  0
  6 92  1  0  0  0
  7  8  2  0  0  0
  7 26  1  0  0  0
  7 29  1  0  0  0
  8  9  1  0  0  0
  8 22  1  0  0  0
  9 10  1  0  0  0
  9 27  2  0  0  0
 10 11  2  0  0  0
 10 15  1  0  0  0
 11 12  1  0  0  0
 11 93  1  0  0  0
 12 13  2  0  0  0
 12 94  1  0  0  0
 13 14  1  0  0  0
 13 31  1  0  0  0
 14 15  2  0  0  0
 14 95  1  0  0  0
 15 96  1  0  0  0
 16 17  2  0  0  0
 16 21  1  0  0  0
 16 31  1  0  0  0
 17 18  1  0  0  0
 17 97  1  0  0  0
 18 19  2  0  0  0
 18 98  1  0  0  0
 19 20  1  0  0  0
 19 24  1  0  0  0
 20 21  2  0  0  0
 20 99  1  0  0  0
 21 23  1  0  0  0
 22 28  1  0  0  0
 22 32  2  0  0  0
 26 27  1  0  0  0
 28100  1  0  0  0
 28101  1  0  0  0
 29102  1  0  0  0
 29103  1  0  0  0
 33 34  1  0  0  0
 33 66  1  0  0  0
 33 70  2  0  0  0
 34 36  1  0  0  0
 34 59  1  0  0  0
 34104  1  0  0  0
 35 44  2  0  0  0
 35 45  1  0  0  0
 35 68  1  0  0  0
 36 56  1  0  0  0
 36105  1  0  0  0
 37 39  1  0  0  0
 37 47  1  0  0  0
 37 66  1  0  0  0
 37106  1  0  0  0
 38 43  2  0  0  0
 38 46  1  0  0  0
 38 47  1  0  0  0
 39 64  1  0  0  0
 39 67  2  0  0  0
 40 52  1  0  0  0
 40 53  2  0  0  0
 40 58  1  0  0  0
 41107  1  0  0  0
 41108  1  0  0  0
 41109  1  0  0  0
 41 48  1  0  0  0
 42 43  1  0  0  0
 42 66  1  0  0  0
 42110  1  0  0  0
 42111  1  0  0  0
 43 44  1  0  0  0
 44112  1  0  0  0
 45 46  2  0  0  0
 45113  1  0  0  0
 46114  1  0  0  0
 47115  1  0  0  0
 47116  1  0  0  0
 48 56  1  0  0  0
 48 65  1  0  0  0
 48117  1  0  0  0
 49 50  1  0  0  0
 49 53  1  0  0  0
 49 64  1  0  0  0
 49118  1  0  0  0
 50 51  1  0  0  0
 50119  1  0  0  0
 50120  1  0  0  0
 51 52  1  0  0  0
 51121  1  0  0  0
 51122  1  0  0  0
 52123  1  0  0  0
 52124  1  0  0  0
 53 54  1  0  0  0
 54 55  2  0  0  0
 54125  1  0  0  0
 55 57  1  0  0  0
 55126  1  0  0  0
 56 69  2  0  0  0
 57 58  2  0  0  0
 57127  1  0  0  0
 58128  1  0  0  0
 59 60  1  0  0  0
 59 61  1  0  0  0
 59 62  1  0  0  0
 60129  1  0  0  0
 60130  1  0  0  0
 60131  1  0  0  0
 61132  1  0  0  0
 61133  1  0  0  0
 61134  1  0  0  0
 62135  1  0  0  0
 62136  1  0  0  0
 62137  1  0  0  0
 63 65  1  0  0  0
 63138  1  0  0  0
 63139  1  0  0  0
 63140  1  0  0  0
 64141  1  0  0  0
 65142  1  0  0  0
 68 82  1  0  0  0
 71 72  2  0  0  0
 71 74  1  0  0  0
 71143  1  0  0  0
 72 76  1  0  0  0
 72144  1  0  0  0
 73 74  2  0  0  0
 73 75  1  0  0  0
 73145  1  0  0  0
 74 77  1  0  0  0
 75 76  2  0  0  0
 75 80  1  0  0  0
 76 83  1  0  0  0
 77 78  2  0  0  0
 77146  1  0  0  0
 78 81  1  0  0  0
 78147  1  0  0  0
 79 80  1  0  0  0
 79148  1  0  0  0
 79149  1  0  0  0
 79150  1  0  0  0
 80151  1  0  0  0
 80152  1  0  0  0
 81 82  1  0  0  0
 81153  1  0  0  0
 81154  1  0  0  0
 82155  1  0  0  0
 82156  1  0  0  0
 83157  1  0  0  0
M  ISO  4   1 100  68 101  82 101  83 100
M  END
> <chiral flag>
0

> <version>
0

> <s_m_source_file>
/data/baiqing/PycharmProjects/Reinvent-master-3.2/result/LINK_invent/BTK/process_docking_weight1_custom_product_contain_oxygen_bond_distance_aromatic_linkinvent_7_9_3/rearranged_h_0129.sdf

> <i_m_source_file_index>
20

> <r_mmod_Potential_Energy-OPLS-2005>
30.2192878723145

> <r_mmod_Stretch_Energy-OPLS-2005>
74.0124740600586

> <r_mmod_Bend_Energy-OPLS-2005>
129.244430541992

> <r_mmod_Torsional_Energy-OPLS-2005>
210.864852905273

> <r_mmod_Improper_Torsional_Energy-OPLS-2005>
3.91222167015076

> <r_mmod_Van_der_Waal_Energy-OPLS-2005>
146.496002197266

> <r_mmod_Electrostatic_Energy-OPLS-2005>
-378.587463378906

> <r_mmod_Solvation_Energy-OPLS-2005>
-198.742797851562

> <b_mmod_Minimization_Converged-OPLS-2005>
0

> <r_mmod_RMS_Derivative-OPLS-2005>
0.732030928134918

$$$$
20
                    3D
 Structure written by MMmdl.
159167  0  0  1  0            999 V2000
  -30.6228  -14.7027   20.4131 C   0  0  0  0  0  0
  -30.4289  -12.4084   19.4829 C   0  0  0  0  0  0
  -29.5220  -12.4837   18.2350 C   0  0  0  0  0  0
  -28.0375  -12.3471   18.6332 C   0  0  0  0  0  0
  -27.6416  -13.2370   19.8441 C   0  0  2  0  0  0
  -28.6840  -13.1621   20.9818 C   0  0  0  0  0  0
  -25.2481  -13.8194   20.5715 C   0  0  0  0  0  0
  -24.1800  -13.0411   20.9241 C   0  0  0  0  0  0
  -24.6414  -11.6911   20.8783 C   0  0  0  0  0  0
  -23.9091  -10.4275   21.0448 C   0  0  0  0  0  0
  -24.3641   -9.4180   21.9234 C   0  0  0  0  0  0
  -23.6280   -8.2216   22.0800 C   0  0  0  0  0  0
  -22.4243   -8.0307   21.3606 C   0  0  0  0  0  0
  -21.9885   -9.0280   20.4687 C   0  0  0  0  0  0
  -22.7259  -10.2143   20.3093 C   0  0  0  0  0  0
  -21.6812   -6.0773   22.5334 C   0  0  0  0  0  0
  -21.4009   -6.5673   23.8286 C   0  0  0  0  0  0
  -21.3668   -5.6802   24.9231 C   0  0  0  0  0  0
  -21.6020   -4.3073   24.7252 C   0  0  0  0  0  0
  -21.8789   -3.8177   23.4365 C   0  0  0  0  0  0
  -21.9162   -4.7012   22.3437 C   0  0  0  0  0  0
  -22.7818  -13.5213   21.1881 C   0  0  0  0  0  0
  -22.1630   -4.2214   21.1004 F   0  0  0  0  0  0
  -21.5601   -3.4539   25.7756 F   0  0  0  0  0  0
  -29.9925  -13.4809   20.4018 N   0  0  0  0  0  0
  -26.2919  -12.9435   20.3199 N   0  0  0  0  0  0
  -25.9322  -11.6572   20.5716 N   0  0  0  0  0  0
  -22.0354  -12.8311   22.0430 N   0  0  0  0  0  0
  -25.4053  -15.1932   20.4216 N   0  0  0  0  0  0
  -31.8316  -14.7709   20.1882 O   0  0  0  0  0  0
  -21.6585   -6.8916   21.4294 O   0  0  0  0  0  0
  -22.3563  -14.5518   20.6677 O   0  0  0  0  0  0
  -24.6279  -31.8611   23.2004 C   0  0  0  0  0  0
  -25.9103  -32.4797   23.8350 C   0  0  1  0  0  0
  -27.2304  -27.2901   20.1236 C   0  0  0  0  0  0
  -25.5916  -33.8589   24.2322 N   0  0  0  0  0  0
  -23.4246  -30.4808   21.5434 C   0  0  2  0  0  0
  -24.8749  -28.9360   20.1045 C   0  0  0  0  0  0
  -22.7513  -29.4604   22.4912 C   0  0  0  0  0  0
  -18.0305  -28.1404   22.8481 C   0  0  0  0  0  0
  -24.1476  -36.7284   23.2636 C   0  0  0  0  0  0
  -25.9655  -30.7800   21.3741 C   0  0  0  0  0  0
  -26.0394  -29.4008   20.7258 C   0  0  0  0  0  0
  -27.2125  -28.5857   20.7361 C   0  0  0  0  0  0
  -26.0551  -26.9095   19.4314 C   0  0  0  0  0  0
  -24.8875  -27.6994   19.4439 C   0  0  0  0  0  0
  -23.6407  -29.8152   20.1584 C   0  0  0  0  0  0
  -25.4093  -36.3103   24.0353 C   0  0  1  0  0  0
  -20.5906  -28.3715   23.1258 C   0  0  2  0  0  0
  -20.6784  -26.9429   22.5410 C   0  0  0  0  0  0
  -19.5760  -26.6383   21.5215 C   0  0  0  0  0  0
  -18.1936  -26.7938   22.1627 C   0  0  0  0  0  0
  -19.1552  -28.8872   23.2864 C   0  0  0  0  0  0
  -18.9481  -30.1456   23.8912 C   0  0  0  0  0  0
  -17.6481  -30.6599   24.0558 C   0  0  0  0  0  0
  -25.9038  -34.9466   23.5137 C   0  0  0  0  0  0
  -16.5375  -29.9110   23.6301 C   0  0  0  0  0  0
  -16.7285  -28.6517   23.0339 C   0  0  0  0  0  0
  -26.4493  -31.6581   25.0697 C   0  0  0  0  0  0
  -25.3722  -31.3670   26.1417 C   0  0  0  0  0  0
  -27.0333  -30.3039   24.6057 C   0  0  0  0  0  0
  -27.6094  -32.4272   25.7449 C   0  0  0  0  0  0
  -27.5574  -37.1792   24.8470 C   0  0  0  0  0  0
  -21.4221  -29.3055   22.3645 N   0  0  0  0  0  0
  -26.4281  -37.3795   23.9422 N   0  0  0  0  0  0
  -24.6918  -31.0576   22.0975 N   0  0  0  0  0  0
  -23.4210  -28.8150   23.2996 O   0  0  0  0  0  0
  -28.3443  -26.4275   20.2260 O   0  0  0  0  0  0
  -26.5615  -34.8942   22.4714 O   0  0  0  0  0  0
  -23.5434  -32.1423   23.7301 O   0  0  0  0  0  0
  -31.0226  -18.7051   18.2363 C   0  0  0  0  0  0
  -29.6426  -18.4144   20.6241 C   0  0  0  0  0  0
  -30.6985  -19.8609   18.9731 C   0  0  0  0  0  0
  -30.6914  -17.4061   18.6702 C   0  0  0  0  0  0
  -29.9159  -19.7654   20.1534 C   0  0  0  0  0  0
  -30.0801  -17.2073   19.9425 C   0  0  0  0  0  0
  -31.2570  -21.1825   18.4618 C   0  0  0  0  0  0
  -30.9864  -16.2767   17.6885 C   0  0  0  0  0  0
  -29.5288  -21.0893   20.9474 C   0  0  0  0  0  0
  -28.8164  -22.3397   20.2169 C   0  0  0  0  0  0
  -29.0674  -23.8567   20.6888 C   0  0  0  0  0  0
  -28.2447  -24.9795   19.8768 C   0  0  0  0  0  0
  -29.8328  -15.8396   20.4711 N   0  0  0  0  0  0
  -31.4811  -12.5063   19.2044 H   0  0  0  0  0  0
  -30.3323  -11.4359   19.9669 H   0  0  0  0  0  0
  -29.7945  -11.7018   17.5234 H   0  0  0  0  0  0
  -29.6835  -13.4225   17.7078 H   0  0  0  0  0  0
  -27.8640  -11.2991   18.8781 H   0  0  0  0  0  0
  -27.3973  -12.5717   17.7799 H   0  0  0  0  0  0
  -27.6337  -14.2612   19.4733 H   0  0  0  0  0  0
  -28.6885  -12.1707   21.4372 H   0  0  0  0  0  0
  -28.4354  -13.8642   21.7808 H   0  0  0  0  0  0
  -25.2776   -9.5612   22.4832 H   0  0  0  0  0  0
  -23.9991   -7.4567   22.7484 H   0  0  0  0  0  0
  -21.0836   -8.8832   19.8969 H   0  0  0  0  0  0
  -22.3775  -10.9709   19.6216 H   0  0  0  0  0  0
  -21.2041   -7.6189   23.9822 H   0  0  0  0  0  0
  -21.1507   -6.0538   25.9151 H   0  0  0  0  0  0
  -22.0551   -2.7639   23.2839 H   0  0  0  0  0  0
  -22.3847  -12.0030   22.5022 H   0  0  0  0  0  0
  -21.0993  -13.1517   22.2485 H   0  0  0  0  0  0
  -24.6158  -15.8199   20.5213 H   0  0  0  0  0  0
  -26.2431  -15.6612   20.0938 H   0  0  0  0  0  0
  -26.7154  -32.5495   23.1084 H   0  0  0  0  0  0
  -25.0033  -33.9731   25.0445 H   0  0  0  0  0  0
  -22.7190  -31.3011   21.3983 H   0  0  0  0  0  0
  -23.3774  -35.9578   23.3284 H   0  0  0  0  0  0
  -24.3571  -36.8911   22.2055 H   0  0  0  0  0  0
  -23.7194  -37.6469   23.6653 H   0  0  0  0  0  0
  -26.0798  -31.5280   20.5879 H   0  0  0  0  0  0
  -26.8542  -30.8533   21.9877 H   0  0  0  0  0  0
  -28.0969  -28.9327   21.2498 H   0  0  0  0  0  0
  -26.0067  -25.9922   18.8653 H   0  0  0  0  0  0
  -24.0013  -27.3552   18.9275 H   0  0  0  0  0  0
  -23.7622  -30.5921   19.4027 H   0  0  0  0  0  0
  -22.7622  -29.2413   19.8549 H   0  0  0  0  0  0
  -25.1251  -36.1969   25.0846 H   0  0  0  0  0  0
  -20.9990  -28.3324   24.1380 H   0  0  0  0  0  0
  -20.5685  -26.2342   23.3635 H   0  0  0  0  0  0
  -21.6655  -26.7442   22.1215 H   0  0  0  0  0  0
  -19.6918  -25.6285   21.1265 H   0  0  0  0  0  0
  -19.6684  -27.3173   20.6731 H   0  0  0  0  0  0
  -17.4201  -26.6681   21.4037 H   0  0  0  0  0  0
  -18.0332  -26.0093   22.9042 H   0  0  0  0  0  0
  -19.7944  -30.7251   24.2326 H   0  0  0  0  0  0
  -17.5033  -31.6269   24.5167 H   0  0  0  0  0  0
  -15.5380  -30.3023   23.7587 H   0  0  0  0  0  0
  -15.8687  -28.0822   22.7070 H   0  0  0  0  0  0
  -24.5934  -30.6988   25.7713 H   0  0  0  0  0  0
  -24.8853  -32.2812   26.4828 H   0  0  0  0  0  0
  -25.8039  -30.8854   27.0199 H   0  0  0  0  0  0
  -26.2874  -29.6786   24.1141 H   0  0  0  0  0  0
  -27.4188  -29.7264   25.4461 H   0  0  0  0  0  0
  -27.8658  -30.4393   23.9153 H   0  0  0  0  0  0
  -27.2784  -33.3611   26.1990 H   0  0  0  0  0  0
  -28.3911  -32.6755   25.0256 H   0  0  0  0  0  0
  -28.0743  -31.8401   26.5378 H   0  0  0  0  0  0
  -28.2598  -38.0089   24.7540 H   0  0  0  0  0  0
  -28.1078  -36.2633   24.6259 H   0  0  0  0  0  0
  -27.2301  -37.1383   25.8878 H   0  0  0  0  0  0
  -20.9446  -29.8770   21.6821 H   0  0  0  0  0  0
  -26.0180  -38.2868   24.1464 H   0  0  0  0  0  0
  -31.5595  -18.8158   17.3026 H   0  0  0  0  0  0
  -29.1073  -18.3059   21.5564 H   0  0  0  0  0  0
  -32.2181  -21.0320   17.9649 H   0  0  0  0  0  0
  -31.4376  -21.8910   19.2691 H   0  0  0  0  0  0
  -30.5755  -21.6355   17.7408 H   0  0  0  0  0  0
  -31.0524  -16.6510   16.6662 H   0  0  0  0  0  0
  -30.1828  -15.5437   17.6902 H   0  0  0  0  0  0
  -31.9333  -15.7837   17.9089 H   0  0  0  0  0  0
  -30.4575  -21.4491   21.3910 H   0  0  0  0  0  0
  -28.9158  -20.8056   21.8063 H   0  0  0  0  0  0
  -27.7403  -22.1622   20.2388 H   0  0  0  0  0  0
  -29.0529  -22.3196   19.1573 H   0  0  0  0  0  0
  -30.1411  -24.0748   20.6474 H   0  0  0  0  0  0
  -28.8279  -23.9343   21.7539 H   0  0  0  0  0  0
  -27.2077  -24.6343   19.9230 H   0  0  0  0  0  0
  -28.5370  -24.9165   18.8214 H   0  0  0  0  0  0
  -28.8954  -15.6749   20.8060 H   0  0  0  0  0  0
  1 25  1  0  0  0
  1 30  2  0  0  0
  1 83  1  0  0  0
  2  3  1  0  0  0
  2 25  1  0  0  0
  2 84  1  0  0  0
  2 85  1  0  0  0
  3  4  1  0  0  0
  3 86  1  0  0  0
  3 87  1  0  0  0
  4  5  1  0  0  0
  4 88  1  0  0  0
  4 89  1  0  0  0
  5  6  1  0  0  0
  5 26  1  0  0  0
  5 90  1  0  0  0
  6 25  1  0  0  0
  6 91  1  0  0  0
  6 92  1  0  0  0
  7  8  2  0  0  0
  7 26  1  0  0  0
  7 29  1  0  0  0
  8  9  1  0  0  0
  8 22  1  0  0  0
  9 10  1  0  0  0
  9 27  2  0  0  0
 10 11  2  0  0  0
 10 15  1  0  0  0
 11 12  1  0  0  0
 11 93  1  0  0  0
 12 13  2  0  0  0
 12 94  1  0  0  0
 13 14  1  0  0  0
 13 31  1  0  0  0
 14 15  2  0  0  0
 14 95  1  0  0  0
 15 96  1  0  0  0
 16 17  2  0  0  0
 16 21  1  0  0  0
 16 31  1  0  0  0
 17 18  1  0  0  0
 17 97  1  0  0  0
 18 19  2  0  0  0
 18 98  1  0  0  0
 19 20  1  0  0  0
 19 24  1  0  0  0
 20 21  2  0  0  0
 20 99  1  0  0  0
 21 23  1  0  0  0
 22 28  1  0  0  0
 22 32  2  0  0  0
 26 27  1  0  0  0
 28100  1  0  0  0
 28101  1  0  0  0
 29102  1  0  0  0
 29103  1  0  0  0
 33 34  1  0  0  0
 33 66  1  0  0  0
 33 70  2  0  0  0
 34 36  1  0  0  0
 34 59  1  0  0  0
 34104  1  0  0  0
 35 44  2  0  0  0
 35 45  1  0  0  0
 35 68  1  0  0  0
 36 56  1  0  0  0
 36105  1  0  0  0
 37 39  1  0  0  0
 37 47  1  0  0  0
 37 66  1  0  0  0
 37106  1  0  0  0
 38 43  2  0  0  0
 38 46  1  0  0  0
 38 47  1  0  0  0
 39 64  1  0  0  0
 39 67  2  0  0  0
 40 52  1  0  0  0
 40 53  2  0  0  0
 40 58  1  0  0  0
 41107  1  0  0  0
 41108  1  0  0  0
 41109  1  0  0  0
 41 48  1  0  0  0
 42 43  1  0  0  0
 42 66  1  0  0  0
 42110  1  0  0  0
 42111  1  0  0  0
 43 44  1  0  0  0
 44112  1  0  0  0
 45 46  2  0  0  0
 45113  1  0  0  0
 46114  1  0  0  0
 47115  1  0  0  0
 47116  1  0  0  0
 48 56  1  0  0  0
 48 65  1  0  0  0
 48117  1  0  0  0
 49 50  1  0  0  0
 49 53  1  0  0  0
 49 64  1  0  0  0
 49118  1  0  0  0
 50 51  1  0  0  0
 50119  1  0  0  0
 50120  1  0  0  0
 51 52  1  0  0  0
 51121  1  0  0  0
 51122  1  0  0  0
 52123  1  0  0  0
 52124  1  0  0  0
 53 54  1  0  0  0
 54 55  2  0  0  0
 54125  1  0  0  0
 55 57  1  0  0  0
 55126  1  0  0  0
 56 69  2  0  0  0
 57 58  2  0  0  0
 57127  1  0  0  0
 58128  1  0  0  0
 59 60  1  0  0  0
 59 61  1  0  0  0
 59 62  1  0  0  0
 60129  1  0  0  0
 60130  1  0  0  0
 60131  1  0  0  0
 61132  1  0  0  0
 61133  1  0  0  0
 61134  1  0  0  0
 62135  1  0  0  0
 62136  1  0  0  0
 62137  1  0  0  0
 63 65  1  0  0  0
 63138  1  0  0  0
 63139  1  0  0  0
 63140  1  0  0  0
 64141  1  0  0  0
 65142  1  0  0  0
 68 82  1  0  0  0
 71 73  2  0  0  0
 71 74  1  0  0  0
 71143  1  0  0  0
 72 75  2  0  0  0
 72 76  1  0  0  0
 72144  1  0  0  0
 73 75  1  0  0  0
 73 77  1  0  0  0
 74 76  2  0  0  0
 74 78  1  0  0  0
 75 79  1  0  0  0
 76 83  1  0  0  0
 77145  1  0  0  0
 77146  1  0  0  0
 77147  1  0  0  0
 78148  1  0  0  0
 78149  1  0  0  0
 78150  1  0  0  0
 79 80  1  0  0  0
 79151  1  0  0  0
 79152  1  0  0  0
 80 81  1  0  0  0
 80153  1  0  0  0
 80154  1  0  0  0
 81 82  1  0  0  0
 81155  1  0  0  0
 81156  1  0  0  0
 82157  1  0  0  0
 82158  1  0  0  0
 83159  1  0  0  0
M  ISO  4   1 100  68 101  82 101  83 100
M  END
> <chiral flag>
0

> <version>
0

> <s_m_source_file>
/data/baiqing/PycharmProjects/Reinvent-master-3.2/result/LINK_invent/BTK/process_docking_weight1_custom_product_contain_oxygen_bond_distance_aromatic_linkinvent_7_9_3/rearranged_h_0129.sdf

> <i_m_source_file_index>
21

> <r_mmod_Potential_Energy-OPLS-2005>
145.336090087891

> <r_mmod_Stretch_Energy-OPLS-2005>
112.26505279541

> <r_mmod_Bend_Energy-OPLS-2005>
152.157257080078

> <r_mmod_Torsional_Energy-OPLS-2005>
245.671997070312

> <r_mmod_Improper_Torsional_Energy-OPLS-2005>
5.69048309326172

> <r_mmod_Van_der_Waal_Energy-OPLS-2005>
149.465911865234

> <r_mmod_Electrostatic_Energy-OPLS-2005>
-389.652893066406

> <r_mmod_Solvation_Energy-OPLS-2005>
-203.901718139648

> <b_mmod_Minimization_Converged-OPLS-2005>
0

> <r_mmod_RMS_Derivative-OPLS-2005>
5.99050998687744

$$$$
21
                    3D
 Structure written by MMmdl.
156164  0  0  1  0            999 V2000
  -30.6106  -14.7656   20.4489 C   0  0  0  0  0  0
  -30.4334  -12.4699   19.4793 C   0  0  0  0  0  0
  -29.5178  -12.5209   18.2344 C   0  0  0  0  0  0
  -28.0380  -12.3492   18.6304 C   0  0  0  0  0  0
  -27.6322  -13.2381   19.8331 C   0  0  2  0  0  0
  -28.6751  -13.1942   20.9715 C   0  0  0  0  0  0
  -25.2460  -13.8224   20.5714 C   0  0  0  0  0  0
  -24.1781  -13.0452   20.9254 C   0  0  0  0  0  0
  -24.6378  -11.6934   20.8734 C   0  0  0  0  0  0
  -23.9071  -10.4297   21.0357 C   0  0  0  0  0  0
  -24.3625   -9.4234   21.9145 C   0  0  0  0  0  0
  -23.6310   -8.2265   22.0745 C   0  0  0  0  0  0
  -22.4268   -8.0279   21.3541 C   0  0  0  0  0  0
  -21.9902   -9.0262   20.4636 C   0  0  0  0  0  0
  -22.7242  -10.2126   20.3008 C   0  0  0  0  0  0
  -21.6876   -6.0746   22.5282 C   0  0  0  0  0  0
  -21.4053   -6.5639   23.8234 C   0  0  0  0  0  0
  -21.3679   -5.6787   24.9183 C   0  0  0  0  0  0
  -21.6024   -4.3047   24.7214 C   0  0  0  0  0  0
  -21.8825   -3.8144   23.4342 C   0  0  0  0  0  0
  -21.9208   -4.6959   22.3401 C   0  0  0  0  0  0
  -22.7792  -13.5241   21.1864 C   0  0  0  0  0  0
  -22.1645   -4.2146   21.0955 F   0  0  0  0  0  0
  -21.5609   -3.4540   25.7738 F   0  0  0  0  0  0
  -29.9854  -13.5352   20.4053 N   0  0  0  0  0  0
  -26.2870  -12.9437   20.3163 N   0  0  0  0  0  0
  -25.9285  -11.6589   20.5660 N   0  0  0  0  0  0
  -22.0376  -12.8270   22.0383 N   0  0  0  0  0  0
  -25.4041  -15.1969   20.4186 N   0  0  0  0  0  0
  -31.8236  -14.8179   20.2265 O   0  0  0  0  0  0
  -21.6649   -6.8867   21.4217 O   0  0  0  0  0  0
  -22.3483  -14.5534   20.6695 O   0  0  0  0  0  0
  -24.6312  -31.8546   23.1979 C   0  0  0  0  0  0
  -25.9141  -32.4743   23.8332 C   0  0  1  0  0  0
  -27.2153  -27.2512   20.1467 C   0  0  0  0  0  0
  -25.5928  -33.8549   24.2233 N   0  0  0  0  0  0
  -23.4276  -30.4773   21.5401 C   0  0  2  0  0  0
  -24.8769  -28.9220   20.1108 C   0  0  0  0  0  0
  -22.7494  -29.4592   22.4882 C   0  0  0  0  0  0
  -18.0283  -28.1405   22.8461 C   0  0  0  0  0  0
  -24.1494  -36.7274   23.2629 C   0  0  0  0  0  0
  -25.9730  -30.7680   21.3779 C   0  0  0  0  0  0
  -26.0458  -29.3891   20.7225 C   0  0  0  0  0  0
  -27.2206  -28.5668   20.7221 C   0  0  0  0  0  0
  -26.0295  -26.8571   19.4912 C   0  0  0  0  0  0
  -24.8754  -27.6684   19.4789 C   0  0  0  0  0  0
  -23.6492  -29.8138   20.1551 C   0  0  0  0  0  0
  -25.4126  -36.3053   24.0294 C   0  0  1  0  0  0
  -20.5888  -28.3713   23.1257 C   0  0  2  0  0  0
  -20.6788  -26.9431   22.5411 C   0  0  0  0  0  0
  -19.5781  -26.6385   21.5207 C   0  0  0  0  0  0
  -18.1947  -26.7941   22.1603 C   0  0  0  0  0  0
  -19.1536  -28.8868   23.2845 C   0  0  0  0  0  0
  -18.9461  -30.1467   23.8876 C   0  0  0  0  0  0
  -17.6469  -30.6606   24.0571 C   0  0  0  0  0  0
  -25.9068  -34.9427   23.5063 C   0  0  0  0  0  0
  -16.5350  -29.9122   23.6333 C   0  0  0  0  0  0
  -16.7272  -28.6534   23.0342 C   0  0  0  0  0  0
  -26.4506  -31.6572   25.0727 C   0  0  0  0  0  0
  -25.3718  -31.3716   26.1433 C   0  0  0  0  0  0
  -27.0349  -30.2990   24.6208 C   0  0  0  0  0  0
  -27.6060  -32.4287   25.7528 C   0  0  0  0  0  0
  -27.5567  -37.1799   24.8447 C   0  0  0  0  0  0
  -21.4205  -29.3057   22.3640 N   0  0  0  0  0  0
  -26.4280  -37.3768   23.9392 N   0  0  0  0  0  0
  -24.6955  -31.0518   22.0956 N   0  0  0  0  0  0
  -23.4182  -28.8120   23.2985 O   0  0  0  0  0  0
  -28.3131  -26.3594   20.2314 O   0  0  0  0  0  0
  -26.5645  -34.8893   22.4634 O   0  0  0  0  0  0
  -23.5452  -32.1351   23.7285 O   0  0  0  0  0  0
  -29.7348  -19.9846   20.8441 C   0  0  0  0  0  0
  -28.3101  -18.6328   19.4446 C   0  0  0  0  0  0
  -27.9778  -21.0787   19.5643 C   0  0  0  0  0  0
  -29.4126  -18.6618   20.3280 C   0  0  0  0  0  0
  -29.0330  -21.2173   20.4919 C   0  0  0  0  0  0
  -27.6180  -19.8064   19.0597 C   0  0  0  0  0  0
  -30.1732  -17.3347   20.6023 C   0  0  0  0  0  0
  -29.3893  -22.5905   21.1041 C   0  0  0  0  0  0
  -29.7561  -16.0176   20.4255 C   0  0  0  0  0  0
  -29.0872  -23.9601   21.0360 C   0  0  0  0  0  0
  -26.4855  -19.6798   18.0566 C   0  0  0  0  0  0
  -29.7777  -24.8628   22.0558 C   0  0  0  0  0  0
  -28.1399  -24.8580   20.1269 C   0  0  0  0  0  0
  -31.4744  -12.5952   19.1813 H   0  0  0  0  0  0
  -30.3827  -11.4941   19.9605 H   0  0  0  0  0  0
  -29.8141  -11.7498   17.5218 H   0  0  0  0  0  0
  -29.6547  -13.4748   17.7212 H   0  0  0  0  0  0
  -27.8797  -11.3008   18.8760 H   0  0  0  0  0  0
  -27.3985  -12.5608   17.7717 H   0  0  0  0  0  0
  -27.6096  -14.2511   19.4411 H   0  0  0  0  0  0
  -28.7045  -12.2048   21.4315 H   0  0  0  0  0  0
  -28.4056  -13.8883   21.7656 H   0  0  0  0  0  0
  -25.2738   -9.5810   22.4752 H   0  0  0  0  0  0
  -24.0050   -7.4689   22.7509 H   0  0  0  0  0  0
  -21.0814   -8.8813   19.8953 H   0  0  0  0  0  0
  -22.3677  -10.9690   19.6151 H   0  0  0  0  0  0
  -21.2067   -7.6152   23.9770 H   0  0  0  0  0  0
  -21.1473   -6.0464   25.9081 H   0  0  0  0  0  0
  -22.0577   -2.7607   23.2831 H   0  0  0  0  0  0
  -22.3983  -12.0032   22.4946 H   0  0  0  0  0  0
  -21.0985  -13.1335   22.2492 H   0  0  0  0  0  0
  -24.6350  -15.8410   20.5608 H   0  0  0  0  0  0
  -26.2513  -15.6589   20.1175 H   0  0  0  0  0  0
  -26.7190  -32.5395   23.1056 H   0  0  0  0  0  0
  -25.0097  -33.9715   25.0388 H   0  0  0  0  0  0
  -22.7182  -31.2952   21.3935 H   0  0  0  0  0  0
  -23.3749  -35.9614   23.3293 H   0  0  0  0  0  0
  -24.3578  -36.8929   22.2049 H   0  0  0  0  0  0
  -23.7271  -37.6463   23.6690 H   0  0  0  0  0  0
  -26.1076  -31.5279   20.6069 H   0  0  0  0  0  0
  -26.8503  -30.8199   22.0116 H   0  0  0  0  0  0
  -28.1176  -28.9195   21.2106 H   0  0  0  0  0  0
  -25.9676  -25.8996   18.9957 H   0  0  0  0  0  0
  -23.9843  -27.3166   18.9788 H   0  0  0  0  0  0
  -23.7839  -30.5903   19.4030 H   0  0  0  0  0  0
  -22.7666  -29.2535   19.8430 H   0  0  0  0  0  0
  -25.1326  -36.1878   25.0783 H   0  0  0  0  0  0
  -20.9956  -28.3335   24.1396 H   0  0  0  0  0  0
  -20.5725  -26.2330   23.3627 H   0  0  0  0  0  0
  -21.6662  -26.7517   22.1201 H   0  0  0  0  0  0
  -19.6972  -25.6288   21.1284 H   0  0  0  0  0  0
  -19.6752  -27.3155   20.6705 H   0  0  0  0  0  0
  -17.4239  -26.6650   21.3995 H   0  0  0  0  0  0
  -18.0363  -26.0095   22.9011 H   0  0  0  0  0  0
  -19.7943  -30.7254   24.2254 H   0  0  0  0  0  0
  -17.5046  -31.6300   24.5179 H   0  0  0  0  0  0
  -15.5355  -30.3036   23.7673 H   0  0  0  0  0  0
  -15.8659  -28.0860   22.7082 H   0  0  0  0  0  0
  -24.5913  -30.7060   25.7734 H   0  0  0  0  0  0
  -24.8895  -32.2884   26.4823 H   0  0  0  0  0  0
  -25.8025  -30.8902   27.0224 H   0  0  0  0  0  0
  -26.2934  -29.6741   24.1227 H   0  0  0  0  0  0
  -27.4007  -29.7250   25.4726 H   0  0  0  0  0  0
  -27.8815  -30.4236   23.9461 H   0  0  0  0  0  0
  -27.2685  -33.3588   26.2097 H   0  0  0  0  0  0
  -28.3914  -32.6835   25.0409 H   0  0  0  0  0  0
  -28.0680  -31.8410   26.5465 H   0  0  0  0  0  0
  -28.2564  -38.0110   24.7508 H   0  0  0  0  0  0
  -28.1074  -36.2639   24.6266 H   0  0  0  0  0  0
  -27.2266  -37.1446   25.8840 H   0  0  0  0  0  0
  -20.9380  -29.8718   21.6795 H   0  0  0  0  0  0
  -26.0129  -38.2811   24.1457 H   0  0  0  0  0  0
  -30.5668  -20.0491   21.5335 H   0  0  0  0  0  0
  -28.0072  -17.6925   19.0033 H   0  0  0  0  0  0
  -27.4302  -21.9560   19.2473 H   0  0  0  0  0  0
  -31.2005  -17.4731   20.9082 H   0  0  0  0  0  0
  -30.1146  -22.3935   21.8791 H   0  0  0  0  0  0
  -28.7202  -15.8923   20.1664 H   0  0  0  0  0  0
  -26.0776  -18.6665   18.0457 H   0  0  0  0  0  0
  -26.8476  -19.9088   17.0541 H   0  0  0  0  0  0
  -25.6729  -20.3667   18.2893 H   0  0  0  0  0  0
  -30.3674  -24.3128   22.7900 H   0  0  0  0  0  0
  -29.0337  -25.4332   22.6151 H   0  0  0  0  0  0
  -30.4402  -25.5711   21.5587 H   0  0  0  0  0  0
  -27.1178  -24.5805   20.3931 H   0  0  0  0  0  0
  -28.2836  -24.5657   19.0869 H   0  0  0  0  0  0
  1 25  1  0  0  0
  1 30  2  0  0  0
  1 79  1  0  0  0
  2  3  1  0  0  0
  2 25  1  0  0  0
  2 84  1  0  0  0
  2 85  1  0  0  0
  3  4  1  0  0  0
  3 86  1  0  0  0
  3 87  1  0  0  0
  4  5  1  0  0  0
  4 88  1  0  0  0
  4 89  1  0  0  0
  5  6  1  0  0  0
  5 26  1  0  0  0
  5 90  1  0  0  0
  6 25  1  0  0  0
  6 91  1  0  0  0
  6 92  1  0  0  0
  7  8  2  0  0  0
  7 26  1  0  0  0
  7 29  1  0  0  0
  8  9  1  0  0  0
  8 22  1  0  0  0
  9 10  1  0  0  0
  9 27  2  0  0  0
 10 11  2  0  0  0
 10 15  1  0  0  0
 11 12  1  0  0  0
 11 93  1  0  0  0
 12 13  2  0  0  0
 12 94  1  0  0  0
 13 14  1  0  0  0
 13 31  1  0  0  0
 14 15  2  0  0  0
 14 95  1  0  0  0
 15 96  1  0  0  0
 16 17  2  0  0  0
 16 21  1  0  0  0
 16 31  1  0  0  0
 17 18  1  0  0  0
 17 97  1  0  0  0
 18 19  2  0  0  0
 18 98  1  0  0  0
 19 20  1  0  0  0
 19 24  1  0  0  0
 20 21  2  0  0  0
 20 99  1  0  0  0
 21 23  1  0  0  0
 22 28  1  0  0  0
 22 32  2  0  0  0
 26 27  1  0  0  0
 28100  1  0  0  0
 28101  1  0  0  0
 29102  1  0  0  0
 29103  1  0  0  0
 33 34  1  0  0  0
 33 66  1  0  0  0
 33 70  2  0  0  0
 34 36  1  0  0  0
 34 59  1  0  0  0
 34104  1  0  0  0
 35 44  2  0  0  0
 35 45  1  0  0  0
 35 68  1  0  0  0
 36 56  1  0  0  0
 36105  1  0  0  0
 37 39  1  0  0  0
 37 47  1  0  0  0
 37 66  1  0  0  0
 37106  1  0  0  0
 38 43  2  0  0  0
 38 46  1  0  0  0
 38 47  1  0  0  0
 39 64  1  0  0  0
 39 67  2  0  0  0
 40 52  1  0  0  0
 40 53  2  0  0  0
 40 58  1  0  0  0
 41107  1  0  0  0
 41108  1  0  0  0
 41109  1  0  0  0
 41 48  1  0  0  0
 42 43  1  0  0  0
 42 66  1  0  0  0
 42110  1  0  0  0
 42111  1  0  0  0
 43 44  1  0  0  0
 44112  1  0  0  0
 45 46  2  0  0  0
 45113  1  0  0  0
 46114  1  0  0  0
 47115  1  0  0  0
 47116  1  0  0  0
 48 56  1  0  0  0
 48 65  1  0  0  0
 48117  1  0  0  0
 49 50  1  0  0  0
 49 53  1  0  0  0
 49 64  1  0  0  0
 49118  1  0  0  0
 50 51  1  0  0  0
 50119  1  0  0  0
 50120  1  0  0  0
 51 52  1  0  0  0
 51121  1  0  0  0
 51122  1  0  0  0
 52123  1  0  0  0
 52124  1  0  0  0
 53 54  1  0  0  0
 54 55  2  0  0  0
 54125  1  0  0  0
 55 57  1  0  0  0
 55126  1  0  0  0
 56 69  2  0  0  0
 57 58  2  0  0  0
 57127  1  0  0  0
 58128  1  0  0  0
 59 60  1  0  0  0
 59 61  1  0  0  0
 59 62  1  0  0  0
 60129  1  0  0  0
 60130  1  0  0  0
 60131  1  0  0  0
 61132  1  0  0  0
 61133  1  0  0  0
 61134  1  0  0  0
 62135  1  0  0  0
 62136  1  0  0  0
 62137  1  0  0  0
 63 65  1  0  0  0
 63138  1  0  0  0
 63139  1  0  0  0
 63140  1  0  0  0
 64141  1  0  0  0
 65142  1  0  0  0
 68 83  1  0  0  0
 71 74  2  0  0  0
 71 75  1  0  0  0
 71143  1  0  0  0
 72 74  1  0  0  0
 72 76  2  0  0  0
 72144  1  0  0  0
 73 75  2  0  0  0
 73 76  1  0  0  0
 73145  1  0  0  0
 74 77  1  0  0  0
 75 78  1  0  0  0
 76 81  1  0  0  0
 77 79  2  0  0  0
 77146  1  0  0  0
 78 80  2  0  0  0
 78147  1  0  0  0
 79148  1  0  0  0
 80 82  1  0  0  0
 80 83  1  0  0  0
 81149  1  0  0  0
 81150  1  0  0  0
 81151  1  0  0  0
 82152  1  0  0  0
 82153  1  0  0  0
 82154  1  0  0  0
 83155  1  0  0  0
 83156  1  0  0  0
M  ISO  4   1 100  68 101  79 100  83 101
M  END
> <chiral flag>
0

> <version>
0

> <s_m_source_file>
/data/baiqing/PycharmProjects/Reinvent-master-3.2/result/LINK_invent/BTK/process_docking_weight1_custom_product_contain_oxygen_bond_distance_aromatic_linkinvent_7_9_3/rearranged_h_0129.sdf

> <i_m_source_file_index>
22

> <r_mmod_Potential_Energy-OPLS-2005>
258.093017578125

> <r_mmod_Stretch_Energy-OPLS-2005>
129.4130859375

> <r_mmod_Bend_Energy-OPLS-2005>
193.448455810547

> <r_mmod_Torsional_Energy-OPLS-2005>
203.461837768555

> <r_mmod_Improper_Torsional_Energy-OPLS-2005>
9.63583278656006

> <r_mmod_Van_der_Waal_Energy-OPLS-2005>
138.348251342773

> <r_mmod_Electrostatic_Energy-OPLS-2005>
-321.226226806641

> <r_mmod_Solvation_Energy-OPLS-2005>
-190.896545410156

> <b_mmod_Minimization_Converged-OPLS-2005>
0

> <r_mmod_RMS_Derivative-OPLS-2005>
4.78091049194336

$$$$
22
                    3D
 Structure written by MMmdl.
159167  0  0  1  0            999 V2000
  -30.6736  -14.5578   20.6384 C   0  0  0  0  0  0
  -30.4447  -12.3931   19.4181 C   0  0  0  0  0  0
  -29.4990  -12.5524   18.2080 C   0  0  0  0  0  0
  -28.0219  -12.3903   18.6221 C   0  0  0  0  0  0
  -27.6683  -13.2099   19.8923 C   0  0  2  0  0  0
  -28.7206  -12.9515   20.9954 C   0  0  0  0  0  0
  -25.2551  -13.8123   20.5556 C   0  0  0  0  0  0
  -24.1831  -13.0413   20.9143 C   0  0  0  0  0  0
  -24.6417  -11.6891   20.8754 C   0  0  0  0  0  0
  -23.9076  -10.4282   21.0416 C   0  0  0  0  0  0
  -24.3620   -9.4196   21.9192 C   0  0  0  0  0  0
  -23.6290   -8.2235   22.0759 C   0  0  0  0  0  0
  -22.4272   -8.0281   21.3546 C   0  0  0  0  0  0
  -21.9914   -9.0256   20.4647 C   0  0  0  0  0  0
  -22.7250  -10.2133   20.3059 C   0  0  0  0  0  0
  -21.6851   -6.0735   22.5275 C   0  0  0  0  0  0
  -21.4014   -6.5638   23.8209 C   0  0  0  0  0  0
  -21.3657   -5.6790   24.9171 C   0  0  0  0  0  0
  -21.6045   -4.3053   24.7222 C   0  0  0  0  0  0
  -21.8819   -3.8145   23.4343 C   0  0  0  0  0  0
  -21.9193   -4.6963   22.3399 C   0  0  0  0  0  0
  -22.7857  -13.5221   21.1809 C   0  0  0  0  0  0
  -22.1660   -4.2148   21.0977 F   0  0  0  0  0  0
  -21.5631   -3.4538   25.7736 F   0  0  0  0  0  0
  -30.0318  -13.3533   20.4639 N   0  0  0  0  0  0
  -26.3068  -12.9329   20.3464 N   0  0  0  0  0  0
  -25.9367  -11.6486   20.5853 N   0  0  0  0  0  0
  -22.0508  -12.8224   22.0385 N   0  0  0  0  0  0
  -25.4143  -15.1805   20.3689 N   0  0  0  0  0  0
  -31.7150  -14.8255   20.0264 O   0  0  0  0  0  0
  -21.6636   -6.8878   21.4238 O   0  0  0  0  0  0
  -22.3530  -14.5526   20.6670 O   0  0  0  0  0  0
  -24.6220  -31.8624   23.2038 C   0  0  0  0  0  0
  -25.9082  -32.4792   23.8357 C   0  0  1  0  0  0
  -27.2371  -27.3594   20.1056 C   0  0  0  0  0  0
  -25.5916  -33.8589   24.2287 N   0  0  0  0  0  0
  -23.4141  -30.4847   21.5456 C   0  0  2  0  0  0
  -24.8627  -28.9422   20.1137 C   0  0  0  0  0  0
  -22.7452  -29.4632   22.4950 C   0  0  0  0  0  0
  -18.0283  -28.1370   22.8490 C   0  0  0  0  0  0
  -24.1489  -36.7300   23.2636 C   0  0  0  0  0  0
  -25.9518  -30.8053   21.3681 C   0  0  0  0  0  0
  -26.0291  -29.4356   20.7105 C   0  0  0  0  0  0
  -27.2195  -28.6566   20.6935 C   0  0  0  0  0  0
  -26.0437  -26.9024   19.4991 C   0  0  0  0  0  0
  -24.8698  -27.6793   19.5010 C   0  0  0  0  0  0
  -23.6271  -29.8165   20.1618 C   0  0  0  0  0  0
  -25.4114  -36.3092   24.0328 C   0  0  1  0  0  0
  -20.5882  -28.3670   23.1291 C   0  0  2  0  0  0
  -20.6770  -26.9395   22.5407 C   0  0  0  0  0  0
  -19.5749  -26.6379   21.5202 C   0  0  0  0  0  0
  -18.1930  -26.7917   22.1618 C   0  0  0  0  0  0
  -19.1535  -28.8835   23.2892 C   0  0  0  0  0  0
  -18.9461  -30.1439   23.8907 C   0  0  0  0  0  0
  -17.6462  -30.6581   24.0557 C   0  0  0  0  0  0
  -25.9043  -34.9458   23.5107 C   0  0  0  0  0  0
  -16.5352  -29.9079   23.6328 C   0  0  0  0  0  0
  -16.7271  -28.6493   23.0356 C   0  0  0  0  0  0
  -26.4480  -31.6589   25.0713 C   0  0  0  0  0  0
  -25.3722  -31.3720   26.1447 C   0  0  0  0  0  0
  -27.0302  -30.3016   24.6132 C   0  0  0  0  0  0
  -27.6053  -32.4312   25.7477 C   0  0  0  0  0  0
  -27.5583  -37.1800   24.8465 C   0  0  0  0  0  0
  -21.4170  -29.3035   22.3693 N   0  0  0  0  0  0
  -26.4299  -37.3782   23.9406 N   0  0  0  0  0  0
  -24.6810  -31.0662   22.0968 N   0  0  0  0  0  0
  -23.4192  -28.8175   23.3016 O   0  0  0  0  0  0
  -28.3851  -26.5634   20.1298 O   0  0  0  0  0  0
  -26.5604  -34.8918   22.4667 O   0  0  0  0  0  0
  -23.5391  -32.1409   23.7388 O   0  0  0  0  0  0
  -27.5105  -18.3618   21.6671 C   0  0  0  0  0  0
  -28.1893  -19.4279   21.0660 C   0  0  0  0  0  0
  -30.1297  -17.9818   20.8136 C   0  0  0  0  0  0
  -28.1233  -17.1072   21.8899 C   0  0  0  0  0  0
  -29.4564  -16.8612   21.4162 C   0  0  0  0  0  0
  -29.5265  -19.2794   20.6620 C   0  0  0  0  0  0
  -26.3777  -16.4261   23.5878 C   0  0  0  0  0  0
  -27.3621  -16.1406   22.7169 C   0  0  0  0  0  0
  -30.1638  -15.5330   21.7450 C   0  0  0  0  0  0
  -29.4507  -22.7606   20.8384 C   0  0  0  0  0  0
  -29.5344  -24.2841   20.3952 C   0  0  0  0  0  0
  -29.6130  -21.6248   19.7610 C   0  0  0  0  0  0
  -28.2215  -25.1048   20.1232 C   0  0  0  0  0  0
  -30.3511  -15.2208   22.9615 N   0  0  0  0  0  0
  -30.2526  -20.3721   20.1788 O   0  0  0  0  0  0
  -31.4798  -12.5403   19.1058 H   0  0  0  0  0  0
  -30.4029  -11.3728   19.8032 H   0  0  0  0  0  0
  -29.7517  -11.8274   17.4332 H   0  0  0  0  0  0
  -29.6449  -13.5381   17.7630 H   0  0  0  0  0  0
  -27.8407  -11.3302   18.8046 H   0  0  0  0  0  0
  -27.3673  -12.6729   17.7968 H   0  0  0  0  0  0
  -27.7182  -14.2655   19.6235 H   0  0  0  0  0  0
  -28.7374  -11.8888   21.2428 H   0  0  0  0  0  0
  -28.4797  -13.4283   21.9360 H   0  0  0  0  0  0
  -25.2768   -9.5667   22.4765 H   0  0  0  0  0  0
  -23.9995   -7.4626   22.7481 H   0  0  0  0  0  0
  -21.0845   -8.8779   19.8949 H   0  0  0  0  0  0
  -22.3715  -10.9672   19.6165 H   0  0  0  0  0  0
  -21.2004   -7.6146   23.9710 H   0  0  0  0  0  0
  -21.1479   -6.0522   25.9073 H   0  0  0  0  0  0
  -22.0601   -2.7608   23.2842 H   0  0  0  0  0  0
  -22.4132  -11.9889   22.4768 H   0  0  0  0  0  0
  -21.1128  -13.1249   22.2598 H   0  0  0  0  0  0
  -24.6557  -15.8356   20.5165 H   0  0  0  0  0  0
  -26.2854  -15.6333   20.1266 H   0  0  0  0  0  0
  -26.7143  -32.5475   23.1104 H   0  0  0  0  0  0
  -25.0081  -33.9737   25.0442 H   0  0  0  0  0  0
  -22.7051  -31.3029   21.4015 H   0  0  0  0  0  0
  -23.3751  -35.9632   23.3311 H   0  0  0  0  0  0
  -24.3587  -36.8911   22.2050 H   0  0  0  0  0  0
  -23.7242  -37.6504   23.6649 H   0  0  0  0  0  0
  -26.0752  -31.5705   20.6008 H   0  0  0  0  0  0
  -26.8349  -30.8557   21.9935 H   0  0  0  0  0  0
  -28.1202  -29.0361   21.1566 H   0  0  0  0  0  0
  -25.9949  -25.9387   19.0163 H   0  0  0  0  0  0
  -23.9749  -27.2945   19.0313 H   0  0  0  0  0  0
  -23.7389  -30.5914   19.4025 H   0  0  0  0  0  0
  -22.7495  -29.2390   19.8649 H   0  0  0  0  0  0
  -25.1288  -36.1955   25.0821 H   0  0  0  0  0  0
  -20.9972  -28.3242   24.1414 H   0  0  0  0  0  0
  -20.5666  -26.2272   23.3599 H   0  0  0  0  0  0
  -21.6640  -26.7426   22.1198 H   0  0  0  0  0  0
  -19.6909  -25.6292   21.1229 H   0  0  0  0  0  0
  -19.6695  -27.3192   20.6735 H   0  0  0  0  0  0
  -17.4196  -26.6667   21.4024 H   0  0  0  0  0  0
  -18.0343  -26.0049   22.9007 H   0  0  0  0  0  0
  -19.7936  -30.7251   24.2286 H   0  0  0  0  0  0
  -17.5018  -31.6267   24.5146 H   0  0  0  0  0  0
  -15.5353  -30.2982   23.7645 H   0  0  0  0  0  0
  -15.8672  -28.0810   22.7069 H   0  0  0  0  0  0
  -24.5919  -30.7033   25.7792 H   0  0  0  0  0  0
  -24.8876  -32.2874   26.4846 H   0  0  0  0  0  0
  -25.8059  -30.8935   27.0238 H   0  0  0  0  0  0
  -26.2850  -29.6794   24.1158 H   0  0  0  0  0  0
  -27.4015  -29.7247   25.4612 H   0  0  0  0  0  0
  -27.8717  -30.4305   23.9321 H   0  0  0  0  0  0
  -27.2677  -33.3621   26.2046 H   0  0  0  0  0  0
  -28.3866  -32.6865   25.0300 H   0  0  0  0  0  0
  -28.0713  -31.8438   26.5396 H   0  0  0  0  0  0
  -28.2597  -38.0099   24.7516 H   0  0  0  0  0  0
  -28.1081  -36.2632   24.6288 H   0  0  0  0  0  0
  -27.2303  -37.1450   25.8867 H   0  0  0  0  0  0
  -20.9335  -29.8762   21.6917 H   0  0  0  0  0  0
  -26.0188  -38.2859   24.1417 H   0  0  0  0  0  0
  -26.4978  -18.5442   21.9942 H   0  0  0  0  0  0
  -27.6708  -20.3705   20.9756 H   0  0  0  0  0  0
  -31.1612  -17.8586   20.5151 H   0  0  0  0  0  0
  -25.8789  -15.6311   24.1235 H   0  0  0  0  0  0
  -26.0480  -17.4338   23.7936 H   0  0  0  0  0  0
  -27.5912  -15.1011   22.6030 H   0  0  0  0  0  0
  -30.2733  -22.6119   21.5387 H   0  0  0  0  0  0
  -28.5527  -22.5922   21.4326 H   0  0  0  0  0  0
  -30.2109  -24.3867   19.5460 H   0  0  0  0  0  0
  -30.0380  -24.8044   21.2112 H   0  0  0  0  0  0
  -30.2672  -22.0147   18.9812 H   0  0  0  0  0  0
  -28.6671  -21.4359   19.2523 H   0  0  0  0  0  0
  -27.4848  -24.8421   20.8843 H   0  0  0  0  0  0
  -27.8203  -24.7792   19.1632 H   0  0  0  0  0  0
  -29.9791  -15.9362   23.5751 H   0  0  0  0  0  0
  1 25  1  0  0  0
  1 30  2  0  0  0
  1 79  1  0  0  0
  2  3  1  0  0  0
  2 25  1  0  0  0
  2 86  1  0  0  0
  2 87  1  0  0  0
  3  4  1  0  0  0
  3 88  1  0  0  0
  3 89  1  0  0  0
  4  5  1  0  0  0
  4 90  1  0  0  0
  4 91  1  0  0  0
  5  6  1  0  0  0
  5 26  1  0  0  0
  5 92  1  0  0  0
  6 25  1  0  0  0
  6 93  1  0  0  0
  6 94  1  0  0  0
  7  8  2  0  0  0
  7 26  1  0  0  0
  7 29  1  0  0  0
  8  9  1  0  0  0
  8 22  1  0  0  0
  9 10  1  0  0  0
  9 27  2  0  0  0
 10 11  2  0  0  0
 10 15  1  0  0  0
 11 12  1  0  0  0
 11 95  1  0  0  0
 12 13  2  0  0  0
 12 96  1  0  0  0
 13 14  1  0  0  0
 13 31  1  0  0  0
 14 15  2  0  0  0
 14 97  1  0  0  0
 15 98  1  0  0  0
 16 17  2  0  0  0
 16 21  1  0  0  0
 16 31  1  0  0  0
 17 18  1  0  0  0
 17 99  1  0  0  0
 18 19  2  0  0  0
 18100  1  0  0  0
 19 20  1  0  0  0
 19 24  1  0  0  0
 20 21  2  0  0  0
 20101  1  0  0  0
 21 23  1  0  0  0
 22 28  1  0  0  0
 22 32  2  0  0  0
 26 27  1  0  0  0
 28102  1  0  0  0
 28103  1  0  0  0
 29104  1  0  0  0
 29105  1  0  0  0
 33 34  1  0  0  0
 33 66  1  0  0  0
 33 70  2  0  0  0
 34 36  1  0  0  0
 34 59  1  0  0  0
 34106  1  0  0  0
 35 44  2  0  0  0
 35 45  1  0  0  0
 35 68  1  0  0  0
 36 56  1  0  0  0
 36107  1  0  0  0
 37 39  1  0  0  0
 37 47  1  0  0  0
 37 66  1  0  0  0
 37108  1  0  0  0
 38 43  2  0  0  0
 38 46  1  0  0  0
 38 47  1  0  0  0
 39 64  1  0  0  0
 39 67  2  0  0  0
 40 52  1  0  0  0
 40 53  2  0  0  0
 40 58  1  0  0  0
 41109  1  0  0  0
 41110  1  0  0  0
 41111  1  0  0  0
 41 48  1  0  0  0
 42 43  1  0  0  0
 42 66  1  0  0  0
 42112  1  0  0  0
 42113  1  0  0  0
 43 44  1  0  0  0
 44114  1  0  0  0
 45 46  2  0  0  0
 45115  1  0  0  0
 46116  1  0  0  0
 47117  1  0  0  0
 47118  1  0  0  0
 48 56  1  0  0  0
 48 65  1  0  0  0
 48119  1  0  0  0
 49 50  1  0  0  0
 49 53  1  0  0  0
 49 64  1  0  0  0
 49120  1  0  0  0
 50 51  1  0  0  0
 50121  1  0  0  0
 50122  1  0  0  0
 51 52  1  0  0  0
 51123  1  0  0  0
 51124  1  0  0  0
 52125  1  0  0  0
 52126  1  0  0  0
 53 54  1  0  0  0
 54 55  2  0  0  0
 54127  1  0  0  0
 55 57  1  0  0  0
 55128  1  0  0  0
 56 69  2  0  0  0
 57 58  2  0  0  0
 57129  1  0  0  0
 58130  1  0  0  0
 59 60  1  0  0  0
 59 61  1  0  0  0
 59 62  1  0  0  0
 60131  1  0  0  0
 60132  1  0  0  0
 60133  1  0  0  0
 61134  1  0  0  0
 61135  1  0  0  0
 61136  1  0  0  0
 62137  1  0  0  0
 62138  1  0  0  0
 62139  1  0  0  0
 63 65  1  0  0  0
 63140  1  0  0  0
 63141  1  0  0  0
 63142  1  0  0  0
 64143  1  0  0  0
 65144  1  0  0  0
 68 83  1  0  0  0
 71 72  2  0  0  0
 71 74  1  0  0  0
 71145  1  0  0  0
 72 76  1  0  0  0
 72146  1  0  0  0
 73 75  1  0  0  0
 73 76  2  0  0  0
 73147  1  0  0  0
 74 75  2  0  0  0
 74 78  1  0  0  0
 75 79  1  0  0  0
 76 85  1  0  0  0
 77 78  2  0  0  0
 77148  1  0  0  0
 77149  1  0  0  0
 78150  1  0  0  0
 79 84  2  0  0  0
 80 81  1  0  0  0
 80 82  1  0  0  0
 80151  1  0  0  0
 80152  1  0  0  0
 81 83  1  0  0  0
 81153  1  0  0  0
 81154  1  0  0  0
 82 85  1  0  0  0
 82155  1  0  0  0
 82156  1  0  0  0
 83157  1  0  0  0
 83158  1  0  0  0
 84159  1  0  0  0
M  ISO  4   1 100  68 101  79 100  83 101
M  END
> <chiral flag>
0

> <version>
0

> <s_m_source_file>
/data/baiqing/PycharmProjects/Reinvent-master-3.2/result/LINK_invent/BTK/process_docking_weight1_custom_product_contain_oxygen_bond_distance_aromatic_linkinvent_7_9_3/rearranged_h_0129.sdf

> <i_m_source_file_index>
23

> <r_mmod_Potential_Energy-OPLS-2005>
226.487197875977

> <r_mmod_Stretch_Energy-OPLS-2005>
79.2768096923828

> <r_mmod_Bend_Energy-OPLS-2005>
150.229614257812

> <r_mmod_Torsional_Energy-OPLS-2005>
245.273147583008

> <r_mmod_Improper_Torsional_Energy-OPLS-2005>
4.38636541366577

> <r_mmod_Van_der_Waal_Energy-OPLS-2005>
149.810470581055

> <r_mmod_Electrostatic_Energy-OPLS-2005>
-235.932235717773

> <r_mmod_Solvation_Energy-OPLS-2005>
-195.095397949219

> <b_mmod_Minimization_Converged-OPLS-2005>
0

> <r_mmod_RMS_Derivative-OPLS-2005>
0.812779188156128

$$$$
23
                    3D
 Structure written by MMmdl.
150158  0  0  1  0            999 V2000
  -30.6539  -14.5996   20.5230 C   0  0  0  0  0  0
  -30.4323  -12.3777   19.4365 C   0  0  0  0  0  0
  -29.4987  -12.4959   18.2130 C   0  0  0  0  0  0
  -28.0228  -12.3410   18.6308 C   0  0  0  0  0  0
  -27.6514  -13.2141   19.8587 C   0  0  2  0  0  0
  -28.6980  -13.0656   20.9843 C   0  0  0  0  0  0
  -25.2554  -13.8169   20.5676 C   0  0  0  0  0  0
  -24.1820  -13.0439   20.9183 C   0  0  0  0  0  0
  -24.6388  -11.6908   20.8737 C   0  0  0  0  0  0
  -23.9063  -10.4288   21.0403 C   0  0  0  0  0  0
  -24.3615   -9.4204   21.9181 C   0  0  0  0  0  0
  -23.6290   -8.2239   22.0752 C   0  0  0  0  0  0
  -22.4271   -8.0279   21.3539 C   0  0  0  0  0  0
  -21.9907   -9.0253   20.4642 C   0  0  0  0  0  0
  -22.7238  -10.2133   20.3052 C   0  0  0  0  0  0
  -21.6856   -6.0733   22.5276 C   0  0  0  0  0  0
  -21.4011   -6.5638   23.8213 C   0  0  0  0  0  0
  -21.3655   -5.6790   24.9173 C   0  0  0  0  0  0
  -21.6044   -4.3055   24.7220 C   0  0  0  0  0  0
  -21.8823   -3.8147   23.4346 C   0  0  0  0  0  0
  -21.9195   -4.6960   22.3399 C   0  0  0  0  0  0
  -22.7845  -13.5230   21.1860 C   0  0  0  0  0  0
  -22.1663   -4.2146   21.0976 F   0  0  0  0  0  0
  -21.5627   -3.4539   25.7736 F   0  0  0  0  0  0
  -30.0110  -13.3983   20.4125 N   0  0  0  0  0  0
  -26.2977  -12.9344   20.3308 N   0  0  0  0  0  0
  -25.9317  -11.6503   20.5765 N   0  0  0  0  0  0
  -22.0497  -12.8206   22.0413 N   0  0  0  0  0  0
  -25.4281  -15.1885   20.4079 N   0  0  0  0  0  0
  -31.8247  -14.7450   20.1621 O   0  0  0  0  0  0
  -21.6640   -6.8875   21.4237 O   0  0  0  0  0  0
  -22.3525  -14.5546   20.6731 O   0  0  0  0  0  0
  -24.6219  -31.8618   23.2029 C   0  0  0  0  0  0
  -25.9077  -32.4794   23.8360 C   0  0  1  0  0  0
  -27.2334  -27.3564   20.1255 C   0  0  0  0  0  0
  -25.5911  -33.8595   24.2296 N   0  0  0  0  0  0
  -23.4145  -30.4825   21.5442 C   0  0  2  0  0  0
  -24.8639  -28.9323   20.1196 C   0  0  0  0  0  0
  -22.7445  -29.4636   22.4957 C   0  0  0  0  0  0
  -18.0275  -28.1391   22.8504 C   0  0  0  0  0  0
  -24.1480  -36.7283   23.2644 C   0  0  0  0  0  0
  -25.9493  -30.8046   21.3661 C   0  0  0  0  0  0
  -26.0280  -29.4303   20.7187 C   0  0  0  0  0  0
  -27.2189  -28.6544   20.7099 C   0  0  0  0  0  0
  -26.0492  -26.8865   19.5224 C   0  0  0  0  0  0
  -24.8722  -27.6634   19.5157 C   0  0  0  0  0  0
  -23.6291  -29.8093   20.1621 C   0  0  0  0  0  0
  -25.4106  -36.3099   24.0342 C   0  0  1  0  0  0
  -20.5871  -28.3684   23.1297 C   0  0  2  0  0  0
  -20.6770  -26.9412   22.5417 C   0  0  0  0  0  0
  -19.5744  -26.6389   21.5221 C   0  0  0  0  0  0
  -18.1922  -26.7945   22.1622 C   0  0  0  0  0  0
  -19.1527  -28.8854   23.2893 C   0  0  0  0  0  0
  -18.9459  -30.1458   23.8905 C   0  0  0  0  0  0
  -17.6465  -30.6600   24.0570 C   0  0  0  0  0  0
  -25.9043  -34.9468   23.5120 C   0  0  0  0  0  0
  -16.5351  -29.9103   23.6345 C   0  0  0  0  0  0
  -16.7263  -28.6515   23.0367 C   0  0  0  0  0  0
  -26.4489  -31.6593   25.0716 C   0  0  0  0  0  0
  -25.3746  -31.3716   26.1459 C   0  0  0  0  0  0
  -27.0325  -30.3038   24.6118 C   0  0  0  0  0  0
  -27.6062  -32.4324   25.7474 C   0  0  0  0  0  0
  -27.5570  -37.1788   24.8475 C   0  0  0  0  0  0
  -21.4165  -29.3042   22.3699 N   0  0  0  0  0  0
  -26.4287  -37.3787   23.9425 N   0  0  0  0  0  0
  -24.6806  -31.0663   22.0957 N   0  0  0  0  0  0
  -23.4180  -28.8187   23.3035 O   0  0  0  0  0  0
  -28.3792  -26.5699   20.0754 O   0  0  0  0  0  0
  -26.5601  -34.8940   22.4680 O   0  0  0  0  0  0
  -23.5390  -32.1390   23.7391 O   0  0  0  0  0  0
  -30.0795  -18.5901   19.1469 C   0  0  0  0  0  0
  -29.6266  -19.9396   18.9766 C   0  0  0  0  0  0
  -29.9215  -18.2518   20.4672 C   0  0  0  0  0  0
  -29.1937  -20.3592   20.2028 C   0  0  0  0  0  0
  -28.4011  -23.9884   20.0136 C   0  0  0  0  0  0
  -30.3455  -17.0322   21.3042 C   0  0  0  0  0  0
  -28.3954  -25.3202   20.8452 C   0  0  0  0  0  0
  -29.2771  -22.7735   20.4905 C   0  0  0  0  0  0
  -29.8950  -15.6645   20.9048 N   0  0  0  0  0  0
  -27.7227  -23.8916   18.9844 O   0  0  0  0  0  0
  -29.3467  -19.3379   21.1238 O   0  0  0  0  0  0
  -28.5524  -21.5124   20.5937 O   0  0  0  0  0  0
  -31.4719  -12.5013   19.1286 H   0  0  0  0  0  0
  -30.3680  -11.3825   19.8794 H   0  0  0  0  0  0
  -29.7561  -11.7392   17.4704 H   0  0  0  0  0  0
  -29.6433  -13.4631   17.7292 H   0  0  0  0  0  0
  -27.8570  -11.2884   18.8625 H   0  0  0  0  0  0
  -27.3658  -12.5733   17.7923 H   0  0  0  0  0  0
  -27.6739  -14.2489   19.5163 H   0  0  0  0  0  0
  -28.7062  -12.0443   21.3678 H   0  0  0  0  0  0
  -28.4495  -13.7014   21.8356 H   0  0  0  0  0  0
  -25.2767   -9.5676   22.4752 H   0  0  0  0  0  0
  -23.9999   -7.4622   22.7470 H   0  0  0  0  0  0
  -21.0843   -8.8761   19.8948 H   0  0  0  0  0  0
  -22.3695  -10.9659   19.6156 H   0  0  0  0  0  0
  -21.2002   -7.6148   23.9710 H   0  0  0  0  0  0
  -21.1469   -6.0524   25.9071 H   0  0  0  0  0  0
  -22.0607   -2.7612   23.2842 H   0  0  0  0  0  0
  -22.4125  -11.9851   22.4754 H   0  0  0  0  0  0
  -21.1128  -13.1222   22.2670 H   0  0  0  0  0  0
  -24.6627  -15.8455   20.5118 H   0  0  0  0  0  0
  -26.2789  -15.6238   20.0740 H   0  0  0  0  0  0
  -26.7147  -32.5493   23.1114 H   0  0  0  0  0  0
  -25.0123  -33.9757   25.0486 H   0  0  0  0  0  0
  -22.7083  -31.3021   21.3975 H   0  0  0  0  0  0
  -23.3773  -35.9586   23.3334 H   0  0  0  0  0  0
  -24.3571  -36.8878   22.2056 H   0  0  0  0  0  0
  -23.7209  -37.6485   23.6637 H   0  0  0  0  0  0
  -26.0691  -31.5646   20.5932 H   0  0  0  0  0  0
  -26.8336  -30.8601   21.9893 H   0  0  0  0  0  0
  -28.1208  -29.0417   21.1644 H   0  0  0  0  0  0
  -26.0372  -25.9151   19.0493 H   0  0  0  0  0  0
  -23.9785  -27.2771   19.0452 H   0  0  0  0  0  0
  -23.7439  -30.5815   19.4004 H   0  0  0  0  0  0
  -22.7516  -29.2326   19.8639 H   0  0  0  0  0  0
  -25.1285  -36.1945   25.0833 H   0  0  0  0  0  0
  -20.9943  -28.3241   24.1420 H   0  0  0  0  0  0
  -20.5684  -26.2292   23.3612 H   0  0  0  0  0  0
  -21.6631  -26.7446   22.1197 H   0  0  0  0  0  0
  -19.6920  -25.6301   21.1248 H   0  0  0  0  0  0
  -19.6703  -27.3206   20.6759 H   0  0  0  0  0  0
  -17.4198  -26.6722   21.4015 H   0  0  0  0  0  0
  -18.0308  -26.0073   22.8997 H   0  0  0  0  0  0
  -19.7937  -30.7271   24.2270 H   0  0  0  0  0  0
  -17.5032  -31.6288   24.5162 H   0  0  0  0  0  0
  -15.5357  -30.3016   23.7679 H   0  0  0  0  0  0
  -15.8662  -28.0837   22.7077 H   0  0  0  0  0  0
  -24.5928  -30.7036   25.7817 H   0  0  0  0  0  0
  -24.8914  -32.2875   26.4869 H   0  0  0  0  0  0
  -25.8108  -30.8927   27.0233 H   0  0  0  0  0  0
  -26.2862  -29.6801   24.1186 H   0  0  0  0  0  0
  -27.4118  -29.7271   25.4561 H   0  0  0  0  0  0
  -27.8696  -30.4379   23.9270 H   0  0  0  0  0  0
  -27.2669  -33.3638   26.2020 H   0  0  0  0  0  0
  -28.3877  -32.6856   25.0296 H   0  0  0  0  0  0
  -28.0723  -31.8465   26.5410 H   0  0  0  0  0  0
  -28.2587  -38.0081   24.7514 H   0  0  0  0  0  0
  -28.1055  -36.2613   24.6292 H   0  0  0  0  0  0
  -27.2296  -37.1427   25.8880 H   0  0  0  0  0  0
  -20.9339  -29.8755   21.6905 H   0  0  0  0  0  0
  -26.0180  -38.2862   24.1443 H   0  0  0  0  0  0
  -30.5066  -17.9479   18.3885 H   0  0  0  0  0  0
  -29.6017  -20.5171   18.0633 H   0  0  0  0  0  0
  -30.0053  -17.1832   22.3292 H   0  0  0  0  0  0
  -31.4345  -17.0341   21.3752 H   0  0  0  0  0  0
  -29.2871  -25.3292   21.4723 H   0  0  0  0  0  0
  -27.5454  -25.2936   21.5278 H   0  0  0  0  0  0
  -29.7078  -23.0074   21.4642 H   0  0  0  0  0  0
  -30.1120  -22.6684   19.7975 H   0  0  0  0  0  0
  -28.9265  -15.4575   21.0922 H   0  0  0  0  0  0
  1 25  1  0  0  0
  1 30  2  0  0  0
  1 79  1  0  0  0
  2  3  1  0  0  0
  2 25  1  0  0  0
  2 83  1  0  0  0
  2 84  1  0  0  0
  3  4  1  0  0  0
  3 85  1  0  0  0
  3 86  1  0  0  0
  4  5  1  0  0  0
  4 87  1  0  0  0
  4 88  1  0  0  0
  5  6  1  0  0  0
  5 26  1  0  0  0
  5 89  1  0  0  0
  6 25  1  0  0  0
  6 90  1  0  0  0
  6 91  1  0  0  0
  7  8  2  0  0  0
  7 26  1  0  0  0
  7 29  1  0  0  0
  8  9  1  0  0  0
  8 22  1  0  0  0
  9 10  1  0  0  0
  9 27  2  0  0  0
 10 11  2  0  0  0
 10 15  1  0  0  0
 11 12  1  0  0  0
 11 92  1  0  0  0
 12 13  2  0  0  0
 12 93  1  0  0  0
 13 14  1  0  0  0
 13 31  1  0  0  0
 14 15  2  0  0  0
 14 94  1  0  0  0
 15 95  1  0  0  0
 16 17  2  0  0  0
 16 21  1  0  0  0
 16 31  1  0  0  0
 17 18  1  0  0  0
 17 96  1  0  0  0
 18 19  2  0  0  0
 18 97  1  0  0  0
 19 20  1  0  0  0
 19 24  1  0  0  0
 20 21  2  0  0  0
 20 98  1  0  0  0
 21 23  1  0  0  0
 22 28  1  0  0  0
 22 32  2  0  0  0
 26 27  1  0  0  0
 28 99  1  0  0  0
 28100  1  0  0  0
 29101  1  0  0  0
 29102  1  0  0  0
 33 34  1  0  0  0
 33 66  1  0  0  0
 33 70  2  0  0  0
 34 36  1  0  0  0
 34 59  1  0  0  0
 34103  1  0  0  0
 35 44  2  0  0  0
 35 45  1  0  0  0
 35 68  1  0  0  0
 36 56  1  0  0  0
 36104  1  0  0  0
 37 39  1  0  0  0
 37 47  1  0  0  0
 37 66  1  0  0  0
 37105  1  0  0  0
 38 43  2  0  0  0
 38 46  1  0  0  0
 38 47  1  0  0  0
 39 64  1  0  0  0
 39 67  2  0  0  0
 40 52  1  0  0  0
 40 53  2  0  0  0
 40 58  1  0  0  0
 41106  1  0  0  0
 41107  1  0  0  0
 41108  1  0  0  0
 41 48  1  0  0  0
 42 43  1  0  0  0
 42 66  1  0  0  0
 42109  1  0  0  0
 42110  1  0  0  0
 43 44  1  0  0  0
 44111  1  0  0  0
 45 46  2  0  0  0
 45112  1  0  0  0
 46113  1  0  0  0
 47114  1  0  0  0
 47115  1  0  0  0
 48 56  1  0  0  0
 48 65  1  0  0  0
 48116  1  0  0  0
 49 50  1  0  0  0
 49 53  1  0  0  0
 49 64  1  0  0  0
 49117  1  0  0  0
 50 51  1  0  0  0
 50118  1  0  0  0
 50119  1  0  0  0
 51 52  1  0  0  0
 51120  1  0  0  0
 51121  1  0  0  0
 52122  1  0  0  0
 52123  1  0  0  0
 53 54  1  0  0  0
 54 55  2  0  0  0
 54124  1  0  0  0
 55 57  1  0  0  0
 55125  1  0  0  0
 56 69  2  0  0  0
 57 58  2  0  0  0
 57126  1  0  0  0
 58127  1  0  0  0
 59 60  1  0  0  0
 59 61  1  0  0  0
 59 62  1  0  0  0
 60128  1  0  0  0
 60129  1  0  0  0
 60130  1  0  0  0
 61131  1  0  0  0
 61132  1  0  0  0
 61133  1  0  0  0
 62134  1  0  0  0
 62135  1  0  0  0
 62136  1  0  0  0
 63 65  1  0  0  0
 63137  1  0  0  0
 63138  1  0  0  0
 63139  1  0  0  0
 64140  1  0  0  0
 65141  1  0  0  0
 68 77  1  0  0  0
 71 72  1  0  0  0
 71 73  2  0  0  0
 71142  1  0  0  0
 72 74  2  0  0  0
 72143  1  0  0  0
 73 76  1  0  0  0
 73 81  1  0  0  0
 74 81  1  0  0  0
 74 82  1  0  0  0
 75 77  1  0  0  0
 75 78  1  0  0  0
 75 80  2  0  0  0
 76 79  1  0  0  0
 76144  1  0  0  0
 76145  1  0  0  0
 77146  1  0  0  0
 77147  1  0  0  0
 78 82  1  0  0  0
 78148  1  0  0  0
 78149  1  0  0  0
 79150  1  0  0  0
M  ISO  4   1 100  68 101  77 101  79 100
M  END
> <chiral flag>
0

> <version>
0

> <s_m_source_file>
/data/baiqing/PycharmProjects/Reinvent-master-3.2/result/LINK_invent/BTK/process_docking_weight1_custom_product_contain_oxygen_bond_distance_aromatic_linkinvent_7_9_3/rearranged_h_0129.sdf

> <i_m_source_file_index>
24

> <r_mmod_Potential_Energy-OPLS-2005>
-60.4185104370117

> <r_mmod_Stretch_Energy-OPLS-2005>
59.4089660644531

> <r_mmod_Bend_Energy-OPLS-2005>
121.905555725098

> <r_mmod_Torsional_Energy-OPLS-2005>
248.615768432617

> <r_mmod_Improper_Torsional_Energy-OPLS-2005>
4.42865133285522

> <r_mmod_Van_der_Waal_Energy-OPLS-2005>
114.747291564941

> <r_mmod_Electrostatic_Energy-OPLS-2005>
-407.603393554688

> <r_mmod_Solvation_Energy-OPLS-2005>
-235.610321044922

> <b_mmod_Minimization_Converged-OPLS-2005>
0

> <r_mmod_RMS_Derivative-OPLS-2005>
1.79909324645996

$$$$
24
                    3D
 Structure written by MMmdl.
155163  0  0  1  0            999 V2000
  -30.7046  -14.5610   20.4541 C   0  0  0  0  0  0
  -30.4164  -12.3244   19.4635 C   0  0  0  0  0  0
  -29.5093  -12.4770   18.2243 C   0  0  0  0  0  0
  -28.0284  -12.3379   18.6280 C   0  0  0  0  0  0
  -27.6511  -13.2191   19.8517 C   0  0  2  0  0  0
  -28.6953  -13.0933   20.9847 C   0  0  0  0  0  0
  -25.2521  -13.8140   20.5663 C   0  0  0  0  0  0
  -24.1806  -13.0406   20.9195 C   0  0  0  0  0  0
  -24.6393  -11.6883   20.8725 C   0  0  0  0  0  0
  -23.9058  -10.4276   21.0406 C   0  0  0  0  0  0
  -24.3610   -9.4191   21.9181 C   0  0  0  0  0  0
  -23.6290   -8.2233   22.0749 C   0  0  0  0  0  0
  -22.4269   -8.0278   21.3549 C   0  0  0  0  0  0
  -21.9896   -9.0253   20.4660 C   0  0  0  0  0  0
  -22.7228  -10.2128   20.3066 C   0  0  0  0  0  0
  -21.6855   -6.0734   22.5278 C   0  0  0  0  0  0
  -21.4028   -6.5635   23.8215 C   0  0  0  0  0  0
  -21.3655   -5.6777   24.9168 C   0  0  0  0  0  0
  -21.6038   -4.3035   24.7236 C   0  0  0  0  0  0
  -21.8812   -3.8146   23.4345 C   0  0  0  0  0  0
  -21.9189   -4.6961   22.3398 C   0  0  0  0  0  0
  -22.7836  -13.5211   21.1845 C   0  0  0  0  0  0
  -22.1651   -4.2141   21.0982 F   0  0  0  0  0  0
  -21.5616   -3.4523   25.7746 F   0  0  0  0  0  0
  -30.0228  -13.3742   20.4210 N   0  0  0  0  0  0
  -26.2969  -12.9357   20.3250 N   0  0  0  0  0  0
  -25.9325  -11.6506   20.5738 N   0  0  0  0  0  0
  -22.0460  -12.8255   22.0433 N   0  0  0  0  0  0
  -25.4112  -15.1856   20.4095 N   0  0  0  0  0  0
  -31.8999  -14.5994   20.1568 O   0  0  0  0  0  0
  -21.6628   -6.8880   21.4245 O   0  0  0  0  0  0
  -22.3515  -14.5490   20.6633 O   0  0  0  0  0  0
  -24.6219  -31.8635   23.2087 C   0  0  0  0  0  0
  -25.9089  -32.4787   23.8392 C   0  0  1  0  0  0
  -27.2178  -27.3491   20.0997 C   0  0  0  0  0  0
  -25.5918  -33.8584   24.2290 N   0  0  0  0  0  0
  -23.4145  -30.4913   21.5480 C   0  0  2  0  0  0
  -24.8609  -28.9615   20.1077 C   0  0  0  0  0  0
  -22.7450  -29.4643   22.4922 C   0  0  0  0  0  0
  -18.0286  -28.1385   22.8490 C   0  0  0  0  0  0
  -24.1489  -36.7299   23.2632 C   0  0  0  0  0  0
  -25.9568  -30.7958   21.3873 C   0  0  0  0  0  0
  -26.0275  -29.4297   20.7242 C   0  0  0  0  0  0
  -27.2072  -28.6319   20.7225 C   0  0  0  0  0  0
  -26.0274  -26.9439   19.4429 C   0  0  0  0  0  0
  -24.8619  -27.7213   19.4599 C   0  0  0  0  0  0
  -23.6289  -29.8355   20.1605 C   0  0  0  0  0  0
  -25.4107  -36.3079   24.0323 C   0  0  1  0  0  0
  -20.5881  -28.3681   23.1280 C   0  0  2  0  0  0
  -20.6772  -26.9405   22.5413 C   0  0  0  0  0  0
  -19.5756  -26.6384   21.5203 C   0  0  0  0  0  0
  -18.1934  -26.7933   22.1618 C   0  0  0  0  0  0
  -19.1540  -28.8849   23.2882 C   0  0  0  0  0  0
  -18.9459  -30.1445   23.8904 C   0  0  0  0  0  0
  -17.6464  -30.6594   24.0558 C   0  0  0  0  0  0
  -25.9045  -34.9444   23.5100 C   0  0  0  0  0  0
  -16.5349  -29.9093   23.6329 C   0  0  0  0  0  0
  -16.7274  -28.6503   23.0361 C   0  0  0  0  0  0
  -26.4486  -31.6600   25.0764 C   0  0  0  0  0  0
  -25.3718  -31.3761   26.1494 C   0  0  0  0  0  0
  -27.0329  -30.3010   24.6254 C   0  0  0  0  0  0
  -27.6044  -32.4349   25.7519 C   0  0  0  0  0  0
  -27.5582  -37.1795   24.8446 C   0  0  0  0  0  0
  -21.4170  -29.3044   22.3679 N   0  0  0  0  0  0
  -26.4279  -37.3780   23.9420 N   0  0  0  0  0  0
  -24.6816  -31.0673   22.1029 N   0  0  0  0  0  0
  -23.4189  -28.8163   23.2973 O   0  0  0  0  0  0
  -28.3322  -26.5009   20.1546 O   0  0  0  0  0  0
  -26.5622  -34.8905   22.4669 O   0  0  0  0  0  0
  -23.5387  -32.1421   23.7416 O   0  0  0  0  0  0
  -30.7839  -19.5160   20.5318 C   0  0  0  0  0  0
  -30.3867  -20.8698   20.3509 C   0  0  0  0  0  0
  -28.2372  -20.0902   19.5917 C   0  0  0  0  0  0
  -29.9358  -18.4167   20.2210 C   0  0  0  0  0  0
  -29.0970  -21.1804   19.8648 C   0  0  0  0  0  0
  -28.6358  -18.7372   19.7431 C   0  0  0  0  0  0
  -30.4964  -17.0232   20.3408 C   0  0  0  0  0  0
  -29.9127  -15.8065   20.5741 C   0  0  0  0  0  0
  -27.6661  -17.6648   19.2838 C   0  0  0  0  0  0
  -28.5958  -22.5994   19.4821 C   0  0  0  0  0  0
  -29.0799  -23.9262   20.1758 C   0  0  0  0  0  0
  -28.0791  -25.0911   19.8363 C   0  0  0  0  0  0
  -31.4678  -12.3797   19.1763 H   0  0  0  0  0  0
  -30.2885  -11.3370   19.9108 H   0  0  0  0  0  0
  -29.7676  -11.7264   17.4751 H   0  0  0  0  0  0
  -29.6741  -13.4485   17.7552 H   0  0  0  0  0  0
  -27.8501  -11.2889   18.8643 H   0  0  0  0  0  0
  -27.3825  -12.5702   17.7801 H   0  0  0  0  0  0
  -27.6646  -14.2503   19.5003 H   0  0  0  0  0  0
  -28.6802  -12.0897   21.4102 H   0  0  0  0  0  0
  -28.4655  -13.7662   21.8123 H   0  0  0  0  0  0
  -25.2775   -9.5664   22.4733 H   0  0  0  0  0  0
  -23.9999   -7.4621   22.7471 H   0  0  0  0  0  0
  -21.0807   -8.8788   19.8983 H   0  0  0  0  0  0
  -22.3691  -10.9667   19.6166 H   0  0  0  0  0  0
  -21.2037   -7.6145   23.9722 H   0  0  0  0  0  0
  -21.1472   -6.0505   25.9064 H   0  0  0  0  0  0
  -22.0601   -2.7614   23.2842 H   0  0  0  0  0  0
  -22.4071  -11.9955   22.4908 H   0  0  0  0  0  0
  -21.1093  -13.1317   22.2623 H   0  0  0  0  0  0
  -24.6334  -15.8289   20.5153 H   0  0  0  0  0  0
  -26.2535  -15.6275   20.0708 H   0  0  0  0  0  0
  -26.7153  -32.5459   23.1137 H   0  0  0  0  0  0
  -25.0038  -33.9739   25.0416 H   0  0  0  0  0  0
  -22.7070  -31.3110   21.4090 H   0  0  0  0  0  0
  -23.3751  -35.9631   23.3273 H   0  0  0  0  0  0
  -24.3584  -36.8950   22.2053 H   0  0  0  0  0  0
  -23.7244  -37.6493   23.6670 H   0  0  0  0  0  0
  -26.1005  -31.5635   20.6257 H   0  0  0  0  0  0
  -26.8316  -30.8308   22.0234 H   0  0  0  0  0  0
  -28.0956  -28.9766   21.2313 H   0  0  0  0  0  0
  -25.9510  -26.0122   18.9036 H   0  0  0  0  0  0
  -23.9732  -27.3639   18.9587 H   0  0  0  0  0  0
  -23.7450  -30.6133   19.4048 H   0  0  0  0  0  0
  -22.7527  -29.2601   19.8580 H   0  0  0  0  0  0
  -25.1285  -36.1922   25.0815 H   0  0  0  0  0  0
  -20.9974  -28.3254   24.1394 H   0  0  0  0  0  0
  -20.5662  -26.2279   23.3606 H   0  0  0  0  0  0
  -21.6641  -26.7436   22.1211 H   0  0  0  0  0  0
  -19.6911  -25.6287   21.1251 H   0  0  0  0  0  0
  -19.6708  -27.3177   20.6718 H   0  0  0  0  0  0
  -17.4204  -26.6674   21.4024 H   0  0  0  0  0  0
  -18.0340  -26.0071   22.9008 H   0  0  0  0  0  0
  -19.7929  -30.7252   24.2284 H   0  0  0  0  0  0
  -17.5021  -31.6278   24.5158 H   0  0  0  0  0  0
  -15.5350  -30.3001   23.7650 H   0  0  0  0  0  0
  -15.8669  -28.0821   22.7084 H   0  0  0  0  0  0
  -24.5848  -30.7171   25.7825 H   0  0  0  0  0  0
  -24.8962  -32.2939   26.4954 H   0  0  0  0  0  0
  -25.8024  -30.8899   27.0252 H   0  0  0  0  0  0
  -26.2918  -29.6778   24.1238 H   0  0  0  0  0  0
  -27.3949  -29.7267   25.4793 H   0  0  0  0  0  0
  -27.8826  -30.4282   23.9542 H   0  0  0  0  0  0
  -27.2634  -33.3608   26.2157 H   0  0  0  0  0  0
  -28.3804  -32.6992   25.0326 H   0  0  0  0  0  0
  -28.0776  -31.8461   26.5386 H   0  0  0  0  0  0
  -28.2567  -38.0124   24.7530 H   0  0  0  0  0  0
  -28.1111  -36.2657   24.6208 H   0  0  0  0  0  0
  -27.2314  -37.1368   25.8851 H   0  0  0  0  0  0
  -20.9330  -29.8754   21.6896 H   0  0  0  0  0  0
  -26.0154  -38.2844   24.1464 H   0  0  0  0  0  0
  -31.7894  -19.3190   20.8797 H   0  0  0  0  0  0
  -31.0929  -21.6626   20.5567 H   0  0  0  0  0  0
  -27.2561  -20.2992   19.1883 H   0  0  0  0  0  0
  -31.5588  -17.0101   20.1457 H   0  0  0  0  0  0
  -28.8649  -15.7513   20.8104 H   0  0  0  0  0  0
  -26.7920  -18.0996   18.7991 H   0  0  0  0  0  0
  -27.3096  -17.0937   20.1371 H   0  0  0  0  0  0
  -28.1359  -16.9918   18.5663 H   0  0  0  0  0  0
  -27.5102  -22.5626   19.5866 H   0  0  0  0  0  0
  -28.7675  -22.7062   18.4091 H   0  0  0  0  0  0
  -30.0880  -24.1724   19.8416 H   0  0  0  0  0  0
  -29.1251  -23.7955   21.2570 H   0  0  0  0  0  0
  -27.1516  -24.7980   20.3349 H   0  0  0  0  0  0
  -27.8897  -25.0403   18.7629 H   0  0  0  0  0  0
  1 25  1  0  0  0
  1 30  2  0  0  0
  1 78  1  0  0  0
  2  3  1  0  0  0
  2 25  1  0  0  0
  2 83  1  0  0  0
  2 84  1  0  0  0
  3  4  1  0  0  0
  3 85  1  0  0  0
  3 86  1  0  0  0
  4  5  1  0  0  0
  4 87  1  0  0  0
  4 88  1  0  0  0
  5  6  1  0  0  0
  5 26  1  0  0  0
  5 89  1  0  0  0
  6 25  1  0  0  0
  6 90  1  0  0  0
  6 91  1  0  0  0
  7  8  2  0  0  0
  7 26  1  0  0  0
  7 29  1  0  0  0
  8  9  1  0  0  0
  8 22  1  0  0  0
  9 10  1  0  0  0
  9 27  2  0  0  0
 10 11  2  0  0  0
 10 15  1  0  0  0
 11 12  1  0  0  0
 11 92  1  0  0  0
 12 13  2  0  0  0
 12 93  1  0  0  0
 13 14  1  0  0  0
 13 31  1  0  0  0
 14 15  2  0  0  0
 14 94  1  0  0  0
 15 95  1  0  0  0
 16 17  2  0  0  0
 16 21  1  0  0  0
 16 31  1  0  0  0
 17 18  1  0  0  0
 17 96  1  0  0  0
 18 19  2  0  0  0
 18 97  1  0  0  0
 19 20  1  0  0  0
 19 24  1  0  0  0
 20 21  2  0  0  0
 20 98  1  0  0  0
 21 23  1  0  0  0
 22 28  1  0  0  0
 22 32  2  0  0  0
 26 27  1  0  0  0
 28 99  1  0  0  0
 28100  1  0  0  0
 29101  1  0  0  0
 29102  1  0  0  0
 33 34  1  0  0  0
 33 66  1  0  0  0
 33 70  2  0  0  0
 34 36  1  0  0  0
 34 59  1  0  0  0
 34103  1  0  0  0
 35 44  2  0  0  0
 35 45  1  0  0  0
 35 68  1  0  0  0
 36 56  1  0  0  0
 36104  1  0  0  0
 37 39  1  0  0  0
 37 47  1  0  0  0
 37 66  1  0  0  0
 37105  1  0  0  0
 38 43  2  0  0  0
 38 46  1  0  0  0
 38 47  1  0  0  0
 39 64  1  0  0  0
 39 67  2  0  0  0
 40 52  1  0  0  0
 40 53  2  0  0  0
 40 58  1  0  0  0
 41106  1  0  0  0
 41107  1  0  0  0
 41108  1  0  0  0
 41 48  1  0  0  0
 42 43  1  0  0  0
 42 66  1  0  0  0
 42109  1  0  0  0
 42110  1  0  0  0
 43 44  1  0  0  0
 44111  1  0  0  0
 45 46  2  0  0  0
 45112  1  0  0  0
 46113  1  0  0  0
 47114  1  0  0  0
 47115  1  0  0  0
 48 56  1  0  0  0
 48 65  1  0  0  0
 48116  1  0  0  0
 49 50  1  0  0  0
 49 53  1  0  0  0
 49 64  1  0  0  0
 49117  1  0  0  0
 50 51  1  0  0  0
 50118  1  0  0  0
 50119  1  0  0  0
 51 52  1  0  0  0
 51120  1  0  0  0
 51121  1  0  0  0
 52122  1  0  0  0
 52123  1  0  0  0
 53 54  1  0  0  0
 54 55  2  0  0  0
 54124  1  0  0  0
 55 57  1  0  0  0
 55125  1  0  0  0
 56 69  2  0  0  0
 57 58  2  0  0  0
 57126  1  0  0  0
 58127  1  0  0  0
 59 60  1  0  0  0
 59 61  1  0  0  0
 59 62  1  0  0  0
 60128  1  0  0  0
 60129  1  0  0  0
 60130  1  0  0  0
 61131  1  0  0  0
 61132  1  0  0  0
 61133  1  0  0  0
 62134  1  0  0  0
 62135  1  0  0  0
 62136  1  0  0  0
 63 65  1  0  0  0
 63137  1  0  0  0
 63138  1  0  0  0
 63139  1  0  0  0
 64140  1  0  0  0
 65141  1  0  0  0
 68 82  1  0  0  0
 71 72  2  0  0  0
 71 74  1  0  0  0
 71142  1  0  0  0
 72 75  1  0  0  0
 72143  1  0  0  0
 73 75  2  0  0  0
 73 76  1  0  0  0
 73144  1  0  0  0
 74 76  2  0  0  0
 74 77  1  0  0  0
 75 80  1  0  0  0
 76 79  1  0  0  0
 77 78  2  0  0  0
 77145  1  0  0  0
 78146  1  0  0  0
 79147  1  0  0  0
 79148  1  0  0  0
 79149  1  0  0  0
 80 81  1  0  0  0
 80150  1  0  0  0
 80151  1  0  0  0
 81 82  1  0  0  0
 81152  1  0  0  0
 81153  1  0  0  0
 82154  1  0  0  0
 82155  1  0  0  0
M  ISO  4   1 100  68 101  78 100  82 101
M  END
> <chiral flag>
0

> <version>
0

> <s_m_source_file>
/data/baiqing/PycharmProjects/Reinvent-master-3.2/result/LINK_invent/BTK/process_docking_weight1_custom_product_contain_oxygen_bond_distance_aromatic_linkinvent_7_9_3/rearranged_h_0129.sdf

> <i_m_source_file_index>
25

> <r_mmod_Potential_Energy-OPLS-2005>
65.8363342285156

> <r_mmod_Stretch_Energy-OPLS-2005>
58.2092132568359

> <r_mmod_Bend_Energy-OPLS-2005>
139.730911254883

> <r_mmod_Torsional_Energy-OPLS-2005>
194.04182434082

> <r_mmod_Improper_Torsional_Energy-OPLS-2005>
7.61992740631104

> <r_mmod_Van_der_Waal_Energy-OPLS-2005>
161.931900024414

> <r_mmod_Electrostatic_Energy-OPLS-2005>
-343.298522949219

> <r_mmod_Solvation_Energy-OPLS-2005>
-193.110900878906

> <b_mmod_Minimization_Converged-OPLS-2005>
0

> <r_mmod_RMS_Derivative-OPLS-2005>
2.919677734375

$$$$
25
                    3D
 Structure written by MMmdl.
156164  0  0  1  0            999 V2000
  -30.7039  -14.4907   20.5657 C   0  0  0  0  0  0
  -30.4224  -12.3138   19.4356 C   0  0  0  0  0  0
  -29.4981  -12.5055   18.2143 C   0  0  0  0  0  0
  -28.0170  -12.3690   18.6206 C   0  0  0  0  0  0
  -27.6621  -13.2076   19.8776 C   0  0  2  0  0  0
  -28.7015  -12.9789   20.9967 C   0  0  0  0  0  0
  -25.2588  -13.8159   20.5682 C   0  0  0  0  0  0
  -24.1833  -13.0440   20.9160 C   0  0  0  0  0  0
  -24.6386  -11.6906   20.8726 C   0  0  0  0  0  0
  -23.9054  -10.4295   21.0405 C   0  0  0  0  0  0
  -24.3610   -9.4213   21.9183 C   0  0  0  0  0  0
  -23.6285   -8.2248   22.0759 C   0  0  0  0  0  0
  -22.4267   -8.0285   21.3550 C   0  0  0  0  0  0
  -21.9900   -9.0257   20.4653 C   0  0  0  0  0  0
  -22.7226  -10.2134   20.3058 C   0  0  0  0  0  0
  -21.6854   -6.0735   22.5281 C   0  0  0  0  0  0
  -21.4016   -6.5641   23.8213 C   0  0  0  0  0  0
  -21.3658   -5.6792   24.9176 C   0  0  0  0  0  0
  -21.6042   -4.3054   24.7225 C   0  0  0  0  0  0
  -21.8818   -3.8146   23.4347 C   0  0  0  0  0  0
  -21.9193   -4.6962   22.3405 C   0  0  0  0  0  0
  -22.7858  -13.5248   21.1828 C   0  0  0  0  0  0
  -22.1660   -4.2146   21.0981 F   0  0  0  0  0  0
  -21.5630   -3.4540   25.7738 F   0  0  0  0  0  0
  -30.0305  -13.3069   20.4534 N   0  0  0  0  0  0
  -26.3023  -12.9329   20.3374 N   0  0  0  0  0  0
  -25.9315  -11.6487   20.5757 N   0  0  0  0  0  0
  -22.0498  -12.8251   22.0392 N   0  0  0  0  0  0
  -25.4330  -15.1876   20.4117 N   0  0  0  0  0  0
  -31.8295  -14.6293   20.0767 O   0  0  0  0  0  0
  -21.6638   -6.8880   21.4243 O   0  0  0  0  0  0
  -22.3544  -14.5558   20.6684 O   0  0  0  0  0  0
  -24.6145  -31.8676   23.2097 C   0  0  0  0  0  0
  -25.9037  -32.4824   23.8395 C   0  0  1  0  0  0
  -27.2350  -27.4351   20.1020 C   0  0  0  0  0  0
  -25.5893  -33.8621   24.2328 N   0  0  0  0  0  0
  -23.4036  -30.4902   21.5495 C   0  0  2  0  0  0
  -24.8530  -28.9558   20.1145 C   0  0  0  0  0  0
  -22.7413  -29.4655   22.4984 C   0  0  0  0  0  0
  -18.0272  -28.1376   22.8492 C   0  0  0  0  0  0
  -24.1488  -36.7315   23.2640 C   0  0  0  0  0  0
  -25.9326  -30.8342   21.3629 C   0  0  0  0  0  0
  -26.0130  -29.4686   20.7107 C   0  0  0  0  0  0
  -27.2109  -28.7159   20.7006 C   0  0  0  0  0  0
  -26.0628  -26.9378   19.4961 C   0  0  0  0  0  0
  -24.8727  -27.6896   19.5030 C   0  0  0  0  0  0
  -23.6135  -29.8214   20.1645 C   0  0  0  0  0  0
  -25.4109  -36.3113   24.0339 C   0  0  1  0  0  0
  -20.5864  -28.3663   23.1317 C   0  0  2  0  0  0
  -20.6763  -26.9399   22.5417 C   0  0  0  0  0  0
  -19.5743  -26.6385   21.5210 C   0  0  0  0  0  0
  -18.1921  -26.7921   22.1621 C   0  0  0  0  0  0
  -19.1522  -28.8835   23.2903 C   0  0  0  0  0  0
  -18.9451  -30.1439   23.8915 C   0  0  0  0  0  0
  -17.6453  -30.6582   24.0565 C   0  0  0  0  0  0
  -25.9032  -34.9478   23.5133 C   0  0  0  0  0  0
  -16.5345  -29.9085   23.6324 C   0  0  0  0  0  0
  -16.7261  -28.6501   23.0348 C   0  0  0  0  0  0
  -26.4472  -31.6598   25.0717 C   0  0  0  0  0  0
  -25.3749  -31.3697   26.1472 C   0  0  0  0  0  0
  -27.0304  -30.3043   24.6081 C   0  0  0  0  0  0
  -27.6048  -32.4321   25.7474 C   0  0  0  0  0  0
  -27.5580  -37.1814   24.8468 C   0  0  0  0  0  0
  -21.4139  -29.3033   22.3725 N   0  0  0  0  0  0
  -26.4298  -37.3794   23.9405 N   0  0  0  0  0  0
  -24.6682  -31.0781   22.0993 N   0  0  0  0  0  0
  -23.4184  -28.8198   23.3026 O   0  0  0  0  0  0
  -28.3733  -26.6596   20.1045 O   0  0  0  0  0  0
  -26.5595  -34.8926   22.4694 O   0  0  0  0  0  0
  -23.5336  -32.1423   23.7493 O   0  0  0  0  0  0
  -28.9123  -20.6849   22.4641 C   0  0  0  0  0  0
  -28.8394  -19.5438   23.2824 C   0  0  0  0  0  0
  -29.9232  -19.3332   20.7178 C   0  0  0  0  0  0
  -29.8713  -18.1689   21.5331 C   0  0  0  0  0  0
  -29.4600  -20.5967   21.1682 C   0  0  0  0  0  0
  -29.3216  -18.2930   22.8397 C   0  0  0  0  0  0
  -30.4051  -16.8980   20.9654 C   0  0  0  0  0  0
  -29.9922  -15.6215   21.1816 C   0  0  0  0  0  0
  -28.7516  -23.0638   20.6477 C   0  0  0  0  0  0
  -29.1569  -24.3529   20.6002 C   0  0  0  0  0  0
  -29.2888  -17.1422   23.8328 C   0  0  0  0  0  0
  -29.5964  -21.8414   20.2744 C   0  0  0  0  0  0
  -28.3008  -25.5486   21.0143 C   0  0  0  0  0  0
  -31.4680  -12.4019   19.1347 H   0  0  0  0  0  0
  -30.3213  -11.3042   19.8370 H   0  0  0  0  0  0
  -29.7413  -11.7772   17.4397 H   0  0  0  0  0  0
  -29.6701  -13.4892   17.7740 H   0  0  0  0  0  0
  -27.8249  -11.3134   18.8154 H   0  0  0  0  0  0
  -27.3697  -12.6464   17.7874 H   0  0  0  0  0  0
  -27.7097  -14.2569   19.5852 H   0  0  0  0  0  0
  -28.6870  -11.9333   21.3075 H   0  0  0  0  0  0
  -28.4483  -13.5314   21.8990 H   0  0  0  0  0  0
  -25.2760   -9.5686   22.4753 H   0  0  0  0  0  0
  -23.9996   -7.4642   22.7480 H   0  0  0  0  0  0
  -21.0830   -8.8777   19.8961 H   0  0  0  0  0  0
  -22.3690  -10.9674   19.6165 H   0  0  0  0  0  0
  -21.2009   -7.6148   23.9715 H   0  0  0  0  0  0
  -21.1481   -6.0524   25.9076 H   0  0  0  0  0  0
  -22.0597   -2.7607   23.2849 H   0  0  0  0  0  0
  -22.4105  -11.9907   22.4776 H   0  0  0  0  0  0
  -21.1128  -13.1299   22.2617 H   0  0  0  0  0  0
  -24.6732  -15.8490   20.5304 H   0  0  0  0  0  0
  -26.2989  -15.6274   20.1249 H   0  0  0  0  0  0
  -26.7109  -32.5543   23.1163 H   0  0  0  0  0  0
  -25.0059  -33.9787   25.0483 H   0  0  0  0  0  0
  -22.6919  -31.3065   21.4092 H   0  0  0  0  0  0
  -23.3743  -35.9655   23.3325 H   0  0  0  0  0  0
  -24.3578  -36.8905   22.2049 H   0  0  0  0  0  0
  -23.7249  -37.6531   23.6638 H   0  0  0  0  0  0
  -26.0450  -31.6009   20.5952 H   0  0  0  0  0  0
  -26.8199  -30.8885   21.9818 H   0  0  0  0  0  0
  -28.1068  -29.1047   21.1641 H   0  0  0  0  0  0
  -26.0719  -25.9641   19.0263 H   0  0  0  0  0  0
  -23.9820  -27.2888   19.0395 H   0  0  0  0  0  0
  -23.7205  -30.5957   19.4038 H   0  0  0  0  0  0
  -22.7383  -29.2396   19.8694 H   0  0  0  0  0  0
  -25.1288  -36.1984   25.0833 H   0  0  0  0  0  0
  -20.9957  -28.3228   24.1436 H   0  0  0  0  0  0
  -20.5665  -26.2269   23.3603 H   0  0  0  0  0  0
  -21.6635  -26.7442   22.1211 H   0  0  0  0  0  0
  -19.6907  -25.6300   21.1229 H   0  0  0  0  0  0
  -19.6685  -27.3205   20.6749 H   0  0  0  0  0  0
  -17.4193  -26.6670   21.4023 H   0  0  0  0  0  0
  -18.0324  -26.0059   22.9013 H   0  0  0  0  0  0
  -19.7928  -30.7247   24.2295 H   0  0  0  0  0  0
  -17.5012  -31.6264   24.5163 H   0  0  0  0  0  0
  -15.5347  -30.2997   23.7635 H   0  0  0  0  0  0
  -15.8660  -28.0827   22.7056 H   0  0  0  0  0  0
  -24.5912  -30.7055   25.7810 H   0  0  0  0  0  0
  -24.8952  -32.2850   26.4948 H   0  0  0  0  0  0
  -25.8111  -30.8844   27.0212 H   0  0  0  0  0  0
  -26.2839  -29.6800   24.1155 H   0  0  0  0  0  0
  -27.4105  -29.7281   25.4527 H   0  0  0  0  0  0
  -27.8661  -30.4368   23.9206 H   0  0  0  0  0  0
  -27.2663  -33.3605   26.2086 H   0  0  0  0  0  0
  -28.3834  -32.6910   25.0288 H   0  0  0  0  0  0
  -28.0745  -31.8430   26.5362 H   0  0  0  0  0  0
  -28.2618  -38.0092   24.7497 H   0  0  0  0  0  0
  -28.1057  -36.2625   24.6320 H   0  0  0  0  0  0
  -27.2296  -37.1499   25.8871 H   0  0  0  0  0  0
  -20.9296  -29.8759   21.6956 H   0  0  0  0  0  0
  -26.0192  -38.2877   24.1390 H   0  0  0  0  0  0
  -28.5593  -21.6287   22.8564 H   0  0  0  0  0  0
  -28.4297  -19.6441   24.2785 H   0  0  0  0  0  0
  -30.3446  -19.2588   19.7244 H   0  0  0  0  0  0
  -31.2559  -17.0441   20.3121 H   0  0  0  0  0  0
  -29.1372  -15.4612   21.8121 H   0  0  0  0  0  0
  -27.7400  -22.8493   20.9629 H   0  0  0  0  0  0
  -30.1606  -24.5844   20.2743 H   0  0  0  0  0  0
  -29.2318  -17.5135   24.8570 H   0  0  0  0  0  0
  -30.1920  -16.5349   23.7710 H   0  0  0  0  0  0
  -28.4186  -16.5081   23.6648 H   0  0  0  0  0  0
  -29.3204  -21.5549   19.2587 H   0  0  0  0  0  0
  -30.6482  -22.1288   20.2359 H   0  0  0  0  0  0
  -28.6563  -25.8932   21.9867 H   0  0  0  0  0  0
  -27.2758  -25.2062   21.1695 H   0  0  0  0  0  0
  1 25  1  0  0  0
  1 30  2  0  0  0
  1 78  1  0  0  0
  2  3  1  0  0  0
  2 25  1  0  0  0
  2 84  1  0  0  0
  2 85  1  0  0  0
  3  4  1  0  0  0
  3 86  1  0  0  0
  3 87  1  0  0  0
  4  5  1  0  0  0
  4 88  1  0  0  0
  4 89  1  0  0  0
  5  6  1  0  0  0
  5 26  1  0  0  0
  5 90  1  0  0  0
  6 25  1  0  0  0
  6 91  1  0  0  0
  6 92  1  0  0  0
  7  8  2  0  0  0
  7 26  1  0  0  0
  7 29  1  0  0  0
  8  9  1  0  0  0
  8 22  1  0  0  0
  9 10  1  0  0  0
  9 27  2  0  0  0
 10 11  2  0  0  0
 10 15  1  0  0  0
 11 12  1  0  0  0
 11 93  1  0  0  0
 12 13  2  0  0  0
 12 94  1  0  0  0
 13 14  1  0  0  0
 13 31  1  0  0  0
 14 15  2  0  0  0
 14 95  1  0  0  0
 15 96  1  0  0  0
 16 17  2  0  0  0
 16 21  1  0  0  0
 16 31  1  0  0  0
 17 18  1  0  0  0
 17 97  1  0  0  0
 18 19  2  0  0  0
 18 98  1  0  0  0
 19 20  1  0  0  0
 19 24  1  0  0  0
 20 21  2  0  0  0
 20 99  1  0  0  0
 21 23  1  0  0  0
 22 28  1  0  0  0
 22 32  2  0  0  0
 26 27  1  0  0  0
 28100  1  0  0  0
 28101  1  0  0  0
 29102  1  0  0  0
 29103  1  0  0  0
 33 34  1  0  0  0
 33 66  1  0  0  0
 33 70  2  0  0  0
 34 36  1  0  0  0
 34 59  1  0  0  0
 34104  1  0  0  0
 35 44  2  0  0  0
 35 45  1  0  0  0
 35 68  1  0  0  0
 36 56  1  0  0  0
 36105  1  0  0  0
 37 39  1  0  0  0
 37 47  1  0  0  0
 37 66  1  0  0  0
 37106  1  0  0  0
 38 43  2  0  0  0
 38 46  1  0  0  0
 38 47  1  0  0  0
 39 64  1  0  0  0
 39 67  2  0  0  0
 40 52  1  0  0  0
 40 53  2  0  0  0
 40 58  1  0  0  0
 41107  1  0  0  0
 41108  1  0  0  0
 41109  1  0  0  0
 41 48  1  0  0  0
 42 43  1  0  0  0
 42 66  1  0  0  0
 42110  1  0  0  0
 42111  1  0  0  0
 43 44  1  0  0  0
 44112  1  0  0  0
 45 46  2  0  0  0
 45113  1  0  0  0
 46114  1  0  0  0
 47115  1  0  0  0
 47116  1  0  0  0
 48 56  1  0  0  0
 48 65  1  0  0  0
 48117  1  0  0  0
 49 50  1  0  0  0
 49 53  1  0  0  0
 49 64  1  0  0  0
 49118  1  0  0  0
 50 51  1  0  0  0
 50119  1  0  0  0
 50120  1  0  0  0
 51 52  1  0  0  0
 51121  1  0  0  0
 51122  1  0  0  0
 52123  1  0  0  0
 52124  1  0  0  0
 53 54  1  0  0  0
 54 55  2  0  0  0
 54125  1  0  0  0
 55 57  1  0  0  0
 55126  1  0  0  0
 56 69  2  0  0  0
 57 58  2  0  0  0
 57127  1  0  0  0
 58128  1  0  0  0
 59 60  1  0  0  0
 59 61  1  0  0  0
 59 62  1  0  0  0
 60129  1  0  0  0
 60130  1  0  0  0
 60131  1  0  0  0
 61132  1  0  0  0
 61133  1  0  0  0
 61134  1  0  0  0
 62135  1  0  0  0
 62136  1  0  0  0
 62137  1  0  0  0
 63 65  1  0  0  0
 63138  1  0  0  0
 63139  1  0  0  0
 63140  1  0  0  0
 64141  1  0  0  0
 65142  1  0  0  0
 68 83  1  0  0  0
 71 72  2  0  0  0
 71 75  1  0  0  0
 71143  1  0  0  0
 72 76  1  0  0  0
 72144  1  0  0  0
 73 74  1  0  0  0
 73 75  2  0  0  0
 73145  1  0  0  0
 74 76  2  0  0  0
 74 77  1  0  0  0
 75 82  1  0  0  0
 76 81  1  0  0  0
 77 78  2  0  0  0
 77146  1  0  0  0
 78147  1  0  0  0
 79 80  2  0  0  0
 79 82  1  0  0  0
 79148  1  0  0  0
 80 83  1  0  0  0
 80149  1  0  0  0
 81150  1  0  0  0
 81151  1  0  0  0
 81152  1  0  0  0
 82153  1  0  0  0
 82154  1  0  0  0
 83155  1  0  0  0
 83156  1  0  0  0
M  ISO  4   1 100  68 101  78 100  83 101
M  END
> <chiral flag>
0

> <version>
0

> <s_m_source_file>
/data/baiqing/PycharmProjects/Reinvent-master-3.2/result/LINK_invent/BTK/process_docking_weight1_custom_product_contain_oxygen_bond_distance_aromatic_linkinvent_7_9_3/rearranged_h_0129.sdf

> <i_m_source_file_index>
26

> <r_mmod_Potential_Energy-OPLS-2005>
-6.44976377487183

> <r_mmod_Stretch_Energy-OPLS-2005>
40.8174171447754

> <r_mmod_Bend_Energy-OPLS-2005>
96.9784774780273

> <r_mmod_Torsional_Energy-OPLS-2005>
206.739440917969

> <r_mmod_Improper_Torsional_Energy-OPLS-2005>
2.92162799835205

> <r_mmod_Van_der_Waal_Energy-OPLS-2005>
159.094299316406

> <r_mmod_Electrostatic_Energy-OPLS-2005>
-341.038909912109

> <r_mmod_Solvation_Energy-OPLS-2005>
-185.812438964844

> <b_mmod_Minimization_Converged-OPLS-2005>
0

> <r_mmod_RMS_Derivative-OPLS-2005>
0.981870293617249

$$$$
26
                    3D
 Structure written by MMmdl.
164173  0  0  1  0            999 V2000
  -30.5919  -14.6719   20.4983 C   0  0  0  0  0  0
  -30.4486  -12.4137   19.4513 C   0  0  0  0  0  0
  -29.5141  -12.5149   18.2234 C   0  0  0  0  0  0
  -28.0355  -12.3469   18.6324 C   0  0  0  0  0  0
  -27.6534  -13.2141   19.8606 C   0  0  2  0  0  0
  -28.6987  -13.0683   20.9900 C   0  0  0  0  0  0
  -25.2560  -13.8150   20.5663 C   0  0  0  0  0  0
  -24.1831  -13.0429   20.9202 C   0  0  0  0  0  0
  -24.6393  -11.6898   20.8742 C   0  0  0  0  0  0
  -23.9054  -10.4289   21.0412 C   0  0  0  0  0  0
  -24.3608   -9.4208   21.9190 C   0  0  0  0  0  0
  -23.6288   -8.2240   22.0754 C   0  0  0  0  0  0
  -22.4273   -8.0274   21.3541 C   0  0  0  0  0  0
  -21.9905   -9.0249   20.4647 C   0  0  0  0  0  0
  -22.7227  -10.2133   20.3061 C   0  0  0  0  0  0
  -21.6852   -6.0733   22.5280 C   0  0  0  0  0  0
  -21.4011   -6.5640   23.8212 C   0  0  0  0  0  0
  -21.3660   -5.6791   24.9175 C   0  0  0  0  0  0
  -21.6045   -4.3052   24.7225 C   0  0  0  0  0  0
  -21.8820   -3.8144   23.4346 C   0  0  0  0  0  0
  -21.9192   -4.6961   22.3403 C   0  0  0  0  0  0
  -22.7856  -13.5236   21.1858 C   0  0  0  0  0  0
  -22.1665   -4.2149   21.0981 F   0  0  0  0  0  0
  -21.5630   -3.4535   25.7736 F   0  0  0  0  0  0
  -30.0118  -13.4298   20.4291 N   0  0  0  0  0  0
  -26.2985  -12.9327   20.3283 N   0  0  0  0  0  0
  -25.9318  -11.6489   20.5728 N   0  0  0  0  0  0
  -22.0484  -12.8236   22.0408 N   0  0  0  0  0  0
  -25.4253  -15.1864   20.4024 N   0  0  0  0  0  0
  -31.7593  -14.8569   20.1391 O   0  0  0  0  0  0
  -21.6638   -6.8872   21.4239 O   0  0  0  0  0  0
  -22.3553  -14.5544   20.6697 O   0  0  0  0  0  0
  -24.6277  -31.8584   23.2012 C   0  0  0  0  0  0
  -25.9121  -32.4772   23.8343 C   0  0  1  0  0  0
  -27.2288  -27.3088   20.1162 C   0  0  0  0  0  0
  -25.5928  -33.8572   24.2273 N   0  0  0  0  0  0
  -23.4214  -30.4814   21.5456 C   0  0  2  0  0  0
  -24.8673  -28.9331   20.1147 C   0  0  0  0  0  0
  -22.7481  -29.4616   22.4951 C   0  0  0  0  0  0
  -18.0284  -28.1384   22.8484 C   0  0  0  0  0  0
  -24.1489  -36.7296   23.2640 C   0  0  0  0  0  0
  -25.9632  -30.7869   21.3714 C   0  0  0  0  0  0
  -26.0378  -29.4127   20.7146 C   0  0  0  0  0  0
  -27.2210  -28.6141   20.7021 C   0  0  0  0  0  0
  -26.0287  -26.8807   19.5013 C   0  0  0  0  0  0
  -24.8652  -27.6727   19.4993 C   0  0  0  0  0  0
  -23.6355  -29.8143   20.1622 C   0  0  0  0  0  0
  -25.4113  -36.3083   24.0332 C   0  0  1  0  0  0
  -20.5884  -28.3687   23.1292 C   0  0  2  0  0  0
  -20.6774  -26.9412   22.5416 C   0  0  0  0  0  0
  -19.5749  -26.6384   21.5218 C   0  0  0  0  0  0
  -18.1929  -26.7926   22.1627 C   0  0  0  0  0  0
  -19.1535  -28.8853   23.2879 C   0  0  0  0  0  0
  -18.9456  -30.1457   23.8893 C   0  0  0  0  0  0
  -17.6456  -30.6586   24.0559 C   0  0  0  0  0  0
  -25.9052  -34.9451   23.5104 C   0  0  0  0  0  0
  -16.5348  -29.9083   23.6331 C   0  0  0  0  0  0
  -16.7271  -28.6502   23.0350 C   0  0  0  0  0  0
  -26.4495  -31.6581   25.0719 C   0  0  0  0  0  0
  -25.3724  -31.3716   26.1445 C   0  0  0  0  0  0
  -27.0336  -30.3006   24.6168 C   0  0  0  0  0  0
  -27.6053  -32.4314   25.7494 C   0  0  0  0  0  0
  -27.5580  -37.1803   24.8463 C   0  0  0  0  0  0
  -21.4193  -29.3037   22.3686 N   0  0  0  0  0  0
  -26.4288  -37.3781   23.9411 N   0  0  0  0  0  0
  -24.6902  -31.0586   22.0969 N   0  0  0  0  0  0
  -23.4199  -28.8160   23.3038 O   0  0  0  0  0  0
  -28.3601  -26.4722   20.1492 O   0  0  0  0  0  0
  -26.5619  -34.8921   22.4672 O   0  0  0  0  0  0
  -23.5440  -32.1387   23.7339 O   0  0  0  0  0  0
  -30.7630  -19.4274   20.7660 C   0  0  0  0  0  0
  -30.8860  -17.9987   20.7407 C   0  0  0  0  0  0
  -28.4953  -17.8348   20.6245 C   0  0  0  0  0  0
  -29.5076  -20.1060   20.7260 C   0  0  0  0  0  0
  -28.3628  -19.2591   20.6260 C   0  0  0  0  0  0
  -29.7426  -17.1570   20.6977 C   0  0  0  0  0  0
  -29.4085  -21.6342   20.9942 C   0  0  0  0  0  0
  -29.9544  -23.4674   17.8491 C   0  0  0  0  0  0
  -30.3965  -24.4213   18.9530 C   0  0  0  0  0  0
  -29.5339  -22.1926   18.5865 C   0  0  0  0  0  0
  -29.4836  -24.0755   20.1344 C   0  0  1  0  0  0
  -26.3337  -19.9919   21.9692 C   0  0  0  0  0  0
  -26.9531  -19.8373   20.5752 C   0  0  0  0  0  0
  -28.1809  -24.9963   20.0798 C   0  0  0  0  0  0
  -29.3152  -22.5699   19.9862 N   0  0  0  0  0  0
  -29.7249  -15.6923   20.8063 N   0  0  0  0  0  0
  -29.4274  -21.9937   22.1738 O   0  0  0  0  0  0
  -31.4872  -12.5590   19.1484 H   0  0  0  0  0  0
  -30.4010  -11.4170   19.8933 H   0  0  0  0  0  0
  -29.7849  -11.7629   17.4815 H   0  0  0  0  0  0
  -29.6508  -13.4832   17.7377 H   0  0  0  0  0  0
  -27.8719  -11.2927   18.8590 H   0  0  0  0  0  0
  -27.3830  -12.5804   17.7903 H   0  0  0  0  0  0
  -27.6687  -14.2489   19.5187 H   0  0  0  0  0  0
  -28.7186  -12.0438   21.3641 H   0  0  0  0  0  0
  -28.4378  -13.6901   21.8483 H   0  0  0  0  0  0
  -25.2755   -9.5690   22.4761 H   0  0  0  0  0  0
  -24.0005   -7.4632   22.7471 H   0  0  0  0  0  0
  -21.0836   -8.8767   19.8954 H   0  0  0  0  0  0
  -22.3686  -10.9672   19.6169 H   0  0  0  0  0  0
  -21.2004   -7.6147   23.9715 H   0  0  0  0  0  0
  -21.1483   -6.0520   25.9078 H   0  0  0  0  0  0
  -22.0599   -2.7605   23.2842 H   0  0  0  0  0  0
  -22.4088  -11.9905   22.4819 H   0  0  0  0  0  0
  -21.1099  -13.1271   22.2594 H   0  0  0  0  0  0
  -24.6437  -15.8274   20.4848 H   0  0  0  0  0  0
  -26.2402  -15.6082   19.9788 H   0  0  0  0  0  0
  -26.7189  -32.5437   23.1088 H   0  0  0  0  0  0
  -25.0059  -33.9707   25.0407 H   0  0  0  0  0  0
  -22.7157  -31.3026   21.4021 H   0  0  0  0  0  0
  -23.3751  -35.9628   23.3296 H   0  0  0  0  0  0
  -24.3580  -36.8923   22.2055 H   0  0  0  0  0  0
  -23.7238  -37.6497   23.6661 H   0  0  0  0  0  0
  -26.0906  -31.5484   20.6011 H   0  0  0  0  0  0
  -26.8458  -30.8384   21.9977 H   0  0  0  0  0  0
  -28.1211  -28.9811   21.1753 H   0  0  0  0  0  0
  -25.9530  -25.9204   19.0169 H   0  0  0  0  0  0
  -23.9670  -27.2972   19.0288 H   0  0  0  0  0  0
  -23.7544  -30.5895   19.4041 H   0  0  0  0  0  0
  -22.7548  -29.2435   19.8619 H   0  0  0  0  0  0
  -25.1289  -36.1935   25.0824 H   0  0  0  0  0  0
  -20.9966  -28.3259   24.1417 H   0  0  0  0  0  0
  -20.5687  -26.2294   23.3613 H   0  0  0  0  0  0
  -21.6643  -26.7450   22.1201 H   0  0  0  0  0  0
  -19.6913  -25.6295   21.1248 H   0  0  0  0  0  0
  -19.6692  -27.3195   20.6750 H   0  0  0  0  0  0
  -17.4203  -26.6675   21.4026 H   0  0  0  0  0  0
  -18.0322  -26.0068   22.9024 H   0  0  0  0  0  0
  -19.7932  -30.7273   24.2260 H   0  0  0  0  0  0
  -17.5012  -31.6268   24.5159 H   0  0  0  0  0  0
  -15.5347  -30.2983   23.7662 H   0  0  0  0  0  0
  -15.8670  -28.0826   22.7062 H   0  0  0  0  0  0
  -24.5899  -30.7064   25.7770 H   0  0  0  0  0  0
  -24.8911  -32.2880   26.4872 H   0  0  0  0  0  0
  -25.8049  -30.8889   27.0219 H   0  0  0  0  0  0
  -26.2906  -29.6760   24.1190 H   0  0  0  0  0  0
  -27.4034  -29.7254   25.4666 H   0  0  0  0  0  0
  -27.8775  -30.4293   23.9387 H   0  0  0  0  0  0
  -27.2662  -33.3616   26.2066 H   0  0  0  0  0  0
  -28.3867  -32.6872   25.0326 H   0  0  0  0  0  0
  -28.0714  -31.8440   26.5414 H   0  0  0  0  0  0
  -28.2592  -38.0106   24.7515 H   0  0  0  0  0  0
  -28.1078  -36.2635   24.6276 H   0  0  0  0  0  0
  -27.2298  -37.1441   25.8866 H   0  0  0  0  0  0
  -20.9379  -29.8753   21.6885 H   0  0  0  0  0  0
  -26.0170  -38.2857   24.1411 H   0  0  0  0  0  0
  -31.6636  -20.0171   20.8664 H   0  0  0  0  0  0
  -31.8710  -17.5586   20.8086 H   0  0  0  0  0  0
  -27.5897  -17.2454   20.5967 H   0  0  0  0  0  0
  -30.7402  -23.2869   17.1144 H   0  0  0  0  0  0
  -29.1006  -23.8864   17.3147 H   0  0  0  0  0  0
  -30.3422  -25.4683   18.6525 H   0  0  0  0  0  0
  -31.4350  -24.2159   19.2197 H   0  0  0  0  0  0
  -30.3324  -21.4520   18.5102 H   0  0  0  0  0  0
  -28.6332  -21.7554   18.1530 H   0  0  0  0  0  0
  -30.0113  -24.2959   21.0643 H   0  0  0  0  0  0
  -25.3268  -20.4051   21.9015 H   0  0  0  0  0  0
  -26.9242  -20.6586   22.5981 H   0  0  0  0  0  0
  -26.2614  -19.0297   22.4772 H   0  0  0  0  0  0
  -26.3218  -19.1821   19.9725 H   0  0  0  0  0  0
  -26.9483  -20.7945   20.0532 H   0  0  0  0  0  0
  -27.5134  -24.6985   20.8892 H   0  0  0  0  0  0
  -27.6711  -24.7427   19.1518 H   0  0  0  0  0  0
  -28.8170  -15.3216   21.0401 H   0  0  0  0  0  0
  1 25  1  0  0  0
  1 30  2  0  0  0
  1 86  1  0  0  0
  2  3  1  0  0  0
  2 25  1  0  0  0
  2 88  1  0  0  0
  2 89  1  0  0  0
  3  4  1  0  0  0
  3 90  1  0  0  0
  3 91  1  0  0  0
  4  5  1  0  0  0
  4 92  1  0  0  0
  4 93  1  0  0  0
  5  6  1  0  0  0
  5 26  1  0  0  0
  5 94  1  0  0  0
  6 25  1  0  0  0
  6 95  1  0  0  0
  6 96  1  0  0  0
  7  8  2  0  0  0
  7 26  1  0  0  0
  7 29  1  0  0  0
  8  9  1  0  0  0
  8 22  1  0  0  0
  9 10  1  0  0  0
  9 27  2  0  0  0
 10 11  2  0  0  0
 10 15  1  0  0  0
 11 12  1  0  0  0
 11 97  1  0  0  0
 12 13  2  0  0  0
 12 98  1  0  0  0
 13 14  1  0  0  0
 13 31  1  0  0  0
 14 15  2  0  0  0
 14 99  1  0  0  0
 15100  1  0  0  0
 16 17  2  0  0  0
 16 21  1  0  0  0
 16 31  1  0  0  0
 17 18  1  0  0  0
 17101  1  0  0  0
 18 19  2  0  0  0
 18102  1  0  0  0
 19 20  1  0  0  0
 19 24  1  0  0  0
 20 21  2  0  0  0
 20103  1  0  0  0
 21 23  1  0  0  0
 22 28  1  0  0  0
 22 32  2  0  0  0
 26 27  1  0  0  0
 28104  1  0  0  0
 28105  1  0  0  0
 29106  1  0  0  0
 29107  1  0  0  0
 33 34  1  0  0  0
 33 66  1  0  0  0
 33 70  2  0  0  0
 34 36  1  0  0  0
 34 59  1  0  0  0
 34108  1  0  0  0
 35 44  2  0  0  0
 35 45  1  0  0  0
 35 68  1  0  0  0
 36 56  1  0  0  0
 36109  1  0  0  0
 37 39  1  0  0  0
 37 47  1  0  0  0
 37 66  1  0  0  0
 37110  1  0  0  0
 38 43  2  0  0  0
 38 46  1  0  0  0
 38 47  1  0  0  0
 39 64  1  0  0  0
 39 67  2  0  0  0
 40 52  1  0  0  0
 40 53  2  0  0  0
 40 58  1  0  0  0
 41111  1  0  0  0
 41112  1  0  0  0
 41113  1  0  0  0
 41 48  1  0  0  0
 42 43  1  0  0  0
 42 66  1  0  0  0
 42114  1  0  0  0
 42115  1  0  0  0
 43 44  1  0  0  0
 44116  1  0  0  0
 45 46  2  0  0  0
 45117  1  0  0  0
 46118  1  0  0  0
 47119  1  0  0  0
 47120  1  0  0  0
 48 56  1  0  0  0
 48 65  1  0  0  0
 48121  1  0  0  0
 49 50  1  0  0  0
 49 53  1  0  0  0
 49 64  1  0  0  0
 49122  1  0  0  0
 50 51  1  0  0  0
 50123  1  0  0  0
 50124  1  0  0  0
 51 52  1  0  0  0
 51125  1  0  0  0
 51126  1  0  0  0
 52127  1  0  0  0
 52128  1  0  0  0
 53 54  1  0  0  0
 54 55  2  0  0  0
 54129  1  0  0  0
 55 57  1  0  0  0
 55130  1  0  0  0
 56 69  2  0  0  0
 57 58  2  0  0  0
 57131  1  0  0  0
 58132  1  0  0  0
 59 60  1  0  0  0
 59 61  1  0  0  0
 59 62  1  0  0  0
 60133  1  0  0  0
 60134  1  0  0  0
 60135  1  0  0  0
 61136  1  0  0  0
 61137  1  0  0  0
 61138  1  0  0  0
 62139  1  0  0  0
 62140  1  0  0  0
 62141  1  0  0  0
 63 65  1  0  0  0
 63142  1  0  0  0
 63143  1  0  0  0
 63144  1  0  0  0
 64145  1  0  0  0
 65146  1  0  0  0
 68 84  1  0  0  0
 71 72  2  0  0  0
 71 74  1  0  0  0
 71147  1  0  0  0
 72 76  1  0  0  0
 72148  1  0  0  0
 73 75  1  0  0  0
 73 76  2  0  0  0
 73149  1  0  0  0
 74 75  2  0  0  0
 74 77  1  0  0  0
 75 83  1  0  0  0
 76 86  1  0  0  0
 77 85  1  0  0  0
 77 87  2  0  0  0
 78 79  1  0  0  0
 78 80  1  0  0  0
 78150  1  0  0  0
 78151  1  0  0  0
 79 81  1  0  0  0
 79152  1  0  0  0
 79153  1  0  0  0
 80 85  1  0  0  0
 80154  1  0  0  0
 80155  1  0  0  0
 81 84  1  0  0  0
 81 85  1  0  0  0
 81156  1  0  0  0
 82 83  1  0  0  0
 82157  1  0  0  0
 82158  1  0  0  0
 82159  1  0  0  0
 83160  1  0  0  0
 83161  1  0  0  0
 84162  1  0  0  0
 84163  1  0  0  0
 86164  1  0  0  0
M  ISO  4   1 100  68 101  84 101  86 100
M  END
> <chiral flag>
0

> <version>
0

> <s_m_source_file>
/data/baiqing/PycharmProjects/Reinvent-master-3.2/result/LINK_invent/BTK/process_docking_weight1_custom_product_contain_oxygen_bond_distance_aromatic_linkinvent_7_9_3/rearranged_h_0129.sdf

> <i_m_source_file_index>
27

> <r_mmod_Potential_Energy-OPLS-2005>
254.21745300293

> <r_mmod_Stretch_Energy-OPLS-2005>
89.7119979858398

> <r_mmod_Bend_Energy-OPLS-2005>
169.146392822266

> <r_mmod_Torsional_Energy-OPLS-2005>
339.816253662109

> <r_mmod_Improper_Torsional_Energy-OPLS-2005>
7.60047721862793

> <r_mmod_Van_der_Waal_Energy-OPLS-2005>
133.532836914062

> <r_mmod_Electrostatic_Energy-OPLS-2005>
-322.802551269531

> <r_mmod_Solvation_Energy-OPLS-2005>
-218.107025146484

> <b_mmod_Minimization_Converged-OPLS-2005>
0

> <r_mmod_RMS_Derivative-OPLS-2005>
0.870676100254059

$$$$
27
                    3D
 Structure written by MMmdl.
158166  0  0  1  0            999 V2000
  -30.6926  -14.5754   20.4782 C   0  0  0  0  0  0
  -30.4188  -12.3453   19.4542 C   0  0  0  0  0  0
  -29.5055  -12.4964   18.2191 C   0  0  0  0  0  0
  -28.0266  -12.3465   18.6282 C   0  0  0  0  0  0
  -27.6510  -13.2165   19.8586 C   0  0  2  0  0  0
  -28.6963  -13.0906   20.9890 C   0  0  0  0  0  0
  -25.2579  -13.8152   20.5682 C   0  0  0  0  0  0
  -24.1838  -13.0425   20.9180 C   0  0  0  0  0  0
  -24.6382  -11.6892   20.8695 C   0  0  0  0  0  0
  -23.9042  -10.4288   21.0368 C   0  0  0  0  0  0
  -24.3607   -9.4231   21.9172 C   0  0  0  0  0  0
  -23.6296   -8.2255   22.0751 C   0  0  0  0  0  0
  -22.4274   -8.0263   21.3543 C   0  0  0  0  0  0
  -21.9893   -9.0221   20.4622 C   0  0  0  0  0  0
  -22.7201  -10.2114   20.3021 C   0  0  0  0  0  0
  -21.6864   -6.0718   22.5265 C   0  0  0  0  0  0
  -21.4015   -6.5624   23.8202 C   0  0  0  0  0  0
  -21.3676   -5.6782   24.9167 C   0  0  0  0  0  0
  -21.6055   -4.3047   24.7224 C   0  0  0  0  0  0
  -21.8828   -3.8133   23.4343 C   0  0  0  0  0  0
  -21.9201   -4.6944   22.3400 C   0  0  0  0  0  0
  -22.7876  -13.5233   21.1839 C   0  0  0  0  0  0
  -22.1671   -4.2136   21.0973 F   0  0  0  0  0  0
  -21.5639   -3.4530   25.7738 F   0  0  0  0  0  0
  -30.0195  -13.3852   20.4224 N   0  0  0  0  0  0
  -26.2994  -12.9329   20.3298 N   0  0  0  0  0  0
  -25.9316  -11.6481   20.5718 N   0  0  0  0  0  0
  -22.0507  -12.8215   22.0371 N   0  0  0  0  0  0
  -25.4267  -15.1864   20.4089 N   0  0  0  0  0  0
  -31.8835  -14.6311   20.1617 O   0  0  0  0  0  0
  -21.6648   -6.8849   21.4218 O   0  0  0  0  0  0
  -22.3566  -14.5554   20.6684 O   0  0  0  0  0  0
  -24.6250  -31.8654   23.2095 C   0  0  0  0  0  0
  -25.9116  -32.4805   23.8412 C   0  0  1  0  0  0
  -27.2142  -27.3518   20.0985 C   0  0  0  0  0  0
  -25.5951  -33.8605   24.2336 N   0  0  0  0  0  0
  -23.4161  -30.4956   21.5512 C   0  0  2  0  0  0
  -24.8578  -28.9640   20.1073 C   0  0  0  0  0  0
  -22.7469  -29.4677   22.4946 C   0  0  0  0  0  0
  -18.0289  -28.1408   22.8482 C   0  0  0  0  0  0
  -24.1487  -36.7315   23.2635 C   0  0  0  0  0  0
  -25.9560  -30.8017   21.3791 C   0  0  0  0  0  0
  -26.0263  -29.4334   20.7207 C   0  0  0  0  0  0
  -27.2070  -28.6356   20.7174 C   0  0  0  0  0  0
  -26.0256  -26.9511   19.4365 C   0  0  0  0  0  0
  -24.8572  -27.7246   19.4568 C   0  0  0  0  0  0
  -23.6273  -29.8408   20.1620 C   0  0  0  0  0  0
  -25.4111  -36.3107   24.0331 C   0  0  1  0  0  0
  -20.5886  -28.3724   23.1276 C   0  0  2  0  0  0
  -20.6798  -26.9453   22.5404 C   0  0  0  0  0  0
  -19.5767  -26.6399   21.5221 C   0  0  0  0  0  0
  -18.1940  -26.7952   22.1622 C   0  0  0  0  0  0
  -19.1540  -28.8882   23.2874 C   0  0  0  0  0  0
  -18.9463  -30.1476   23.8909 C   0  0  0  0  0  0
  -17.6463  -30.6601   24.0577 C   0  0  0  0  0  0
  -25.9048  -34.9472   23.5128 C   0  0  0  0  0  0
  -16.5356  -29.9108   23.6330 C   0  0  0  0  0  0
  -16.7271  -28.6527   23.0344 C   0  0  0  0  0  0
  -26.4492  -31.6580   25.0760 C   0  0  0  0  0  0
  -25.3725  -31.3676   26.1475 C   0  0  0  0  0  0
  -27.0317  -30.3010   24.6174 C   0  0  0  0  0  0
  -27.6077  -32.4269   25.7541 C   0  0  0  0  0  0
  -27.5578  -37.1824   24.8459 C   0  0  0  0  0  0
  -21.4190  -29.3082   22.3675 N   0  0  0  0  0  0
  -26.4292  -37.3800   23.9401 N   0  0  0  0  0  0
  -24.6845  -31.0696   22.1033 N   0  0  0  0  0  0
  -23.4205  -28.8210   23.3006 O   0  0  0  0  0  0
  -28.3169  -26.4874   20.1668 O   0  0  0  0  0  0
  -26.5598  -34.8921   22.4678 O   0  0  0  0  0  0
  -23.5423  -32.1450   23.7431 O   0  0  0  0  0  0
  -30.6687  -19.5781   20.7667 C   0  0  0  0  0  0
  -30.1291  -20.8910   20.6616 C   0  0  0  0  0  0
  -28.4961  -18.6291   20.3540 C   0  0  0  0  0  0
  -29.8706  -18.4171   20.5971 C   0  0  0  0  0  0
  -28.7593  -21.0995   20.3797 C   0  0  0  0  0  0
  -27.9422  -19.9326   20.2377 C   0  0  0  0  0  0
  -30.4890  -17.0456   20.6213 C   0  0  0  0  0  0
  -29.8945  -15.8147   20.6492 C   0  0  0  0  0  0
  -26.1046  -20.2294   18.4691 C   0  0  0  0  0  0
  -28.1360  -22.5172   20.1892 C   0  0  0  0  0  0
  -26.4437  -20.0137   19.9517 C   0  0  0  0  0  0
  -28.9251  -23.8683   20.3890 C   0  0  0  0  0  0
  -28.0110  -25.0679   19.9365 C   0  0  0  0  0  0
  -31.4671  -12.4202   19.1600 H   0  0  0  0  0  0
  -30.3099  -11.3549   19.8988 H   0  0  0  0  0  0
  -29.7630  -11.7486   17.4665 H   0  0  0  0  0  0
  -29.6692  -13.4685   17.7498 H   0  0  0  0  0  0
  -27.8555  -11.2942   18.8521 H   0  0  0  0  0  0
  -27.3772  -12.5894   17.7875 H   0  0  0  0  0  0
  -27.6560  -14.2461   19.5105 H   0  0  0  0  0  0
  -28.6934  -12.0838   21.4088 H   0  0  0  0  0  0
  -28.4630  -13.7616   21.8171 H   0  0  0  0  0  0
  -25.2740   -9.5730   22.4757 H   0  0  0  0  0  0
  -24.0019   -7.4652   22.7459 H   0  0  0  0  0  0
  -21.0840   -8.8689   19.8913 H   0  0  0  0  0  0
  -22.3631  -10.9651   19.6122 H   0  0  0  0  0  0
  -21.2001   -7.6136   23.9697 H   0  0  0  0  0  0
  -21.1494   -6.0510   25.9067 H   0  0  0  0  0  0
  -22.0598   -2.7597   23.2839 H   0  0  0  0  0  0
  -22.4103  -11.9915   22.4861 H   0  0  0  0  0  0
  -21.1086  -13.1196   22.2477 H   0  0  0  0  0  0
  -24.6596  -15.8395   20.5246 H   0  0  0  0  0  0
  -26.2751  -15.6291   20.0813 H   0  0  0  0  0  0
  -26.7198  -32.5487   23.1179 H   0  0  0  0  0  0
  -25.0123  -33.9742   25.0500 H   0  0  0  0  0  0
  -22.7107  -31.3172   21.4151 H   0  0  0  0  0  0
  -23.3750  -35.9645   23.3293 H   0  0  0  0  0  0
  -24.3596  -36.8944   22.2055 H   0  0  0  0  0  0
  -23.7228  -37.6515   23.6653 H   0  0  0  0  0  0
  -26.0828  -31.5619   20.6078 H   0  0  0  0  0  0
  -26.8409  -30.8528   22.0008 H   0  0  0  0  0  0
  -28.0960  -28.9824   21.2250 H   0  0  0  0  0  0
  -25.9558  -26.0197   18.8968 H   0  0  0  0  0  0
  -23.9677  -27.3661   18.9543 H   0  0  0  0  0  0
  -23.7489  -30.6233   19.4127 H   0  0  0  0  0  0
  -22.7467  -29.2732   19.8555 H   0  0  0  0  0  0
  -25.1285  -36.1984   25.0830 H   0  0  0  0  0  0
  -20.9970  -28.3308   24.1401 H   0  0  0  0  0  0
  -20.5742  -26.2349   23.3612 H   0  0  0  0  0  0
  -21.6662  -26.7529   22.1168 H   0  0  0  0  0  0
  -19.6938  -25.6301   21.1271 H   0  0  0  0  0  0
  -19.6691  -27.3199   20.6743 H   0  0  0  0  0  0
  -17.4218  -26.6704   21.4014 H   0  0  0  0  0  0
  -18.0329  -26.0090   22.9017 H   0  0  0  0  0  0
  -19.7935  -30.7290   24.2288 H   0  0  0  0  0  0
  -17.5016  -31.6279   24.5181 H   0  0  0  0  0  0
  -15.5360  -30.3024   23.7639 H   0  0  0  0  0  0
  -15.8666  -28.0852   22.7052 H   0  0  0  0  0  0
  -24.5939  -30.6984   25.7788 H   0  0  0  0  0  0
  -24.8857  -32.2811   26.4900 H   0  0  0  0  0  0
  -25.8050  -30.8863   27.0256 H   0  0  0  0  0  0
  -26.2873  -29.6777   24.1204 H   0  0  0  0  0  0
  -27.4038  -29.7239   25.4652 H   0  0  0  0  0  0
  -27.8738  -30.4306   23.9371 H   0  0  0  0  0  0
  -27.2730  -33.3575   26.2127 H   0  0  0  0  0  0
  -28.3905  -32.6796   25.0379 H   0  0  0  0  0  0
  -28.0717  -31.8367   26.5454 H   0  0  0  0  0  0
  -28.2588  -38.0129   24.7529 H   0  0  0  0  0  0
  -28.1083  -36.2669   24.6262 H   0  0  0  0  0  0
  -27.2299  -37.1436   25.8860 H   0  0  0  0  0  0
  -20.9378  -29.8827   21.6897 H   0  0  0  0  0  0
  -26.0181  -38.2880   24.1399 H   0  0  0  0  0  0
  -31.7277  -19.4693   20.9571 H   0  0  0  0  0  0
  -30.7919  -21.7377   20.7810 H   0  0  0  0  0  0
  -27.8535  -17.7736   20.2143 H   0  0  0  0  0  0
  -31.5701  -17.0642   20.5586 H   0  0  0  0  0  0
  -28.8230  -15.7600   20.7408 H   0  0  0  0  0  0
  -25.0289  -20.1545   18.3083 H   0  0  0  0  0  0
  -26.5843  -19.4821   17.8362 H   0  0  0  0  0  0
  -26.4094  -21.2118   18.1131 H   0  0  0  0  0  0
  -27.2577  -22.5676   20.8325 H   0  0  0  0  0  0
  -27.7623  -22.5373   19.1677 H   0  0  0  0  0  0
  -25.9694  -20.7789   20.5662 H   0  0  0  0  0  0
  -25.9817  -19.0797   20.2731 H   0  0  0  0  0  0
  -29.8441  -23.8640   19.8056 H   0  0  0  0  0  0
  -29.2103  -23.9857   21.4336 H   0  0  0  0  0  0
  -27.0583  -24.8591   20.4255 H   0  0  0  0  0  0
  -27.8520  -24.9479   18.8637 H   0  0  0  0  0  0
  1 25  1  0  0  0
  1 30  2  0  0  0
  1 78  1  0  0  0
  2  3  1  0  0  0
  2 25  1  0  0  0
  2 84  1  0  0  0
  2 85  1  0  0  0
  3  4  1  0  0  0
  3 86  1  0  0  0
  3 87  1  0  0  0
  4  5  1  0  0  0
  4 88  1  0  0  0
  4 89  1  0  0  0
  5  6  1  0  0  0
  5 26  1  0  0  0
  5 90  1  0  0  0
  6 25  1  0  0  0
  6 91  1  0  0  0
  6 92  1  0  0  0
  7  8  2  0  0  0
  7 26  1  0  0  0
  7 29  1  0  0  0
  8  9  1  0  0  0
  8 22  1  0  0  0
  9 10  1  0  0  0
  9 27  2  0  0  0
 10 11  2  0  0  0
 10 15  1  0  0  0
 11 12  1  0  0  0
 11 93  1  0  0  0
 12 13  2  0  0  0
 12 94  1  0  0  0
 13 14  1  0  0  0
 13 31  1  0  0  0
 14 15  2  0  0  0
 14 95  1  0  0  0
 15 96  1  0  0  0
 16 17  2  0  0  0
 16 21  1  0  0  0
 16 31  1  0  0  0
 17 18  1  0  0  0
 17 97  1  0  0  0
 18 19  2  0  0  0
 18 98  1  0  0  0
 19 20  1  0  0  0
 19 24  1  0  0  0
 20 21  2  0  0  0
 20 99  1  0  0  0
 21 23  1  0  0  0
 22 28  1  0  0  0
 22 32  2  0  0  0
 26 27  1  0  0  0
 28100  1  0  0  0
 28101  1  0  0  0
 29102  1  0  0  0
 29103  1  0  0  0
 33 34  1  0  0  0
 33 66  1  0  0  0
 33 70  2  0  0  0
 34 36  1  0  0  0
 34 59  1  0  0  0
 34104  1  0  0  0
 35 44  2  0  0  0
 35 45  1  0  0  0
 35 68  1  0  0  0
 36 56  1  0  0  0
 36105  1  0  0  0
 37 39  1  0  0  0
 37 47  1  0  0  0
 37 66  1  0  0  0
 37106  1  0  0  0
 38 43  2  0  0  0
 38 46  1  0  0  0
 38 47  1  0  0  0
 39 64  1  0  0  0
 39 67  2  0  0  0
 40 52  1  0  0  0
 40 53  2  0  0  0
 40 58  1  0  0  0
 41107  1  0  0  0
 41108  1  0  0  0
 41109  1  0  0  0
 41 48  1  0  0  0
 42 43  1  0  0  0
 42 66  1  0  0  0
 42110  1  0  0  0
 42111  1  0  0  0
 43 44  1  0  0  0
 44112  1  0  0  0
 45 46  2  0  0  0
 45113  1  0  0  0
 46114  1  0  0  0
 47115  1  0  0  0
 47116  1  0  0  0
 48 56  1  0  0  0
 48 65  1  0  0  0
 48117  1  0  0  0
 49 50  1  0  0  0
 49 53  1  0  0  0
 49 64  1  0  0  0
 49118  1  0  0  0
 50 51  1  0  0  0
 50119  1  0  0  0
 50120  1  0  0  0
 51 52  1  0  0  0
 51121  1  0  0  0
 51122  1  0  0  0
 52123  1  0  0  0
 52124  1  0  0  0
 53 54  1  0  0  0
 54 55  2  0  0  0
 54125  1  0  0  0
 55 57  1  0  0  0
 55126  1  0  0  0
 56 69  2  0  0  0
 57 58  2  0  0  0
 57127  1  0  0  0
 58128  1  0  0  0
 59 60  1  0  0  0
 59 61  1  0  0  0
 59 62  1  0  0  0
 60129  1  0  0  0
 60130  1  0  0  0
 60131  1  0  0  0
 61132  1  0  0  0
 61133  1  0  0  0
 61134  1  0  0  0
 62135  1  0  0  0
 62136  1  0  0  0
 62137  1  0  0  0
 63 65  1  0  0  0
 63138  1  0  0  0
 63139  1  0  0  0
 63140  1  0  0  0
 64141  1  0  0  0
 65142  1  0  0  0
 68 83  1  0  0  0
 71 72  2  0  0  0
 71 74  1  0  0  0
 71143  1  0  0  0
 72 75  1  0  0  0
 72144  1  0  0  0
 73 74  2  0  0  0
 73 76  1  0  0  0
 73145  1  0  0  0
 74 77  1  0  0  0
 75 76  2  0  0  0
 75 80  1  0  0  0
 76 81  1  0  0  0
 77 78  2  0  0  0
 77146  1  0  0  0
 78147  1  0  0  0
 79 81  1  0  0  0
 79148  1  0  0  0
 79149  1  0  0  0
 79150  1  0  0  0
 80 82  1  0  0  0
 80151  1  0  0  0
 80152  1  0  0  0
 81153  1  0  0  0
 81154  1  0  0  0
 82 83  1  0  0  0
 82155  1  0  0  0
 82156  1  0  0  0
 83157  1  0  0  0
 83158  1  0  0  0
M  ISO  4   1 100  68 101  78 100  83 101
M  END
> <chiral flag>
0

> <version>
0

> <s_m_source_file>
/data/baiqing/PycharmProjects/Reinvent-master-3.2/result/LINK_invent/BTK/process_docking_weight1_custom_product_contain_oxygen_bond_distance_aromatic_linkinvent_7_9_3/rearranged_h_0129.sdf

> <i_m_source_file_index>
28

> <r_mmod_Potential_Energy-OPLS-2005>
54.2458839416504

> <r_mmod_Stretch_Energy-OPLS-2005>
61.5522994995117

> <r_mmod_Bend_Energy-OPLS-2005>
134.983062744141

> <r_mmod_Torsional_Energy-OPLS-2005>
185.540557861328

> <r_mmod_Improper_Torsional_Energy-OPLS-2005>
6.9649600982666

> <r_mmod_Van_der_Waal_Energy-OPLS-2005>
161.636459350586

> <r_mmod_Electrostatic_Energy-OPLS-2005>
-346.051513671875

> <r_mmod_Solvation_Energy-OPLS-2005>
-191.285522460938

> <b_mmod_Minimization_Converged-OPLS-2005>
0

> <r_mmod_RMS_Derivative-OPLS-2005>
3.13973689079285

$$$$
28
                    3D
 Structure written by MMmdl.
157165  0  0  1  0            999 V2000
  -30.7720  -14.4012   20.5734 C   0  0  0  0  0  0
  -30.3918  -12.2565   19.4533 C   0  0  0  0  0  0
  -29.4957  -12.5087   18.2246 C   0  0  0  0  0  0
  -28.0138  -12.3782   18.6209 C   0  0  0  0  0  0
  -27.6610  -13.2165   19.8777 C   0  0  2  0  0  0
  -28.6916  -13.0191   21.0097 C   0  0  0  0  0  0
  -25.2579  -13.8178   20.5655 C   0  0  0  0  0  0
  -24.1842  -13.0446   20.9108 C   0  0  0  0  0  0
  -24.6420  -11.6910   20.8723 C   0  0  0  0  0  0
  -23.9096  -10.4287   21.0397 C   0  0  0  0  0  0
  -24.3635   -9.4201   21.9179 C   0  0  0  0  0  0
  -23.6286   -8.2265   22.0793 C   0  0  0  0  0  0
  -22.4294   -8.0286   21.3555 C   0  0  0  0  0  0
  -21.9930   -9.0249   20.4648 C   0  0  0  0  0  0
  -22.7265  -10.2123   20.3047 C   0  0  0  0  0  0
  -21.6860   -6.0721   22.5264 C   0  0  0  0  0  0
  -21.4022   -6.5633   23.8190 C   0  0  0  0  0  0
  -21.3664   -5.6793   24.9157 C   0  0  0  0  0  0
  -21.6053   -4.3056   24.7220 C   0  0  0  0  0  0
  -21.8828   -3.8139   23.4348 C   0  0  0  0  0  0
  -21.9188   -4.6943   22.3392 C   0  0  0  0  0  0
  -22.7857  -13.5217   21.1730 C   0  0  0  0  0  0
  -22.1662   -4.2118   21.0977 F   0  0  0  0  0  0
  -21.5632   -3.4555   25.7740 F   0  0  0  0  0  0
  -30.0363  -13.2625   20.4671 N   0  0  0  0  0  0
  -26.3035  -12.9369   20.3361 N   0  0  0  0  0  0
  -25.9355  -11.6522   20.5770 N   0  0  0  0  0  0
  -22.0518  -12.8250   22.0315 N   0  0  0  0  0  0
  -25.4364  -15.1897   20.4111 N   0  0  0  0  0  0
  -31.9046  -14.4865   20.0897 O   0  0  0  0  0  0
  -21.6668   -6.8880   21.4237 O   0  0  0  0  0  0
  -22.3530  -14.5505   20.6540 O   0  0  0  0  0  0
  -24.6118  -31.8723   23.2143 C   0  0  0  0  0  0
  -25.9026  -32.4831   23.8443 C   0  0  1  0  0  0
  -27.2557  -27.4848   20.0857 C   0  0  0  0  0  0
  -25.5907  -33.8631   24.2377 N   0  0  0  0  0  0
  -23.3975  -30.4947   21.5539 C   0  0  2  0  0  0
  -24.8477  -28.9653   20.1156 C   0  0  0  0  0  0
  -22.7387  -29.4685   22.5030 C   0  0  0  0  0  0
  -18.0268  -28.1401   22.8520 C   0  0  0  0  0  0
  -24.1472  -36.7303   23.2646 C   0  0  0  0  0  0
  -25.9188  -30.8522   21.3587 C   0  0  0  0  0  0
  -25.9976  -29.4856   20.7169 C   0  0  0  0  0  0
  -27.1978  -28.7473   20.7088 C   0  0  0  0  0  0
  -26.0851  -26.9665   19.4782 C   0  0  0  0  0  0
  -24.8844  -27.7024   19.4977 C   0  0  0  0  0  0
  -23.6030  -29.8226   20.1681 C   0  0  0  0  0  0
  -25.4102  -36.3118   24.0338 C   0  0  1  0  0  0
  -20.5861  -28.3700   23.1343 C   0  0  2  0  0  0
  -20.6775  -26.9441   22.5442 C   0  0  0  0  0  0
  -19.5736  -26.6424   21.5253 C   0  0  0  0  0  0
  -18.1906  -26.7963   22.1635 C   0  0  0  0  0  0
  -19.1515  -28.8859   23.2933 C   0  0  0  0  0  0
  -18.9438  -30.1468   23.8949 C   0  0  0  0  0  0
  -17.6428  -30.6610   24.0571 C   0  0  0  0  0  0
  -25.9035  -34.9471   23.5153 C   0  0  0  0  0  0
  -16.5330  -29.9102   23.6314 C   0  0  0  0  0  0
  -16.7255  -28.6516   23.0358 C   0  0  0  0  0  0
  -26.4458  -31.6566   25.0737 C   0  0  0  0  0  0
  -25.3726  -31.3645   26.1486 C   0  0  0  0  0  0
  -27.0278  -30.3023   24.6048 C   0  0  0  0  0  0
  -27.6085  -32.4214   25.7489 C   0  0  0  0  0  0
  -27.5566  -37.1786   24.8465 C   0  0  0  0  0  0
  -21.4130  -29.3066   22.3754 N   0  0  0  0  0  0
  -26.4290  -37.3794   23.9412 N   0  0  0  0  0  0
  -24.6606  -31.0867   22.1019 N   0  0  0  0  0  0
  -23.4185  -28.8214   23.3037 O   0  0  0  0  0  0
  -28.4794  -26.8582   20.0932 O   0  0  0  0  0  0
  -26.5573  -34.8916   22.4702 O   0  0  0  0  0  0
  -23.5321  -32.1458   23.7562 O   0  0  0  0  0  0
  -29.6681  -18.5438   22.0568 C   0  0  0  0  0  0
  -29.4603  -19.9135   22.3322 C   0  0  0  0  0  0
  -29.8235  -20.4321   19.9867 C   0  0  0  0  0  0
  -30.0068  -18.1216   20.7531 C   0  0  0  0  0  0
  -29.5696  -20.8735   21.3039 C   0  0  0  0  0  0
  -30.0325  -19.0732   19.7040 C   0  0  0  0  0  0
  -30.3761  -16.7327   20.4520 C   0  0  0  0  0  0
  -30.1249  -15.5860   21.1193 C   0  0  0  0  0  0
  -29.4982  -24.7522   20.6493 C   0  0  0  0  0  0
  -30.2956  -18.6734   18.2570 C   0  0  0  0  0  0
  -29.4278  -22.3603   21.6242 C   0  0  0  0  0  0
  -29.6471  -23.2637   20.3921 C   0  0  0  0  0  0
  -28.6038  -25.5094   19.6671 C   0  0  0  0  0  0
  -30.0922  -25.3097   21.5799 O   0  0  0  0  0  0
  -31.4468  -12.2809   19.1762 H   0  0  0  0  0  0
  -30.2199  -11.2574   19.8565 H   0  0  0  0  0  0
  -29.7363  -11.8139   17.4191 H   0  0  0  0  0  0
  -29.6821  -13.5083   17.8304 H   0  0  0  0  0  0
  -27.8133  -11.3224   18.8058 H   0  0  0  0  0  0
  -27.3745  -12.6679   17.7883 H   0  0  0  0  0  0
  -27.7059  -14.2646   19.5765 H   0  0  0  0  0  0
  -28.6393  -12.0024   21.4018 H   0  0  0  0  0  0
  -28.4573  -13.6673   21.8516 H   0  0  0  0  0  0
  -25.2792   -9.5655   22.4737 H   0  0  0  0  0  0
  -23.9948   -7.4696   22.7587 H   0  0  0  0  0  0
  -21.0863   -8.8783   19.8957 H   0  0  0  0  0  0
  -22.3742  -10.9661   19.6165 H   0  0  0  0  0  0
  -21.2039   -7.6144   23.9658 H   0  0  0  0  0  0
  -21.1479   -6.0553   25.9047 H   0  0  0  0  0  0
  -22.0602   -2.7595   23.2874 H   0  0  0  0  0  0
  -22.4166  -11.9927   22.4683 H   0  0  0  0  0  0
  -21.1143  -13.1271   22.2518 H   0  0  0  0  0  0
  -24.6872  -15.8618   20.5305 H   0  0  0  0  0  0
  -26.3086  -15.6167   20.1256 H   0  0  0  0  0  0
  -26.7123  -32.5581   23.1249 H   0  0  0  0  0  0
  -25.0053  -33.9798   25.0522 H   0  0  0  0  0  0
  -22.6846  -31.3101   21.4151 H   0  0  0  0  0  0
  -23.3755  -35.9612   23.3268 H   0  0  0  0  0  0
  -24.3553  -36.8959   22.2066 H   0  0  0  0  0  0
  -23.7174  -37.6472   23.6692 H   0  0  0  0  0  0
  -26.0120  -31.6115   20.5814 H   0  0  0  0  0  0
  -26.8140  -30.9226   21.9628 H   0  0  0  0  0  0
  -28.0863  -29.1520   21.1751 H   0  0  0  0  0  0
  -26.0753  -26.0182   18.9631 H   0  0  0  0  0  0
  -24.0018  -27.3013   19.0193 H   0  0  0  0  0  0
  -23.6973  -30.5944   19.4038 H   0  0  0  0  0  0
  -22.7316  -29.2312   19.8835 H   0  0  0  0  0  0
  -25.1267  -36.1994   25.0822 H   0  0  0  0  0  0
  -20.9969  -28.3292   24.1452 H   0  0  0  0  0  0
  -20.5748  -26.2309   23.3641 H   0  0  0  0  0  0
  -21.6636  -26.7526   22.1184 H   0  0  0  0  0  0
  -19.6899  -25.6349   21.1246 H   0  0  0  0  0  0
  -19.6661  -27.3273   20.6814 H   0  0  0  0  0  0
  -17.4205  -26.6782   21.3994 H   0  0  0  0  0  0
  -18.0229  -26.0089   22.8998 H   0  0  0  0  0  0
  -19.7901  -30.7281   24.2369 H   0  0  0  0  0  0
  -17.4971  -31.6298   24.5163 H   0  0  0  0  0  0
  -15.5332  -30.3009   23.7621 H   0  0  0  0  0  0
  -15.8665  -28.0846   22.7052 H   0  0  0  0  0  0
  -24.5884  -30.7024   25.7787 H   0  0  0  0  0  0
  -24.8950  -32.2801   26.4988 H   0  0  0  0  0  0
  -25.8070  -30.8748   27.0213 H   0  0  0  0  0  0
  -26.2807  -29.6755   24.1174 H   0  0  0  0  0  0
  -27.4154  -29.7256   25.4453 H   0  0  0  0  0  0
  -27.8583  -30.4347   23.9111 H   0  0  0  0  0  0
  -27.2803  -33.3541   26.2078 H   0  0  0  0  0  0
  -28.3919  -32.6679   25.0311 H   0  0  0  0  0  0
  -28.0722  -31.8287   26.5386 H   0  0  0  0  0  0
  -28.2604  -38.0070   24.7538 H   0  0  0  0  0  0
  -28.1034  -36.2593   24.6280 H   0  0  0  0  0  0
  -27.2255  -37.1430   25.8861 H   0  0  0  0  0  0
  -20.9316  -29.8769   21.6942 H   0  0  0  0  0  0
  -26.0173  -38.2870   24.1428 H   0  0  0  0  0  0
  -29.6164  -17.8294   22.8637 H   0  0  0  0  0  0
  -29.2484  -20.2247   23.3454 H   0  0  0  0  0  0
  -29.8868  -21.1241   19.1622 H   0  0  0  0  0  0
  -30.9918  -16.6459   19.5672 H   0  0  0  0  0  0
  -29.5159  -15.5599   22.0095 H   0  0  0  0  0  0
  -30.0801  -19.4903   17.5665 H   0  0  0  0  0  0
  -29.6564  -17.8369   17.9713 H   0  0  0  0  0  0
  -31.3364  -18.3809   18.1101 H   0  0  0  0  0  0
  -30.1507  -22.6137   22.4030 H   0  0  0  0  0  0
  -28.4410  -22.5340   22.0566 H   0  0  0  0  0  0
  -30.6434  -23.0987   19.9773 H   0  0  0  0  0  0
  -28.9255  -23.0014   19.6179 H   0  0  0  0  0  0
  -27.6610  -24.9728   19.6123 H   0  0  0  0  0  0
  -29.0618  -25.4882   18.6784 H   0  0  0  0  0  0
  1 25  1  0  0  0
  1 30  2  0  0  0
  1 78  1  0  0  0
  2  3  1  0  0  0
  2 25  1  0  0  0
  2 85  1  0  0  0
  2 86  1  0  0  0
  3  4  1  0  0  0
  3 87  1  0  0  0
  3 88  1  0  0  0
  4  5  1  0  0  0
  4 89  1  0  0  0
  4 90  1  0  0  0
  5  6  1  0  0  0
  5 26  1  0  0  0
  5 91  1  0  0  0
  6 25  1  0  0  0
  6 92  1  0  0  0
  6 93  1  0  0  0
  7  8  2  0  0  0
  7 26  1  0  0  0
  7 29  1  0  0  0
  8  9  1  0  0  0
  8 22  1  0  0  0
  9 10  1  0  0  0
  9 27  2  0  0  0
 10 11  2  0  0  0
 10 15  1  0  0  0
 11 12  1  0  0  0
 11 94  1  0  0  0
 12 13  2  0  0  0
 12 95  1  0  0  0
 13 14  1  0  0  0
 13 31  1  0  0  0
 14 15  2  0  0  0
 14 96  1  0  0  0
 15 97  1  0  0  0
 16 17  2  0  0  0
 16 21  1  0  0  0
 16 31  1  0  0  0
 17 18  1  0  0  0
 17 98  1  0  0  0
 18 19  2  0  0  0
 18 99  1  0  0  0
 19 20  1  0  0  0
 19 24  1  0  0  0
 20 21  2  0  0  0
 20100  1  0  0  0
 21 23  1  0  0  0
 22 28  1  0  0  0
 22 32  2  0  0  0
 26 27  1  0  0  0
 28101  1  0  0  0
 28102  1  0  0  0
 29103  1  0  0  0
 29104  1  0  0  0
 33 34  1  0  0  0
 33 66  1  0  0  0
 33 70  2  0  0  0
 34 36  1  0  0  0
 34 59  1  0  0  0
 34105  1  0  0  0
 35 44  2  0  0  0
 35 45  1  0  0  0
 35 68  1  0  0  0
 36 56  1  0  0  0
 36106  1  0  0  0
 37 39  1  0  0  0
 37 47  1  0  0  0
 37 66  1  0  0  0
 37107  1  0  0  0
 38 43  2  0  0  0
 38 46  1  0  0  0
 38 47  1  0  0  0
 39 64  1  0  0  0
 39 67  2  0  0  0
 40 52  1  0  0  0
 40 53  2  0  0  0
 40 58  1  0  0  0
 41108  1  0  0  0
 41109  1  0  0  0
 41110  1  0  0  0
 41 48  1  0  0  0
 42 43  1  0  0  0
 42 66  1  0  0  0
 42111  1  0  0  0
 42112  1  0  0  0
 43 44  1  0  0  0
 44113  1  0  0  0
 45 46  2  0  0  0
 45114  1  0  0  0
 46115  1  0  0  0
 47116  1  0  0  0
 47117  1  0  0  0
 48 56  1  0  0  0
 48 65  1  0  0  0
 48118  1  0  0  0
 49 50  1  0  0  0
 49 53  1  0  0  0
 49 64  1  0  0  0
 49119  1  0  0  0
 50 51  1  0  0  0
 50120  1  0  0  0
 50121  1  0  0  0
 51 52  1  0  0  0
 51122  1  0  0  0
 51123  1  0  0  0
 52124  1  0  0  0
 52125  1  0  0  0
 53 54  1  0  0  0
 54 55  2  0  0  0
 54126  1  0  0  0
 55 57  1  0  0  0
 55127  1  0  0  0
 56 69  2  0  0  0
 57 58  2  0  0  0
 57128  1  0  0  0
 58129  1  0  0  0
 59 60  1  0  0  0
 59 61  1  0  0  0
 59 62  1  0  0  0
 60130  1  0  0  0
 60131  1  0  0  0
 60132  1  0  0  0
 61133  1  0  0  0
 61134  1  0  0  0
 61135  1  0  0  0
 62136  1  0  0  0
 62137  1  0  0  0
 62138  1  0  0  0
 63 65  1  0  0  0
 63139  1  0  0  0
 63140  1  0  0  0
 63141  1  0  0  0
 64142  1  0  0  0
 65143  1  0  0  0
 68 83  1  0  0  0
 71 72  2  0  0  0
 71 74  1  0  0  0
 71144  1  0  0  0
 72 75  1  0  0  0
 72145  1  0  0  0
 73 75  2  0  0  0
 73 76  1  0  0  0
 73146  1  0  0  0
 74 76  2  0  0  0
 74 77  1  0  0  0
 75 81  1  0  0  0
 76 80  1  0  0  0
 77 78  2  0  0  0
 77147  1  0  0  0
 78148  1  0  0  0
 79 82  1  0  0  0
 79 83  1  0  0  0
 79 84  2  0  0  0
 80149  1  0  0  0
 80150  1  0  0  0
 80151  1  0  0  0
 81 82  1  0  0  0
 81152  1  0  0  0
 81153  1  0  0  0
 82154  1  0  0  0
 82155  1  0  0  0
 83156  1  0  0  0
 83157  1  0  0  0
M  ISO  4   1 100  68 101  78 100  83 101
M  END
> <chiral flag>
0

> <version>
0

> <s_m_source_file>
/data/baiqing/PycharmProjects/Reinvent-master-3.2/result/LINK_invent/BTK/process_docking_weight1_custom_product_contain_oxygen_bond_distance_aromatic_linkinvent_7_9_3/rearranged_h_0129.sdf

> <i_m_source_file_index>
29

> <r_mmod_Potential_Energy-OPLS-2005>
-24.7311096191406

> <r_mmod_Stretch_Energy-OPLS-2005>
31.8371906280518

> <r_mmod_Bend_Energy-OPLS-2005>
110.622520446777

> <r_mmod_Torsional_Energy-OPLS-2005>
188.838317871094

> <r_mmod_Improper_Torsional_Energy-OPLS-2005>
4.14779996871948

> <r_mmod_Van_der_Waal_Energy-OPLS-2005>
175.549667358398

> <r_mmod_Electrostatic_Energy-OPLS-2005>
-338.098480224609

> <r_mmod_Solvation_Energy-OPLS-2005>
-213.494293212891

> <b_mmod_Minimization_Converged-OPLS-2005>
0

> <r_mmod_RMS_Derivative-OPLS-2005>
3.57203674316406

$$$$
29
                    3D
 Structure written by MMmdl.
158166  0  0  1  0            999 V2000
  -30.7014  -14.5135   20.4681 C   0  0  0  0  0  0
  -30.4272  -12.3081   19.4443 C   0  0  0  0  0  0
  -29.5103  -12.4729   18.2154 C   0  0  0  0  0  0
  -28.0295  -12.3387   18.6219 C   0  0  0  0  0  0
  -27.6597  -13.2108   19.8539 C   0  0  2  0  0  0
  -28.7014  -13.0599   20.9864 C   0  0  0  0  0  0
  -25.2604  -13.8165   20.5631 C   0  0  0  0  0  0
  -24.1863  -13.0445   20.9156 C   0  0  0  0  0  0
  -24.6416  -11.6913   20.8698 C   0  0  0  0  0  0
  -23.9079  -10.4304   21.0373 C   0  0  0  0  0  0
  -24.3635   -9.4221   21.9155 C   0  0  0  0  0  0
  -23.6310   -8.2256   22.0733 C   0  0  0  0  0  0
  -22.4287   -8.0293   21.3531 C   0  0  0  0  0  0
  -21.9917   -9.0261   20.4628 C   0  0  0  0  0  0
  -22.7244  -10.2143   20.3030 C   0  0  0  0  0  0
  -21.6862   -6.0749   22.5279 C   0  0  0  0  0  0
  -21.4016   -6.5647   23.8217 C   0  0  0  0  0  0
  -21.3648   -5.6785   24.9167 C   0  0  0  0  0  0
  -21.6052   -4.3053   24.7208 C   0  0  0  0  0  0
  -21.8822   -3.8153   23.4325 C   0  0  0  0  0  0
  -21.9193   -4.6976   22.3390 C   0  0  0  0  0  0
  -22.7886  -13.5244   21.1821 C   0  0  0  0  0  0
  -22.1664   -4.2169   21.0967 F   0  0  0  0  0  0
  -21.5623   -3.4528   25.7714 F   0  0  0  0  0  0
  -30.0324  -13.3308   20.4245 N   0  0  0  0  0  0
  -26.3033  -12.9343   20.3246 N   0  0  0  0  0  0
  -25.9342  -11.6501   20.5701 N   0  0  0  0  0  0
  -22.0512  -12.8252   22.0383 N   0  0  0  0  0  0
  -25.4315  -15.1891   20.4049 N   0  0  0  0  0  0
  -31.8866  -14.6191   20.1462 O   0  0  0  0  0  0
  -21.6641   -6.8899   21.4246 O   0  0  0  0  0  0
  -22.3572  -14.5546   20.6662 O   0  0  0  0  0  0
  -24.6130  -31.8694   23.2089 C   0  0  0  0  0  0
  -25.9018  -32.4848   23.8390 C   0  0  1  0  0  0
  -27.2327  -27.4388   20.0914 C   0  0  0  0  0  0
  -25.5873  -33.8643   24.2322 N   0  0  0  0  0  0
  -23.4011  -30.4906   21.5515 C   0  0  2  0  0  0
  -24.8472  -28.9557   20.1162 C   0  0  0  0  0  0
  -22.7399  -29.4651   22.5006 C   0  0  0  0  0  0
  -18.0260  -28.1339   22.8506 C   0  0  0  0  0  0
  -24.1487  -36.7317   23.2643 C   0  0  0  0  0  0
  -25.9290  -30.8364   21.3607 C   0  0  0  0  0  0
  -26.0086  -29.4708   20.7068 C   0  0  0  0  0  0
  -27.2083  -28.7213   20.6866 C   0  0  0  0  0  0
  -26.0555  -26.9361   19.4992 C   0  0  0  0  0  0
  -24.8654  -27.6876   19.5088 C   0  0  0  0  0  0
  -23.6083  -29.8210   20.1668 C   0  0  0  0  0  0
  -25.4113  -36.3130   24.0340 C   0  0  1  0  0  0
  -20.5852  -28.3627   23.1328 C   0  0  2  0  0  0
  -20.6732  -26.9365   22.5417 C   0  0  0  0  0  0
  -19.5715  -26.6358   21.5203 C   0  0  0  0  0  0
  -18.1901  -26.7892   22.1625 C   0  0  0  0  0  0
  -19.1510  -28.8792   23.2919 C   0  0  0  0  0  0
  -18.9452  -30.1398   23.8929 C   0  0  0  0  0  0
  -17.6459  -30.6568   24.0546 C   0  0  0  0  0  0
  -25.9038  -34.9495   23.5133 C   0  0  0  0  0  0
  -16.5344  -29.9072   23.6310 C   0  0  0  0  0  0
  -16.7252  -28.6466   23.0374 C   0  0  0  0  0  0
  -26.4443  -31.6643   25.0722 C   0  0  0  0  0  0
  -25.3703  -31.3777   26.1479 C   0  0  0  0  0  0
  -27.0275  -30.3092   24.6096 C   0  0  0  0  0  0
  -27.6037  -32.4356   25.7467 C   0  0  0  0  0  0
  -27.5592  -37.1810   24.8466 C   0  0  0  0  0  0
  -21.4127  -29.3017   22.3752 N   0  0  0  0  0  0
  -26.4308  -37.3811   23.9404 N   0  0  0  0  0  0
  -24.6662  -31.0789   22.0998 N   0  0  0  0  0  0
  -23.4180  -28.8183   23.3032 O   0  0  0  0  0  0
  -28.3901  -26.6909   20.0683 O   0  0  0  0  0  0
  -26.5615  -34.8948   22.4710 O   0  0  0  0  0  0
  -23.5320  -32.1442   23.7490 O   0  0  0  0  0  0
  -29.9926  -18.1099   20.4306 C   0  0  0  0  0  0
  -30.3862  -16.7366   18.4634 C   0  0  0  0  0  0
  -30.2059  -19.2920   19.6632 C   0  0  0  0  0  0
  -30.5295  -19.1729   18.2849 C   0  0  0  0  0  0
  -30.1181  -16.8212   19.8491 C   0  0  0  0  0  0
  -30.5873  -17.8940   17.6920 C   0  0  0  0  0  0
  -28.8998  -22.8998   20.6824 C   0  0  0  0  0  0
  -30.8396  -20.3803   17.4076 C   0  0  0  0  0  0
  -30.1469  -20.6646   20.3508 C   0  0  0  0  0  0
  -28.9671  -21.5725   19.9068 C   0  0  0  0  0  0
  -28.8383  -24.2271   19.8944 C   0  0  0  0  0  0
  -28.3139  -25.4191   20.7385 C   0  0  0  0  0  0
  -29.9435  -15.6219   20.6242 N   0  0  0  0  0  0
  -28.8962  -22.8903   21.9169 O   0  0  0  0  0  0
  -30.8517  -17.7671   16.3688 F   0  0  0  0  0  0
  -31.4742  -12.3942   19.1479 H   0  0  0  0  0  0
  -30.3230  -11.3119   19.8781 H   0  0  0  0  0  0
  -29.7638  -11.7242   17.4635 H   0  0  0  0  0  0
  -29.6809  -13.4424   17.7448 H   0  0  0  0  0  0
  -27.8500  -11.2866   18.8455 H   0  0  0  0  0  0
  -27.3840  -12.5815   17.7777 H   0  0  0  0  0  0
  -27.6837  -14.2470   19.5137 H   0  0  0  0  0  0
  -28.6759  -12.0502   21.3990 H   0  0  0  0  0  0
  -28.4739  -13.7343   21.8136 H   0  0  0  0  0  0
  -25.2783   -9.5710   22.4708 H   0  0  0  0  0  0
  -24.0026   -7.4657   22.7453 H   0  0  0  0  0  0
  -21.0843   -8.8780   19.8946 H   0  0  0  0  0  0
  -22.3693  -10.9676   19.6135 H   0  0  0  0  0  0
  -21.2016   -7.6150   23.9732 H   0  0  0  0  0  0
  -21.1463   -6.0500   25.9079 H   0  0  0  0  0  0
  -22.0612   -2.7615   23.2803 H   0  0  0  0  0  0
  -22.4122  -11.9955   22.4842 H   0  0  0  0  0  0
  -21.1114  -13.1273   22.2526 H   0  0  0  0  0  0
  -24.6606  -15.8405   20.5072 H   0  0  0  0  0  0
  -26.2787  -15.6296   20.0699 H   0  0  0  0  0  0
  -26.7094  -32.5559   23.1165 H   0  0  0  0  0  0
  -24.9981  -33.9809   25.0434 H   0  0  0  0  0  0
  -22.6890  -31.3071   21.4130 H   0  0  0  0  0  0
  -23.3762  -35.9642   23.3331 H   0  0  0  0  0  0
  -24.3572  -36.8901   22.2052 H   0  0  0  0  0  0
  -23.7226  -37.6525   23.6638 H   0  0  0  0  0  0
  -26.0373  -31.6042   20.5929 H   0  0  0  0  0  0
  -26.8183  -30.8920   21.9771 H   0  0  0  0  0  0
  -28.1076  -29.1158   21.1387 H   0  0  0  0  0  0
  -26.0584  -25.9629   19.0287 H   0  0  0  0  0  0
  -23.9720  -27.2857   19.0512 H   0  0  0  0  0  0
  -23.7125  -30.5947   19.4050 H   0  0  0  0  0  0
  -22.7325  -29.2385   19.8757 H   0  0  0  0  0  0
  -25.1294  -36.2008   25.0836 H   0  0  0  0  0  0
  -20.9950  -28.3161   24.1446 H   0  0  0  0  0  0
  -20.5573  -26.2237   23.3598 H   0  0  0  0  0  0
  -21.6609  -26.7367   22.1244 H   0  0  0  0  0  0
  -19.6873  -25.6270   21.1210 H   0  0  0  0  0  0
  -19.6654  -27.3172   20.6732 H   0  0  0  0  0  0
  -17.4168  -26.6649   21.4030 H   0  0  0  0  0  0
  -18.0316  -26.0011   22.9001 H   0  0  0  0  0  0
  -19.7933  -30.7185   24.2341 H   0  0  0  0  0  0
  -17.5026  -31.6265   24.5122 H   0  0  0  0  0  0
  -15.5348  -30.2995   23.7608 H   0  0  0  0  0  0
  -15.8647  -28.0775   22.7125 H   0  0  0  0  0  0
  -24.5788  -30.7248   25.7783 H   0  0  0  0  0  0
  -24.9007  -32.2969   26.5000 H   0  0  0  0  0  0
  -25.8013  -30.8835   27.0197 H   0  0  0  0  0  0
  -26.2823  -29.6868   24.1133 H   0  0  0  0  0  0
  -27.4040  -29.7318   25.4550 H   0  0  0  0  0  0
  -27.8653  -30.4431   23.9251 H   0  0  0  0  0  0
  -27.2669  -33.3635   26.2108 H   0  0  0  0  0  0
  -28.3802  -32.6965   25.0259 H   0  0  0  0  0  0
  -28.0769  -31.8451   26.5326 H   0  0  0  0  0  0
  -28.2628  -38.0093   24.7528 H   0  0  0  0  0  0
  -28.1074  -36.2633   24.6285 H   0  0  0  0  0  0
  -27.2311  -37.1450   25.8868 H   0  0  0  0  0  0
  -20.9262  -29.8802   21.7048 H   0  0  0  0  0  0
  -26.0211  -38.2899   24.1401 H   0  0  0  0  0  0
  -29.7699  -18.1925   21.4861 H   0  0  0  0  0  0
  -30.4573  -15.7794   17.9689 H   0  0  0  0  0  0
  -31.3231  -21.1870   17.9548 H   0  0  0  0  0  0
  -29.9329  -20.7640   16.9400 H   0  0  0  0  0  0
  -31.5221  -20.1039   16.6028 H   0  0  0  0  0  0
  -31.0925  -21.1837   20.1828 H   0  0  0  0  0  0
  -30.1097  -20.5077   21.4290 H   0  0  0  0  0  0
  -29.0086  -21.7875   18.8405 H   0  0  0  0  0  0
  -28.0270  -21.0483   20.0760 H   0  0  0  0  0  0
  -28.2181  -24.0891   19.0095 H   0  0  0  0  0  0
  -29.8450  -24.4465   19.5382 H   0  0  0  0  0  0
  -28.9143  -25.5166   21.6438 H   0  0  0  0  0  0
  -27.3028  -25.1919   21.0817 H   0  0  0  0  0  0
  -29.0421  -15.4972   21.0610 H   0  0  0  0  0  0
  1 25  1  0  0  0
  1 30  2  0  0  0
  1 83  1  0  0  0
  2  3  1  0  0  0
  2 25  1  0  0  0
  2 86  1  0  0  0
  2 87  1  0  0  0
  3  4  1  0  0  0
  3 88  1  0  0  0
  3 89  1  0  0  0
  4  5  1  0  0  0
  4 90  1  0  0  0
  4 91  1  0  0  0
  5  6  1  0  0  0
  5 26  1  0  0  0
  5 92  1  0  0  0
  6 25  1  0  0  0
  6 93  1  0  0  0
  6 94  1  0  0  0
  7  8  2  0  0  0
  7 26  1  0  0  0
  7 29  1  0  0  0
  8  9  1  0  0  0
  8 22  1  0  0  0
  9 10  1  0  0  0
  9 27  2  0  0  0
 10 11  2  0  0  0
 10 15  1  0  0  0
 11 12  1  0  0  0
 11 95  1  0  0  0
 12 13  2  0  0  0
 12 96  1  0  0  0
 13 14  1  0  0  0
 13 31  1  0  0  0
 14 15  2  0  0  0
 14 97  1  0  0  0
 15 98  1  0  0  0
 16 17  2  0  0  0
 16 21  1  0  0  0
 16 31  1  0  0  0
 17 18  1  0  0  0
 17 99  1  0  0  0
 18 19  2  0  0  0
 18100  1  0  0  0
 19 20  1  0  0  0
 19 24  1  0  0  0
 20 21  2  0  0  0
 20101  1  0  0  0
 21 23  1  0  0  0
 22 28  1  0  0  0
 22 32  2  0  0  0
 26 27  1  0  0  0
 28102  1  0  0  0
 28103  1  0  0  0
 29104  1  0  0  0
 29105  1  0  0  0
 33 34  1  0  0  0
 33 66  1  0  0  0
 33 70  2  0  0  0
 34 36  1  0  0  0
 34 59  1  0  0  0
 34106  1  0  0  0
 35 44  2  0  0  0
 35 45  1  0  0  0
 35 68  1  0  0  0
 36 56  1  0  0  0
 36107  1  0  0  0
 37 39  1  0  0  0
 37 47  1  0  0  0
 37 66  1  0  0  0
 37108  1  0  0  0
 38 43  2  0  0  0
 38 46  1  0  0  0
 38 47  1  0  0  0
 39 64  1  0  0  0
 39 67  2  0  0  0
 40 52  1  0  0  0
 40 53  2  0  0  0
 40 58  1  0  0  0
 41109  1  0  0  0
 41110  1  0  0  0
 41111  1  0  0  0
 41 48  1  0  0  0
 42 43  1  0  0  0
 42 66  1  0  0  0
 42112  1  0  0  0
 42113  1  0  0  0
 43 44  1  0  0  0
 44114  1  0  0  0
 45 46  2  0  0  0
 45115  1  0  0  0
 46116  1  0  0  0
 47117  1  0  0  0
 47118  1  0  0  0
 48 56  1  0  0  0
 48 65  1  0  0  0
 48119  1  0  0  0
 49 50  1  0  0  0
 49 53  1  0  0  0
 49 64  1  0  0  0
 49120  1  0  0  0
 50 51  1  0  0  0
 50121  1  0  0  0
 50122  1  0  0  0
 51 52  1  0  0  0
 51123  1  0  0  0
 51124  1  0  0  0
 52125  1  0  0  0
 52126  1  0  0  0
 53 54  1  0  0  0
 54 55  2  0  0  0
 54127  1  0  0  0
 55 57  1  0  0  0
 55128  1  0  0  0
 56 69  2  0  0  0
 57 58  2  0  0  0
 57129  1  0  0  0
 58130  1  0  0  0
 59 60  1  0  0  0
 59 61  1  0  0  0
 59 62  1  0  0  0
 60131  1  0  0  0
 60132  1  0  0  0
 60133  1  0  0  0
 61134  1  0  0  0
 61135  1  0  0  0
 61136  1  0  0  0
 62137  1  0  0  0
 62138  1  0  0  0
 62139  1  0  0  0
 63 65  1  0  0  0
 63140  1  0  0  0
 63141  1  0  0  0
 63142  1  0  0  0
 64143  1  0  0  0
 65144  1  0  0  0
 68 82  1  0  0  0
 71 73  2  0  0  0
 71 75  1  0  0  0
 71145  1  0  0  0
 72 75  2  0  0  0
 72 76  1  0  0  0
 72146  1  0  0  0
 73 74  1  0  0  0
 73 79  1  0  0  0
 74 76  2  0  0  0
 74 78  1  0  0  0
 75 83  1  0  0  0
 76 85  1  0  0  0
 77 80  1  0  0  0
 77 81  1  0  0  0
 77 84  2  0  0  0
 78147  1  0  0  0
 78148  1  0  0  0
 78149  1  0  0  0
 79 80  1  0  0  0
 79150  1  0  0  0
 79151  1  0  0  0
 80152  1  0  0  0
 80153  1  0  0  0
 81 82  1  0  0  0
 81154  1  0  0  0
 81155  1  0  0  0
 82156  1  0  0  0
 82157  1  0  0  0
 83158  1  0  0  0
M  ISO  4   1 100  68 101  82 101  83 100
M  END
> <chiral flag>
0

> <version>
0

> <s_m_source_file>
/data/baiqing/PycharmProjects/Reinvent-master-3.2/result/LINK_invent/BTK/process_docking_weight1_custom_product_contain_oxygen_bond_distance_aromatic_linkinvent_7_9_3/rearranged_h_0129.sdf

> <i_m_source_file_index>
30

> <r_mmod_Potential_Energy-OPLS-2005>
-30.2849903106689

> <r_mmod_Stretch_Energy-OPLS-2005>
39.997444152832

> <r_mmod_Bend_Energy-OPLS-2005>
90.0129470825195

> <r_mmod_Torsional_Energy-OPLS-2005>
266.22998046875

> <r_mmod_Improper_Torsional_Energy-OPLS-2005>
7.48945379257202

> <r_mmod_Van_der_Waal_Energy-OPLS-2005>
151.180862426758

> <r_mmod_Electrostatic_Energy-OPLS-2005>
-388.891967773438

> <r_mmod_Solvation_Energy-OPLS-2005>
-217.059783935547

> <b_mmod_Minimization_Converged-OPLS-2005>
0

> <r_mmod_RMS_Derivative-OPLS-2005>
2.36254954338074

$$$$
30
                    3D
 Structure written by MMmdl.
161169  0  0  1  0            999 V2000
  -30.7658  -14.4197   20.5587 C   0  0  0  0  0  0
  -30.3921  -12.2633   19.4489 C   0  0  0  0  0  0
  -29.4982  -12.5030   18.2162 C   0  0  0  0  0  0
  -28.0141  -12.3791   18.6120 C   0  0  0  0  0  0
  -27.6583  -13.2194   19.8715 C   0  0  2  0  0  0
  -28.6924  -13.0134   21.0016 C   0  0  0  0  0  0
  -25.2569  -13.8191   20.5682 C   0  0  0  0  0  0
  -24.1831  -13.0447   20.9166 C   0  0  0  0  0  0
  -24.6410  -11.6920   20.8722 C   0  0  0  0  0  0
  -23.9084  -10.4297   21.0386 C   0  0  0  0  0  0
  -24.3631   -9.4216   21.9166 C   0  0  0  0  0  0
  -23.6310   -8.2247   22.0749 C   0  0  0  0  0  0
  -22.4286   -8.0283   21.3551 C   0  0  0  0  0  0
  -21.9924   -9.0249   20.4639 C   0  0  0  0  0  0
  -22.7256  -10.2128   20.3036 C   0  0  0  0  0  0
  -21.6856   -6.0751   22.5292 C   0  0  0  0  0  0
  -21.4019   -6.5650   23.8229 C   0  0  0  0  0  0
  -21.3657   -5.6797   24.9179 C   0  0  0  0  0  0
  -21.6035   -4.3057   24.7219 C   0  0  0  0  0  0
  -21.8818   -3.8157   23.4346 C   0  0  0  0  0  0
  -21.9193   -4.6983   22.3413 C   0  0  0  0  0  0
  -22.7845  -13.5229   21.1818 C   0  0  0  0  0  0
  -22.1654   -4.2168   21.0987 F   0  0  0  0  0  0
  -21.5629   -3.4541   25.7733 F   0  0  0  0  0  0
  -30.0315  -13.2754   20.4575 N   0  0  0  0  0  0
  -26.3008  -12.9391   20.3323 N   0  0  0  0  0  0
  -25.9336  -11.6535   20.5731 N   0  0  0  0  0  0
  -22.0481  -12.8233   22.0381 N   0  0  0  0  0  0
  -25.4306  -15.1907   20.4121 N   0  0  0  0  0  0
  -31.8937  -14.4913   20.0649 O   0  0  0  0  0  0
  -21.6643   -6.8889   21.4249 O   0  0  0  0  0  0
  -22.3535  -14.5534   20.6664 O   0  0  0  0  0  0
  -24.6128  -31.8683   23.2151 C   0  0  0  0  0  0
  -25.9047  -32.4813   23.8422 C   0  0  1  0  0  0
  -27.2194  -27.4497   20.1095 C   0  0  0  0  0  0
  -25.5924  -33.8612   24.2360 N   0  0  0  0  0  0
  -23.3974  -30.4980   21.5520 C   0  0  2  0  0  0
  -24.8436  -28.9763   20.1067 C   0  0  0  0  0  0
  -22.7396  -29.4659   22.4968 C   0  0  0  0  0  0
  -18.0268  -28.1389   22.8485 C   0  0  0  0  0  0
  -24.1495  -36.7331   23.2630 C   0  0  0  0  0  0
  -25.9242  -30.8481   21.3597 C   0  0  0  0  0  0
  -26.0037  -29.4856   20.7048 C   0  0  0  0  0  0
  -27.1983  -28.7319   20.6995 C   0  0  0  0  0  0
  -26.0477  -26.9642   19.4813 C   0  0  0  0  0  0
  -24.8613  -27.7160   19.4879 C   0  0  0  0  0  0
  -23.6037  -29.8383   20.1622 C   0  0  0  0  0  0
  -25.4109  -36.3105   24.0332 C   0  0  1  0  0  0
  -20.5860  -28.3658   23.1326 C   0  0  2  0  0  0
  -20.6756  -26.9387   22.5426 C   0  0  0  0  0  0
  -19.5736  -26.6370   21.5221 C   0  0  0  0  0  0
  -18.1908  -26.7938   22.1614 C   0  0  0  0  0  0
  -19.1519  -28.8841   23.2904 C   0  0  0  0  0  0
  -18.9447  -30.1458   23.8894 C   0  0  0  0  0  0
  -17.6449  -30.6587   24.0560 C   0  0  0  0  0  0
  -25.9025  -34.9462   23.5131 C   0  0  0  0  0  0
  -16.5340  -29.9092   23.6321 C   0  0  0  0  0  0
  -16.7259  -28.6523   23.0323 C   0  0  0  0  0  0
  -26.4497  -31.6580   25.0732 C   0  0  0  0  0  0
  -25.3808  -31.3672   26.1518 C   0  0  0  0  0  0
  -27.0320  -30.3032   24.6066 C   0  0  0  0  0  0
  -27.6082  -32.4275   25.7507 C   0  0  0  0  0  0
  -27.5583  -37.1828   24.8451 C   0  0  0  0  0  0
  -21.4122  -29.3051   22.3750 N   0  0  0  0  0  0
  -26.4294  -37.3795   23.9394 N   0  0  0  0  0  0
  -24.6635  -31.0836   22.1019 N   0  0  0  0  0  0
  -23.4200  -28.8151   23.2941 O   0  0  0  0  0  0
  -28.3607  -26.6824   20.1895 O   0  0  0  0  0  0
  -26.5548  -34.8903   22.4668 O   0  0  0  0  0  0
  -23.5336  -32.1405   23.7588 O   0  0  0  0  0  0
  -29.3984  -18.5245   22.1443 C   0  0  0  0  0  0
  -29.2567  -19.8753   22.5304 C   0  0  0  0  0  0
  -31.0233  -19.2020   20.4716 C   0  0  0  0  0  0
  -30.2953  -18.1785   21.1131 C   0  0  0  0  0  0
  -30.0124  -20.8946   21.9002 C   0  0  0  0  0  0
  -30.9010  -20.5500   20.8525 C   0  0  0  0  0  0
  -30.5912  -16.8009   20.6880 C   0  0  0  0  0  0
  -30.1521  -15.6073   21.1552 C   0  0  0  0  0  0
  -33.1706  -21.6834   20.7008 C   0  0  0  0  0  0
  -29.8518  -22.3433   22.3434 C   0  0  0  0  0  0
  -31.7551  -21.5791   20.1189 C   0  0  0  0  0  0
  -28.8728  -23.1086   21.4362 C   0  0  0  0  0  0
  -29.1702  -24.6143   21.2904 C   0  0  0  0  0  0
  -28.1187  -25.2836   20.3947 C   0  0  0  0  0  0
  -31.4468  -12.2837   19.1693 H   0  0  0  0  0  0
  -30.2224  -11.2614   19.8470 H   0  0  0  0  0  0
  -29.7413  -11.7862   17.4295 H   0  0  0  0  0  0
  -29.6924  -13.4929   17.8002 H   0  0  0  0  0  0
  -27.8137  -11.3253   18.7997 H   0  0  0  0  0  0
  -27.3755  -12.6633   17.7750 H   0  0  0  0  0  0
  -27.6996  -14.2668   19.5746 H   0  0  0  0  0  0
  -28.6472  -11.9855   21.3653 H   0  0  0  0  0  0
  -28.4572  -13.6351   21.8640 H   0  0  0  0  0  0
  -25.2774   -9.5704   22.4740 H   0  0  0  0  0  0
  -24.0024   -7.4651   22.7471 H   0  0  0  0  0  0
  -21.0857   -8.8753   19.8952 H   0  0  0  0  0  0
  -22.3701  -10.9655   19.6140 H   0  0  0  0  0  0
  -21.2011   -7.6160   23.9748 H   0  0  0  0  0  0
  -21.1476   -6.0516   25.9087 H   0  0  0  0  0  0
  -22.0603   -2.7624   23.2838 H   0  0  0  0  0  0
  -22.4063  -11.9892   22.4796 H   0  0  0  0  0  0
  -21.1101  -13.1273   22.2551 H   0  0  0  0  0  0
  -24.6741  -15.8557   20.5294 H   0  0  0  0  0  0
  -26.2988  -15.6266   20.1260 H   0  0  0  0  0  0
  -26.7116  -32.5546   23.1192 H   0  0  0  0  0  0
  -25.0192  -33.9770   25.0585 H   0  0  0  0  0  0
  -22.6862  -31.3161   21.4191 H   0  0  0  0  0  0
  -23.3736  -35.9685   23.3280 H   0  0  0  0  0  0
  -24.3600  -36.8957   22.2046 H   0  0  0  0  0  0
  -23.7269  -37.6543   23.6653 H   0  0  0  0  0  0
  -26.0268  -31.6189   20.5944 H   0  0  0  0  0  0
  -26.8163  -30.9046   21.9715 H   0  0  0  0  0  0
  -28.0907  -29.1132   21.1777 H   0  0  0  0  0  0
  -26.0331  -25.9972   18.9978 H   0  0  0  0  0  0
  -23.9732  -27.3219   19.0146 H   0  0  0  0  0  0
  -23.7067  -30.6175   19.4057 H   0  0  0  0  0  0
  -22.7284  -29.2590   19.8628 H   0  0  0  0  0  0
  -25.1288  -36.1969   25.0829 H   0  0  0  0  0  0
  -20.9955  -28.3209   24.1442 H   0  0  0  0  0  0
  -20.5654  -26.2245   23.3603 H   0  0  0  0  0  0
  -21.6622  -26.7429   22.1201 H   0  0  0  0  0  0
  -19.6863  -25.6274   21.1254 H   0  0  0  0  0  0
  -19.6692  -27.3173   20.6749 H   0  0  0  0  0  0
  -17.4181  -26.6712   21.4008 H   0  0  0  0  0  0
  -18.0279  -26.0091   22.9012 H   0  0  0  0  0  0
  -19.7931  -30.7290   24.2228 H   0  0  0  0  0  0
  -17.5007  -31.6268   24.5169 H   0  0  0  0  0  0
  -15.5341  -30.2993   23.7660 H   0  0  0  0  0  0
  -15.8660  -28.0866   22.6994 H   0  0  0  0  0  0
  -24.5945  -30.7041   25.7890 H   0  0  0  0  0  0
  -24.9059  -32.2832   26.5051 H   0  0  0  0  0  0
  -25.8224  -30.8794   27.0223 H   0  0  0  0  0  0
  -26.2837  -29.6775   24.1184 H   0  0  0  0  0  0
  -27.4181  -29.7280   25.4496 H   0  0  0  0  0  0
  -27.8639  -30.4360   23.9141 H   0  0  0  0  0  0
  -27.2718  -33.3577   26.2103 H   0  0  0  0  0  0
  -28.3931  -32.6811   25.0365 H   0  0  0  0  0  0
  -28.0705  -31.8363   26.5429 H   0  0  0  0  0  0
  -28.2583  -38.0140   24.7501 H   0  0  0  0  0  0
  -28.1100  -36.2672   24.6279 H   0  0  0  0  0  0
  -27.2292  -37.1459   25.8850 H   0  0  0  0  0  0
  -20.9227  -29.8904   21.7125 H   0  0  0  0  0  0
  -26.0173  -38.2862   24.1422 H   0  0  0  0  0  0
  -28.8282  -17.7595   22.6531 H   0  0  0  0  0  0
  -28.5698  -20.1243   23.3279 H   0  0  0  0  0  0
  -31.7202  -18.9509   19.6840 H   0  0  0  0  0  0
  -31.2985  -16.7792   19.8690 H   0  0  0  0  0  0
  -29.4219  -15.5475   21.9466 H   0  0  0  0  0  0
  -33.7671  -22.4072   20.1447 H   0  0  0  0  0  0
  -33.6866  -20.7244   20.6503 H   0  0  0  0  0  0
  -33.1520  -21.9975   21.7448 H   0  0  0  0  0  0
  -30.8312  -22.8223   22.3501 H   0  0  0  0  0  0
  -29.5112  -22.3801   23.3786 H   0  0  0  0  0  0
  -31.2828  -22.5605   20.1127 H   0  0  0  0  0  0
  -31.8196  -21.2943   19.0686 H   0  0  0  0  0  0
  -27.8546  -22.9448   21.7932 H   0  0  0  0  0  0
  -28.9027  -22.6772   20.4350 H   0  0  0  0  0  0
  -30.1626  -24.7572   20.8617 H   0  0  0  0  0  0
  -29.1783  -25.0905   22.2715 H   0  0  0  0  0  0
  -27.1558  -25.1184   20.8850 H   0  0  0  0  0  0
  -28.0741  -24.7852   19.4271 H   0  0  0  0  0  0
  1 25  1  0  0  0
  1 30  2  0  0  0
  1 78  1  0  0  0
  2  3  1  0  0  0
  2 25  1  0  0  0
  2 85  1  0  0  0
  2 86  1  0  0  0
  3  4  1  0  0  0
  3 87  1  0  0  0
  3 88  1  0  0  0
  4  5  1  0  0  0
  4 89  1  0  0  0
  4 90  1  0  0  0
  5  6  1  0  0  0
  5 26  1  0  0  0
  5 91  1  0  0  0
  6 25  1  0  0  0
  6 92  1  0  0  0
  6 93  1  0  0  0
  7  8  2  0  0  0
  7 26  1  0  0  0
  7 29  1  0  0  0
  8  9  1  0  0  0
  8 22  1  0  0  0
  9 10  1  0  0  0
  9 27  2  0  0  0
 10 11  2  0  0  0
 10 15  1  0  0  0
 11 12  1  0  0  0
 11 94  1  0  0  0
 12 13  2  0  0  0
 12 95  1  0  0  0
 13 14  1  0  0  0
 13 31  1  0  0  0
 14 15  2  0  0  0
 14 96  1  0  0  0
 15 97  1  0  0  0
 16 17  2  0  0  0
 16 21  1  0  0  0
 16 31  1  0  0  0
 17 18  1  0  0  0
 17 98  1  0  0  0
 18 19  2  0  0  0
 18 99  1  0  0  0
 19 20  1  0  0  0
 19 24  1  0  0  0
 20 21  2  0  0  0
 20100  1  0  0  0
 21 23  1  0  0  0
 22 28  1  0  0  0
 22 32  2  0  0  0
 26 27  1  0  0  0
 28101  1  0  0  0
 28102  1  0  0  0
 29103  1  0  0  0
 29104  1  0  0  0
 33 34  1  0  0  0
 33 66  1  0  0  0
 33 70  2  0  0  0
 34 36  1  0  0  0
 34 59  1  0  0  0
 34105  1  0  0  0
 35 44  2  0  0  0
 35 45  1  0  0  0
 35 68  1  0  0  0
 36 56  1  0  0  0
 36106  1  0  0  0
 37 39  1  0  0  0
 37 47  1  0  0  0
 37 66  1  0  0  0
 37107  1  0  0  0
 38 43  2  0  0  0
 38 46  1  0  0  0
 38 47  1  0  0  0
 39 64  1  0  0  0
 39 67  2  0  0  0
 40 52  1  0  0  0
 40 53  2  0  0  0
 40 58  1  0  0  0
 41108  1  0  0  0
 41109  1  0  0  0
 41110  1  0  0  0
 41 48  1  0  0  0
 42 43  1  0  0  0
 42 66  1  0  0  0
 42111  1  0  0  0
 42112  1  0  0  0
 43 44  1  0  0  0
 44113  1  0  0  0
 45 46  2  0  0  0
 45114  1  0  0  0
 46115  1  0  0  0
 47116  1  0  0  0
 47117  1  0  0  0
 48 56  1  0  0  0
 48 65  1  0  0  0
 48118  1  0  0  0
 49 50  1  0  0  0
 49 53  1  0  0  0
 49 64  1  0  0  0
 49119  1  0  0  0
 50 51  1  0  0  0
 50120  1  0  0  0
 50121  1  0  0  0
 51 52  1  0  0  0
 51122  1  0  0  0
 51123  1  0  0  0
 52124  1  0  0  0
 52125  1  0  0  0
 53 54  1  0  0  0
 54 55  2  0  0  0
 54126  1  0  0  0
 55 57  1  0  0  0
 55127  1  0  0  0
 56 69  2  0  0  0
 57 58  2  0  0  0
 57128  1  0  0  0
 58129  1  0  0  0
 59 60  1  0  0  0
 59 61  1  0  0  0
 59 62  1  0  0  0
 60130  1  0  0  0
 60131  1  0  0  0
 60132  1  0  0  0
 61133  1  0  0  0
 61134  1  0  0  0
 61135  1  0  0  0
 62136  1  0  0  0
 62137  1  0  0  0
 62138  1  0  0  0
 63 65  1  0  0  0
 63139  1  0  0  0
 63140  1  0  0  0
 63141  1  0  0  0
 64142  1  0  0  0
 65143  1  0  0  0
 68 84  1  0  0  0
 71 72  2  0  0  0
 71 74  1  0  0  0
 71144  1  0  0  0
 72 75  1  0  0  0
 72145  1  0  0  0
 73 74  2  0  0  0
 73 76  1  0  0  0
 73146  1  0  0  0
 74 77  1  0  0  0
 75 76  2  0  0  0
 75 80  1  0  0  0
 76 81  1  0  0  0
 77 78  2  0  0  0
 77147  1  0  0  0
 78148  1  0  0  0
 79 81  1  0  0  0
 79149  1  0  0  0
 79150  1  0  0  0
 79151  1  0  0  0
 80 82  1  0  0  0
 80152  1  0  0  0
 80153  1  0  0  0
 81154  1  0  0  0
 81155  1  0  0  0
 82 83  1  0  0  0
 82156  1  0  0  0
 82157  1  0  0  0
 83 84  1  0  0  0
 83158  1  0  0  0
 83159  1  0  0  0
 84160  1  0  0  0
 84161  1  0  0  0
M  ISO  4   1 100  68 101  78 100  84 101
M  END
> <chiral flag>
0

> <version>
0

> <s_m_source_file>
/data/baiqing/PycharmProjects/Reinvent-master-3.2/result/LINK_invent/BTK/process_docking_weight1_custom_product_contain_oxygen_bond_distance_aromatic_linkinvent_7_9_3/rearranged_h_0129.sdf

> <i_m_source_file_index>
31

> <r_mmod_Potential_Energy-OPLS-2005>
-14.8150329589844

> <r_mmod_Stretch_Energy-OPLS-2005>
34.5725135803223

> <r_mmod_Bend_Energy-OPLS-2005>
105.347259521484

> <r_mmod_Torsional_Energy-OPLS-2005>
190.213989257812

> <r_mmod_Improper_Torsional_Energy-OPLS-2005>
3.05623650550842

> <r_mmod_Van_der_Waal_Energy-OPLS-2005>
167.387115478516

> <r_mmod_Electrostatic_Energy-OPLS-2005>
-347.4501953125

> <r_mmod_Solvation_Energy-OPLS-2005>
-185.630081176758

> <b_mmod_Minimization_Converged-OPLS-2005>
0

> <r_mmod_RMS_Derivative-OPLS-2005>
2.44661474227905

$$$$
31
                    3D
 Structure written by MMmdl.
155163  0  0  1  0            999 V2000
  -30.6368  -14.6369   20.6076 C   0  0  0  0  0  0
  -30.4372  -12.4263   19.4341 C   0  0  0  0  0  0
  -29.5008  -12.5487   18.2121 C   0  0  0  0  0  0
  -28.0257  -12.3685   18.6217 C   0  0  0  0  0  0
  -27.6556  -13.2151   19.8684 C   0  0  2  0  0  0
  -28.6976  -13.0316   20.9913 C   0  0  0  0  0  0
  -25.2580  -13.8152   20.5679 C   0  0  0  0  0  0
  -24.1833  -13.0414   20.9159 C   0  0  0  0  0  0
  -24.6403  -11.6890   20.8712 C   0  0  0  0  0  0
  -23.9065  -10.4277   21.0403 C   0  0  0  0  0  0
  -24.3616   -9.4200   21.9183 C   0  0  0  0  0  0
  -23.6287   -8.2239   22.0764 C   0  0  0  0  0  0
  -22.4272   -8.0276   21.3555 C   0  0  0  0  0  0
  -21.9906   -9.0246   20.4653 C   0  0  0  0  0  0
  -22.7230  -10.2123   20.3055 C   0  0  0  0  0  0
  -21.6856   -6.0726   22.5279 C   0  0  0  0  0  0
  -21.4018   -6.5636   23.8209 C   0  0  0  0  0  0
  -21.3660   -5.6800   24.9180 C   0  0  0  0  0  0
  -21.6039   -4.3062   24.7237 C   0  0  0  0  0  0
  -21.8818   -3.8146   23.4357 C   0  0  0  0  0  0
  -21.9194   -4.6955   22.3408 C   0  0  0  0  0  0
  -22.7862  -13.5221   21.1828 C   0  0  0  0  0  0
  -22.1659   -4.2133   21.0990 F   0  0  0  0  0  0
  -21.5633   -3.4543   25.7753 F   0  0  0  0  0  0
  -30.0151  -13.4159   20.4500 N   0  0  0  0  0  0
  -26.3003  -12.9327   20.3329 N   0  0  0  0  0  0
  -25.9327  -11.6473   20.5721 N   0  0  0  0  0  0
  -22.0501  -12.8219   22.0392 N   0  0  0  0  0  0
  -25.4306  -15.1870   20.4141 N   0  0  0  0  0  0
  -31.6945  -14.8821   20.0200 O   0  0  0  0  0  0
  -21.6644   -6.8864   21.4241 O   0  0  0  0  0  0
  -22.3541  -14.5517   20.6673 O   0  0  0  0  0  0
  -24.6242  -31.8579   23.2003 C   0  0  0  0  0  0
  -25.9098  -32.4758   23.8331 C   0  0  1  0  0  0
  -27.2394  -27.3279   20.1329 C   0  0  0  0  0  0
  -25.5918  -33.8563   24.2269 N   0  0  0  0  0  0
  -23.4185  -30.4762   21.5428 C   0  0  2  0  0  0
  -24.8703  -28.9240   20.1171 C   0  0  0  0  0  0
  -22.7462  -29.4590   22.4947 C   0  0  0  0  0  0
  -18.0268  -28.1399   22.8472 C   0  0  0  0  0  0
  -24.1481  -36.7299   23.2641 C   0  0  0  0  0  0
  -25.9546  -30.7933   21.3676 C   0  0  0  0  0  0
  -26.0354  -29.4168   20.7188 C   0  0  0  0  0  0
  -27.2238  -28.6316   20.7136 C   0  0  0  0  0  0
  -26.0556  -26.8717   19.5200 C   0  0  0  0  0  0
  -24.8819  -27.6552   19.5084 C   0  0  0  0  0  0
  -23.6356  -29.8036   20.1608 C   0  0  0  0  0  0
  -25.4104  -36.3083   24.0334 C   0  0  1  0  0  0
  -20.5869  -28.3683   23.1303 C   0  0  2  0  0  0
  -20.6780  -26.9416   22.5428 C   0  0  0  0  0  0
  -19.5760  -26.6394   21.5232 C   0  0  0  0  0  0
  -18.1924  -26.7934   22.1625 C   0  0  0  0  0  0
  -19.1524  -28.8858   23.2869 C   0  0  0  0  0  0
  -18.9461  -30.1471   23.8873 C   0  0  0  0  0  0
  -17.6468  -30.6599   24.0572 C   0  0  0  0  0  0
  -25.9042  -34.9447   23.5105 C   0  0  0  0  0  0
  -16.5353  -29.9104   23.6348 C   0  0  0  0  0  0
  -16.7259  -28.6540   23.0328 C   0  0  0  0  0  0
  -26.4494  -31.6558   25.0692 C   0  0  0  0  0  0
  -25.3715  -31.3718   26.1408 C   0  0  0  0  0  0
  -27.0340  -30.2978   24.6144 C   0  0  0  0  0  0
  -27.6048  -32.4296   25.7466 C   0  0  0  0  0  0
  -27.5573  -37.1784   24.8466 C   0  0  0  0  0  0
  -21.4177  -29.3022   22.3687 N   0  0  0  0  0  0
  -26.4285  -37.3772   23.9416 N   0  0  0  0  0  0
  -24.6840  -31.0583   22.0954 N   0  0  0  0  0  0
  -23.4183  -28.8147   23.3046 O   0  0  0  0  0  0
  -28.3815  -26.5161   20.1003 O   0  0  0  0  0  0
  -26.5619  -34.8919   22.4678 O   0  0  0  0  0  0
  -23.5413  -32.1388   23.7336 O   0  0  0  0  0  0
  -28.4840  -18.8832   20.7403 C   0  0  0  0  0  0
  -30.8537  -19.1012   21.0204 C   0  0  0  0  0  0
  -28.3485  -20.3049   20.6498 C   0  0  0  0  0  0
  -30.7218  -20.5234   20.9214 C   0  0  0  0  0  0
  -29.7280  -18.2356   20.9896 C   0  0  0  0  0  0
  -29.4582  -21.1727   20.8074 C   0  0  0  0  0  0
  -29.7170  -16.8912   21.7045 C   0  0  0  0  0  0
  -30.0276  -15.5470   21.6117 C   0  0  0  0  0  0
  -27.5159  -25.2978   22.1143 C   0  0  0  0  0  0
  -29.3001  -22.7050   21.1675 C   0  0  0  0  0  0
  -28.6408  -23.8341   20.2441 C   0  0  0  0  0  0
  -28.5015  -25.2875   20.9260 C   0  0  2  0  0  0
  -31.4754  -12.5677   19.1317 H   0  0  0  0  0  0
  -30.3871  -11.4185   19.8475 H   0  0  0  0  0  0
  -29.7687  -11.8140   17.4518 H   0  0  0  0  0  0
  -29.6345  -13.5282   17.7521 H   0  0  0  0  0  0
  -27.8634  -11.3097   18.8267 H   0  0  0  0  0  0
  -27.3706  -12.6192   17.7859 H   0  0  0  0  0  0
  -27.6865  -14.2608   19.5602 H   0  0  0  0  0  0
  -28.7196  -11.9931   21.3223 H   0  0  0  0  0  0
  -28.3948  -13.5997   21.8686 H   0  0  0  0  0  0
  -25.2756   -9.5682   22.4761 H   0  0  0  0  0  0
  -23.9989   -7.4640   22.7501 H   0  0  0  0  0  0
  -21.0831   -8.8752   19.8968 H   0  0  0  0  0  0
  -22.3676  -10.9659   19.6168 H   0  0  0  0  0  0
  -21.2008   -7.6149   23.9700 H   0  0  0  0  0  0
  -21.1487   -6.0543   25.9077 H   0  0  0  0  0  0
  -22.0598   -2.7600   23.2874 H   0  0  0  0  0  0
  -22.4114  -11.9876   22.4771 H   0  0  0  0  0  0
  -21.1124  -13.1261   22.2601 H   0  0  0  0  0  0
  -24.6682  -15.8462   20.5268 H   0  0  0  0  0  0
  -26.2963  -15.6266   20.1262 H   0  0  0  0  0  0
  -26.7152  -32.5456   23.1071 H   0  0  0  0  0  0
  -25.0056  -33.9710   25.0403 H   0  0  0  0  0  0
  -22.7115  -31.2953   21.3964 H   0  0  0  0  0  0
  -23.3745  -35.9636   23.3317 H   0  0  0  0  0  0
  -24.3567  -36.8911   22.2056 H   0  0  0  0  0  0
  -23.7238  -37.6501   23.6655 H   0  0  0  0  0  0
  -26.0729  -31.5532   20.5937 H   0  0  0  0  0  0
  -26.8395  -30.8525   21.9895 H   0  0  0  0  0  0
  -28.1232  -29.0114   21.1776 H   0  0  0  0  0  0
  -26.0432  -25.8965   19.0534 H   0  0  0  0  0  0
  -23.9902  -27.2709   19.0316 H   0  0  0  0  0  0
  -23.7523  -30.5791   19.4037 H   0  0  0  0  0  0
  -22.7569  -29.2310   19.8565 H   0  0  0  0  0  0
  -25.1267  -36.1943   25.0828 H   0  0  0  0  0  0
  -20.9931  -28.3280   24.1439 H   0  0  0  0  0  0
  -20.5751  -26.2275   23.3612 H   0  0  0  0  0  0
  -21.6640  -26.7506   22.1179 H   0  0  0  0  0  0
  -19.6954  -25.6316   21.1241 H   0  0  0  0  0  0
  -19.6719  -27.3221   20.6778 H   0  0  0  0  0  0
  -17.4207  -26.6674   21.4012 H   0  0  0  0  0  0
  -18.0315  -26.0078   22.9026 H   0  0  0  0  0  0
  -19.7951  -30.7286   24.2208 H   0  0  0  0  0  0
  -17.5042  -31.6269   24.5198 H   0  0  0  0  0  0
  -15.5362  -30.3017   23.7697 H   0  0  0  0  0  0
  -15.8644  -28.0889   22.7013 H   0  0  0  0  0  0
  -24.5914  -30.7031   25.7749 H   0  0  0  0  0  0
  -24.8881  -32.2894   26.4771 H   0  0  0  0  0  0
  -25.8034  -30.8948   27.0214 H   0  0  0  0  0  0
  -26.2916  -29.6703   24.1187 H   0  0  0  0  0  0
  -27.4061  -29.7249   25.4649 H   0  0  0  0  0  0
  -27.8767  -30.4244   23.9343 H   0  0  0  0  0  0
  -27.2648  -33.3606   26.2011 H   0  0  0  0  0  0
  -28.3873  -32.6833   25.0306 H   0  0  0  0  0  0
  -28.0679  -31.8430   26.5409 H   0  0  0  0  0  0
  -28.2565  -38.0096   24.7518 H   0  0  0  0  0  0
  -28.1078  -36.2620   24.6268 H   0  0  0  0  0  0
  -27.2286  -37.1411   25.8865 H   0  0  0  0  0  0
  -20.9375  -29.8706   21.6850 H   0  0  0  0  0  0
  -26.0174  -38.2848   24.1445 H   0  0  0  0  0  0
  -27.5800  -18.2909   20.7562 H   0  0  0  0  0  0
  -31.8255  -18.6896   21.2587 H   0  0  0  0  0  0
  -27.3551  -20.7286   20.5830 H   0  0  0  0  0  0
  -31.6096  -21.1261   21.0620 H   0  0  0  0  0  0
  -29.3116  -17.0749   22.6904 H   0  0  0  0  0  0
  -29.7967  -15.0307   22.5319 H   0  0  0  0  0  0
  -26.4889  -25.1404   21.7870 H   0  0  0  0  0  0
  -27.5601  -26.2454   22.6538 H   0  0  0  0  0  0
  -27.7482  -24.5236   22.8435 H   0  0  0  0  0  0
  -30.2867  -23.0696   21.4596 H   0  0  0  0  0  0
  -28.7346  -22.6852   22.0975 H   0  0  0  0  0  0
  -27.6587  -23.5019   19.9092 H   0  0  0  0  0  0
  -29.2513  -23.9304   19.3459 H   0  0  0  0  0  0
  -29.4787  -25.4451   21.3825 H   0  0  0  0  0  0
  1 25  1  0  0  0
  1 30  2  0  0  0
  1 78  1  0  0  0
  2  3  1  0  0  0
  2 25  1  0  0  0
  2 83  1  0  0  0
  2 84  1  0  0  0
  3  4  1  0  0  0
  3 85  1  0  0  0
  3 86  1  0  0  0
  4  5  1  0  0  0
  4 87  1  0  0  0
  4 88  1  0  0  0
  5  6  1  0  0  0
  5 26  1  0  0  0
  5 89  1  0  0  0
  6 25  1  0  0  0
  6 90  1  0  0  0
  6 91  1  0  0  0
  7  8  2  0  0  0
  7 26  1  0  0  0
  7 29  1  0  0  0
  8  9  1  0  0  0
  8 22  1  0  0  0
  9 10  1  0  0  0
  9 27  2  0  0  0
 10 11  2  0  0  0
 10 15  1  0  0  0
 11 12  1  0  0  0
 11 92  1  0  0  0
 12 13  2  0  0  0
 12 93  1  0  0  0
 13 14  1  0  0  0
 13 31  1  0  0  0
 14 15  2  0  0  0
 14 94  1  0  0  0
 15 95  1  0  0  0
 16 17  2  0  0  0
 16 21  1  0  0  0
 16 31  1  0  0  0
 17 18  1  0  0  0
 17 96  1  0  0  0
 18 19  2  0  0  0
 18 97  1  0  0  0
 19 20  1  0  0  0
 19 24  1  0  0  0
 20 21  2  0  0  0
 20 98  1  0  0  0
 21 23  1  0  0  0
 22 28  1  0  0  0
 22 32  2  0  0  0
 26 27  1  0  0  0
 28 99  1  0  0  0
 28100  1  0  0  0
 29101  1  0  0  0
 29102  1  0  0  0
 33 34  1  0  0  0
 33 66  1  0  0  0
 33 70  2  0  0  0
 34 36  1  0  0  0
 34 59  1  0  0  0
 34103  1  0  0  0
 35 44  2  0  0  0
 35 45  1  0  0  0
 35 68  1  0  0  0
 36 56  1  0  0  0
 36104  1  0  0  0
 37 39  1  0  0  0
 37 47  1  0  0  0
 37 66  1  0  0  0
 37105  1  0  0  0
 38 43  2  0  0  0
 38 46  1  0  0  0
 38 47  1  0  0  0
 39 64  1  0  0  0
 39 67  2  0  0  0
 40 52  1  0  0  0
 40 53  2  0  0  0
 40 58  1  0  0  0
 41106  1  0  0  0
 41107  1  0  0  0
 41108  1  0  0  0
 41 48  1  0  0  0
 42 43  1  0  0  0
 42 66  1  0  0  0
 42109  1  0  0  0
 42110  1  0  0  0
 43 44  1  0  0  0
 44111  1  0  0  0
 45 46  2  0  0  0
 45112  1  0  0  0
 46113  1  0  0  0
 47114  1  0  0  0
 47115  1  0  0  0
 48 56  1  0  0  0
 48 65  1  0  0  0
 48116  1  0  0  0
 49 50  1  0  0  0
 49 53  1  0  0  0
 49 64  1  0  0  0
 49117  1  0  0  0
 50 51  1  0  0  0
 50118  1  0  0  0
 50119  1  0  0  0
 51 52  1  0  0  0
 51120  1  0  0  0
 51121  1  0  0  0
 52122  1  0  0  0
 52123  1  0  0  0
 53 54  1  0  0  0
 54 55  2  0  0  0
 54124  1  0  0  0
 55 57  1  0  0  0
 55125  1  0  0  0
 56 69  2  0  0  0
 57 58  2  0  0  0
 57126  1  0  0  0
 58127  1  0  0  0
 59 60  1  0  0  0
 59 61  1  0  0  0
 59 62  1  0  0  0
 60128  1  0  0  0
 60129  1  0  0  0
 60130  1  0  0  0
 61131  1  0  0  0
 61132  1  0  0  0
 61133  1  0  0  0
 62134  1  0  0  0
 62135  1  0  0  0
 62136  1  0  0  0
 63 65  1  0  0  0
 63137  1  0  0  0
 63138  1  0  0  0
 63139  1  0  0  0
 64140  1  0  0  0
 65141  1  0  0  0
 68 82  1  0  0  0
 71 73  2  0  0  0
 71 75  1  0  0  0
 71142  1  0  0  0
 72 74  1  0  0  0
 72 75  2  0  0  0
 72143  1  0  0  0
 73 76  1  0  0  0
 73144  1  0  0  0
 74 76  2  0  0  0
 74145  1  0  0  0
 75 77  1  0  0  0
 76 80  1  0  0  0
 77 78  2  0  0  0
 77146  1  0  0  0
 78147  1  0  0  0
 79148  1  0  0  0
 79149  1  0  0  0
 79150  1  0  0  0
 79 82  1  0  0  0
 80 81  1  0  0  0
 80151  1  0  0  0
 80152  1  0  0  0
 81 82  1  0  0  0
 81153  1  0  0  0
 81154  1  0  0  0
 82155  1  0  0  0
M  ISO  4   1 100  68 101  78 100  82 101
M  END
> <chiral flag>
0

> <version>
0

> <s_m_source_file>
/data/baiqing/PycharmProjects/Reinvent-master-3.2/result/LINK_invent/BTK/process_docking_weight1_custom_product_contain_oxygen_bond_distance_aromatic_linkinvent_7_9_3/rearranged_h_0129.sdf

> <i_m_source_file_index>
32

> <r_mmod_Potential_Energy-OPLS-2005>
244.273727416992

> <r_mmod_Stretch_Energy-OPLS-2005>
86.5458145141602

> <r_mmod_Bend_Energy-OPLS-2005>
228.974044799805

> <r_mmod_Torsional_Energy-OPLS-2005>
265.075531005859

> <r_mmod_Improper_Torsional_Energy-OPLS-2005>
11.6376714706421

> <r_mmod_Van_der_Waal_Energy-OPLS-2005>
137.812377929688

> <r_mmod_Electrostatic_Energy-OPLS-2005>
-340.115081787109

> <r_mmod_Solvation_Energy-OPLS-2005>
-189.605209350586

> <b_mmod_Minimization_Converged-OPLS-2005>
0

> <r_mmod_RMS_Derivative-OPLS-2005>
2.09599494934082

$$$$
32
                    3D
 Structure written by MMmdl.
158166  0  0  1  0            999 V2000
  -30.7709  -14.3843   20.5745 C   0  0  0  0  0  0
  -30.3889  -12.2519   19.4385 C   0  0  0  0  0  0
  -29.4943  -12.5265   18.2134 C   0  0  0  0  0  0
  -28.0094  -12.4017   18.6097 C   0  0  0  0  0  0
  -27.6614  -13.2207   19.8842 C   0  0  2  0  0  0
  -28.6989  -12.9995   21.0102 C   0  0  0  0  0  0
  -25.2553  -13.8186   20.5684 C   0  0  0  0  0  0
  -24.1813  -13.0431   20.9147 C   0  0  0  0  0  0
  -24.6413  -11.6914   20.8720 C   0  0  0  0  0  0
  -23.9106  -10.4286   21.0392 C   0  0  0  0  0  0
  -24.3649   -9.4208   21.9177 C   0  0  0  0  0  0
  -23.6318   -8.2245   22.0766 C   0  0  0  0  0  0
  -22.4299   -8.0284   21.3555 C   0  0  0  0  0  0
  -21.9934   -9.0255   20.4645 C   0  0  0  0  0  0
  -22.7270  -10.2125   20.3043 C   0  0  0  0  0  0
  -21.6851   -6.0750   22.5276 C   0  0  0  0  0  0
  -21.4028   -6.5653   23.8213 C   0  0  0  0  0  0
  -21.3655   -5.6800   24.9171 C   0  0  0  0  0  0
  -21.6036   -4.3067   24.7215 C   0  0  0  0  0  0
  -21.8822   -3.8156   23.4339 C   0  0  0  0  0  0
  -21.9190   -4.6973   22.3397 C   0  0  0  0  0  0
  -22.7830  -13.5202   21.1800 C   0  0  0  0  0  0
  -22.1639   -4.2161   21.0979 F   0  0  0  0  0  0
  -21.5647   -3.4557   25.7729 F   0  0  0  0  0  0
  -30.0405  -13.2449   20.4647 N   0  0  0  0  0  0
  -26.3030  -12.9400   20.3411 N   0  0  0  0  0  0
  -25.9350  -11.6539   20.5775 N   0  0  0  0  0  0
  -22.0486  -12.8198   22.0371 N   0  0  0  0  0  0
  -25.4277  -15.1904   20.4108 N   0  0  0  0  0  0
  -31.8833  -14.5035   20.0528 O   0  0  0  0  0  0
  -21.6654   -6.8886   21.4235 O   0  0  0  0  0  0
  -22.3502  -14.5495   20.6644 O   0  0  0  0  0  0
  -24.6120  -31.8735   23.2197 C   0  0  0  0  0  0
  -25.9032  -32.4855   23.8460 C   0  0  1  0  0  0
  -27.2014  -27.4546   20.0882 C   0  0  0  0  0  0
  -25.5920  -33.8662   24.2386 N   0  0  0  0  0  0
  -23.3950  -30.5046   21.5607 C   0  0  2  0  0  0
  -24.8315  -28.9877   20.1084 C   0  0  0  0  0  0
  -22.7386  -29.4672   22.5012 C   0  0  0  0  0  0
  -18.0256  -28.1370   22.8487 C   0  0  0  0  0  0
  -24.1476  -36.7319   23.2635 C   0  0  0  0  0  0
  -25.9243  -30.8446   21.3711 C   0  0  0  0  0  0
  -25.9930  -29.4850   20.7119 C   0  0  0  0  0  0
  -27.1814  -28.7247   20.7023 C   0  0  0  0  0  0
  -26.0297  -26.9911   19.4418 C   0  0  0  0  0  0
  -24.8440  -27.7401   19.4699 C   0  0  0  0  0  0
  -23.5985  -29.8569   20.1672 C   0  0  0  0  0  0
  -25.4099  -36.3137   24.0341 C   0  0  1  0  0  0
  -20.5849  -28.3646   23.1333 C   0  0  2  0  0  0
  -20.6754  -26.9390   22.5411 C   0  0  0  0  0  0
  -19.5730  -26.6377   21.5212 C   0  0  0  0  0  0
  -18.1904  -26.7916   22.1615 C   0  0  0  0  0  0
  -19.1507  -28.8823   23.2907 C   0  0  0  0  0  0
  -18.9437  -30.1437   23.8908 C   0  0  0  0  0  0
  -17.6438  -30.6578   24.0561 C   0  0  0  0  0  0
  -25.9038  -34.9501   23.5154 C   0  0  0  0  0  0
  -16.5330  -29.9077   23.6329 C   0  0  0  0  0  0
  -16.7248  -28.6505   23.0335 C   0  0  0  0  0  0
  -26.4464  -31.6608   25.0763 C   0  0  0  0  0  0
  -25.3739  -31.3680   26.1512 C   0  0  0  0  0  0
  -27.0296  -30.3063   24.6097 C   0  0  0  0  0  0
  -27.6047  -32.4310   25.7531 C   0  0  0  0  0  0
  -27.5572  -37.1822   24.8456 C   0  0  0  0  0  0
  -21.4121  -29.3029   22.3744 N   0  0  0  0  0  0
  -26.4280  -37.3824   23.9404 N   0  0  0  0  0  0
  -24.6625  -31.0852   22.1099 N   0  0  0  0  0  0
  -23.4183  -28.8192   23.3012 O   0  0  0  0  0  0
  -28.3572  -26.7107   20.1401 O   0  0  0  0  0  0
  -26.5577  -34.8933   22.4700 O   0  0  0  0  0  0
  -23.5319  -32.1493   23.7595 O   0  0  0  0  0  0
  -29.7356  -18.4073   22.2355 C   0  0  0  0  0  0
  -29.6512  -19.7639   22.6190 C   0  0  0  0  0  0
  -29.9142  -20.4192   20.2931 C   0  0  0  0  0  0
  -29.9138  -18.0534   20.8797 C   0  0  0  0  0  0
  -29.7605  -20.7818   21.6479 C   0  0  0  0  0  0
  -29.9375  -19.0736   19.8973 C   0  0  0  0  0  0
  -30.2052  -16.6716   20.4790 C   0  0  0  0  0  0
  -30.1485  -15.5344   21.2030 C   0  0  0  0  0  0
  -30.0081  -18.7762   18.4058 C   0  0  0  0  0  0
  -29.7234  -22.2539   22.0434 C   0  0  0  0  0  0
  -28.8762  -23.0959   21.0717 C   0  0  0  0  0  0
  -28.9317  -24.6144   21.2734 C   0  0  0  0  0  0
  -28.2008  -25.2901   20.1091 C   0  0  0  0  0  0
  -31.4445  -12.2735   19.1589 H   0  0  0  0  0  0
  -30.2110  -11.2455   19.8198 H   0  0  0  0  0  0
  -29.7344  -11.8349   17.4054 H   0  0  0  0  0  0
  -29.6898  -13.5293   17.8276 H   0  0  0  0  0  0
  -27.7947  -11.3454   18.7691 H   0  0  0  0  0  0
  -27.3748  -12.7203   17.7815 H   0  0  0  0  0  0
  -27.7066  -14.2732   19.6051 H   0  0  0  0  0  0
  -28.6456  -11.9741   21.3775 H   0  0  0  0  0  0
  -28.4755  -13.6278   21.8734 H   0  0  0  0  0  0
  -25.2805   -9.5687   22.4750 H   0  0  0  0  0  0
  -24.0024   -7.4652   22.7496 H   0  0  0  0  0  0
  -21.0882   -8.8761   19.8955 H   0  0  0  0  0  0
  -22.3731  -10.9663   19.6152 H   0  0  0  0  0  0
  -21.2023   -7.6161   23.9723 H   0  0  0  0  0  0
  -21.1476   -6.0533   25.9078 H   0  0  0  0  0  0
  -22.0609   -2.7623   23.2827 H   0  0  0  0  0  0
  -22.4102  -11.9840   22.4744 H   0  0  0  0  0  0
  -21.1107  -13.1207   22.2588 H   0  0  0  0  0  0
  -24.6716  -15.8532   20.5340 H   0  0  0  0  0  0
  -26.3017  -15.6294   20.1470 H   0  0  0  0  0  0
  -26.7097  -32.5575   23.1223 H   0  0  0  0  0  0
  -25.0084  -33.9852   25.0533 H   0  0  0  0  0  0
  -22.6824  -31.3231   21.4362 H   0  0  0  0  0  0
  -23.3755  -35.9633   23.3303 H   0  0  0  0  0  0
  -24.3568  -36.8928   22.2046 H   0  0  0  0  0  0
  -23.7209  -37.6520   23.6641 H   0  0  0  0  0  0
  -26.0310  -31.6133   20.6049 H   0  0  0  0  0  0
  -26.8172  -30.8946   21.9833 H   0  0  0  0  0  0
  -28.0765  -29.0970   21.1807 H   0  0  0  0  0  0
  -26.0037  -26.0586   18.8979 H   0  0  0  0  0  0
  -23.9555  -27.3638   18.9816 H   0  0  0  0  0  0
  -23.7165  -30.6474   19.4246 H   0  0  0  0  0  0
  -22.7185  -29.2890   19.8595 H   0  0  0  0  0  0
  -25.1268  -36.2013   25.0839 H   0  0  0  0  0  0
  -20.9929  -28.3198   24.1461 H   0  0  0  0  0  0
  -20.5667  -26.2254   23.3589 H   0  0  0  0  0  0
  -21.6622  -26.7447   22.1189 H   0  0  0  0  0  0
  -19.6881  -25.6292   21.1227 H   0  0  0  0  0  0
  -19.6672  -27.3203   20.6757 H   0  0  0  0  0  0
  -17.4181  -26.6678   21.4009 H   0  0  0  0  0  0
  -18.0282  -26.0053   22.9006 H   0  0  0  0  0  0
  -19.7924  -30.7242   24.2277 H   0  0  0  0  0  0
  -17.5003  -31.6268   24.5141 H   0  0  0  0  0  0
  -15.5328  -30.2975   23.7666 H   0  0  0  0  0  0
  -15.8649  -28.0839   22.7017 H   0  0  0  0  0  0
  -24.5890  -30.7061   25.7827 H   0  0  0  0  0  0
  -24.8952  -32.2825   26.5026 H   0  0  0  0  0  0
  -25.8091  -30.8782   27.0232 H   0  0  0  0  0  0
  -26.2841  -29.6835   24.1136 H   0  0  0  0  0  0
  -27.4083  -29.7274   25.4531 H   0  0  0  0  0  0
  -27.8662  -30.4415   23.9237 H   0  0  0  0  0  0
  -27.2681  -33.3610   26.2126 H   0  0  0  0  0  0
  -28.3857  -32.6867   25.0356 H   0  0  0  0  0  0
  -28.0701  -31.8409   26.5437 H   0  0  0  0  0  0
  -28.2584  -38.0128   24.7545 H   0  0  0  0  0  0
  -28.1084  -36.2674   24.6239 H   0  0  0  0  0  0
  -27.2300  -37.1400   25.8861 H   0  0  0  0  0  0
  -20.9249  -29.8814   21.7041 H   0  0  0  0  0  0
  -26.0177  -38.2899   24.1431 H   0  0  0  0  0  0
  -29.7068  -17.6464   23.0031 H   0  0  0  0  0  0
  -29.5413  -20.0123   23.6655 H   0  0  0  0  0  0
  -30.0272  -21.1662   19.5247 H   0  0  0  0  0  0
  -30.5868  -16.5807   19.4714 H   0  0  0  0  0  0
  -29.7451  -15.4911   22.2024 H   0  0  0  0  0  0
  -29.8132  -19.6714   17.8143 H   0  0  0  0  0  0
  -29.2499  -18.0423   18.1277 H   0  0  0  0  0  0
  -30.9884  -18.3964   18.1175 H   0  0  0  0  0  0
  -30.7468  -22.6299   22.0621 H   0  0  0  0  0  0
  -29.3353  -22.3589   23.0578 H   0  0  0  0  0  0
  -27.8436  -22.7459   21.0919 H   0  0  0  0  0  0
  -29.2178  -22.9427   20.0527 H   0  0  0  0  0  0
  -29.9640  -24.9615   21.3116 H   0  0  0  0  0  0
  -28.4660  -24.8889   22.2204 H   0  0  0  0  0  0
  -27.1730  -24.9408   20.1986 H   0  0  0  0  0  0
  -28.5650  -24.9327   19.1451 H   0  0  0  0  0  0
  1 25  1  0  0  0
  1 30  2  0  0  0
  1 78  1  0  0  0
  2  3  1  0  0  0
  2 25  1  0  0  0
  2 84  1  0  0  0
  2 85  1  0  0  0
  3  4  1  0  0  0
  3 86  1  0  0  0
  3 87  1  0  0  0
  4  5  1  0  0  0
  4 88  1  0  0  0
  4 89  1  0  0  0
  5  6  1  0  0  0
  5 26  1  0  0  0
  5 90  1  0  0  0
  6 25  1  0  0  0
  6 91  1  0  0  0
  6 92  1  0  0  0
  7  8  2  0  0  0
  7 26  1  0  0  0
  7 29  1  0  0  0
  8  9  1  0  0  0
  8 22  1  0  0  0
  9 10  1  0  0  0
  9 27  2  0  0  0
 10 11  2  0  0  0
 10 15  1  0  0  0
 11 12  1  0  0  0
 11 93  1  0  0  0
 12 13  2  0  0  0
 12 94  1  0  0  0
 13 14  1  0  0  0
 13 31  1  0  0  0
 14 15  2  0  0  0
 14 95  1  0  0  0
 15 96  1  0  0  0
 16 17  2  0  0  0
 16 21  1  0  0  0
 16 31  1  0  0  0
 17 18  1  0  0  0
 17 97  1  0  0  0
 18 19  2  0  0  0
 18 98  1  0  0  0
 19 20  1  0  0  0
 19 24  1  0  0  0
 20 21  2  0  0  0
 20 99  1  0  0  0
 21 23  1  0  0  0
 22 28  1  0  0  0
 22 32  2  0  0  0
 26 27  1  0  0  0
 28100  1  0  0  0
 28101  1  0  0  0
 29102  1  0  0  0
 29103  1  0  0  0
 33 34  1  0  0  0
 33 66  1  0  0  0
 33 70  2  0  0  0
 34 36  1  0  0  0
 34 59  1  0  0  0
 34104  1  0  0  0
 35 44  2  0  0  0
 35 45  1  0  0  0
 35 68  1  0  0  0
 36 56  1  0  0  0
 36105  1  0  0  0
 37 39  1  0  0  0
 37 47  1  0  0  0
 37 66  1  0  0  0
 37106  1  0  0  0
 38 43  2  0  0  0
 38 46  1  0  0  0
 38 47  1  0  0  0
 39 64  1  0  0  0
 39 67  2  0  0  0
 40 52  1  0  0  0
 40 53  2  0  0  0
 40 58  1  0  0  0
 41107  1  0  0  0
 41108  1  0  0  0
 41109  1  0  0  0
 41 48  1  0  0  0
 42 43  1  0  0  0
 42 66  1  0  0  0
 42110  1  0  0  0
 42111  1  0  0  0
 43 44  1  0  0  0
 44112  1  0  0  0
 45 46  2  0  0  0
 45113  1  0  0  0
 46114  1  0  0  0
 47115  1  0  0  0
 47116  1  0  0  0
 48 56  1  0  0  0
 48 65  1  0  0  0
 48117  1  0  0  0
 49 50  1  0  0  0
 49 53  1  0  0  0
 49 64  1  0  0  0
 49118  1  0  0  0
 50 51  1  0  0  0
 50119  1  0  0  0
 50120  1  0  0  0
 51 52  1  0  0  0
 51121  1  0  0  0
 51122  1  0  0  0
 52123  1  0  0  0
 52124  1  0  0  0
 53 54  1  0  0  0
 54 55  2  0  0  0
 54125  1  0  0  0
 55 57  1  0  0  0
 55126  1  0  0  0
 56 69  2  0  0  0
 57 58  2  0  0  0
 57127  1  0  0  0
 58128  1  0  0  0
 59 60  1  0  0  0
 59 61  1  0  0  0
 59 62  1  0  0  0
 60129  1  0  0  0
 60130  1  0  0  0
 60131  1  0  0  0
 61132  1  0  0  0
 61133  1  0  0  0
 61134  1  0  0  0
 62135  1  0  0  0
 62136  1  0  0  0
 62137  1  0  0  0
 63 65  1  0  0  0
 63138  1  0  0  0
 63139  1  0  0  0
 63140  1  0  0  0
 64141  1  0  0  0
 65142  1  0  0  0
 68 83  1  0  0  0
 71 72  2  0  0  0
 71 74  1  0  0  0
 71143  1  0  0  0
 72 75  1  0  0  0
 72144  1  0  0  0
 73 75  2  0  0  0
 73 76  1  0  0  0
 73145  1  0  0  0
 74 76  2  0  0  0
 74 77  1  0  0  0
 75 80  1  0  0  0
 76 79  1  0  0  0
 77 78  2  0  0  0
 77146  1  0  0  0
 78147  1  0  0  0
 79148  1  0  0  0
 79149  1  0  0  0
 79150  1  0  0  0
 80 81  1  0  0  0
 80151  1  0  0  0
 80152  1  0  0  0
 81 82  1  0  0  0
 81153  1  0  0  0
 81154  1  0  0  0
 82 83  1  0  0  0
 82155  1  0  0  0
 82156  1  0  0  0
 83157  1  0  0  0
 83158  1  0  0  0
M  ISO  4   1 100  68 101  78 100  83 101
M  END
> <chiral flag>
0

> <version>
0

> <s_m_source_file>
/data/baiqing/PycharmProjects/Reinvent-master-3.2/result/LINK_invent/BTK/process_docking_weight1_custom_product_contain_oxygen_bond_distance_aromatic_linkinvent_7_9_3/rearranged_h_0129.sdf

> <i_m_source_file_index>
33

> <r_mmod_Potential_Energy-OPLS-2005>
4.28454113006592

> <r_mmod_Stretch_Energy-OPLS-2005>
31.3794822692871

> <r_mmod_Bend_Energy-OPLS-2005>
104.419631958008

> <r_mmod_Torsional_Energy-OPLS-2005>
199.269485473633

> <r_mmod_Improper_Torsional_Energy-OPLS-2005>
5.02140522003174

> <r_mmod_Van_der_Waal_Energy-OPLS-2005>
179.951736450195

> <r_mmod_Electrostatic_Energy-OPLS-2005>
-343.997802734375

> <r_mmod_Solvation_Energy-OPLS-2005>
-187.398406982422

> <b_mmod_Minimization_Converged-OPLS-2005>
0

> <r_mmod_RMS_Derivative-OPLS-2005>
3.03233242034912

$$$$
33
                    3D
 Structure written by MMmdl.
158166  0  0  1  0            999 V2000
  -30.7697  -14.3971   20.5548 C   0  0  0  0  0  0
  -30.3999  -12.2471   19.4366 C   0  0  0  0  0  0
  -29.4949  -12.4804   18.2099 C   0  0  0  0  0  0
  -28.0100  -12.3614   18.6108 C   0  0  0  0  0  0
  -27.6548  -13.2054   19.8632 C   0  0  2  0  0  0
  -28.6961  -13.0221   20.9925 C   0  0  0  0  0  0
  -25.2577  -13.8142   20.5697 C   0  0  0  0  0  0
  -24.1817  -13.0433   20.9186 C   0  0  0  0  0  0
  -24.6354  -11.6897   20.8731 C   0  0  0  0  0  0
  -23.9015  -10.4277   21.0388 C   0  0  0  0  0  0
  -24.3575   -9.4206   21.9172 C   0  0  0  0  0  0
  -23.6287   -8.2209   22.0728 C   0  0  0  0  0  0
  -22.4274   -8.0243   21.3526 C   0  0  0  0  0  0
  -21.9888   -9.0215   20.4636 C   0  0  0  0  0  0
  -22.7178  -10.2107   20.3044 C   0  0  0  0  0  0
  -21.6831   -6.0711   22.5286 C   0  0  0  0  0  0
  -21.4005   -6.5620   23.8225 C   0  0  0  0  0  0
  -21.3681   -5.6779   24.9192 C   0  0  0  0  0  0
  -21.6042   -4.3039   24.7225 C   0  0  0  0  0  0
  -21.8825   -3.8123   23.4356 C   0  0  0  0  0  0
  -21.9193   -4.6941   22.3418 C   0  0  0  0  0  0
  -22.7857  -13.5241   21.1866 C   0  0  0  0  0  0
  -22.1668   -4.2133   21.0998 F   0  0  0  0  0  0
  -21.5647   -3.4529   25.7746 F   0  0  0  0  0  0
  -30.0369  -13.2575   20.4398 N   0  0  0  0  0  0
  -26.2992  -12.9306   20.3320 N   0  0  0  0  0  0
  -25.9276  -11.6465   20.5706 N   0  0  0  0  0  0
  -22.0494  -12.8247   22.0437 N   0  0  0  0  0  0
  -25.4324  -15.1858   20.4141 N   0  0  0  0  0  0
  -31.9425  -14.4631   20.1874 O   0  0  0  0  0  0
  -21.6619   -6.8852   21.4245 O   0  0  0  0  0  0
  -22.3570  -14.5569   20.6728 O   0  0  0  0  0  0
  -24.6109  -31.8727   23.2136 C   0  0  0  0  0  0
  -25.9021  -32.4843   23.8421 C   0  0  1  0  0  0
  -27.2351  -27.4770   20.0966 C   0  0  0  0  0  0
  -25.5896  -33.8646   24.2344 N   0  0  0  0  0  0
  -23.3976  -30.4968   21.5533 C   0  0  2  0  0  0
  -24.8436  -28.9610   20.1224 C   0  0  0  0  0  0
  -22.7377  -29.4710   22.5015 C   0  0  0  0  0  0
  -18.0260  -28.1390   22.8503 C   0  0  0  0  0  0
  -24.1480  -36.7316   23.2644 C   0  0  0  0  0  0
  -25.9244  -30.8464   21.3667 C   0  0  0  0  0  0
  -26.0015  -29.4859   20.7111 C   0  0  0  0  0  0
  -27.2025  -28.7519   20.6926 C   0  0  0  0  0  0
  -26.0681  -26.9538   19.5015 C   0  0  0  0  0  0
  -24.8682  -27.6915   19.5170 C   0  0  0  0  0  0
  -23.6054  -29.8250   20.1691 C   0  0  0  0  0  0
  -25.4103  -36.3118   24.0341 C   0  0  1  0  0  0
  -20.5852  -28.3674   23.1340 C   0  0  2  0  0  0
  -20.6747  -26.9402   22.5460 C   0  0  0  0  0  0
  -19.5731  -26.6382   21.5248 C   0  0  0  0  0  0
  -18.1897  -26.7945   22.1622 C   0  0  0  0  0  0
  -19.1508  -28.8849   23.2924 C   0  0  0  0  0  0
  -18.9435  -30.1458   23.8925 C   0  0  0  0  0  0
  -17.6440  -30.6602   24.0571 C   0  0  0  0  0  0
  -25.9035  -34.9489   23.5140 C   0  0  0  0  0  0
  -16.5333  -29.9105   23.6330 C   0  0  0  0  0  0
  -16.7249  -28.6525   23.0342 C   0  0  0  0  0  0
  -26.4447  -31.6627   25.0758 C   0  0  0  0  0  0
  -25.3725  -31.3769   26.1521 C   0  0  0  0  0  0
  -27.0241  -30.3042   24.6182 C   0  0  0  0  0  0
  -27.6039  -32.4347   25.7500 C   0  0  0  0  0  0
  -27.5591  -37.1804   24.8450 C   0  0  0  0  0  0
  -21.4114  -29.3047   22.3733 N   0  0  0  0  0  0
  -26.4281  -37.3811   23.9419 N   0  0  0  0  0  0
  -24.6620  -31.0865   22.1023 N   0  0  0  0  0  0
  -23.4170  -28.8256   23.3037 O   0  0  0  0  0  0
  -28.4084  -26.7742   20.0797 O   0  0  0  0  0  0
  -26.5594  -34.8932   22.4700 O   0  0  0  0  0  0
  -23.5317  -32.1456   23.7559 O   0  0  0  0  0  0
  -30.5890  -19.1010   21.9409 C   0  0  0  0  0  0
  -30.3466  -20.4458   21.6028 C   0  0  0  0  0  0
  -29.5389  -18.4144   19.8562 C   0  0  0  0  0  0
  -30.2304  -18.0843   21.0386 C   0  0  0  0  0  0
  -29.7829  -20.7873   20.3496 C   0  0  0  0  0  0
  -29.3292  -19.7558   19.4891 C   0  0  0  0  0  0
  -30.7010  -16.7119   21.2080 C   0  0  0  0  0  0
  -29.6692  -22.1960   19.9506 C   0  0  0  0  0  0
  -30.0303  -15.6212   20.7932 C   0  0  0  0  0  0
  -29.4723  -23.2321   20.7834 C   0  0  0  0  0  0
  -29.4383  -24.5946   20.2431 C   0  0  0  0  0  0
  -27.2045  -20.5303   18.3184 C   0  0  0  0  0  0
  -28.6493  -20.0380   18.1516 C   0  0  0  0  0  0
  -28.3454  -25.5263   20.7661 C   0  0  0  0  0  0
  -30.2435  -24.9894   19.3906 O   0  0  0  0  0  0
  -31.4512  -12.2896   19.1491 H   0  0  0  0  0  0
  -30.2426  -11.2461   19.8389 H   0  0  0  0  0  0
  -29.7295  -11.7579   17.4274 H   0  0  0  0  0  0
  -29.6888  -13.4659   17.7889 H   0  0  0  0  0  0
  -27.7958  -11.3081   18.7946 H   0  0  0  0  0  0
  -27.3747  -12.6568   17.7740 H   0  0  0  0  0  0
  -27.6816  -14.2437   19.5391 H   0  0  0  0  0  0
  -28.6415  -12.0113   21.3987 H   0  0  0  0  0  0
  -28.4790  -13.6883   21.8275 H   0  0  0  0  0  0
  -25.2711   -9.5712   22.4751 H   0  0  0  0  0  0
  -24.0031   -7.4593   22.7412 H   0  0  0  0  0  0
  -21.0823   -8.8699   19.8935 H   0  0  0  0  0  0
  -22.3615  -10.9643   19.6155 H   0  0  0  0  0  0
  -21.1966   -7.6125   23.9718 H   0  0  0  0  0  0
  -21.1527   -6.0507   25.9108 H   0  0  0  0  0  0
  -22.0584   -2.7583   23.2824 H   0  0  0  0  0  0
  -22.4103  -11.9935   22.4869 H   0  0  0  0  0  0
  -21.1099  -13.1283   22.2600 H   0  0  0  0  0  0
  -24.6667  -15.8419   20.5236 H   0  0  0  0  0  0
  -26.2921  -15.6308   20.1150 H   0  0  0  0  0  0
  -26.7111  -32.5555   23.1209 H   0  0  0  0  0  0
  -25.0003  -33.9809   25.0457 H   0  0  0  0  0  0
  -22.6851  -31.3127   21.4146 H   0  0  0  0  0  0
  -23.3751  -35.9639   23.3288 H   0  0  0  0  0  0
  -24.3573  -36.8951   22.2059 H   0  0  0  0  0  0
  -23.7200  -37.6509   23.6665 H   0  0  0  0  0  0
  -26.0483  -31.6193   20.6065 H   0  0  0  0  0  0
  -26.8081  -30.8869   21.9931 H   0  0  0  0  0  0
  -28.1018  -29.1531   21.1392 H   0  0  0  0  0  0
  -26.0869  -25.9877   19.0175 H   0  0  0  0  0  0
  -23.9779  -27.2808   19.0615 H   0  0  0  0  0  0
  -23.7129  -30.5983   19.4068 H   0  0  0  0  0  0
  -22.7296  -29.2440   19.8746 H   0  0  0  0  0  0
  -25.1274  -36.1989   25.0832 H   0  0  0  0  0  0
  -20.9955  -28.3256   24.1457 H   0  0  0  0  0  0
  -20.5646  -26.2286   23.3649 H   0  0  0  0  0  0
  -21.6617  -26.7438   22.1261 H   0  0  0  0  0  0
  -19.6880  -25.6292   21.1276 H   0  0  0  0  0  0
  -19.6693  -27.3187   20.6768 H   0  0  0  0  0  0
  -17.4192  -26.6730   21.3997 H   0  0  0  0  0  0
  -18.0246  -26.0087   22.9002 H   0  0  0  0  0  0
  -19.7917  -30.7264   24.2301 H   0  0  0  0  0  0
  -17.5000  -31.6284   24.5159 H   0  0  0  0  0  0
  -15.5335  -30.3007   23.7657 H   0  0  0  0  0  0
  -15.8642  -28.0864   22.7019 H   0  0  0  0  0  0
  -24.5861  -30.7164   25.7865 H   0  0  0  0  0  0
  -24.8965  -32.2944   26.4995 H   0  0  0  0  0  0
  -25.8068  -30.8910   27.0268 H   0  0  0  0  0  0
  -26.2800  -29.6862   24.1159 H   0  0  0  0  0  0
  -27.3848  -29.7238   25.4682 H   0  0  0  0  0  0
  -27.8711  -30.4281   23.9435 H   0  0  0  0  0  0
  -27.2663  -33.3624   26.2131 H   0  0  0  0  0  0
  -28.3810  -32.6965   25.0310 H   0  0  0  0  0  0
  -28.0767  -31.8462   26.5373 H   0  0  0  0  0  0
  -28.2603  -38.0107   24.7514 H   0  0  0  0  0  0
  -28.1084  -36.2644   24.6227 H   0  0  0  0  0  0
  -27.2333  -37.1408   25.8859 H   0  0  0  0  0  0
  -20.9255  -29.8748   21.6949 H   0  0  0  0  0  0
  -26.0176  -38.2893   24.1432 H   0  0  0  0  0  0
  -31.1025  -18.8611   22.8609 H   0  0  0  0  0  0
  -30.6768  -21.2164   22.2841 H   0  0  0  0  0  0
  -29.2585  -17.6326   19.1631 H   0  0  0  0  0  0
  -31.7204  -16.6178   21.5610 H   0  0  0  0  0  0
  -29.7864  -22.4046   18.8946 H   0  0  0  0  0  0
  -28.9901  -15.6968   20.5242 H   0  0  0  0  0  0
  -29.3340  -23.0934   21.8459 H   0  0  0  0  0  0
  -26.7456  -20.7194   17.3469 H   0  0  0  0  0  0
  -27.1639  -21.4583   18.8889 H   0  0  0  0  0  0
  -26.5919  -19.7914   18.8360 H   0  0  0  0  0  0
  -28.6458  -19.1289   17.5484 H   0  0  0  0  0  0
  -29.2303  -20.7565   17.5733 H   0  0  0  0  0  0
  -28.4877  -25.6886   21.8354 H   0  0  0  0  0  0
  -27.3799  -25.0335   20.6346 H   0  0  0  0  0  0
  1 25  1  0  0  0
  1 30  2  0  0  0
  1 79  1  0  0  0
  2  3  1  0  0  0
  2 25  1  0  0  0
  2 86  1  0  0  0
  2 87  1  0  0  0
  3  4  1  0  0  0
  3 88  1  0  0  0
  3 89  1  0  0  0
  4  5  1  0  0  0
  4 90  1  0  0  0
  4 91  1  0  0  0
  5  6  1  0  0  0
  5 26  1  0  0  0
  5 92  1  0  0  0
  6 25  1  0  0  0
  6 93  1  0  0  0
  6 94  1  0  0  0
  7  8  2  0  0  0
  7 26  1  0  0  0
  7 29  1  0  0  0
  8  9  1  0  0  0
  8 22  1  0  0  0
  9 10  1  0  0  0
  9 27  2  0  0  0
 10 11  2  0  0  0
 10 15  1  0  0  0
 11 12  1  0  0  0
 11 95  1  0  0  0
 12 13  2  0  0  0
 12 96  1  0  0  0
 13 14  1  0  0  0
 13 31  1  0  0  0
 14 15  2  0  0  0
 14 97  1  0  0  0
 15 98  1  0  0  0
 16 17  2  0  0  0
 16 21  1  0  0  0
 16 31  1  0  0  0
 17 18  1  0  0  0
 17 99  1  0  0  0
 18 19  2  0  0  0
 18100  1  0  0  0
 19 20  1  0  0  0
 19 24  1  0  0  0
 20 21  2  0  0  0
 20101  1  0  0  0
 21 23  1  0  0  0
 22 28  1  0  0  0
 22 32  2  0  0  0
 26 27  1  0  0  0
 28102  1  0  0  0
 28103  1  0  0  0
 29104  1  0  0  0
 29105  1  0  0  0
 33 34  1  0  0  0
 33 66  1  0  0  0
 33 70  2  0  0  0
 34 36  1  0  0  0
 34 59  1  0  0  0
 34106  1  0  0  0
 35 44  2  0  0  0
 35 45  1  0  0  0
 35 68  1  0  0  0
 36 56  1  0  0  0
 36107  1  0  0  0
 37 39  1  0  0  0
 37 47  1  0  0  0
 37 66  1  0  0  0
 37108  1  0  0  0
 38 43  2  0  0  0
 38 46  1  0  0  0
 38 47  1  0  0  0
 39 64  1  0  0  0
 39 67  2  0  0  0
 40 52  1  0  0  0
 40 53  2  0  0  0
 40 58  1  0  0  0
 41109  1  0  0  0
 41110  1  0  0  0
 41111  1  0  0  0
 41 48  1  0  0  0
 42 43  1  0  0  0
 42 66  1  0  0  0
 42112  1  0  0  0
 42113  1  0  0  0
 43 44  1  0  0  0
 44114  1  0  0  0
 45 46  2  0  0  0
 45115  1  0  0  0
 46116  1  0  0  0
 47117  1  0  0  0
 47118  1  0  0  0
 48 56  1  0  0  0
 48 65  1  0  0  0
 48119  1  0  0  0
 49 50  1  0  0  0
 49 53  1  0  0  0
 49 64  1  0  0  0
 49120  1  0  0  0
 50 51  1  0  0  0
 50121  1  0  0  0
 50122  1  0  0  0
 51 52  1  0  0  0
 51123  1  0  0  0
 51124  1  0  0  0
 52125  1  0  0  0
 52126  1  0  0  0
 53 54  1  0  0  0
 54 55  2  0  0  0
 54127  1  0  0  0
 55 57  1  0  0  0
 55128  1  0  0  0
 56 69  2  0  0  0
 57 58  2  0  0  0
 57129  1  0  0  0
 58130  1  0  0  0
 59 60  1  0  0  0
 59 61  1  0  0  0
 59 62  1  0  0  0
 60131  1  0  0  0
 60132  1  0  0  0
 60133  1  0  0  0
 61134  1  0  0  0
 61135  1  0  0  0
 61136  1  0  0  0
 62137  1  0  0  0
 62138  1  0  0  0
 62139  1  0  0  0
 63 65  1  0  0  0
 63140  1  0  0  0
 63141  1  0  0  0
 63142  1  0  0  0
 64143  1  0  0  0
 65144  1  0  0  0
 68 84  1  0  0  0
 71 72  2  0  0  0
 71 74  1  0  0  0
 71145  1  0  0  0
 72 75  1  0  0  0
 72146  1  0  0  0
 73 74  2  0  0  0
 73 76  1  0  0  0
 73147  1  0  0  0
 74 77  1  0  0  0
 75 76  2  0  0  0
 75 78  1  0  0  0
 76 83  1  0  0  0
 77 79  2  0  0  0
 77148  1  0  0  0
 78 80  2  0  0  0
 78149  1  0  0  0
 79150  1  0  0  0
 80 81  1  0  0  0
 80151  1  0  0  0
 81 84  1  0  0  0
 81 85  2  0  0  0
 82 83  1  0  0  0
 82152  1  0  0  0
 82153  1  0  0  0
 82154  1  0  0  0
 83155  1  0  0  0
 83156  1  0  0  0
 84157  1  0  0  0
 84158  1  0  0  0
M  ISO  4   1 100  68 101  79 100  84 101
M  END
> <chiral flag>
0

> <version>
0

> <s_m_source_file>
/data/baiqing/PycharmProjects/Reinvent-master-3.2/result/LINK_invent/BTK/process_docking_weight1_custom_product_contain_oxygen_bond_distance_aromatic_linkinvent_7_9_3/rearranged_h_0129.sdf

> <i_m_source_file_index>
34

> <r_mmod_Potential_Energy-OPLS-2005>
24.7438468933105

> <r_mmod_Stretch_Energy-OPLS-2005>
30.5565643310547

> <r_mmod_Bend_Energy-OPLS-2005>
86.2376098632812

> <r_mmod_Torsional_Energy-OPLS-2005>
255.958953857422

> <r_mmod_Improper_Torsional_Energy-OPLS-2005>
14.3235492706299

> <r_mmod_Van_der_Waal_Energy-OPLS-2005>
161.693420410156

> <r_mmod_Electrostatic_Energy-OPLS-2005>
-328.600646972656

> <r_mmod_Solvation_Energy-OPLS-2005>
-213.631332397461

> <b_mmod_Minimization_Converged-OPLS-2005>
0

> <r_mmod_RMS_Derivative-OPLS-2005>
3.29125213623047

$$$$
34
                    3D
 Structure written by MMmdl.
158166  0  0  1  0            999 V2000
  -30.7110  -14.4591   20.6070 C   0  0  0  0  0  0
  -30.4240  -12.3092   19.4280 C   0  0  0  0  0  0
  -29.4916  -12.4901   18.2109 C   0  0  0  0  0  0
  -28.0121  -12.3523   18.6223 C   0  0  0  0  0  0
  -27.6617  -13.1968   19.8753 C   0  0  2  0  0  0
  -28.6979  -12.9626   20.9941 C   0  0  0  0  0  0
  -25.2600  -13.8164   20.5687 C   0  0  0  0  0  0
  -24.1839  -13.0465   20.9201 C   0  0  0  0  0  0
  -24.6364  -11.6921   20.8754 C   0  0  0  0  0  0
  -23.9029  -10.4306   21.0417 C   0  0  0  0  0  0
  -24.3608   -9.4215   21.9181 C   0  0  0  0  0  0
  -23.6313   -8.2232   22.0738 C   0  0  0  0  0  0
  -22.4279   -8.0272   21.3537 C   0  0  0  0  0  0
  -21.9908   -9.0241   20.4643 C   0  0  0  0  0  0
  -22.7206  -10.2137   20.3052 C   0  0  0  0  0  0
  -21.6838   -6.0742   22.5302 C   0  0  0  0  0  0
  -21.3998   -6.5656   23.8233 C   0  0  0  0  0  0
  -21.3654   -5.6798   24.9192 C   0  0  0  0  0  0
  -21.6042   -4.3073   24.7233 C   0  0  0  0  0  0
  -21.8824   -3.8162   23.4351 C   0  0  0  0  0  0
  -21.9188   -4.6977   22.3424 C   0  0  0  0  0  0
  -22.7862  -13.5267   21.1877 C   0  0  0  0  0  0
  -22.1664   -4.2165   21.0988 F   0  0  0  0  0  0
  -21.5628   -3.4547   25.7736 F   0  0  0  0  0  0
  -30.0304  -13.2867   20.4588 N   0  0  0  0  0  0
  -26.3006  -12.9299   20.3361 N   0  0  0  0  0  0
  -25.9289  -11.6476   20.5786 N   0  0  0  0  0  0
  -22.0482  -12.8263   22.0424 N   0  0  0  0  0  0
  -25.4407  -15.1865   20.4126 N   0  0  0  0  0  0
  -31.8099  -14.6365   20.0680 O   0  0  0  0  0  0
  -21.6649   -6.8869   21.4249 O   0  0  0  0  0  0
  -22.3543  -14.5566   20.6718 O   0  0  0  0  0  0
  -24.6150  -31.8669   23.2090 C   0  0  0  0  0  0
  -25.9035  -32.4821   23.8392 C   0  0  1  0  0  0
  -27.2507  -27.4444   20.1011 C   0  0  0  0  0  0
  -25.5900  -33.8622   24.2326 N   0  0  0  0  0  0
  -23.4041  -30.4854   21.5505 C   0  0  2  0  0  0
  -24.8551  -28.9451   20.1216 C   0  0  0  0  0  0
  -22.7414  -29.4639   22.5029 C   0  0  0  0  0  0
  -18.0266  -28.1374   22.8498 C   0  0  0  0  0  0
  -24.1476  -36.7308   23.2631 C   0  0  0  0  0  0
  -25.9298  -30.8365   21.3576 C   0  0  0  0  0  0
  -26.0135  -29.4681   20.7120 C   0  0  0  0  0  0
  -27.2167  -28.7253   20.6960 C   0  0  0  0  0  0
  -26.0778  -26.9285   19.5114 C   0  0  0  0  0  0
  -24.8814  -27.6743   19.5189 C   0  0  0  0  0  0
  -23.6125  -29.8076   20.1696 C   0  0  0  0  0  0
  -25.4096  -36.3109   24.0341 C   0  0  1  0  0  0
  -20.5852  -28.3647   23.1345 C   0  0  2  0  0  0
  -20.6750  -26.9389   22.5436 C   0  0  0  0  0  0
  -19.5736  -26.6381   21.5226 C   0  0  0  0  0  0
  -18.1908  -26.7926   22.1620 C   0  0  0  0  0  0
  -19.1515  -28.8832   23.2908 C   0  0  0  0  0  0
  -18.9444  -30.1442   23.8911 C   0  0  0  0  0  0
  -17.6446  -30.6580   24.0556 C   0  0  0  0  0  0
  -25.9041  -34.9480   23.5137 C   0  0  0  0  0  0
  -16.5338  -29.9075   23.6329 C   0  0  0  0  0  0
  -16.7255  -28.6491   23.0353 C   0  0  0  0  0  0
  -26.4470  -31.6588   25.0712 C   0  0  0  0  0  0
  -25.3747  -31.3677   26.1469 C   0  0  0  0  0  0
  -27.0282  -30.3037   24.6041 C   0  0  0  0  0  0
  -27.6066  -32.4289   25.7453 C   0  0  0  0  0  0
  -27.5600  -37.1773   24.8442 C   0  0  0  0  0  0
  -21.4143  -29.3017   22.3761 N   0  0  0  0  0  0
  -26.4264  -37.3820   23.9456 N   0  0  0  0  0  0
  -24.6674  -31.0774   22.0984 N   0  0  0  0  0  0
  -23.4183  -28.8209   23.3094 O   0  0  0  0  0  0
  -28.4169  -26.7130   20.0640 O   0  0  0  0  0  0
  -26.5593  -34.8933   22.4690 O   0  0  0  0  0  0
  -23.5335  -32.1418   23.7483 O   0  0  0  0  0  0
  -29.1218  -18.0370   22.9060 C   0  0  0  0  0  0
  -29.7752  -19.2665   20.9146 C   0  0  0  0  0  0
  -28.7120  -20.4462   22.7563 C   0  0  0  0  0  0
  -29.7054  -18.0425   21.6199 C   0  0  0  0  0  0
  -28.6367  -19.2329   23.4773 C   0  0  0  0  0  0
  -29.2837  -20.4746   21.4630 C   0  0  0  0  0  0
  -30.2331  -16.8170   20.9814 C   0  0  0  0  0  0
  -30.0434  -15.5288   21.3553 C   0  0  0  0  0  0
  -28.0540  -19.2114   24.8789 C   0  0  0  0  0  0
  -29.3870  -21.7541   20.6189 C   0  0  0  0  0  0
  -28.9491  -23.0847   21.2804 C   0  0  0  0  0  0
  -28.9709  -24.3049   20.3213 C   0  0  0  0  0  0
  -28.4727  -25.6125   20.9820 C   0  0  0  0  0  0
  -31.4649  -12.4152   19.1190 H   0  0  0  0  0  0
  -30.3462  -11.2968   19.8267 H   0  0  0  0  0  0
  -29.7346  -11.7455   17.4513 H   0  0  0  0  0  0
  -29.6583  -13.4653   17.7500 H   0  0  0  0  0  0
  -27.8278  -11.2957   18.8252 H   0  0  0  0  0  0
  -27.3595  -12.6152   17.7901 H   0  0  0  0  0  0
  -27.7125  -14.2459   19.5829 H   0  0  0  0  0  0
  -28.6812  -11.9160   21.3027 H   0  0  0  0  0  0
  -28.4331  -13.5158   21.8919 H   0  0  0  0  0  0
  -25.2752   -9.5717   22.4765 H   0  0  0  0  0  0
  -24.0054   -7.4605   22.7427 H   0  0  0  0  0  0
  -21.0837   -8.8729   19.8934 H   0  0  0  0  0  0
  -22.3642  -10.9680   19.6170 H   0  0  0  0  0  0
  -21.1984   -7.6171   23.9755 H   0  0  0  0  0  0
  -21.1466   -6.0525   25.9097 H   0  0  0  0  0  0
  -22.0606   -2.7625   23.2847 H   0  0  0  0  0  0
  -22.4113  -11.9982   22.4898 H   0  0  0  0  0  0
  -21.1079  -13.1264   22.2590 H   0  0  0  0  0  0
  -24.6920  -15.8592   20.5405 H   0  0  0  0  0  0
  -26.3170  -15.6139   20.1399 H   0  0  0  0  0  0
  -26.7116  -32.5537   23.1171 H   0  0  0  0  0  0
  -25.0066  -33.9776   25.0474 H   0  0  0  0  0  0
  -22.6926  -31.3007   21.4078 H   0  0  0  0  0  0
  -23.3762  -35.9613   23.3240 H   0  0  0  0  0  0
  -24.3602  -36.8968   22.2062 H   0  0  0  0  0  0
  -23.7180  -37.6477   23.6677 H   0  0  0  0  0  0
  -26.0291  -31.5971   20.5822 H   0  0  0  0  0  0
  -26.8235  -30.9025   21.9672 H   0  0  0  0  0  0
  -28.1152  -29.1310   21.1396 H   0  0  0  0  0  0
  -26.0939  -25.9532   19.0448 H   0  0  0  0  0  0
  -23.9918  -27.2643   19.0604 H   0  0  0  0  0  0
  -23.7146  -30.5753   19.4027 H   0  0  0  0  0  0
  -22.7396  -29.2195   19.8802 H   0  0  0  0  0  0
  -25.1250  -36.1964   25.0828 H   0  0  0  0  0  0
  -20.9921  -28.3200   24.1473 H   0  0  0  0  0  0
  -20.5654  -26.2258   23.3618 H   0  0  0  0  0  0
  -21.6623  -26.7442   22.1229 H   0  0  0  0  0  0
  -19.6897  -25.6291   21.1255 H   0  0  0  0  0  0
  -19.6690  -27.3193   20.6759 H   0  0  0  0  0  0
  -17.4190  -26.6692   21.4002 H   0  0  0  0  0  0
  -18.0286  -26.0056   22.9000 H   0  0  0  0  0  0
  -19.7915  -30.7258   24.2294 H   0  0  0  0  0  0
  -17.4996  -31.6269   24.5134 H   0  0  0  0  0  0
  -15.5341  -30.2986   23.7660 H   0  0  0  0  0  0
  -15.8638  -28.0830   22.7070 H   0  0  0  0  0  0
  -24.5926  -30.7016   25.7805 H   0  0  0  0  0  0
  -24.8933  -32.2823   26.4941 H   0  0  0  0  0  0
  -25.8118  -30.8834   27.0210 H   0  0  0  0  0  0
  -26.2798  -29.6807   24.1131 H   0  0  0  0  0  0
  -27.4107  -29.7260   25.4461 H   0  0  0  0  0  0
  -27.8609  -30.4370   23.9132 H   0  0  0  0  0  0
  -27.2714  -33.3577   26.2079 H   0  0  0  0  0  0
  -28.3847  -32.6864   25.0254 H   0  0  0  0  0  0
  -28.0770  -31.8378   26.5319 H   0  0  0  0  0  0
  -28.2520  -38.0164   24.7646 H   0  0  0  0  0  0
  -28.1190  -36.2720   24.6051 H   0  0  0  0  0  0
  -27.2364  -37.1132   25.8839 H   0  0  0  0  0  0
  -20.9325  -29.8729   21.6957 H   0  0  0  0  0  0
  -26.0147  -38.2872   24.1561 H   0  0  0  0  0  0
  -29.0698  -17.1211   23.4779 H   0  0  0  0  0  0
  -30.2153  -19.2797   19.9257 H   0  0  0  0  0  0
  -28.3281  -21.3479   23.2112 H   0  0  0  0  0  0
  -30.8578  -17.0034   20.1176 H   0  0  0  0  0  0
  -29.4233  -15.3084   22.2093 H   0  0  0  0  0  0
  -27.6051  -18.2436   25.1050 H   0  0  0  0  0  0
  -27.2849  -19.9732   25.0036 H   0  0  0  0  0  0
  -28.8353  -19.3974   25.6162 H   0  0  0  0  0  0
  -28.7962  -21.5939   19.7175 H   0  0  0  0  0  0
  -30.4223  -21.8469   20.2862 H   0  0  0  0  0  0
  -29.5859  -23.2880   22.1423 H   0  0  0  0  0  0
  -27.9347  -22.9779   21.6657 H   0  0  0  0  0  0
  -28.3534  -24.0885   19.4497 H   0  0  0  0  0  0
  -29.9847  -24.4531   19.9462 H   0  0  0  0  0  0
  -29.1606  -25.8909   21.7808 H   0  0  0  0  0  0
  -27.5070  -25.4359   21.4603 H   0  0  0  0  0  0
  1 25  1  0  0  0
  1 30  2  0  0  0
  1 78  1  0  0  0
  2  3  1  0  0  0
  2 25  1  0  0  0
  2 84  1  0  0  0
  2 85  1  0  0  0
  3  4  1  0  0  0
  3 86  1  0  0  0
  3 87  1  0  0  0
  4  5  1  0  0  0
  4 88  1  0  0  0
  4 89  1  0  0  0
  5  6  1  0  0  0
  5 26  1  0  0  0
  5 90  1  0  0  0
  6 25  1  0  0  0
  6 91  1  0  0  0
  6 92  1  0  0  0
  7  8  2  0  0  0
  7 26  1  0  0  0
  7 29  1  0  0  0
  8  9  1  0  0  0
  8 22  1  0  0  0
  9 10  1  0  0  0
  9 27  2  0  0  0
 10 11  2  0  0  0
 10 15  1  0  0  0
 11 12  1  0  0  0
 11 93  1  0  0  0
 12 13  2  0  0  0
 12 94  1  0  0  0
 13 14  1  0  0  0
 13 31  1  0  0  0
 14 15  2  0  0  0
 14 95  1  0  0  0
 15 96  1  0  0  0
 16 17  2  0  0  0
 16 21  1  0  0  0
 16 31  1  0  0  0
 17 18  1  0  0  0
 17 97  1  0  0  0
 18 19  2  0  0  0
 18 98  1  0  0  0
 19 20  1  0  0  0
 19 24  1  0  0  0
 20 21  2  0  0  0
 20 99  1  0  0  0
 21 23  1  0  0  0
 22 28  1  0  0  0
 22 32  2  0  0  0
 26 27  1  0  0  0
 28100  1  0  0  0
 28101  1  0  0  0
 29102  1  0  0  0
 29103  1  0  0  0
 33 34  1  0  0  0
 33 66  1  0  0  0
 33 70  2  0  0  0
 34 36  1  0  0  0
 34 59  1  0  0  0
 34104  1  0  0  0
 35 44  2  0  0  0
 35 45  1  0  0  0
 35 68  1  0  0  0
 36 56  1  0  0  0
 36105  1  0  0  0
 37 39  1  0  0  0
 37 47  1  0  0  0
 37 66  1  0  0  0
 37106  1  0  0  0
 38 43  2  0  0  0
 38 46  1  0  0  0
 38 47  1  0  0  0
 39 64  1  0  0  0
 39 67  2  0  0  0
 40 52  1  0  0  0
 40 53  2  0  0  0
 40 58  1  0  0  0
 41107  1  0  0  0
 41108  1  0  0  0
 41109  1  0  0  0
 41 48  1  0  0  0
 42 43  1  0  0  0
 42 66  1  0  0  0
 42110  1  0  0  0
 42111  1  0  0  0
 43 44  1  0  0  0
 44112  1  0  0  0
 45 46  2  0  0  0
 45113  1  0  0  0
 46114  1  0  0  0
 47115  1  0  0  0
 47116  1  0  0  0
 48 56  1  0  0  0
 48 65  1  0  0  0
 48117  1  0  0  0
 49 50  1  0  0  0
 49 53  1  0  0  0
 49 64  1  0  0  0
 49118  1  0  0  0
 50 51  1  0  0  0
 50119  1  0  0  0
 50120  1  0  0  0
 51 52  1  0  0  0
 51121  1  0  0  0
 51122  1  0  0  0
 52123  1  0  0  0
 52124  1  0  0  0
 53 54  1  0  0  0
 54 55  2  0  0  0
 54125  1  0  0  0
 55 57  1  0  0  0
 55126  1  0  0  0
 56 69  2  0  0  0
 57 58  2  0  0  0
 57127  1  0  0  0
 58128  1  0  0  0
 59 60  1  0  0  0
 59 61  1  0  0  0
 59 62  1  0  0  0
 60129  1  0  0  0
 60130  1  0  0  0
 60131  1  0  0  0
 61132  1  0  0  0
 61133  1  0  0  0
 61134  1  0  0  0
 62135  1  0  0  0
 62136  1  0  0  0
 62137  1  0  0  0
 63 65  1  0  0  0
 63138  1  0  0  0
 63139  1  0  0  0
 63140  1  0  0  0
 64141  1  0  0  0
 65142  1  0  0  0
 68 83  1  0  0  0
 71 74  2  0  0  0
 71 75  1  0  0  0
 71143  1  0  0  0
 72 74  1  0  0  0
 72 76  2  0  0  0
 72144  1  0  0  0
 73 75  2  0  0  0
 73 76  1  0  0  0
 73145  1  0  0  0
 74 77  1  0  0  0
 75 79  1  0  0  0
 76 80  1  0  0  0
 77 78  2  0  0  0
 77146  1  0  0  0
 78147  1  0  0  0
 79148  1  0  0  0
 79149  1  0  0  0
 79150  1  0  0  0
 80 81  1  0  0  0
 80151  1  0  0  0
 80152  1  0  0  0
 81 82  1  0  0  0
 81153  1  0  0  0
 81154  1  0  0  0
 82 83  1  0  0  0
 82155  1  0  0  0
 82156  1  0  0  0
 83157  1  0  0  0
 83158  1  0  0  0
M  ISO  4   1 100  68 101  78 100  83 101
M  END
> <chiral flag>
0

> <version>
0

> <s_m_source_file>
/data/baiqing/PycharmProjects/Reinvent-master-3.2/result/LINK_invent/BTK/process_docking_weight1_custom_product_contain_oxygen_bond_distance_aromatic_linkinvent_7_9_3/rearranged_h_0129.sdf

> <i_m_source_file_index>
35

> <r_mmod_Potential_Energy-OPLS-2005>
-22.7271919250488

> <r_mmod_Stretch_Energy-OPLS-2005>
37.2812690734863

> <r_mmod_Bend_Energy-OPLS-2005>
95.0024337768555

> <r_mmod_Torsional_Energy-OPLS-2005>
201.842269897461

> <r_mmod_Improper_Torsional_Energy-OPLS-2005>
2.284259557724

> <r_mmod_Van_der_Waal_Energy-OPLS-2005>
151.786437988281

> <r_mmod_Electrostatic_Energy-OPLS-2005>
-335.978759765625

> <r_mmod_Solvation_Energy-OPLS-2005>
-185.437973022461

> <b_mmod_Minimization_Converged-OPLS-2005>
0

> <r_mmod_RMS_Derivative-OPLS-2005>
3.20457577705383

$$$$
35
                    3D
 Structure written by MMmdl.
153161  0  0  1  0            999 V2000
  -30.6668  -14.4727   20.6171 C   0  0  0  0  0  0
  -30.4340  -12.3219   19.4090 C   0  0  0  0  0  0
  -29.4910  -12.5150   18.2014 C   0  0  0  0  0  0
  -28.0142  -12.3657   18.6183 C   0  0  0  0  0  0
  -27.6634  -13.1968   19.8796 C   0  0  2  0  0  0
  -28.7019  -12.9392   20.9910 C   0  0  0  0  0  0
  -25.2592  -13.8129   20.5651 C   0  0  0  0  0  0
  -24.1831  -13.0426   20.9153 C   0  0  0  0  0  0
  -24.6366  -11.6881   20.8737 C   0  0  0  0  0  0
  -23.9043  -10.4270   21.0420 C   0  0  0  0  0  0
  -24.3593   -9.4187   21.9206 C   0  0  0  0  0  0
  -23.6268   -8.2223   22.0755 C   0  0  0  0  0  0
  -22.4255   -8.0260   21.3537 C   0  0  0  0  0  0
  -21.9899   -9.0241   20.4647 C   0  0  0  0  0  0
  -22.7225  -10.2120   20.3060 C   0  0  0  0  0  0
  -21.6841   -6.0737   22.5288 C   0  0  0  0  0  0
  -21.4002   -6.5640   23.8224 C   0  0  0  0  0  0
  -21.3645   -5.6795   24.9192 C   0  0  0  0  0  0
  -21.6036   -4.3059   24.7232 C   0  0  0  0  0  0
  -21.8819   -3.8150   23.4353 C   0  0  0  0  0  0
  -21.9182   -4.6967   22.3408 C   0  0  0  0  0  0
  -22.7867  -13.5241   21.1844 C   0  0  0  0  0  0
  -22.1639   -4.2160   21.0994 F   0  0  0  0  0  0
  -21.5635   -3.4521   25.7724 F   0  0  0  0  0  0
  -30.0322  -13.2790   20.4526 N   0  0  0  0  0  0
  -26.3023  -12.9287   20.3382 N   0  0  0  0  0  0
  -25.9292  -11.6458   20.5766 N   0  0  0  0  0  0
  -22.0497  -12.8228   22.0381 N   0  0  0  0  0  0
  -25.4348  -15.1837   20.4016 N   0  0  0  0  0  0
  -31.7783  -14.7044   20.1263 O   0  0  0  0  0  0
  -21.6615   -6.8860   21.4234 O   0  0  0  0  0  0
  -22.3564  -14.5580   20.6724 O   0  0  0  0  0  0
  -24.6147  -31.8678   23.2103 C   0  0  0  0  0  0
  -25.9045  -32.4818   23.8411 C   0  0  1  0  0  0
  -27.2474  -27.4397   20.1122 C   0  0  0  0  0  0
  -25.5930  -33.8621   24.2348 N   0  0  0  0  0  0
  -23.4037  -30.4886   21.5489 C   0  0  2  0  0  0
  -24.8556  -28.9466   20.1237 C   0  0  0  0  0  0
  -22.7410  -29.4664   22.4999 C   0  0  0  0  0  0
  -18.0275  -28.1370   22.8506 C   0  0  0  0  0  0
  -24.1473  -36.7276   23.2638 C   0  0  0  0  0  0
  -25.9303  -30.8333   21.3634 C   0  0  0  0  0  0
  -26.0123  -29.4624   20.7246 C   0  0  0  0  0  0
  -27.2117  -28.7132   20.7244 C   0  0  0  0  0  0
  -26.0811  -26.9372   19.5016 C   0  0  0  0  0  0
  -24.8838  -27.6797   19.5120 C   0  0  0  0  0  0
  -23.6148  -29.8118   20.1680 C   0  0  0  0  0  0
  -25.4093  -36.3098   24.0356 C   0  0  1  0  0  0
  -20.5865  -28.3648   23.1323 C   0  0  2  0  0  0
  -20.6748  -26.9378   22.5425 C   0  0  0  0  0  0
  -19.5743  -26.6370   21.5213 C   0  0  0  0  0  0
  -18.1916  -26.7939   22.1598 C   0  0  0  0  0  0
  -19.1530  -28.8828   23.2913 C   0  0  0  0  0  0
  -18.9454  -30.1445   23.8912 C   0  0  0  0  0  0
  -17.6449  -30.6581   24.0577 C   0  0  0  0  0  0
  -25.9040  -34.9478   23.5137 C   0  0  0  0  0  0
  -16.5335  -29.9075   23.6348 C   0  0  0  0  0  0
  -16.7257  -28.6495   23.0352 C   0  0  0  0  0  0
  -26.4473  -31.6594   25.0731 C   0  0  0  0  0  0
  -25.3745  -31.3672   26.1477 C   0  0  0  0  0  0
  -27.0284  -30.3050   24.6060 C   0  0  0  0  0  0
  -27.6065  -32.4287   25.7496 C   0  0  0  0  0  0
  -27.5580  -37.1777   24.8458 C   0  0  0  0  0  0
  -21.4139  -29.3024   22.3738 N   0  0  0  0  0  0
  -26.4262  -37.3801   23.9454 N   0  0  0  0  0  0
  -24.6669  -31.0778   22.0997 N   0  0  0  0  0  0
  -23.4182  -28.8230   23.3060 O   0  0  0  0  0  0
  -28.4058  -26.7007   20.0421 O   0  0  0  0  0  0
  -26.5568  -34.8930   22.4677 O   0  0  0  0  0  0
  -23.5340  -32.1423   23.7504 O   0  0  0  0  0  0
  -28.9913  -19.0019   21.7619 C   0  0  0  0  0  0
  -31.3854  -18.9057   21.4045 C   0  0  0  0  0  0
  -28.9213  -17.5958   21.6279 C   0  0  0  0  0  0
  -31.3179  -17.5006   21.2589 C   0  0  0  0  0  0
  -30.2290  -19.6794   21.6608 C   0  0  0  0  0  0
  -30.0794  -16.8247   21.3655 C   0  0  0  0  0  0
  -30.3609  -21.1529   21.8004 C   0  0  0  0  0  0
  -29.3746  -22.0781   21.8023 C   0  0  0  0  0  0
  -29.0478  -24.4705   20.8770 C   0  0  0  0  0  0
  -29.5898  -23.5820   22.0149 C   0  0  0  0  0  0
  -28.7244  -25.9443   21.2206 C   0  0  0  0  0  0
  -29.9292  -15.4033   21.2634 N   0  0  0  0  0  0
  -28.8893  -24.0240   19.7350 O   0  0  0  0  0  0
  -31.4738  -12.4523   19.1022 H   0  0  0  0  0  0
  -30.3613  -11.3017   19.7905 H   0  0  0  0  0  0
  -29.7238  -11.7940   17.4171 H   0  0  0  0  0  0
  -29.6489  -13.5023   17.7648 H   0  0  0  0  0  0
  -27.8332  -11.3087   18.8170 H   0  0  0  0  0  0
  -27.3550  -12.6346   17.7929 H   0  0  0  0  0  0
  -27.7175  -14.2490   19.5990 H   0  0  0  0  0  0
  -28.6861  -11.8858   21.2770 H   0  0  0  0  0  0
  -28.4496  -13.4808   21.9025 H   0  0  0  0  0  0
  -25.2736   -9.5629   22.4793 H   0  0  0  0  0  0
  -23.9957   -7.4596   22.7465 H   0  0  0  0  0  0
  -21.0833   -8.8754   19.8937 H   0  0  0  0  0  0
  -22.3704  -10.9657   19.6151 H   0  0  0  0  0  0
  -21.1979   -7.6148   23.9720 H   0  0  0  0  0  0
  -21.1464   -6.0536   25.9093 H   0  0  0  0  0  0
  -22.0605   -2.7604   23.2856 H   0  0  0  0  0  0
  -22.4087  -11.9849   22.4703 H   0  0  0  0  0  0
  -21.1131  -13.1270   22.2639 H   0  0  0  0  0  0
  -24.6613  -15.8372   20.4697 H   0  0  0  0  0  0
  -26.2873  -15.6118   20.0607 H   0  0  0  0  0  0
  -26.7144  -32.5522   23.1203 H   0  0  0  0  0  0
  -25.0182  -33.9804   25.0564 H   0  0  0  0  0  0
  -22.6936  -31.3058   21.4048 H   0  0  0  0  0  0
  -23.3797  -35.9539   23.3226 H   0  0  0  0  0  0
  -24.3613  -36.8953   22.2070 H   0  0  0  0  0  0
  -23.7136  -37.6426   23.6684 H   0  0  0  0  0  0
  -26.0373  -31.5920   20.5872 H   0  0  0  0  0  0
  -26.8208  -30.8972   21.9759 H   0  0  0  0  0  0
  -28.1072  -29.1107   21.1828 H   0  0  0  0  0  0
  -26.1057  -25.9724   19.0155 H   0  0  0  0  0  0
  -23.9969  -27.2734   19.0430 H   0  0  0  0  0  0
  -23.7215  -30.5833   19.4049 H   0  0  0  0  0  0
  -22.7425  -29.2247   19.8724 H   0  0  0  0  0  0
  -25.1279  -36.1930   25.0852 H   0  0  0  0  0  0
  -20.9959  -28.3180   24.1438 H   0  0  0  0  0  0
  -20.5610  -26.2255   23.3613 H   0  0  0  0  0  0
  -21.6615  -26.7390   22.1222 H   0  0  0  0  0  0
  -19.6884  -25.6286   21.1224 H   0  0  0  0  0  0
  -19.6717  -27.3192   20.6761 H   0  0  0  0  0  0
  -17.4205  -26.6770   21.3967 H   0  0  0  0  0  0
  -18.0263  -26.0030   22.8931 H   0  0  0  0  0  0
  -19.7929  -30.7267   24.2262 H   0  0  0  0  0  0
  -17.5006  -31.6273   24.5162 H   0  0  0  0  0  0
  -15.5334  -30.2978   23.7691 H   0  0  0  0  0  0
  -15.8660  -28.0818   22.7043 H   0  0  0  0  0  0
  -24.6035  -30.6862   25.7859 H   0  0  0  0  0  0
  -24.8764  -32.2768   26.4845 H   0  0  0  0  0  0
  -25.8121  -30.8984   27.0299 H   0  0  0  0  0  0
  -26.2797  -29.6827   24.1134 H   0  0  0  0  0  0
  -27.4108  -29.7277   25.4488 H   0  0  0  0  0  0
  -27.8623  -30.4399   23.9165 H   0  0  0  0  0  0
  -27.2746  -33.3659   26.1985 H   0  0  0  0  0  0
  -28.3947  -32.6707   25.0350 H   0  0  0  0  0  0
  -28.0641  -31.8426   26.5475 H   0  0  0  0  0  0
  -28.2533  -38.0136   24.7604 H   0  0  0  0  0  0
  -28.1137  -36.2684   24.6139 H   0  0  0  0  0  0
  -27.2340  -37.1223   25.8863 H   0  0  0  0  0  0
  -20.9282  -29.8740   21.6970 H   0  0  0  0  0  0
  -26.0138  -38.2859   24.1529 H   0  0  0  0  0  0
  -28.0832  -19.5516   21.9631 H   0  0  0  0  0  0
  -32.3468  -19.3916   21.3190 H   0  0  0  0  0  0
  -27.9572  -17.1150   21.7239 H   0  0  0  0  0  0
  -32.2338  -16.9586   21.0762 H   0  0  0  0  0  0
  -31.3740  -21.5064   21.9432 H   0  0  0  0  0  0
  -28.3478  -21.7744   21.6583 H   0  0  0  0  0  0
  -30.6548  -23.7809   22.1305 H   0  0  0  0  0  0
  -29.1107  -23.8778   22.9481 H   0  0  0  0  0  0
  -29.5896  -26.3984   21.7051 H   0  0  0  0  0  0
  -27.9041  -25.9675   21.9401 H   0  0  0  0  0  0
  -29.0408  -15.0442   21.5788 H   0  0  0  0  0  0
  1 25  1  0  0  0
  1 30  2  0  0  0
  1 82  1  0  0  0
  2  3  1  0  0  0
  2 25  1  0  0  0
  2 84  1  0  0  0
  2 85  1  0  0  0
  3  4  1  0  0  0
  3 86  1  0  0  0
  3 87  1  0  0  0
  4  5  1  0  0  0
  4 88  1  0  0  0
  4 89  1  0  0  0
  5  6  1  0  0  0
  5 26  1  0  0  0
  5 90  1  0  0  0
  6 25  1  0  0  0
  6 91  1  0  0  0
  6 92  1  0  0  0
  7  8  2  0  0  0
  7 26  1  0  0  0
  7 29  1  0  0  0
  8  9  1  0  0  0
  8 22  1  0  0  0
  9 10  1  0  0  0
  9 27  2  0  0  0
 10 11  2  0  0  0
 10 15  1  0  0  0
 11 12  1  0  0  0
 11 93  1  0  0  0
 12 13  2  0  0  0
 12 94  1  0  0  0
 13 14  1  0  0  0
 13 31  1  0  0  0
 14 15  2  0  0  0
 14 95  1  0  0  0
 15 96  1  0  0  0
 16 17  2  0  0  0
 16 21  1  0  0  0
 16 31  1  0  0  0
 17 18  1  0  0  0
 17 97  1  0  0  0
 18 19  2  0  0  0
 18 98  1  0  0  0
 19 20  1  0  0  0
 19 24  1  0  0  0
 20 21  2  0  0  0
 20 99  1  0  0  0
 21 23  1  0  0  0
 22 28  1  0  0  0
 22 32  2  0  0  0
 26 27  1  0  0  0
 28100  1  0  0  0
 28101  1  0  0  0
 29102  1  0  0  0
 29103  1  0  0  0
 33 34  1  0  0  0
 33 66  1  0  0  0
 33 70  2  0  0  0
 34 36  1  0  0  0
 34 59  1  0  0  0
 34104  1  0  0  0
 35 44  2  0  0  0
 35 45  1  0  0  0
 35 68  1  0  0  0
 36 56  1  0  0  0
 36105  1  0  0  0
 37 39  1  0  0  0
 37 47  1  0  0  0
 37 66  1  0  0  0
 37106  1  0  0  0
 38 43  2  0  0  0
 38 46  1  0  0  0
 38 47  1  0  0  0
 39 64  1  0  0  0
 39 67  2  0  0  0
 40 52  1  0  0  0
 40 53  2  0  0  0
 40 58  1  0  0  0
 41107  1  0  0  0
 41108  1  0  0  0
 41109  1  0  0  0
 41 48  1  0  0  0
 42 43  1  0  0  0
 42 66  1  0  0  0
 42110  1  0  0  0
 42111  1  0  0  0
 43 44  1  0  0  0
 44112  1  0  0  0
 45 46  2  0  0  0
 45113  1  0  0  0
 46114  1  0  0  0
 47115  1  0  0  0
 47116  1  0  0  0
 48 56  1  0  0  0
 48 65  1  0  0  0
 48117  1  0  0  0
 49 50  1  0  0  0
 49 53  1  0  0  0
 49 64  1  0  0  0
 49118  1  0  0  0
 50 51  1  0  0  0
 50119  1  0  0  0
 50120  1  0  0  0
 51 52  1  0  0  0
 51121  1  0  0  0
 51122  1  0  0  0
 52123  1  0  0  0
 52124  1  0  0  0
 53 54  1  0  0  0
 54 55  2  0  0  0
 54125  1  0  0  0
 55 57  1  0  0  0
 55126  1  0  0  0
 56 69  2  0  0  0
 57 58  2  0  0  0
 57127  1  0  0  0
 58128  1  0  0  0
 59 60  1  0  0  0
 59 61  1  0  0  0
 59 62  1  0  0  0
 60129  1  0  0  0
 60130  1  0  0  0
 60131  1  0  0  0
 61132  1  0  0  0
 61133  1  0  0  0
 61134  1  0  0  0
 62135  1  0  0  0
 62136  1  0  0  0
 62137  1  0  0  0
 63 65  1  0  0  0
 63138  1  0  0  0
 63139  1  0  0  0
 63140  1  0  0  0
 64141  1  0  0  0
 65142  1  0  0  0
 68 81  1  0  0  0
 71 73  2  0  0  0
 71 75  1  0  0  0
 71143  1  0  0  0
 72 74  1  0  0  0
 72 75  2  0  0  0
 72144  1  0  0  0
 73 76  1  0  0  0
 73145  1  0  0  0
 74 76  2  0  0  0
 74146  1  0  0  0
 75 77  1  0  0  0
 76 82  1  0  0  0
 77 78  2  0  0  0
 77147  1  0  0  0
 78 80  1  0  0  0
 78148  1  0  0  0
 79 80  1  0  0  0
 79 81  1  0  0  0
 79 83  2  0  0  0
 80149  1  0  0  0
 80150  1  0  0  0
 81151  1  0  0  0
 81152  1  0  0  0
 82153  1  0  0  0
M  ISO  4   1 100  68 101  81 101  82 100
M  END
> <chiral flag>
0

> <version>
0

> <s_m_source_file>
/data/baiqing/PycharmProjects/Reinvent-master-3.2/result/LINK_invent/BTK/process_docking_weight1_custom_product_contain_oxygen_bond_distance_aromatic_linkinvent_7_9_3/rearranged_h_0129.sdf

> <i_m_source_file_index>
36

> <r_mmod_Potential_Energy-OPLS-2005>
-42.0532760620117

> <r_mmod_Stretch_Energy-OPLS-2005>
38.6194915771484

> <r_mmod_Bend_Energy-OPLS-2005>
98.4330978393555

> <r_mmod_Torsional_Energy-OPLS-2005>
230.431091308594

> <r_mmod_Improper_Torsional_Energy-OPLS-2005>
3.43349575996399

> <r_mmod_Van_der_Waal_Energy-OPLS-2005>
147.775024414062

> <r_mmod_Electrostatic_Energy-OPLS-2005>
-345.995452880859

> <r_mmod_Solvation_Energy-OPLS-2005>
-225.94514465332

> <b_mmod_Minimization_Converged-OPLS-2005>
0

> <r_mmod_RMS_Derivative-OPLS-2005>
2.99671363830566

$$$$
36
                    3D
 Structure written by MMmdl.
159167  0  0  1  0            999 V2000
  -30.7359  -14.3745   20.5323 C   0  0  0  0  0  0
  -30.3867  -12.2296   19.4207 C   0  0  0  0  0  0
  -29.4930  -12.5214   18.1984 C   0  0  0  0  0  0
  -28.0025  -12.4157   18.5820 C   0  0  0  0  0  0
  -27.6588  -13.2123   19.8714 C   0  0  2  0  0  0
  -28.6897  -12.9541   20.9900 C   0  0  0  0  0  0
  -25.2606  -13.8194   20.5672 C   0  0  0  0  0  0
  -24.1873  -13.0461   20.9165 C   0  0  0  0  0  0
  -24.6440  -11.6938   20.8735 C   0  0  0  0  0  0
  -23.9141  -10.4308   21.0410 C   0  0  0  0  0  0
  -24.3686   -9.4241   21.9212 C   0  0  0  0  0  0
  -23.6339   -8.2280   22.0797 C   0  0  0  0  0  0
  -22.4333   -8.0317   21.3558 C   0  0  0  0  0  0
  -21.9989   -9.0290   20.4645 C   0  0  0  0  0  0
  -22.7324  -10.2153   20.3046 C   0  0  0  0  0  0
  -21.6876   -6.0781   22.5314 C   0  0  0  0  0  0
  -21.3995   -6.5669   23.8230 C   0  0  0  0  0  0
  -21.3660   -5.6817   24.9187 C   0  0  0  0  0  0
  -21.6054   -4.3086   24.7233 C   0  0  0  0  0  0
  -21.8811   -3.8197   23.4346 C   0  0  0  0  0  0
  -21.9198   -4.7014   22.3412 C   0  0  0  0  0  0
  -22.7884  -13.5276   21.1782 C   0  0  0  0  0  0
  -22.1661   -4.2216   21.0969 F   0  0  0  0  0  0
  -21.5637   -3.4546   25.7734 F   0  0  0  0  0  0
  -30.0302  -13.2176   20.4502 N   0  0  0  0  0  0
  -26.3020  -12.9353   20.3294 N   0  0  0  0  0  0
  -25.9353  -11.6524   20.5721 N   0  0  0  0  0  0
  -22.0484  -12.8281   22.0307 N   0  0  0  0  0  0
  -25.4384  -15.1900   20.4100 N   0  0  0  0  0  0
  -31.9031  -14.4475   20.1326 O   0  0  0  0  0  0
  -21.6669   -6.8936   21.4278 O   0  0  0  0  0  0
  -22.3595  -14.5582   20.6621 O   0  0  0  0  0  0
  -24.6103  -31.8684   23.2068 C   0  0  0  0  0  0
  -25.9014  -32.4807   23.8362 C   0  0  1  0  0  0
  -27.2337  -27.4488   20.0983 C   0  0  0  0  0  0
  -25.5899  -33.8608   24.2301 N   0  0  0  0  0  0
  -23.3920  -30.4861   21.5538 C   0  0  2  0  0  0
  -24.8372  -28.9472   20.1176 C   0  0  0  0  0  0
  -22.7352  -29.4660   22.5083 C   0  0  0  0  0  0
  -18.0249  -28.1387   22.8521 C   0  0  0  0  0  0
  -24.1465  -36.7284   23.2641 C   0  0  0  0  0  0
  -25.9145  -30.8354   21.3538 C   0  0  0  0  0  0
  -25.9917  -29.4650   20.7181 C   0  0  0  0  0  0
  -27.1864  -28.7162   20.7161 C   0  0  0  0  0  0
  -26.0643  -26.9471   19.4808 C   0  0  0  0  0  0
  -24.8667  -27.6850   19.5027 C   0  0  0  0  0  0
  -23.5909  -29.8011   20.1740 C   0  0  0  0  0  0
  -25.4093  -36.3087   24.0327 C   0  0  1  0  0  0
  -20.5830  -28.3645   23.1381 C   0  0  2  0  0  0
  -20.6752  -26.9402   22.5438 C   0  0  0  0  0  0
  -19.5709  -26.6363   21.5266 C   0  0  0  0  0  0
  -18.1887  -26.7931   22.1660 C   0  0  0  0  0  0
  -19.1499  -28.8838   23.2939 C   0  0  0  0  0  0
  -18.9430  -30.1472   23.8898 C   0  0  0  0  0  0
  -17.6434  -30.6613   24.0550 C   0  0  0  0  0  0
  -25.9027  -34.9460   23.5106 C   0  0  0  0  0  0
  -16.5325  -29.9098   23.6352 C   0  0  0  0  0  0
  -16.7246  -28.6519   23.0371 C   0  0  0  0  0  0
  -26.4429  -31.6568   25.0684 C   0  0  0  0  0  0
  -25.3656  -31.3632   26.1381 C   0  0  0  0  0  0
  -27.0280  -30.3029   24.6026 C   0  0  0  0  0  0
  -27.5980  -32.4263   25.7516 C   0  0  0  0  0  0
  -27.5552  -37.1795   24.8483 C   0  0  0  0  0  0
  -21.4086  -29.3016   22.3821 N   0  0  0  0  0  0
  -26.4269  -37.3781   23.9415 N   0  0  0  0  0  0
  -24.6578  -31.0777   22.0979 N   0  0  0  0  0  0
  -23.4144  -28.8227   23.3127 O   0  0  0  0  0  0
  -28.4298  -26.7687   20.1143 O   0  0  0  0  0  0
  -26.5594  -34.8918   22.4670 O   0  0  0  0  0  0
  -23.5313  -32.1454   23.7492 O   0  0  0  0  0  0
  -30.6472  -19.0891   19.8264 C   0  0  0  0  0  0
  -30.3377  -20.4410   20.0020 C   0  0  0  0  0  0
  -28.9573  -18.4691   21.4531 C   0  0  0  0  0  0
  -29.9888  -18.0967   20.5692 C   0  0  0  0  0  0
  -29.3505  -20.8425   20.9285 C   0  0  0  0  0  0
  -28.6272  -19.8333   21.6280 C   0  0  0  0  0  0
  -30.4534  -16.7263   20.3800 C   0  0  0  0  0  0
  -29.1188  -22.2840   21.1662 C   0  0  0  0  0  0
  -29.9966  -15.5722   20.9091 C   0  0  0  0  0  0
  -29.7492  -23.3021   20.5493 C   0  0  0  0  0  0
  -28.0038  -20.5917   23.9693 C   0  0  0  0  0  0
  -27.4950  -20.1713   22.5854 C   0  0  0  0  0  0
  -29.4962  -24.7616   20.8439 C   0  0  0  0  0  0
  -28.4288  -25.3567   19.9173 C   0  0  0  0  0  0
  -31.4404  -12.2593   19.1402 H   0  0  0  0  0  0
  -30.2130  -11.2159   19.7831 H   0  0  0  0  0  0
  -29.7225  -11.8360   17.3813 H   0  0  0  0  0  0
  -29.7044  -13.5215   17.8195 H   0  0  0  0  0  0
  -27.7610  -11.3594   18.7045 H   0  0  0  0  0  0
  -27.3841  -12.7695   17.7558 H   0  0  0  0  0  0
  -27.7103  -14.2697   19.6139 H   0  0  0  0  0  0
  -28.6247  -11.9127   21.3137 H   0  0  0  0  0  0
  -28.4713  -13.5452   21.8779 H   0  0  0  0  0  0
  -25.2821   -9.5733   22.4813 H   0  0  0  0  0  0
  -24.0051   -7.4703   22.7534 H   0  0  0  0  0  0
  -21.0943   -8.8822   19.8918 H   0  0  0  0  0  0
  -22.3839  -10.9713   19.6137 H   0  0  0  0  0  0
  -21.1967   -7.6185   23.9775 H   0  0  0  0  0  0
  -21.1469   -6.0525   25.9096 H   0  0  0  0  0  0
  -22.0593   -2.7669   23.2831 H   0  0  0  0  0  0
  -22.4051  -11.9939   22.4725 H   0  0  0  0  0  0
  -21.1086  -13.1330   22.2410 H   0  0  0  0  0  0
  -24.6868  -15.8590   20.5356 H   0  0  0  0  0  0
  -26.3054  -15.6206   20.1127 H   0  0  0  0  0  0
  -26.7096  -32.5520   23.1151 H   0  0  0  0  0  0
  -25.0055  -33.9771   25.0447 H   0  0  0  0  0  0
  -22.6798  -31.3010   21.4121 H   0  0  0  0  0  0
  -23.3737  -35.9609   23.3303 H   0  0  0  0  0  0
  -24.3562  -36.8906   22.2058 H   0  0  0  0  0  0
  -23.7201  -37.6468   23.6678 H   0  0  0  0  0  0
  -26.0035  -31.5886   20.5692 H   0  0  0  0  0  0
  -26.8118  -30.9101   21.9561 H   0  0  0  0  0  0
  -28.0725  -29.1001   21.2007 H   0  0  0  0  0  0
  -26.0626  -25.9978   18.9669 H   0  0  0  0  0  0
  -23.9784  -27.2786   19.0380 H   0  0  0  0  0  0
  -23.6650  -30.5585   19.3940 H   0  0  0  0  0  0
  -22.7199  -29.1963   19.9113 H   0  0  0  0  0  0
  -25.1284  -36.1931   25.0819 H   0  0  0  0  0  0
  -20.9908  -28.3187   24.1502 H   0  0  0  0  0  0
  -20.5755  -26.2232   23.3605 H   0  0  0  0  0  0
  -21.6612  -26.7522   22.1157 H   0  0  0  0  0  0
  -19.6853  -25.6261   21.1317 H   0  0  0  0  0  0
  -19.6647  -27.3163   20.6789 H   0  0  0  0  0  0
  -17.4174  -26.6743   21.4041 H   0  0  0  0  0  0
  -18.0229  -26.0074   22.9041 H   0  0  0  0  0  0
  -19.7903  -30.7329   24.2210 H   0  0  0  0  0  0
  -17.4982  -31.6314   24.5109 H   0  0  0  0  0  0
  -15.5323  -30.3004   23.7670 H   0  0  0  0  0  0
  -15.8644  -28.0856   22.7057 H   0  0  0  0  0  0
  -24.5894  -30.6931   25.7665 H   0  0  0  0  0  0
  -24.8760  -32.2755   26.4787 H   0  0  0  0  0  0
  -25.7951  -30.8815   27.0166 H   0  0  0  0  0  0
  -26.2853  -29.6806   24.1017 H   0  0  0  0  0  0
  -27.4016  -29.7229   25.4473 H   0  0  0  0  0  0
  -27.8676  -30.4382   23.9203 H   0  0  0  0  0  0
  -27.2608  -33.3584   26.2059 H   0  0  0  0  0  0
  -28.3863  -32.6752   25.0405 H   0  0  0  0  0  0
  -28.0543  -31.8369   26.5478 H   0  0  0  0  0  0
  -28.2575  -38.0093   24.7557 H   0  0  0  0  0  0
  -28.1050  -36.2622   24.6309 H   0  0  0  0  0  0
  -27.2261  -37.1425   25.8884 H   0  0  0  0  0  0
  -20.9241  -29.8710   21.7030 H   0  0  0  0  0  0
  -26.0141  -38.2847   24.1441 H   0  0  0  0  0  0
  -31.4292  -18.8237   19.1290 H   0  0  0  0  0  0
  -30.9040  -21.1493   19.4171 H   0  0  0  0  0  0
  -28.4302  -17.7126   22.0178 H   0  0  0  0  0  0
  -31.3030  -16.6729   19.7105 H   0  0  0  0  0  0
  -28.3848  -22.5452   21.9141 H   0  0  0  0  0  0
  -29.1433  -15.5522   21.5703 H   0  0  0  0  0  0
  -30.4942  -23.1312   19.7870 H   0  0  0  0  0  0
  -27.1701  -20.8833   24.6077 H   0  0  0  0  0  0
  -28.6847  -21.4396   23.9098 H   0  0  0  0  0  0
  -28.5360  -19.7752   24.4602 H   0  0  0  0  0  0
  -26.8462  -19.3015   22.6921 H   0  0  0  0  0  0
  -26.8578  -20.9421   22.1528 H   0  0  0  0  0  0
  -30.4404  -25.2994   20.7511 H   0  0  0  0  0  0
  -29.1822  -24.8655   21.8827 H   0  0  0  0  0  0
  -27.4812  -24.8827   20.1785 H   0  0  0  0  0  0
  -28.6331  -25.1307   18.8685 H   0  0  0  0  0  0
  1 25  1  0  0  0
  1 30  2  0  0  0
  1 79  1  0  0  0
  2  3  1  0  0  0
  2 25  1  0  0  0
  2 85  1  0  0  0
  2 86  1  0  0  0
  3  4  1  0  0  0
  3 87  1  0  0  0
  3 88  1  0  0  0
  4  5  1  0  0  0
  4 89  1  0  0  0
  4 90  1  0  0  0
  5  6  1  0  0  0
  5 26  1  0  0  0
  5 91  1  0  0  0
  6 25  1  0  0  0
  6 92  1  0  0  0
  6 93  1  0  0  0
  7  8  2  0  0  0
  7 26  1  0  0  0
  7 29  1  0  0  0
  8  9  1  0  0  0
  8 22  1  0  0  0
  9 10  1  0  0  0
  9 27  2  0  0  0
 10 11  2  0  0  0
 10 15  1  0  0  0
 11 12  1  0  0  0
 11 94  1  0  0  0
 12 13  2  0  0  0
 12 95  1  0  0  0
 13 14  1  0  0  0
 13 31  1  0  0  0
 14 15  2  0  0  0
 14 96  1  0  0  0
 15 97  1  0  0  0
 16 17  2  0  0  0
 16 21  1  0  0  0
 16 31  1  0  0  0
 17 18  1  0  0  0
 17 98  1  0  0  0
 18 19  2  0  0  0
 18 99  1  0  0  0
 19 20  1  0  0  0
 19 24  1  0  0  0
 20 21  2  0  0  0
 20100  1  0  0  0
 21 23  1  0  0  0
 22 28  1  0  0  0
 22 32  2  0  0  0
 26 27  1  0  0  0
 28101  1  0  0  0
 28102  1  0  0  0
 29103  1  0  0  0
 29104  1  0  0  0
 33 34  1  0  0  0
 33 66  1  0  0  0
 33 70  2  0  0  0
 34 36  1  0  0  0
 34 59  1  0  0  0
 34105  1  0  0  0
 35 44  2  0  0  0
 35 45  1  0  0  0
 35 68  1  0  0  0
 36 56  1  0  0  0
 36106  1  0  0  0
 37 39  1  0  0  0
 37 47  1  0  0  0
 37 66  1  0  0  0
 37107  1  0  0  0
 38 43  2  0  0  0
 38 46  1  0  0  0
 38 47  1  0  0  0
 39 64  1  0  0  0
 39 67  2  0  0  0
 40 52  1  0  0  0
 40 53  2  0  0  0
 40 58  1  0  0  0
 41108  1  0  0  0
 41109  1  0  0  0
 41110  1  0  0  0
 41 48  1  0  0  0
 42 43  1  0  0  0
 42 66  1  0  0  0
 42111  1  0  0  0
 42112  1  0  0  0
 43 44  1  0  0  0
 44113  1  0  0  0
 45 46  2  0  0  0
 45114  1  0  0  0
 46115  1  0  0  0
 47116  1  0  0  0
 47117  1  0  0  0
 48 56  1  0  0  0
 48 65  1  0  0  0
 48118  1  0  0  0
 49 50  1  0  0  0
 49 53  1  0  0  0
 49 64  1  0  0  0
 49119  1  0  0  0
 50 51  1  0  0  0
 50120  1  0  0  0
 50121  1  0  0  0
 51 52  1  0  0  0
 51122  1  0  0  0
 51123  1  0  0  0
 52124  1  0  0  0
 52125  1  0  0  0
 53 54  1  0  0  0
 54 55  2  0  0  0
 54126  1  0  0  0
 55 57  1  0  0  0
 55127  1  0  0  0
 56 69  2  0  0  0
 57 58  2  0  0  0
 57128  1  0  0  0
 58129  1  0  0  0
 59 60  1  0  0  0
 59 61  1  0  0  0
 59 62  1  0  0  0
 60130  1  0  0  0
 60131  1  0  0  0
 60132  1  0  0  0
 61133  1  0  0  0
 61134  1  0  0  0
 61135  1  0  0  0
 62136  1  0  0  0
 62137  1  0  0  0
 62138  1  0  0  0
 63 65  1  0  0  0
 63139  1  0  0  0
 63140  1  0  0  0
 63141  1  0  0  0
 64142  1  0  0  0
 65143  1  0  0  0
 68 84  1  0  0  0
 71 72  2  0  0  0
 71 74  1  0  0  0
 71144  1  0  0  0
 72 75  1  0  0  0
 72145  1  0  0  0
 73 74  2  0  0  0
 73 76  1  0  0  0
 73146  1  0  0  0
 74 77  1  0  0  0
 75 76  2  0  0  0
 75 78  1  0  0  0
 76 82  1  0  0  0
 77 79  2  0  0  0
 77147  1  0  0  0
 78 80  2  0  0  0
 78148  1  0  0  0
 79149  1  0  0  0
 80 83  1  0  0  0
 80150  1  0  0  0
 81 82  1  0  0  0
 81151  1  0  0  0
 81152  1  0  0  0
 81153  1  0  0  0
 82154  1  0  0  0
 82155  1  0  0  0
 83 84  1  0  0  0
 83156  1  0  0  0
 83157  1  0  0  0
 84158  1  0  0  0
 84159  1  0  0  0
M  ISO  4   1 100  68 101  79 100  84 101
M  END
> <chiral flag>
0

> <version>
0

> <s_m_source_file>
/data/baiqing/PycharmProjects/Reinvent-master-3.2/result/LINK_invent/BTK/process_docking_weight1_custom_product_contain_oxygen_bond_distance_aromatic_linkinvent_7_9_3/rearranged_h_0129.sdf

> <i_m_source_file_index>
37

> <r_mmod_Potential_Energy-OPLS-2005>
-8.32524490356445

> <r_mmod_Stretch_Energy-OPLS-2005>
31.7214946746826

> <r_mmod_Bend_Energy-OPLS-2005>
105.462799072266

> <r_mmod_Torsional_Energy-OPLS-2005>
186.834014892578

> <r_mmod_Improper_Torsional_Energy-OPLS-2005>
4.63397073745728

> <r_mmod_Van_der_Waal_Energy-OPLS-2005>
175.090316772461

> <r_mmod_Electrostatic_Energy-OPLS-2005>
-341.108795166016

> <r_mmod_Solvation_Energy-OPLS-2005>
-187.841659545898

> <b_mmod_Minimization_Converged-OPLS-2005>
0

> <r_mmod_RMS_Derivative-OPLS-2005>
4.09355306625366

$$$$
37
                    3D
 Structure written by MMmdl.
155163  0  0  1  0            999 V2000
  -30.7753  -14.4420   20.5435 C   0  0  0  0  0  0
  -30.3944  -12.2855   19.4307 C   0  0  0  0  0  0
  -29.4822  -12.4966   18.2076 C   0  0  0  0  0  0
  -28.0055  -12.3669   18.6181 C   0  0  0  0  0  0
  -27.6553  -13.2201   19.8666 C   0  0  2  0  0  0
  -28.6999  -13.0475   20.9930 C   0  0  0  0  0  0
  -25.2565  -13.8207   20.5697 C   0  0  0  0  0  0
  -24.1824  -13.0452   20.9181 C   0  0  0  0  0  0
  -24.6400  -11.6931   20.8748 C   0  0  0  0  0  0
  -23.9079  -10.4304   21.0410 C   0  0  0  0  0  0
  -24.3636   -9.4217   21.9182 C   0  0  0  0  0  0
  -23.6305   -8.2255   22.0760 C   0  0  0  0  0  0
  -22.4289   -8.0298   21.3551 C   0  0  0  0  0  0
  -21.9930   -9.0268   20.4647 C   0  0  0  0  0  0
  -22.7257  -10.2145   20.3056 C   0  0  0  0  0  0
  -21.6862   -6.0751   22.5279 C   0  0  0  0  0  0
  -21.4020   -6.5657   23.8213 C   0  0  0  0  0  0
  -21.3655   -5.6812   24.9179 C   0  0  0  0  0  0
  -21.6040   -4.3072   24.7220 C   0  0  0  0  0  0
  -21.8825   -3.8162   23.4346 C   0  0  0  0  0  0
  -21.9198   -4.6980   22.3406 C   0  0  0  0  0  0
  -22.7848  -13.5230   21.1848 C   0  0  0  0  0  0
  -22.1668   -4.2172   21.0982 F   0  0  0  0  0  0
  -21.5619   -3.4550   25.7730 F   0  0  0  0  0  0
  -30.0328  -13.3050   20.4309 N   0  0  0  0  0  0
  -26.3001  -12.9399   20.3352 N   0  0  0  0  0  0
  -25.9336  -11.6543   20.5779 N   0  0  0  0  0  0
  -22.0499  -12.8200   22.0401 N   0  0  0  0  0  0
  -25.4296  -15.1916   20.4114 N   0  0  0  0  0  0
  -31.9219  -14.4897   20.0912 O   0  0  0  0  0  0
  -21.6649   -6.8899   21.4245 O   0  0  0  0  0  0
  -22.3526  -14.5529   20.6704 O   0  0  0  0  0  0
  -24.6133  -31.8710   23.2130 C   0  0  0  0  0  0
  -25.9040  -32.4837   23.8403 C   0  0  1  0  0  0
  -27.2218  -27.4445   20.0922 C   0  0  0  0  0  0
  -25.5917  -33.8636   24.2342 N   0  0  0  0  0  0
  -23.3990  -30.4970   21.5550 C   0  0  2  0  0  0
  -24.8401  -28.9670   20.1161 C   0  0  0  0  0  0
  -22.7408  -29.4671   22.5007 C   0  0  0  0  0  0
  -18.0273  -28.1402   22.8488 C   0  0  0  0  0  0
  -24.1497  -36.7319   23.2622 C   0  0  0  0  0  0
  -25.9276  -30.8395   21.3644 C   0  0  0  0  0  0
  -26.0010  -29.4752   20.7114 C   0  0  0  0  0  0
  -27.1937  -28.7209   20.6971 C   0  0  0  0  0  0
  -26.0428  -26.9547   19.4812 C   0  0  0  0  0  0
  -24.8549  -27.7052   19.5008 C   0  0  0  0  0  0
  -23.6061  -29.8368   20.1667 C   0  0  0  0  0  0
  -25.4109  -36.3118   24.0336 C   0  0  1  0  0  0
  -20.5858  -28.3677   23.1340 C   0  0  2  0  0  0
  -20.6776  -26.9423   22.5422 C   0  0  0  0  0  0
  -19.5754  -26.6407   21.5223 C   0  0  0  0  0  0
  -18.1926  -26.7950   22.1625 C   0  0  0  0  0  0
  -19.1516  -28.8860   23.2908 C   0  0  0  0  0  0
  -18.9447  -30.1466   23.8917 C   0  0  0  0  0  0
  -17.6447  -30.6605   24.0582 C   0  0  0  0  0  0
  -25.9046  -34.9483   23.5127 C   0  0  0  0  0  0
  -16.5339  -29.9111   23.6330 C   0  0  0  0  0  0
  -16.7262  -28.6533   23.0341 C   0  0  0  0  0  0
  -26.4455  -31.6597   25.0720 C   0  0  0  0  0  0
  -25.3726  -31.3706   26.1473 C   0  0  0  0  0  0
  -27.0258  -30.3036   24.6068 C   0  0  0  0  0  0
  -27.6047  -32.4280   25.7487 C   0  0  0  0  0  0
  -27.5604  -37.1795   24.8440 C   0  0  0  0  0  0
  -21.4136  -29.3047   22.3764 N   0  0  0  0  0  0
  -26.4285  -37.3816   23.9434 N   0  0  0  0  0  0
  -24.6653  -31.0821   22.1035 N   0  0  0  0  0  0
  -23.4199  -28.8204   23.3027 O   0  0  0  0  0  0
  -28.4019  -26.7335   20.1100 O   0  0  0  0  0  0
  -26.5608  -34.8926   22.4688 O   0  0  0  0  0  0
  -23.5334  -32.1456   23.7539 O   0  0  0  0  0  0
  -29.3138  -18.7094   21.2598 C   0  0  0  0  0  0
  -29.1180  -20.1033   21.3812 C   0  0  0  0  0  0
  -31.6188  -18.9917   21.9655 C   0  0  0  0  0  0
  -30.5812  -18.1476   21.5168 C   0  0  0  0  0  0
  -30.1723  -20.9550   21.7899 C   0  0  0  0  0  0
  -31.4316  -20.3832   22.0900 C   0  0  0  0  0  0
  -30.9206  -16.7397   21.2481 C   0  0  0  0  0  0
  -30.0179  -22.4215   21.8069 C   0  0  0  0  0  0
  -30.1234  -15.6687   21.0113 C   0  0  0  0  0  0
  -29.2656  -23.1377   20.9492 C   0  0  0  0  0  0
  -29.1926  -24.6082   21.0241 C   0  0  0  0  0  0
  -32.6164  -21.2551   22.4767 C   0  0  0  0  0  0
  -28.3212  -25.3080   19.9764 C   0  0  0  0  0  0
  -29.7890  -25.2738   21.8801 O   0  0  0  0  0  0
  -31.4399  -12.3278   19.1217 H   0  0  0  0  0  0
  -30.2533  -11.2871   19.8480 H   0  0  0  0  0  0
  -29.7160  -11.7729   17.4254 H   0  0  0  0  0  0
  -29.6611  -13.4840   17.7772 H   0  0  0  0  0  0
  -27.8063  -11.3132   18.8181 H   0  0  0  0  0  0
  -27.3590  -12.6421   17.7830 H   0  0  0  0  0  0
  -27.6875  -14.2616   19.5471 H   0  0  0  0  0  0
  -28.6642  -12.0355   21.3955 H   0  0  0  0  0  0
  -28.4762  -13.7052   21.8339 H   0  0  0  0  0  0
  -25.2793   -9.5687   22.4744 H   0  0  0  0  0  0
  -24.0019   -7.4653   22.7483 H   0  0  0  0  0  0
  -21.0871   -8.8790   19.8937 H   0  0  0  0  0  0
  -22.3728  -10.9691   19.6168 H   0  0  0  0  0  0
  -21.2024   -7.6171   23.9713 H   0  0  0  0  0  0
  -21.1463   -6.0550   25.9079 H   0  0  0  0  0  0
  -22.0607   -2.7624   23.2840 H   0  0  0  0  0  0
  -22.4143  -11.9871   22.4778 H   0  0  0  0  0  0
  -21.1103  -13.1197   22.2594 H   0  0  0  0  0  0
  -24.6679  -15.8524   20.5215 H   0  0  0  0  0  0
  -26.2906  -15.6269   20.1055 H   0  0  0  0  0  0
  -26.7121  -32.5553   23.1175 H   0  0  0  0  0  0
  -25.0085  -33.9807   25.0500 H   0  0  0  0  0  0
  -22.6852  -31.3123   21.4212 H   0  0  0  0  0  0
  -23.3785  -35.9622   23.3215 H   0  0  0  0  0  0
  -24.3622  -36.9008   22.2054 H   0  0  0  0  0  0
  -23.7207  -37.6483   23.6680 H   0  0  0  0  0  0
  -26.0346  -31.6070   20.5957 H   0  0  0  0  0  0
  -26.8188  -30.8938   21.9778 H   0  0  0  0  0  0
  -28.0898  -29.1086   21.1619 H   0  0  0  0  0  0
  -26.0175  -26.0032   18.9717 H   0  0  0  0  0  0
  -23.9632  -27.3105   19.0337 H   0  0  0  0  0  0
  -23.7250  -30.6182   19.4154 H   0  0  0  0  0  0
  -22.7270  -29.2660   19.8623 H   0  0  0  0  0  0
  -25.1273  -36.1966   25.0827 H   0  0  0  0  0  0
  -20.9939  -28.3244   24.1465 H   0  0  0  0  0  0
  -20.5722  -26.2277   23.3598 H   0  0  0  0  0  0
  -21.6648  -26.7503   22.1194 H   0  0  0  0  0  0
  -19.6927  -25.6324   21.1249 H   0  0  0  0  0  0
  -19.6701  -27.3227   20.6762 H   0  0  0  0  0  0
  -17.4202  -26.6707   21.4020 H   0  0  0  0  0  0
  -18.0312  -26.0090   22.9011 H   0  0  0  0  0  0
  -19.7921  -30.7287   24.2288 H   0  0  0  0  0  0
  -17.5002  -31.6284   24.5189 H   0  0  0  0  0  0
  -15.5343  -30.3026   23.7635 H   0  0  0  0  0  0
  -15.8662  -28.0872   22.7023 H   0  0  0  0  0  0
  -24.5882  -30.7072   25.7808 H   0  0  0  0  0  0
  -24.8933  -32.2869   26.4935 H   0  0  0  0  0  0
  -25.8078  -30.8856   27.0220 H   0  0  0  0  0  0
  -26.2797  -29.6847   24.1074 H   0  0  0  0  0  0
  -27.3975  -29.7212   25.4505 H   0  0  0  0  0  0
  -27.8652  -30.4340   23.9237 H   0  0  0  0  0  0
  -27.2687  -33.3557   26.2123 H   0  0  0  0  0  0
  -28.3842  -32.6872   25.0312 H   0  0  0  0  0  0
  -28.0730  -31.8359   26.5358 H   0  0  0  0  0  0
  -28.2529  -38.0183   24.7635 H   0  0  0  0  0  0
  -28.1194  -36.2730   24.6071 H   0  0  0  0  0  0
  -27.2352  -37.1213   25.8841 H   0  0  0  0  0  0
  -20.9297  -29.8783   21.7002 H   0  0  0  0  0  0
  -26.0164  -38.2866   24.1539 H   0  0  0  0  0  0
  -28.5004  -18.0913   20.9068 H   0  0  0  0  0  0
  -28.1496  -20.5185   21.1393 H   0  0  0  0  0  0
  -32.5953  -18.5717   22.1645 H   0  0  0  0  0  0
  -31.9910  -16.5927   21.1778 H   0  0  0  0  0  0
  -30.5559  -22.9466   22.5856 H   0  0  0  0  0  0
  -29.0506  -15.7426   21.1029 H   0  0  0  0  0  0
  -28.7046  -22.6508   20.1653 H   0  0  0  0  0  0
  -33.5361  -20.6766   22.5548 H   0  0  0  0  0  0
  -32.4431  -21.7431   23.4358 H   0  0  0  0  0  0
  -32.7800  -22.0269   21.7238 H   0  0  0  0  0  0
  -27.3151  -24.9225   20.1291 H   0  0  0  0  0  0
  -28.6423  -25.0147   18.9775 H   0  0  0  0  0  0
  1 25  1  0  0  0
  1 30  2  0  0  0
  1 79  1  0  0  0
  2  3  1  0  0  0
  2 25  1  0  0  0
  2 85  1  0  0  0
  2 86  1  0  0  0
  3  4  1  0  0  0
  3 87  1  0  0  0
  3 88  1  0  0  0
  4  5  1  0  0  0
  4 89  1  0  0  0
  4 90  1  0  0  0
  5  6  1  0  0  0
  5 26  1  0  0  0
  5 91  1  0  0  0
  6 25  1  0  0  0
  6 92  1  0  0  0
  6 93  1  0  0  0
  7  8  2  0  0  0
  7 26  1  0  0  0
  7 29  1  0  0  0
  8  9  1  0  0  0
  8 22  1  0  0  0
  9 10  1  0  0  0
  9 27  2  0  0  0
 10 11  2  0  0  0
 10 15  1  0  0  0
 11 12  1  0  0  0
 11 94  1  0  0  0
 12 13  2  0  0  0
 12 95  1  0  0  0
 13 14  1  0  0  0
 13 31  1  0  0  0
 14 15  2  0  0  0
 14 96  1  0  0  0
 15 97  1  0  0  0
 16 17  2  0  0  0
 16 21  1  0  0  0
 16 31  1  0  0  0
 17 18  1  0  0  0
 17 98  1  0  0  0
 18 19  2  0  0  0
 18 99  1  0  0  0
 19 20  1  0  0  0
 19 24  1  0  0  0
 20 21  2  0  0  0
 20100  1  0  0  0
 21 23  1  0  0  0
 22 28  1  0  0  0
 22 32  2  0  0  0
 26 27  1  0  0  0
 28101  1  0  0  0
 28102  1  0  0  0
 29103  1  0  0  0
 29104  1  0  0  0
 33 34  1  0  0  0
 33 66  1  0  0  0
 33 70  2  0  0  0
 34 36  1  0  0  0
 34 59  1  0  0  0
 34105  1  0  0  0
 35 44  2  0  0  0
 35 45  1  0  0  0
 35 68  1  0  0  0
 36 56  1  0  0  0
 36106  1  0  0  0
 37 39  1  0  0  0
 37 47  1  0  0  0
 37 66  1  0  0  0
 37107  1  0  0  0
 38 43  2  0  0  0
 38 46  1  0  0  0
 38 47  1  0  0  0
 39 64  1  0  0  0
 39 67  2  0  0  0
 40 52  1  0  0  0
 40 53  2  0  0  0
 40 58  1  0  0  0
 41108  1  0  0  0
 41109  1  0  0  0
 41110  1  0  0  0
 41 48  1  0  0  0
 42 43  1  0  0  0
 42 66  1  0  0  0
 42111  1  0  0  0
 42112  1  0  0  0
 43 44  1  0  0  0
 44113  1  0  0  0
 45 46  2  0  0  0
 45114  1  0  0  0
 46115  1  0  0  0
 47116  1  0  0  0
 47117  1  0  0  0
 48 56  1  0  0  0
 48 65  1  0  0  0
 48118  1  0  0  0
 49 50  1  0  0  0
 49 53  1  0  0  0
 49 64  1  0  0  0
 49119  1  0  0  0
 50 51  1  0  0  0
 50120  1  0  0  0
 50121  1  0  0  0
 51 52  1  0  0  0
 51122  1  0  0  0
 51123  1  0  0  0
 52124  1  0  0  0
 52125  1  0  0  0
 53 54  1  0  0  0
 54 55  2  0  0  0
 54126  1  0  0  0
 55 57  1  0  0  0
 55127  1  0  0  0
 56 69  2  0  0  0
 57 58  2  0  0  0
 57128  1  0  0  0
 58129  1  0  0  0
 59 60  1  0  0  0
 59 61  1  0  0  0
 59 62  1  0  0  0
 60130  1  0  0  0
 60131  1  0  0  0
 60132  1  0  0  0
 61133  1  0  0  0
 61134  1  0  0  0
 61135  1  0  0  0
 62136  1  0  0  0
 62137  1  0  0  0
 62138  1  0  0  0
 63 65  1  0  0  0
 63139  1  0  0  0
 63140  1  0  0  0
 63141  1  0  0  0
 64142  1  0  0  0
 65143  1  0  0  0
 68 83  1  0  0  0
 71 72  2  0  0  0
 71 74  1  0  0  0
 71144  1  0  0  0
 72 75  1  0  0  0
 72145  1  0  0  0
 73 74  2  0  0  0
 73 76  1  0  0  0
 73146  1  0  0  0
 74 77  1  0  0  0
 75 76  2  0  0  0
 75 78  1  0  0  0
 76 82  1  0  0  0
 77 79  2  0  0  0
 77147  1  0  0  0
 78 80  2  0  0  0
 78148  1  0  0  0
 79149  1  0  0  0
 80 81  1  0  0  0
 80150  1  0  0  0
 81 83  1  0  0  0
 81 84  2  0  0  0
 82151  1  0  0  0
 82152  1  0  0  0
 82153  1  0  0  0
 83154  1  0  0  0
 83155  1  0  0  0
M  ISO  4   1 100  68 101  79 100  83 101
M  END
> <chiral flag>
0

> <version>
0

> <s_m_source_file>
/data/baiqing/PycharmProjects/Reinvent-master-3.2/result/LINK_invent/BTK/process_docking_weight1_custom_product_contain_oxygen_bond_distance_aromatic_linkinvent_7_9_3/rearranged_h_0129.sdf

> <i_m_source_file_index>
38

> <r_mmod_Potential_Energy-OPLS-2005>
-19.9040107727051

> <r_mmod_Stretch_Energy-OPLS-2005>
34.2826461791992

> <r_mmod_Bend_Energy-OPLS-2005>
102.909164428711

> <r_mmod_Torsional_Energy-OPLS-2005>
192.230804443359

> <r_mmod_Improper_Torsional_Energy-OPLS-2005>
5.97501993179321

> <r_mmod_Van_der_Waal_Energy-OPLS-2005>
172.593307495117

> <r_mmod_Electrostatic_Energy-OPLS-2005>
-328.942138671875

> <r_mmod_Solvation_Energy-OPLS-2005>
-217.110733032227

> <b_mmod_Minimization_Converged-OPLS-2005>
0

> <r_mmod_RMS_Derivative-OPLS-2005>
1.99408102035522

$$$$
38
                    3D
 Structure written by MMmdl.
167176  0  0  1  0            999 V2000
  -30.7036  -14.5332   20.5129 C   0  0  0  0  0  0
  -30.4260  -12.3232   19.4108 C   0  0  0  0  0  0
  -29.5063  -12.5457   18.2073 C   0  0  0  0  0  0
  -28.0277  -12.3741   18.6204 C   0  0  0  0  0  0
  -27.6623  -13.2104   19.8790 C   0  0  2  0  0  0
  -28.7186  -13.0108   20.9897 C   0  0  0  0  0  0
  -25.2562  -13.8105   20.5792 C   0  0  0  0  0  0
  -24.1818  -13.0414   20.9176 C   0  0  0  0  0  0
  -24.6355  -11.6834   20.8704 C   0  0  0  0  0  0
  -23.9034  -10.4245   21.0361 C   0  0  0  0  0  0
  -24.3586   -9.4152   21.9162 C   0  0  0  0  0  0
  -23.6314   -8.2190   22.0720 C   0  0  0  0  0  0
  -22.4283   -8.0218   21.3525 C   0  0  0  0  0  0
  -21.9901   -9.0205   20.4614 C   0  0  0  0  0  0
  -22.7195  -10.2080   20.3036 C   0  0  0  0  0  0
  -21.6836   -6.0671   22.5237 C   0  0  0  0  0  0
  -21.4001   -6.5602   23.8165 C   0  0  0  0  0  0
  -21.3715   -5.6800   24.9174 C   0  0  0  0  0  0
  -21.6075   -4.3072   24.7242 C   0  0  0  0  0  0
  -21.8828   -3.8124   23.4354 C   0  0  0  0  0  0
  -21.9182   -4.6914   22.3386 C   0  0  0  0  0  0
  -22.7790  -13.5103   21.1993 C   0  0  0  0  0  0
  -22.1652   -4.2095   21.1023 F   0  0  0  0  0  0
  -21.5666   -3.4574   25.7788 F   0  0  0  0  0  0
  -30.0580  -13.3535   20.4189 N   0  0  0  0  0  0
  -26.2979  -12.9320   20.3344 N   0  0  0  0  0  0
  -25.9307  -11.6439   20.5696 N   0  0  0  0  0  0
  -22.0565  -12.8058   22.0545 N   0  0  0  0  0  0
  -25.4234  -15.1901   20.4305 N   0  0  0  0  0  0
  -31.8840  -14.6317   20.1398 O   0  0  0  0  0  0
  -21.6634   -6.8793   21.4197 O   0  0  0  0  0  0
  -22.3503  -14.5477   20.6900 O   0  0  0  0  0  0
  -24.6320  -31.8732   23.2217 C   0  0  0  0  0  0
  -25.9278  -32.4829   23.8493 C   0  0  1  0  0  0
  -27.2030  -27.4078   20.0779 C   0  0  0  0  0  0
  -25.6097  -33.8576   24.2371 N   0  0  0  0  0  0
  -23.4365  -30.5044   21.5677 C   0  0  2  0  0  0
  -24.8605  -28.9915   20.0949 C   0  0  0  0  0  0
  -22.7758  -29.4819   22.5194 C   0  0  0  0  0  0
  -17.9954  -28.1128   22.8901 C   0  0  0  0  0  0
  -24.1532  -36.7241   23.2624 C   0  0  0  0  0  0
  -25.9652  -30.7937   21.4161 C   0  0  0  0  0  0
  -26.0131  -29.4426   20.7507 C   0  0  0  0  0  0
  -27.1816  -28.6406   20.7677 C   0  0  0  0  0  0
  -26.0931  -27.0794   19.2778 C   0  0  0  0  0  0
  -24.9025  -27.8103   19.3365 C   0  0  0  0  0  0
  -23.6312  -29.8504   20.1701 C   0  0  0  0  0  0
  -25.4159  -36.3030   24.0309 C   0  0  1  0  0  0
  -20.4813  -28.4570   22.7493 C   0  0  2  0  0  0
  -20.6872  -26.9571   22.5209 C   0  0  0  0  0  0
  -19.5401  -26.4419   21.6262 C   0  0  0  0  0  0
  -18.1512  -26.7433   22.2242 C   0  0  0  0  0  0
  -19.1213  -28.8935   23.2468 C   0  0  0  0  0  0
  -18.9564  -30.1499   23.8528 C   0  0  0  0  0  0
  -17.6565  -30.6538   24.0703 C   0  0  0  0  0  0
  -25.9100  -34.9432   23.5116 C   0  0  0  0  0  0
  -16.5318  -29.8909   23.6964 C   0  0  0  0  0  0
  -16.7029  -28.6157   23.1270 C   0  0  0  0  0  0
  -26.4584  -31.6538   25.0755 C   0  0  0  0  0  0
  -25.3787  -31.3640   26.1433 C   0  0  0  0  0  0
  -27.0449  -30.2999   24.6225 C   0  0  0  0  0  0
  -27.6163  -32.4256   25.7472 C   0  0  0  0  0  0
  -27.5593  -37.1780   24.8478 C   0  0  0  0  0  0
  -21.4631  -29.4383   22.3670 N   0  0  0  0  0  0
  -26.4309  -37.3757   23.9413 N   0  0  0  0  0  0
  -24.6978  -31.0781   22.1221 N   0  0  0  0  0  0
  -23.4192  -28.7607   23.2806 O   0  0  0  0  0  0
  -28.3029  -26.5642   20.1988 O   0  0  0  0  0  0
  -26.5566  -34.8881   22.4606 O   0  0  0  0  0  0
  -23.5443  -32.1584   23.7533 O   0  0  0  0  0  0
  -28.0132  -17.2887   24.7439 C   0  0  0  0  0  0
  -28.8217  -16.6451   23.7761 C   0  0  0  0  0  0
  -27.9170  -18.6952   24.7574 C   0  0  0  0  0  0
  -29.5179  -18.7913   22.9029 C   0  0  0  0  0  0
  -29.5710  -17.3787   22.8184 C   0  0  0  0  0  0
  -28.6783  -19.4492   23.8455 C   0  0  0  0  0  0
  -27.9683  -23.1338   21.2110 C   0  0  0  0  0  0
  -27.4337  -24.1247   20.4327 C   0  0  0  0  0  0
  -27.0882  -22.0569   21.7299 C   0  0  0  0  0  0
  -30.3990  -16.6223   21.8355 C   0  0  0  0  0  0
  -27.3437  -21.1665   22.7266 C   0  0  0  0  0  0
  -29.8843  -15.5975   21.0932 C   0  0  0  0  0  0
  -25.9290  -24.1250   20.1165 C   0  0  0  0  0  0
  -25.7633  -21.7334   21.0438 C   0  0  0  0  0  0
  -25.2651  -22.7520   20.0461 C   0  0  0  0  0  0
  -29.4786  -23.0471   21.4030 C   0  0  0  0  0  0
  -28.4446  -20.9523   23.7476 C   0  0  0  0  0  0
  -28.2589  -25.2144   19.6775 C   0  0  0  0  0  0
  -31.4693  -12.4038   19.1320 H   0  0  0  0  0  0
  -30.3018  -11.3174   19.8116 H   0  0  0  0  0  0
  -29.7506  -11.8599   17.4056 H   0  0  0  0  0  0
  -29.6550  -13.5488   17.8160 H   0  0  0  0  0  0
  -27.8523  -11.3108   18.8167 H   0  0  0  0  0  0
  -27.3699  -12.6354   17.7834 H   0  0  0  0  0  0
  -27.6860  -14.2532   19.5689 H   0  0  0  0  0  0
  -28.6783  -11.9833   21.3370 H   0  0  0  0  0  0
  -28.4705  -13.6057   21.8702 H   0  0  0  0  0  0
  -25.2725   -9.5654   22.4719 H   0  0  0  0  0  0
  -24.0016   -7.4577   22.7394 H   0  0  0  0  0  0
  -21.0813   -8.8681   19.8909 H   0  0  0  0  0  0
  -22.3634  -10.9598   19.6165 H   0  0  0  0  0  0
  -21.1942   -7.6143   23.9632 H   0  0  0  0  0  0
  -21.1580   -6.0577   25.9066 H   0  0  0  0  0  0
  -22.0553   -2.7566   23.2918 H   0  0  0  0  0  0
  -22.4304  -11.9702   22.4822 H   0  0  0  0  0  0
  -21.1202  -13.0899   22.2844 H   0  0  0  0  0  0
  -24.6642  -15.8408   20.5880 H   0  0  0  0  0  0
  -26.2977  -15.6381   20.1994 H   0  0  0  0  0  0
  -26.7258  -32.5455   23.1099 H   0  0  0  0  0  0
  -25.0378  -33.9721   25.0569 H   0  0  0  0  0  0
  -22.7374  -31.3353   21.4343 H   0  0  0  0  0  0
  -23.3793  -35.9588   23.3307 H   0  0  0  0  0  0
  -24.3629  -36.8820   22.2039 H   0  0  0  0  0  0
  -23.7291  -37.6450   23.6605 H   0  0  0  0  0  0
  -26.1330  -31.5599   20.6645 H   0  0  0  0  0  0
  -26.8315  -30.8138   22.0595 H   0  0  0  0  0  0
  -28.0468  -28.9439   21.3418 H   0  0  0  0  0  0
  -26.1434  -26.2952   18.5444 H   0  0  0  0  0  0
  -24.0620  -27.5249   18.7245 H   0  0  0  0  0  0
  -23.7287  -30.6371   19.4209 H   0  0  0  0  0  0
  -22.7513  -29.2705   19.8792 H   0  0  0  0  0  0
  -25.1328  -36.1895   25.0814 H   0  0  0  0  0  0
  -20.1506  -28.6586   21.7300 H   0  0  0  0  0  0
  -20.6904  -26.4448   23.4817 H   0  0  0  0  0  0
  -21.6548  -26.7534   22.0464 H   0  0  0  0  0  0
  -19.6461  -25.3681   21.4732 H   0  0  0  0  0  0
  -19.6072  -26.8819   20.6316 H   0  0  0  0  0  0
  -17.3928  -26.6181   21.4487 H   0  0  0  0  0  0
  -17.9218  -25.9979   22.9885 H   0  0  0  0  0  0
  -19.8080  -30.7608   24.1083 H   0  0  0  0  0  0
  -17.5254  -31.6405   24.5109 H   0  0  0  0  0  0
  -15.5355  -30.2830   23.8658 H   0  0  0  0  0  0
  -15.8306  -28.0286   22.8898 H   0  0  0  0  0  0
  -24.5885  -30.7157   25.7624 H   0  0  0  0  0  0
  -24.9035  -32.2789   26.5006 H   0  0  0  0  0  0
  -25.8032  -30.8576   27.0097 H   0  0  0  0  0  0
  -26.3037  -29.6713   24.1292 H   0  0  0  0  0  0
  -27.4240  -29.7319   25.4692 H   0  0  0  0  0  0
  -27.8871  -30.4321   23.9444 H   0  0  0  0  0  0
  -27.2842  -33.3519   26.2185 H   0  0  0  0  0  0
  -28.3864  -32.6932   25.0209 H   0  0  0  0  0  0
  -28.1004  -31.8330   26.5239 H   0  0  0  0  0  0
  -28.2596  -38.0075   24.7512 H   0  0  0  0  0  0
  -28.1107  -36.2602   24.6337 H   0  0  0  0  0  0
  -27.2294  -37.1452   25.8874 H   0  0  0  0  0  0
  -21.1008  -30.1389   21.7403 H   0  0  0  0  0  0
  -26.0184  -38.2842   24.1405 H   0  0  0  0  0  0
  -27.4100  -16.7128   25.4492 H   0  0  0  0  0  0
  -28.8977  -15.5656   23.8383 H   0  0  0  0  0  0
  -27.2131  -19.1850   25.4173 H   0  0  0  0  0  0
  -30.1138  -19.3789   22.2263 H   0  0  0  0  0  0
  -31.4960  -16.8341   21.8818 H   0  0  0  0  0  0
  -26.5712  -20.4254   22.8729 H   0  0  0  0  0  0
  -28.8097  -15.5946   20.9915 H   0  0  0  0  0  0
  -25.7842  -24.4760   19.1066 H   0  0  0  0  0  0
  -25.4015  -24.7926   20.8026 H   0  0  0  0  0  0
  -24.9904  -21.5823   21.7986 H   0  0  0  0  0  0
  -25.8752  -20.7795   20.5320 H   0  0  0  0  0  0
  -25.4116  -22.3519   19.0374 H   0  0  0  0  0  0
  -24.1825  -22.8671   20.1592 H   0  0  0  0  0  0
  -29.8097  -23.7305   22.1805 H   0  0  0  0  0  0
  -30.0188  -23.2141   20.4749 H   0  0  0  0  0  0
  -29.7757  -22.0496   21.6865 H   0  0  0  0  0  0
  -29.3673  -21.5081   23.6011 H   0  0  0  0  0  0
  -28.0540  -21.3030   24.7030 H   0  0  0  0  0  0
  -27.9963  -25.1958   18.6215 H   0  0  0  0  0  0
  -29.3036  -24.9368   19.6658 H   0  0  0  0  0  0
  1 25  1  0  0  0
  1 30  2  0  0  0
  1 82  1  0  0  0
  2  3  1  0  0  0
  2 25  1  0  0  0
  2 89  1  0  0  0
  2 90  1  0  0  0
  3  4  1  0  0  0
  3 91  1  0  0  0
  3 92  1  0  0  0
  4  5  1  0  0  0
  4 93  1  0  0  0
  4 94  1  0  0  0
  5  6  1  0  0  0
  5 26  1  0  0  0
  5 95  1  0  0  0
  6 25  1  0  0  0
  6 96  1  0  0  0
  6 97  1  0  0  0
  7  8  2  0  0  0
  7 26  1  0  0  0
  7 29  1  0  0  0
  8  9  1  0  0  0
  8 22  1  0  0  0
  9 10  1  0  0  0
  9 27  2  0  0  0
 10 11  2  0  0  0
 10 15  1  0  0  0
 11 12  1  0  0  0
 11 98  1  0  0  0
 12 13  2  0  0  0
 12 99  1  0  0  0
 13 14  1  0  0  0
 13 31  1  0  0  0
 14 15  2  0  0  0
 14100  1  0  0  0
 15101  1  0  0  0
 16 17  2  0  0  0
 16 21  1  0  0  0
 16 31  1  0  0  0
 17 18  1  0  0  0
 17102  1  0  0  0
 18 19  2  0  0  0
 18103  1  0  0  0
 19 20  1  0  0  0
 19 24  1  0  0  0
 20 21  2  0  0  0
 20104  1  0  0  0
 21 23  1  0  0  0
 22 28  1  0  0  0
 22 32  2  0  0  0
 26 27  1  0  0  0
 28105  1  0  0  0
 28106  1  0  0  0
 29107  1  0  0  0
 29108  1  0  0  0
 33 34  1  0  0  0
 33 66  1  0  0  0
 33 70  2  0  0  0
 34 36  1  0  0  0
 34 59  1  0  0  0
 34109  1  0  0  0
 35 44  2  0  0  0
 35 45  1  0  0  0
 35 68  1  0  0  0
 36 56  1  0  0  0
 36110  1  0  0  0
 37 39  1  0  0  0
 37 47  1  0  0  0
 37 66  1  0  0  0
 37111  1  0  0  0
 38 43  2  0  0  0
 38 46  1  0  0  0
 38 47  1  0  0  0
 39 64  1  0  0  0
 39 67  2  0  0  0
 40 52  1  0  0  0
 40 53  2  0  0  0
 40 58  1  0  0  0
 41112  1  0  0  0
 41113  1  0  0  0
 41114  1  0  0  0
 41 48  1  0  0  0
 42 43  1  0  0  0
 42 66  1  0  0  0
 42115  1  0  0  0
 42116  1  0  0  0
 43 44  1  0  0  0
 44117  1  0  0  0
 45 46  2  0  0  0
 45118  1  0  0  0
 46119  1  0  0  0
 47120  1  0  0  0
 47121  1  0  0  0
 48 56  1  0  0  0
 48 65  1  0  0  0
 48122  1  0  0  0
 49 50  1  0  0  0
 49 53  1  0  0  0
 49 64  1  0  0  0
 49123  1  0  0  0
 50 51  1  0  0  0
 50124  1  0  0  0
 50125  1  0  0  0
 51 52  1  0  0  0
 51126  1  0  0  0
 51127  1  0  0  0
 52128  1  0  0  0
 52129  1  0  0  0
 53 54  1  0  0  0
 54 55  2  0  0  0
 54130  1  0  0  0
 55 57  1  0  0  0
 55131  1  0  0  0
 56 69  2  0  0  0
 57 58  2  0  0  0
 57132  1  0  0  0
 58133  1  0  0  0
 59 60  1  0  0  0
 59 61  1  0  0  0
 59 62  1  0  0  0
 60134  1  0  0  0
 60135  1  0  0  0
 60136  1  0  0  0
 61137  1  0  0  0
 61138  1  0  0  0
 61139  1  0  0  0
 62140  1  0  0  0
 62141  1  0  0  0
 62142  1  0  0  0
 63 65  1  0  0  0
 63143  1  0  0  0
 63144  1  0  0  0
 63145  1  0  0  0
 64146  1  0  0  0
 65147  1  0  0  0
 68 88  1  0  0  0
 71 72  2  0  0  0
 71 73  1  0  0  0
 71148  1  0  0  0
 72 75  1  0  0  0
 72149  1  0  0  0
 73 76  2  0  0  0
 73150  1  0  0  0
 74 75  2  0  0  0
 74 76  1  0  0  0
 74151  1  0  0  0
 75 80  1  0  0  0
 76 87  1  0  0  0
 77 78  2  0  0  0
 77 79  1  0  0  0
 77 86  1  0  0  0
 78 83  1  0  0  0
 78 88  1  0  0  0
 79 81  2  0  0  0
 79 84  1  0  0  0
 80 82  2  0  0  0
 80152  1  0  0  0
 81 87  1  0  0  0
 81153  1  0  0  0
 82154  1  0  0  0
 83 85  1  0  0  0
 83155  1  0  0  0
 83156  1  0  0  0
 84 85  1  0  0  0
 84157  1  0  0  0
 84158  1  0  0  0
 85159  1  0  0  0
 85160  1  0  0  0
 86161  1  0  0  0
 86162  1  0  0  0
 86163  1  0  0  0
 87164  1  0  0  0
 87165  1  0  0  0
 88166  1  0  0  0
 88167  1  0  0  0
M  ISO  4   1 100  68 101  82 100  88 101
M  END
> <chiral flag>
0

> <version>
0

> <s_m_source_file>
/data/baiqing/PycharmProjects/Reinvent-master-3.2/result/LINK_invent/BTK/process_docking_weight1_custom_product_contain_oxygen_bond_distance_aromatic_linkinvent_7_9_3/rearranged_h_0129.sdf

> <i_m_source_file_index>
39

> <r_mmod_Potential_Energy-OPLS-2005>
360.355346679688

> <r_mmod_Stretch_Energy-OPLS-2005>
55.6094284057617

> <r_mmod_Bend_Energy-OPLS-2005>
269.290496826172

> <r_mmod_Torsional_Energy-OPLS-2005>
271.824615478516

> <r_mmod_Improper_Torsional_Energy-OPLS-2005>
9.30453395843506

> <r_mmod_Van_der_Waal_Energy-OPLS-2005>
194.721237182617

> <r_mmod_Electrostatic_Energy-OPLS-2005>
-316.08447265625

> <r_mmod_Solvation_Energy-OPLS-2005>
-189.693664550781

> <b_mmod_Minimization_Converged-OPLS-2005>
0

> <r_mmod_RMS_Derivative-OPLS-2005>
26.5320568084717

$$$$
39
                    3D
 Structure written by MMmdl.
159167  0  0  1  0            999 V2000
  -30.6687  -14.4718   20.5129 C   0  0  0  0  0  0
  -30.4342  -12.2841   19.4265 C   0  0  0  0  0  0
  -29.5082  -12.4939   18.2087 C   0  0  0  0  0  0
  -28.0220  -12.3713   18.6081 C   0  0  0  0  0  0
  -27.6668  -13.1986   19.8729 C   0  0  2  0  0  0
  -28.7091  -12.9424   20.9841 C   0  0  0  0  0  0
  -25.2617  -13.8144   20.5623 C   0  0  0  0  0  0
  -24.1880  -13.0448   20.9182 C   0  0  0  0  0  0
  -24.6408  -11.6915   20.8752 C   0  0  0  0  0  0
  -23.9075  -10.4304   21.0413 C   0  0  0  0  0  0
  -24.3622   -9.4213   21.9177 C   0  0  0  0  0  0
  -23.6306   -8.2253   22.0743 C   0  0  0  0  0  0
  -22.4288   -8.0284   21.3529 C   0  0  0  0  0  0
  -21.9921   -9.0266   20.4642 C   0  0  0  0  0  0
  -22.7249  -10.2145   20.3047 C   0  0  0  0  0  0
  -21.6877   -6.0743   22.5270 C   0  0  0  0  0  0
  -21.4029   -6.5640   23.8203 C   0  0  0  0  0  0
  -21.3656   -5.6780   24.9163 C   0  0  0  0  0  0
  -21.6047   -4.3046   24.7202 C   0  0  0  0  0  0
  -21.8837   -3.8145   23.4328 C   0  0  0  0  0  0
  -21.9202   -4.6977   22.3390 C   0  0  0  0  0  0
  -22.7884  -13.5269   21.1822 C   0  0  0  0  0  0
  -22.1670   -4.2172   21.0965 F   0  0  0  0  0  0
  -21.5621   -3.4509   25.7708 F   0  0  0  0  0  0
  -30.0409  -13.2667   20.4476 N   0  0  0  0  0  0
  -26.3053  -12.9284   20.3313 N   0  0  0  0  0  0
  -25.9323  -11.6467   20.5720 N   0  0  0  0  0  0
  -22.0498  -12.8285   22.0384 N   0  0  0  0  0  0
  -25.4314  -15.1847   20.3947 N   0  0  0  0  0  0
  -31.8335  -14.6251   20.1292 O   0  0  0  0  0  0
  -21.6645   -6.8869   21.4226 O   0  0  0  0  0  0
  -22.3578  -14.5565   20.6645 O   0  0  0  0  0  0
  -24.6111  -31.8705   23.2146 C   0  0  0  0  0  0
  -25.9028  -32.4825   23.8425 C   0  0  1  0  0  0
  -27.2278  -27.4714   20.0937 C   0  0  0  0  0  0
  -25.5878  -33.8615   24.2351 N   0  0  0  0  0  0
  -23.3940  -30.4949   21.5573 C   0  0  2  0  0  0
  -24.8386  -28.9646   20.1196 C   0  0  0  0  0  0
  -22.7374  -29.4661   22.5059 C   0  0  0  0  0  0
  -18.0254  -28.1385   22.8508 C   0  0  0  0  0  0
  -24.1485  -36.7323   23.2636 C   0  0  0  0  0  0
  -25.9189  -30.8509   21.3592 C   0  0  0  0  0  0
  -25.9975  -29.4873   20.7086 C   0  0  0  0  0  0
  -27.1987  -28.7460   20.6921 C   0  0  0  0  0  0
  -26.0584  -26.9486   19.5037 C   0  0  0  0  0  0
  -24.8619  -27.6923   19.5174 C   0  0  0  0  0  0
  -23.5981  -29.8275   20.1704 C   0  0  0  0  0  0
  -25.4095  -36.3104   24.0336 C   0  0  1  0  0  0
  -20.5833  -28.3648   23.1370 C   0  0  2  0  0  0
  -20.6759  -26.9396   22.5440 C   0  0  0  0  0  0
  -19.5734  -26.6393   21.5239 C   0  0  0  0  0  0
  -18.1909  -26.7935   22.1637 C   0  0  0  0  0  0
  -19.1498  -28.8832   23.2928 C   0  0  0  0  0  0
  -18.9425  -30.1451   23.8932 C   0  0  0  0  0  0
  -17.6429  -30.6588   24.0568 C   0  0  0  0  0  0
  -25.9014  -34.9474   23.5143 C   0  0  0  0  0  0
  -16.5321  -29.9093   23.6336 C   0  0  0  0  0  0
  -16.7238  -28.6503   23.0357 C   0  0  0  0  0  0
  -26.4472  -31.6585   25.0732 C   0  0  0  0  0  0
  -25.3742  -31.3682   26.1483 C   0  0  0  0  0  0
  -27.0296  -30.3032   24.6082 C   0  0  0  0  0  0
  -27.6082  -32.4280   25.7472 C   0  0  0  0  0  0
  -27.5577  -37.1809   24.8454 C   0  0  0  0  0  0
  -21.4108  -29.3007   22.3772 N   0  0  0  0  0  0
  -26.4289  -37.3781   23.9393 N   0  0  0  0  0  0
  -24.6598  -31.0845   22.1037 N   0  0  0  0  0  0
  -23.4171  -28.8231   23.3102 O   0  0  0  0  0  0
  -28.3932  -26.7547   20.0621 O   0  0  0  0  0  0
  -26.5588  -34.8920   22.4720 O   0  0  0  0  0  0
  -23.5326  -32.1466   23.7585 O   0  0  0  0  0  0
  -27.1498  -19.1889   20.9080 C   0  0  0  0  0  0
  -27.9124  -18.0096   20.8233 C   0  0  0  0  0  0
  -27.7573  -20.4403   20.6997 C   0  0  0  0  0  0
  -29.8902  -19.3301   20.3101 C   0  0  0  0  0  0
  -29.2887  -18.0661   20.5101 C   0  0  0  0  0  0
  -29.1341  -20.5214   20.4076 C   0  0  0  0  0  0
  -30.1139  -16.8492   20.3854 C   0  0  0  0  0  0
  -29.7965  -15.6084   20.8215 C   0  0  0  0  0  0
  -29.9026  -25.3247   21.2388 C   0  0  0  0  0  0
  -30.4283  -24.0927   21.3949 C   0  0  0  0  0  0
  -31.9261  -23.9239   21.5713 C   0  0  0  0  0  0
  -29.7939  -21.8827   20.2107 C   0  0  0  0  0  0
  -28.4525  -25.7036   21.0158 C   0  0  0  0  0  0
  -29.6180  -22.7999   21.4379 C   0  0  0  0  0  0
  -31.4820  -12.3767   19.1340 H   0  0  0  0  0  0
  -30.3256  -11.2695   19.8166 H   0  0  0  0  0  0
  -29.7474  -11.7694   17.4282 H   0  0  0  0  0  0
  -29.6885  -13.4795   17.7791 H   0  0  0  0  0  0
  -27.8136  -11.3148   18.7881 H   0  0  0  0  0  0
  -27.3841  -12.6628   17.7743 H   0  0  0  0  0  0
  -27.7129  -14.2504   19.5895 H   0  0  0  0  0  0
  -28.6836  -11.8895   21.2720 H   0  0  0  0  0  0
  -28.4855  -13.4832   21.9032 H   0  0  0  0  0  0
  -25.2757   -9.5725   22.4762 H   0  0  0  0  0  0
  -24.0030   -7.4656   22.7462 H   0  0  0  0  0  0
  -21.0849   -8.8805   19.8961 H   0  0  0  0  0  0
  -22.3705  -10.9690   19.6178 H   0  0  0  0  0  0
  -21.2027   -7.6141   23.9730 H   0  0  0  0  0  0
  -21.1452   -6.0487   25.9073 H   0  0  0  0  0  0
  -22.0620   -2.7608   23.2807 H   0  0  0  0  0  0
  -22.4055  -11.9956   22.4827 H   0  0  0  0  0  0
  -21.1116  -13.1332   22.2532 H   0  0  0  0  0  0
  -24.6591  -15.8352   20.4855 H   0  0  0  0  0  0
  -26.2616  -15.6006   19.9930 H   0  0  0  0  0  0
  -26.7103  -32.5561   23.1208 H   0  0  0  0  0  0
  -24.9995  -33.9782   25.0465 H   0  0  0  0  0  0
  -22.6809  -31.3103   21.4235 H   0  0  0  0  0  0
  -23.3735  -35.9668   23.3298 H   0  0  0  0  0  0
  -24.3589  -36.8938   22.2052 H   0  0  0  0  0  0
  -23.7261  -37.6537   23.6656 H   0  0  0  0  0  0
  -26.0187  -31.6212   20.5950 H   0  0  0  0  0  0
  -26.8117  -30.9073   21.9720 H   0  0  0  0  0  0
  -28.0984  -29.1451   21.1404 H   0  0  0  0  0  0
  -26.0752  -25.9770   19.0295 H   0  0  0  0  0  0
  -23.9690  -27.2852   19.0643 H   0  0  0  0  0  0
  -23.7032  -30.6067   19.4128 H   0  0  0  0  0  0
  -22.7217  -29.2447   19.8792 H   0  0  0  0  0  0
  -25.1285  -36.1977   25.0830 H   0  0  0  0  0  0
  -20.9919  -28.3208   24.1498 H   0  0  0  0  0  0
  -20.5725  -26.2236   23.3605 H   0  0  0  0  0  0
  -21.6617  -26.7510   22.1186 H   0  0  0  0  0  0
  -19.6885  -25.6314   21.1240 H   0  0  0  0  0  0
  -19.6678  -27.3245   20.6804 H   0  0  0  0  0  0
  -17.4191  -26.6727   21.4017 H   0  0  0  0  0  0
  -18.0266  -26.0069   22.9024 H   0  0  0  0  0  0
  -19.7894  -30.7252   24.2324 H   0  0  0  0  0  0
  -17.4973  -31.6274   24.5159 H   0  0  0  0  0  0
  -15.5315  -30.2996   23.7619 H   0  0  0  0  0  0
  -15.8651  -28.0818   22.7074 H   0  0  0  0  0  0
  -24.5889  -30.7070   25.7797 H   0  0  0  0  0  0
  -24.8973  -32.2839   26.4985 H   0  0  0  0  0  0
  -25.8085  -30.8789   27.0207 H   0  0  0  0  0  0
  -26.2841  -29.6790   24.1150 H   0  0  0  0  0  0
  -27.4081  -29.7264   25.4529 H   0  0  0  0  0  0
  -27.8660  -30.4345   23.9216 H   0  0  0  0  0  0
  -27.2733  -33.3545   26.2140 H   0  0  0  0  0  0
  -28.3843  -32.6887   25.0266 H   0  0  0  0  0  0
  -28.0812  -31.8345   26.5307 H   0  0  0  0  0  0
  -28.2597  -38.0104   24.7500 H   0  0  0  0  0  0
  -28.1076  -36.2645   24.6286 H   0  0  0  0  0  0
  -27.2296  -37.1458   25.8855 H   0  0  0  0  0  0
  -20.9278  -29.8663   21.6942 H   0  0  0  0  0  0
  -26.0185  -38.2858   24.1409 H   0  0  0  0  0  0
  -26.0939  -19.1324   21.1378 H   0  0  0  0  0  0
  -27.4153  -17.0648   20.9860 H   0  0  0  0  0  0
  -27.1555  -21.3369   20.7743 H   0  0  0  0  0  0
  -30.9442  -19.3853   20.0774 H   0  0  0  0  0  0
  -31.0431  -16.9906   19.8497 H   0  0  0  0  0  0
  -28.8817  -15.4756   21.3728 H   0  0  0  0  0  0
  -30.5676  -26.1771   21.2718 H   0  0  0  0  0  0
  -32.4448  -24.8835   21.5852 H   0  0  0  0  0  0
  -32.3457  -23.3402   20.7537 H   0  0  0  0  0  0
  -32.1450  -23.4181   22.5112 H   0  0  0  0  0  0
  -29.3725  -22.3624   19.3244 H   0  0  0  0  0  0
  -30.8537  -21.7352   20.0041 H   0  0  0  0  0  0
  -28.0405  -26.0207   21.9758 H   0  0  0  0  0  0
  -27.8606  -24.8562   20.6675 H   0  0  0  0  0  0
  -28.5633  -23.0126   21.5932 H   0  0  0  0  0  0
  -29.9380  -22.2590   22.3283 H   0  0  0  0  0  0
  1 25  1  0  0  0
  1 30  2  0  0  0
  1 78  1  0  0  0
  2  3  1  0  0  0
  2 25  1  0  0  0
  2 85  1  0  0  0
  2 86  1  0  0  0
  3  4  1  0  0  0
  3 87  1  0  0  0
  3 88  1  0  0  0
  4  5  1  0  0  0
  4 89  1  0  0  0
  4 90  1  0  0  0
  5  6  1  0  0  0
  5 26  1  0  0  0
  5 91  1  0  0  0
  6 25  1  0  0  0
  6 92  1  0  0  0
  6 93  1  0  0  0
  7  8  2  0  0  0
  7 26  1  0  0  0
  7 29  1  0  0  0
  8  9  1  0  0  0
  8 22  1  0  0  0
  9 10  1  0  0  0
  9 27  2  0  0  0
 10 11  2  0  0  0
 10 15  1  0  0  0
 11 12  1  0  0  0
 11 94  1  0  0  0
 12 13  2  0  0  0
 12 95  1  0  0  0
 13 14  1  0  0  0
 13 31  1  0  0  0
 14 15  2  0  0  0
 14 96  1  0  0  0
 15 97  1  0  0  0
 16 17  2  0  0  0
 16 21  1  0  0  0
 16 31  1  0  0  0
 17 18  1  0  0  0
 17 98  1  0  0  0
 18 19  2  0  0  0
 18 99  1  0  0  0
 19 20  1  0  0  0
 19 24  1  0  0  0
 20 21  2  0  0  0
 20100  1  0  0  0
 21 23  1  0  0  0
 22 28  1  0  0  0
 22 32  2  0  0  0
 26 27  1  0  0  0
 28101  1  0  0  0
 28102  1  0  0  0
 29103  1  0  0  0
 29104  1  0  0  0
 33 34  1  0  0  0
 33 66  1  0  0  0
 33 70  2  0  0  0
 34 36  1  0  0  0
 34 59  1  0  0  0
 34105  1  0  0  0
 35 44  2  0  0  0
 35 45  1  0  0  0
 35 68  1  0  0  0
 36 56  1  0  0  0
 36106  1  0  0  0
 37 39  1  0  0  0
 37 47  1  0  0  0
 37 66  1  0  0  0
 37107  1  0  0  0
 38 43  2  0  0  0
 38 46  1  0  0  0
 38 47  1  0  0  0
 39 64  1  0  0  0
 39 67  2  0  0  0
 40 52  1  0  0  0
 40 53  2  0  0  0
 40 58  1  0  0  0
 41108  1  0  0  0
 41109  1  0  0  0
 41110  1  0  0  0
 41 48  1  0  0  0
 42 43  1  0  0  0
 42 66  1  0  0  0
 42111  1  0  0  0
 42112  1  0  0  0
 43 44  1  0  0  0
 44113  1  0  0  0
 45 46  2  0  0  0
 45114  1  0  0  0
 46115  1  0  0  0
 47116  1  0  0  0
 47117  1  0  0  0
 48 56  1  0  0  0
 48 65  1  0  0  0
 48118  1  0  0  0
 49 50  1  0  0  0
 49 53  1  0  0  0
 49 64  1  0  0  0
 49119  1  0  0  0
 50 51  1  0  0  0
 50120  1  0  0  0
 50121  1  0  0  0
 51 52  1  0  0  0
 51122  1  0  0  0
 51123  1  0  0  0
 52124  1  0  0  0
 52125  1  0  0  0
 53 54  1  0  0  0
 54 55  2  0  0  0
 54126  1  0  0  0
 55 57  1  0  0  0
 55127  1  0  0  0
 56 69  2  0  0  0
 57 58  2  0  0  0
 57128  1  0  0  0
 58129  1  0  0  0
 59 60  1  0  0  0
 59 61  1  0  0  0
 59 62  1  0  0  0
 60130  1  0  0  0
 60131  1  0  0  0
 60132  1  0  0  0
 61133  1  0  0  0
 61134  1  0  0  0
 61135  1  0  0  0
 62136  1  0  0  0
 62137  1  0  0  0
 62138  1  0  0  0
 63 65  1  0  0  0
 63139  1  0  0  0
 63140  1  0  0  0
 63141  1  0  0  0
 64142  1  0  0  0
 65143  1  0  0  0
 68 83  1  0  0  0
 71 72  2  0  0  0
 71 73  1  0  0  0
 71144  1  0  0  0
 72 75  1  0  0  0
 72145  1  0  0  0
 73 76  2  0  0  0
 73146  1  0  0  0
 74 75  2  0  0  0
 74 76  1  0  0  0
 74147  1  0  0  0
 75 77  1  0  0  0
 76 82  1  0  0  0
 77 78  2  0  0  0
 77148  1  0  0  0
 78149  1  0  0  0
 79 80  2  0  0  0
 79 83  1  0  0  0
 79150  1  0  0  0
 80 81  1  0  0  0
 80 84  1  0  0  0
 81151  1  0  0  0
 81152  1  0  0  0
 81153  1  0  0  0
 82 84  1  0  0  0
 82154  1  0  0  0
 82155  1  0  0  0
 83156  1  0  0  0
 83157  1  0  0  0
 84158  1  0  0  0
 84159  1  0  0  0
M  ISO  4   1 100  68 101  78 100  83 101
M  END
> <chiral flag>
0

> <version>
0

> <s_m_source_file>
/data/baiqing/PycharmProjects/Reinvent-master-3.2/result/LINK_invent/BTK/process_docking_weight1_custom_product_contain_oxygen_bond_distance_aromatic_linkinvent_7_9_3/rearranged_h_0129.sdf

> <i_m_source_file_index>
40

> <r_mmod_Potential_Energy-OPLS-2005>
-8.90121936798096

> <r_mmod_Stretch_Energy-OPLS-2005>
32.8552551269531

> <r_mmod_Bend_Energy-OPLS-2005>
89.1375732421875

> <r_mmod_Torsional_Energy-OPLS-2005>
208.750717163086

> <r_mmod_Improper_Torsional_Energy-OPLS-2005>
6.45892190933228

> <r_mmod_Van_der_Waal_Energy-OPLS-2005>
155.965225219727

> <r_mmod_Electrostatic_Energy-OPLS-2005>
-332.845062255859

> <r_mmod_Solvation_Energy-OPLS-2005>
-182.129943847656

> <b_mmod_Minimization_Converged-OPLS-2005>
0

> <r_mmod_RMS_Derivative-OPLS-2005>
4.12461853027344

$$$$
40
                    3D
 Structure written by MMmdl.
152160  0  0  1  0            999 V2000
  -30.6807  -14.7555   20.4722 C   0  0  0  0  0  0
  -30.4304  -12.4657   19.4787 C   0  0  0  0  0  0
  -29.5124  -12.4991   18.2390 C   0  0  0  0  0  0
  -28.0423  -12.3231   18.6596 C   0  0  0  0  0  0
  -27.6441  -13.2397   19.8461 C   0  0  2  0  0  0
  -28.6952  -13.2233   20.9804 C   0  0  0  0  0  0
  -25.2560  -13.8192   20.5704 C   0  0  0  0  0  0
  -24.1847  -13.0442   20.9204 C   0  0  0  0  0  0
  -24.6432  -11.6927   20.8744 C   0  0  0  0  0  0
  -23.9106  -10.4293   21.0378 C   0  0  0  0  0  0
  -24.3649   -9.4197   21.9152 C   0  0  0  0  0  0
  -23.6314   -8.2236   22.0744 C   0  0  0  0  0  0
  -22.4291   -8.0284   21.3555 C   0  0  0  0  0  0
  -21.9932   -9.0247   20.4657 C   0  0  0  0  0  0
  -22.7267  -10.2113   20.3048 C   0  0  0  0  0  0
  -21.6854   -6.0751   22.5270 C   0  0  0  0  0  0
  -21.4004   -6.5647   23.8215 C   0  0  0  0  0  0
  -21.3663   -5.6787   24.9175 C   0  0  0  0  0  0
  -21.6046   -4.3059   24.7208 C   0  0  0  0  0  0
  -21.8838   -3.8156   23.4333 C   0  0  0  0  0  0
  -21.9184   -4.6974   22.3382 C   0  0  0  0  0  0
  -22.7867  -13.5225   21.1843 C   0  0  0  0  0  0
  -22.1675   -4.2163   21.0972 F   0  0  0  0  0  0
  -21.5619   -3.4552   25.7715 F   0  0  0  0  0  0
  -29.9986  -13.5569   20.3880 N   0  0  0  0  0  0
  -26.2985  -12.9413   20.3290 N   0  0  0  0  0  0
  -25.9369  -11.6561   20.5755 N   0  0  0  0  0  0
  -22.0534  -12.8227   22.0409 N   0  0  0  0  0  0
  -25.4283  -15.1909   20.4120 N   0  0  0  0  0  0
  -31.8684  -14.7850   20.1439 O   0  0  0  0  0  0
  -21.6661   -6.8884   21.4236 O   0  0  0  0  0  0
  -22.3543  -14.5513   20.6659 O   0  0  0  0  0  0
  -24.6340  -31.8537   23.2018 C   0  0  0  0  0  0
  -25.9170  -32.4751   23.8352 C   0  0  1  0  0  0
  -27.2139  -27.2560   20.1375 C   0  0  0  0  0  0
  -25.5986  -33.8572   24.2278 N   0  0  0  0  0  0
  -23.4295  -30.4794   21.5460 C   0  0  2  0  0  0
  -24.8730  -28.9189   20.1220 C   0  0  0  0  0  0
  -22.7504  -29.4635   22.4966 C   0  0  0  0  0  0
  -18.0305  -28.1380   22.8488 C   0  0  0  0  0  0
  -24.1497  -36.7270   23.2632 C   0  0  0  0  0  0
  -25.9755  -30.7621   21.3847 C   0  0  0  0  0  0
  -26.0431  -29.3798   20.7384 C   0  0  0  0  0  0
  -27.2174  -28.5588   20.7422 C   0  0  0  0  0  0
  -26.0284  -26.8713   19.4794 C   0  0  0  0  0  0
  -24.8682  -27.6713   19.4800 C   0  0  0  0  0  0
  -23.6447  -29.8098   20.1624 C   0  0  0  0  0  0
  -25.4133  -36.3082   24.0317 C   0  0  1  0  0  0
  -20.5914  -28.3702   23.1291 C   0  0  2  0  0  0
  -20.6804  -26.9422   22.5432 C   0  0  0  0  0  0
  -19.5772  -26.6367   21.5243 C   0  0  0  0  0  0
  -18.1945  -26.7940   22.1625 C   0  0  0  0  0  0
  -19.1564  -28.8864   23.2870 C   0  0  0  0  0  0
  -18.9473  -30.1475   23.8865 C   0  0  0  0  0  0
  -17.6468  -30.6582   24.0576 C   0  0  0  0  0  0
  -25.9051  -34.9457   23.5089 C   0  0  0  0  0  0
  -16.5358  -29.9076   23.6349 C   0  0  0  0  0  0
  -16.7286  -28.6501   23.0344 C   0  0  0  0  0  0
  -26.4525  -31.6600   25.0745 C   0  0  0  0  0  0
  -25.3750  -31.3805   26.1470 C   0  0  0  0  0  0
  -27.0337  -30.3009   24.6240 C   0  0  0  0  0  0
  -27.6112  -32.4324   25.7464 C   0  0  0  0  0  0
  -27.5593  -37.1784   24.8459 C   0  0  0  0  0  0
  -21.4223  -29.3041   22.3683 N   0  0  0  0  0  0
  -26.4300  -37.3784   23.9409 N   0  0  0  0  0  0
  -24.6990  -31.0501   22.1006 N   0  0  0  0  0  0
  -23.4200  -28.8187   23.3075 O   0  0  0  0  0  0
  -28.3082  -26.3646   20.1049 O   0  0  0  0  0  0
  -26.5600  -34.8952   22.4644 O   0  0  0  0  0  0
  -23.5497  -32.1384   23.7315 O   0  0  0  0  0  0
  -31.7917  -17.6833   21.0092 C   0  0  0  0  0  0
  -32.2477  -19.0188   21.0600 C   0  0  0  0  0  0
  -29.5569  -18.5237   20.5986 C   0  0  0  0  0  0
  -29.9872  -19.9203   20.6523 C   0  0  0  0  0  0
  -30.4348  -17.3671   20.7545 C   0  0  0  0  0  0
  -31.3758  -20.1089   20.8758 C   0  0  0  0  0  0
  -27.1960  -23.3137   19.4541 C   0  0  0  0  0  0
  -29.0451  -21.1426   20.4724 C   0  0  0  0  0  0
  -29.2542  -22.5249   20.4718 C   0  0  0  0  0  0
  -28.2430  -23.6337   20.2386 C   0  0  0  0  0  0
  -28.2644  -25.0918   20.9031 C   0  0  0  0  0  0
  -29.9834  -15.9404   20.7016 N   0  0  0  0  0  0
  -31.9117  -21.3498   20.9213 F   0  0  0  0  0  0
  -31.4751  -12.5532   19.1772 H   0  0  0  0  0  0
  -30.3477  -11.4987   19.9801 H   0  0  0  0  0  0
  -29.7935  -11.7124   17.5380 H   0  0  0  0  0  0
  -29.6393  -13.4414   17.7034 H   0  0  0  0  0  0
  -27.9121  -11.2767   18.9402 H   0  0  0  0  0  0
  -27.3758  -12.4880   17.8119 H   0  0  0  0  0  0
  -27.6276  -14.2533   19.4413 H   0  0  0  0  0  0
  -28.7333  -12.2464   21.4615 H   0  0  0  0  0  0
  -28.4294  -13.9396   21.7598 H   0  0  0  0  0  0
  -25.2813   -9.5652   22.4729 H   0  0  0  0  0  0
  -24.0032   -7.4621   22.7456 H   0  0  0  0  0  0
  -21.0863   -8.8743   19.8973 H   0  0  0  0  0  0
  -22.3704  -10.9649   19.6159 H   0  0  0  0  0  0
  -21.2013   -7.6157   23.9710 H   0  0  0  0  0  0
  -21.1471   -6.0533   25.9074 H   0  0  0  0  0  0
  -22.0615   -2.7621   23.2814 H   0  0  0  0  0  0
  -22.4207  -11.9920   22.4809 H   0  0  0  0  0  0
  -21.1134  -13.1208   22.2603 H   0  0  0  0  0  0
  -24.6647  -15.8496   20.5161 H   0  0  0  0  0  0
  -26.2738  -15.6202   20.0568 H   0  0  0  0  0  0
  -26.7242  -32.5379   23.1095 H   0  0  0  0  0  0
  -25.0251  -33.9732   25.0510 H   0  0  0  0  0  0
  -22.7268  -31.3037   21.4016 H   0  0  0  0  0  0
  -23.3773  -35.9578   23.3297 H   0  0  0  0  0  0
  -24.3582  -36.8872   22.2035 H   0  0  0  0  0  0
  -23.7218  -37.6470   23.6645 H   0  0  0  0  0  0
  -26.1170  -31.5137   20.6067 H   0  0  0  0  0  0
  -26.8546  -30.8147   22.0148 H   0  0  0  0  0  0
  -28.1148  -28.9050   21.2382 H   0  0  0  0  0  0
  -25.9913  -25.9430   18.9378 H   0  0  0  0  0  0
  -23.9821  -27.3245   18.9656 H   0  0  0  0  0  0
  -23.7678  -30.5825   19.4016 H   0  0  0  0  0  0
  -22.7623  -29.2427   19.8617 H   0  0  0  0  0  0
  -25.1321  -36.1900   25.0799 H   0  0  0  0  0  0
  -21.0017  -28.3266   24.1411 H   0  0  0  0  0  0
  -20.5749  -26.2300   23.3628 H   0  0  0  0  0  0
  -21.6669  -26.7454   22.1211 H   0  0  0  0  0  0
  -19.6936  -25.6283   21.1258 H   0  0  0  0  0  0
  -19.6718  -27.3190   20.6789 H   0  0  0  0  0  0
  -17.4252  -26.6737   21.3979 H   0  0  0  0  0  0
  -18.0285  -26.0056   22.8976 H   0  0  0  0  0  0
  -19.7948  -30.7322   24.2184 H   0  0  0  0  0  0
  -17.5011  -31.6252   24.5179 H   0  0  0  0  0  0
  -15.5367  -30.2955   23.7680 H   0  0  0  0  0  0
  -15.8682  -28.0806   22.7052 H   0  0  0  0  0  0
  -24.5932  -30.7105   25.7868 H   0  0  0  0  0  0
  -24.8910  -32.2987   26.4820 H   0  0  0  0  0  0
  -25.8058  -30.9066   27.0296 H   0  0  0  0  0  0
  -26.2903  -29.6761   24.1246 H   0  0  0  0  0  0
  -27.4010  -29.7268   25.4765 H   0  0  0  0  0  0
  -27.8819  -30.4298   23.9498 H   0  0  0  0  0  0
  -27.2766  -33.3648   26.2037 H   0  0  0  0  0  0
  -28.3895  -32.6825   25.0235 H   0  0  0  0  0  0
  -28.0815  -31.8426   26.5345 H   0  0  0  0  0  0
  -28.2626  -38.0076   24.7540 H   0  0  0  0  0  0
  -28.1069  -36.2613   24.6233 H   0  0  0  0  0  0
  -27.2314  -37.1374   25.8863 H   0  0  0  0  0  0
  -20.9424  -29.8671   21.6802 H   0  0  0  0  0  0
  -26.0165  -38.2839   24.1458 H   0  0  0  0  0  0
  -32.5310  -16.9133   21.1779 H   0  0  0  0  0  0
  -33.2970  -19.2152   21.2423 H   0  0  0  0  0  0
  -28.5077  -18.3413   20.4276 H   0  0  0  0  0  0
  -27.1076  -22.3504   18.9743 H   0  0  0  0  0  0
  -26.3901  -23.9985   19.2751 H   0  0  0  0  0  0
  -28.0203  -20.8391   20.3171 H   0  0  0  0  0  0
  -30.2631  -22.8736   20.6383 H   0  0  0  0  0  0
  -29.1312  -25.1200   21.5626 H   0  0  0  0  0  0
  -27.4056  -25.1479   21.5738 H   0  0  0  0  0  0
  -28.9907  -15.8027   20.8127 H   0  0  0  0  0  0
  1 25  1  0  0  0
  1 30  2  0  0  0
  1 82  1  0  0  0
  2  3  1  0  0  0
  2 25  1  0  0  0
  2 84  1  0  0  0
  2 85  1  0  0  0
  3  4  1  0  0  0
  3 86  1  0  0  0
  3 87  1  0  0  0
  4  5  1  0  0  0
  4 88  1  0  0  0
  4 89  1  0  0  0
  5  6  1  0  0  0
  5 26  1  0  0  0
  5 90  1  0  0  0
  6 25  1  0  0  0
  6 91  1  0  0  0
  6 92  1  0  0  0
  7  8  2  0  0  0
  7 26  1  0  0  0
  7 29  1  0  0  0
  8  9  1  0  0  0
  8 22  1  0  0  0
  9 10  1  0  0  0
  9 27  2  0  0  0
 10 11  2  0  0  0
 10 15  1  0  0  0
 11 12  1  0  0  0
 11 93  1  0  0  0
 12 13  2  0  0  0
 12 94  1  0  0  0
 13 14  1  0  0  0
 13 31  1  0  0  0
 14 15  2  0  0  0
 14 95  1  0  0  0
 15 96  1  0  0  0
 16 17  2  0  0  0
 16 21  1  0  0  0
 16 31  1  0  0  0
 17 18  1  0  0  0
 17 97  1  0  0  0
 18 19  2  0  0  0
 18 98  1  0  0  0
 19 20  1  0  0  0
 19 24  1  0  0  0
 20 21  2  0  0  0
 20 99  1  0  0  0
 21 23  1  0  0  0
 22 28  1  0  0  0
 22 32  2  0  0  0
 26 27  1  0  0  0
 28100  1  0  0  0
 28101  1  0  0  0
 29102  1  0  0  0
 29103  1  0  0  0
 33 34  1  0  0  0
 33 66  1  0  0  0
 33 70  2  0  0  0
 34 36  1  0  0  0
 34 59  1  0  0  0
 34104  1  0  0  0
 35 44  2  0  0  0
 35 45  1  0  0  0
 35 68  1  0  0  0
 36 56  1  0  0  0
 36105  1  0  0  0
 37 39  1  0  0  0
 37 47  1  0  0  0
 37 66  1  0  0  0
 37106  1  0  0  0
 38 43  2  0  0  0
 38 46  1  0  0  0
 38 47  1  0  0  0
 39 64  1  0  0  0
 39 67  2  0  0  0
 40 52  1  0  0  0
 40 53  2  0  0  0
 40 58  1  0  0  0
 41107  1  0  0  0
 41108  1  0  0  0
 41109  1  0  0  0
 41 48  1  0  0  0
 42 43  1  0  0  0
 42 66  1  0  0  0
 42110  1  0  0  0
 42111  1  0  0  0
 43 44  1  0  0  0
 44112  1  0  0  0
 45 46  2  0  0  0
 45113  1  0  0  0
 46114  1  0  0  0
 47115  1  0  0  0
 47116  1  0  0  0
 48 56  1  0  0  0
 48 65  1  0  0  0
 48117  1  0  0  0
 49 50  1  0  0  0
 49 53  1  0  0  0
 49 64  1  0  0  0
 49118  1  0  0  0
 50 51  1  0  0  0
 50119  1  0  0  0
 50120  1  0  0  0
 51 52  1  0  0  0
 51121  1  0  0  0
 51122  1  0  0  0
 52123  1  0  0  0
 52124  1  0  0  0
 53 54  1  0  0  0
 54 55  2  0  0  0
 54125  1  0  0  0
 55 57  1  0  0  0
 55126  1  0  0  0
 56 69  2  0  0  0
 57 58  2  0  0  0
 57127  1  0  0  0
 58128  1  0  0  0
 59 60  1  0  0  0
 59 61  1  0  0  0
 59 62  1  0  0  0
 60129  1  0  0  0
 60130  1  0  0  0
 60131  1  0  0  0
 61132  1  0  0  0
 61133  1  0  0  0
 61134  1  0  0  0
 62135  1  0  0  0
 62136  1  0  0  0
 62137  1  0  0  0
 63 65  1  0  0  0
 63138  1  0  0  0
 63139  1  0  0  0
 63140  1  0  0  0
 64141  1  0  0  0
 65142  1  0  0  0
 68 81  1  0  0  0
 71 72  2  0  0  0
 71 75  1  0  0  0
 71143  1  0  0  0
 72 76  1  0  0  0
 72144  1  0  0  0
 73 74  1  0  0  0
 73 75  2  0  0  0
 73145  1  0  0  0
 74 76  2  0  0  0
 74 78  1  0  0  0
 75 82  1  0  0  0
 76 83  1  0  0  0
 77 80  2  0  0  0
 77146  1  0  0  0
 77147  1  0  0  0
 78 79  2  0  0  0
 78148  1  0  0  0
 79 80  1  0  0  0
 79149  1  0  0  0
 80 81  1  0  0  0
 81150  1  0  0  0
 81151  1  0  0  0
 82152  1  0  0  0
M  ISO  4   1 100  68 101  81 101  82 100
M  END
> <chiral flag>
0

> <version>
0

> <s_m_source_file>
/data/baiqing/PycharmProjects/Reinvent-master-3.2/result/LINK_invent/BTK/process_docking_weight1_custom_product_contain_oxygen_bond_distance_aromatic_linkinvent_7_9_3/rearranged_h_0129.sdf

> <i_m_source_file_index>
41

> <r_mmod_Potential_Energy-OPLS-2005>
222.663024902344

> <r_mmod_Stretch_Energy-OPLS-2005>
131.093307495117

> <r_mmod_Bend_Energy-OPLS-2005>
166.688598632812

> <r_mmod_Torsional_Energy-OPLS-2005>
241.668411254883

> <r_mmod_Improper_Torsional_Energy-OPLS-2005>
5.58905124664307

> <r_mmod_Van_der_Waal_Energy-OPLS-2005>
145.166610717773

> <r_mmod_Electrostatic_Energy-OPLS-2005>
-354.092346191406

> <r_mmod_Solvation_Energy-OPLS-2005>
-202.550216674805

> <b_mmod_Minimization_Converged-OPLS-2005>
0

> <r_mmod_RMS_Derivative-OPLS-2005>
4.93995094299316

$$$$
41
                    3D
 Structure written by MMmdl.
166174  0  0  1  0            999 V2000
  -30.6077  -14.6293   20.3189 C   0  0  0  0  0  0
  -30.4419  -12.3400   19.4570 C   0  0  0  0  0  0
  -29.5098  -12.3945   18.2239 C   0  0  0  0  0  0
  -28.0262  -12.2885   18.6388 C   0  0  0  0  0  0
  -27.6410  -13.1937   19.8393 C   0  0  2  0  0  0
  -28.7007  -13.1281   20.9637 C   0  0  0  0  0  0
  -25.2584  -13.8078   20.5730 C   0  0  0  0  0  0
  -24.1828  -13.0383   20.9242 C   0  0  0  0  0  0
  -24.6366  -11.6847   20.8802 C   0  0  0  0  0  0
  -23.9032  -10.4255   21.0455 C   0  0  0  0  0  0
  -24.3582   -9.4169   21.9215 C   0  0  0  0  0  0
  -23.6265   -8.2202   22.0754 C   0  0  0  0  0  0
  -22.4249   -8.0255   21.3546 C   0  0  0  0  0  0
  -21.9887   -9.0237   20.4652 C   0  0  0  0  0  0
  -22.7220  -10.2110   20.3080 C   0  0  0  0  0  0
  -21.6849   -6.0712   22.5277 C   0  0  0  0  0  0
  -21.4015   -6.5616   23.8211 C   0  0  0  0  0  0
  -21.3657   -5.6769   24.9172 C   0  0  0  0  0  0
  -21.6054   -4.3036   24.7223 C   0  0  0  0  0  0
  -21.8830   -3.8125   23.4343 C   0  0  0  0  0  0
  -21.9188   -4.6940   22.3397 C   0  0  0  0  0  0
  -22.7864  -13.5226   21.1875 C   0  0  0  0  0  0
  -22.1669   -4.2130   21.0976 F   0  0  0  0  0  0
  -21.5627   -3.4524   25.7730 F   0  0  0  0  0  0
  -30.0293  -13.3951   20.3939 N   0  0  0  0  0  0
  -26.2953  -12.9197   20.3298 N   0  0  0  0  0  0
  -25.9287  -11.6389   20.5824 N   0  0  0  0  0  0
  -22.0458  -12.8255   22.0421 N   0  0  0  0  0  0
  -25.4331  -15.1795   20.4178 N   0  0  0  0  0  0
  -31.8304  -14.7732   20.3399 O   0  0  0  0  0  0
  -21.6633   -6.8846   21.4233 O   0  0  0  0  0  0
  -22.3579  -14.5529   20.6688 O   0  0  0  0  0  0
  -24.6236  -31.8636   23.2059 C   0  0  0  0  0  0
  -25.9100  -32.4786   23.8378 C   0  0  1  0  0  0
  -27.2286  -27.3776   20.0767 C   0  0  0  0  0  0
  -25.5941  -33.8591   24.2313 N   0  0  0  0  0  0
  -23.4119  -30.4925   21.5466 C   0  0  2  0  0  0
  -24.8517  -28.9503   20.1146 C   0  0  0  0  0  0
  -22.7456  -29.4667   22.4945 C   0  0  0  0  0  0
  -18.0284  -28.1379   22.8492 C   0  0  0  0  0  0
  -24.1482  -36.7306   23.2638 C   0  0  0  0  0  0
  -25.9489  -30.8131   21.3632 C   0  0  0  0  0  0
  -26.0216  -29.4461   20.7016 C   0  0  0  0  0  0
  -27.2098  -28.6697   20.6750 C   0  0  0  0  0  0
  -26.0144  -26.8922   19.5402 C   0  0  0  0  0  0
  -24.8455  -27.6728   19.5345 C   0  0  0  0  0  0
  -23.6212  -29.8282   20.1614 C   0  0  0  0  0  0
  -25.4107  -36.3107   24.0334 C   0  0  1  0  0  0
  -20.5885  -28.3689   23.1286 C   0  0  2  0  0  0
  -20.6775  -26.9413   22.5408 C   0  0  0  0  0  0
  -19.5750  -26.6383   21.5212 C   0  0  0  0  0  0
  -18.1932  -26.7923   22.1616 C   0  0  0  0  0  0
  -19.1538  -28.8843   23.2887 C   0  0  0  0  0  0
  -18.9462  -30.1447   23.8912 C   0  0  0  0  0  0
  -17.6463  -30.6583   24.0553 C   0  0  0  0  0  0
  -25.9049  -34.9469   23.5119 C   0  0  0  0  0  0
  -16.5356  -29.9088   23.6316 C   0  0  0  0  0  0
  -16.7278  -28.6493   23.0360 C   0  0  0  0  0  0
  -26.4500  -31.6595   25.0743 C   0  0  0  0  0  0
  -25.3754  -31.3720   26.1486 C   0  0  0  0  0  0
  -27.0336  -30.3020   24.6183 C   0  0  0  0  0  0
  -27.6082  -32.4314   25.7510 C   0  0  0  0  0  0
  -27.5585  -37.1814   24.8463 C   0  0  0  0  0  0
  -21.4167  -29.3061   22.3683 N   0  0  0  0  0  0
  -26.4291  -37.3798   23.9416 N   0  0  0  0  0  0
  -24.6805  -31.0724   22.0958 N   0  0  0  0  0  0
  -23.4201  -28.8195   23.2999 O   0  0  0  0  0  0
  -28.3984  -26.6214   20.1320 O   0  0  0  0  0  0
  -26.5608  -34.8920   22.4679 O   0  0  0  0  0  0
  -23.5416  -32.1408   23.7434 O   0  0  0  0  0  0
  -29.7730  -18.0399   21.7908 C   0  0  0  0  0  0
  -29.6015  -19.3831   19.7772 C   0  0  0  0  0  0
  -29.6603  -18.0967   20.3911 C   0  0  0  0  0  0
  -29.7494  -19.2322   22.5522 C   0  0  0  0  0  0
  -29.5820  -20.6012   20.5122 C   0  0  0  0  0  0
  -29.6556  -20.5049   21.9289 C   0  0  0  0  0  0
  -29.4870  -16.8900   19.5321 C   0  0  0  0  0  0
  -29.7856  -15.5562   19.5135 C   0  0  0  0  0  0
  -29.8205  -19.1402   24.0646 C   0  0  0  0  0  0
  -30.6160  -23.6431   23.5269 C   0  0  0  0  0  0
  -27.9816  -25.2121   17.9468 C   0  0  0  0  0  0
  -29.4879  -24.2924   19.8749 C   0  0  0  0  0  0
  -30.8564  -22.3537   22.7399 C   0  0  0  0  0  0
  -28.7323  -22.9356   20.1271 C   0  0  0  0  0  0
  -28.7894  -25.5458   19.2176 C   0  0  1  0  0  0
  -29.5829  -21.8015   19.7966 O   0  0  0  0  0  0
  -29.6433  -21.6179   22.7294 O   0  0  0  0  0  0
  -31.4847  -12.4585   19.1566 H   0  0  0  0  0  0
  -30.3727  -11.3658   19.9433 H   0  0  0  0  0  0
  -29.7530  -11.5669   17.5577 H   0  0  0  0  0  0
  -29.6891  -13.2895   17.6312 H   0  0  0  0  0  0
  -27.8536  -11.2457   18.9052 H   0  0  0  0  0  0
  -27.3776  -12.4944   17.7867 H   0  0  0  0  0  0
  -27.6016  -14.2066   19.4516 H   0  0  0  0  0  0
  -28.6982  -12.1533   21.4505 H   0  0  0  0  0  0
  -28.4718  -13.8607   21.7394 H   0  0  0  0  0  0
  -25.2715   -9.5642   22.4818 H   0  0  0  0  0  0
  -23.9980   -7.4570   22.7442 H   0  0  0  0  0  0
  -21.0827   -8.8753   19.8948 H   0  0  0  0  0  0
  -22.3684  -10.9657   19.6201 H   0  0  0  0  0  0
  -21.2029   -7.6129   23.9714 H   0  0  0  0  0  0
  -21.1476   -6.0500   25.9077 H   0  0  0  0  0  0
  -22.0619   -2.7587   23.2850 H   0  0  0  0  0  0
  -22.4035  -11.9945   22.4895 H   0  0  0  0  0  0
  -21.1073  -13.1318   22.2572 H   0  0  0  0  0  0
  -24.6758  -15.8394   20.5596 H   0  0  0  0  0  0
  -26.3016  -15.6203   20.1417 H   0  0  0  0  0  0
  -26.7180  -32.5461   23.1142 H   0  0  0  0  0  0
  -25.0117  -33.9751   25.0479 H   0  0  0  0  0  0
  -22.7050  -31.3135   21.4090 H   0  0  0  0  0  0
  -23.3751  -35.9631   23.3291 H   0  0  0  0  0  0
  -24.3578  -36.8933   22.2058 H   0  0  0  0  0  0
  -23.7227  -37.6500   23.6656 H   0  0  0  0  0  0
  -26.0795  -31.5846   20.6016 H   0  0  0  0  0  0
  -26.8294  -30.8566   21.9933 H   0  0  0  0  0  0
  -28.1140  -29.0551   21.1272 H   0  0  0  0  0  0
  -25.9162  -25.8894   19.1701 H   0  0  0  0  0  0
  -23.9335  -27.2707   19.1172 H   0  0  0  0  0  0
  -23.7408  -30.6045   19.4045 H   0  0  0  0  0  0
  -22.7396  -29.2618   19.8578 H   0  0  0  0  0  0
  -25.1287  -36.1966   25.0830 H   0  0  0  0  0  0
  -20.9999  -28.3269   24.1395 H   0  0  0  0  0  0
  -20.5678  -26.2315   23.3616 H   0  0  0  0  0  0
  -21.6646  -26.7449   22.1199 H   0  0  0  0  0  0
  -19.6908  -25.6297   21.1242 H   0  0  0  0  0  0
  -19.6667  -27.3191   20.6742 H   0  0  0  0  0  0
  -17.4205  -26.6694   21.4003 H   0  0  0  0  0  0
  -18.0304  -26.0048   22.8995 H   0  0  0  0  0  0
  -19.7945  -30.7244   24.2300 H   0  0  0  0  0  0
  -17.5025  -31.6262   24.5152 H   0  0  0  0  0  0
  -15.5359  -30.2994   23.7626 H   0  0  0  0  0  0
  -15.8678  -28.0801   22.7099 H   0  0  0  0  0  0
  -24.5930  -30.7063   25.7823 H   0  0  0  0  0  0
  -24.8942  -32.2878   26.4932 H   0  0  0  0  0  0
  -25.8111  -30.8894   27.0245 H   0  0  0  0  0  0
  -26.2904  -29.6766   24.1216 H   0  0  0  0  0  0
  -27.4051  -29.7288   25.4690 H   0  0  0  0  0  0
  -27.8763  -30.4311   23.9385 H   0  0  0  0  0  0
  -27.2708  -33.3595   26.2128 H   0  0  0  0  0  0
  -28.3870  -32.6897   25.0328 H   0  0  0  0  0  0
  -28.0763  -31.8405   26.5392 H   0  0  0  0  0  0
  -28.2610  -38.0109   24.7527 H   0  0  0  0  0  0
  -28.1079  -36.2650   24.6261 H   0  0  0  0  0  0
  -27.2310  -37.1431   25.8867 H   0  0  0  0  0  0
  -20.9352  -29.8790   21.6890 H   0  0  0  0  0  0
  -26.0173  -38.2870   24.1423 H   0  0  0  0  0  0
  -29.8106  -17.0783   22.2838 H   0  0  0  0  0  0
  -29.5365  -19.4477   18.7011 H   0  0  0  0  0  0
  -28.8894  -17.1462   18.6685 H   0  0  0  0  0  0
  -29.3630  -15.0926   18.6407 H   0  0  0  0  0  0
  -29.7242  -18.1098   24.4083 H   0  0  0  0  0  0
  -29.0206  -19.7223   24.5213 H   0  0  0  0  0  0
  -30.7733  -19.5283   24.4239 H   0  0  0  0  0  0
  -31.5079  -24.2706   23.5339 H   0  0  0  0  0  0
  -30.3528  -23.4234   24.5617 H   0  0  0  0  0  0
  -29.8012  -24.2244   23.0932 H   0  0  0  0  0  0
  -27.1173  -24.5802   18.1400 H   0  0  0  0  0  0
  -28.6054  -24.6605   17.2429 H   0  0  0  0  0  0
  -27.6527  -26.1135   17.4288 H   0  0  0  0  0  0
  -30.3129  -24.0438   19.2083 H   0  0  0  0  0  0
  -29.9827  -24.6084   20.7922 H   0  0  0  0  0  0
  -31.6422  -21.7649   23.2141 H   0  0  0  0  0  0
  -31.1904  -22.5866   21.7296 H   0  0  0  0  0  0
  -27.8681  -22.8646   19.4698 H   0  0  0  0  0  0
  -28.3349  -22.9000   21.1391 H   0  0  0  0  0  0
  -29.6426  -26.0647   18.7769 H   0  0  0  0  0  0
  1 25  1  0  0  0
  1 30  2  0  0  0
  1 78  1  0  0  0
  2  3  1  0  0  0
  2 25  1  0  0  0
  2 88  1  0  0  0
  2 89  1  0  0  0
  3  4  1  0  0  0
  3 90  1  0  0  0
  3 91  1  0  0  0
  4  5  1  0  0  0
  4 92  1  0  0  0
  4 93  1  0  0  0
  5  6  1  0  0  0
  5 26  1  0  0  0
  5 94  1  0  0  0
  6 25  1  0  0  0
  6 95  1  0  0  0
  6 96  1  0  0  0
  7  8  2  0  0  0
  7 26  1  0  0  0
  7 29  1  0  0  0
  8  9  1  0  0  0
  8 22  1  0  0  0
  9 10  1  0  0  0
  9 27  2  0  0  0
 10 11  2  0  0  0
 10 15  1  0  0  0
 11 12  1  0  0  0
 11 97  1  0  0  0
 12 13  2  0  0  0
 12 98  1  0  0  0
 13 14  1  0  0  0
 13 31  1  0  0  0
 14 15  2  0  0  0
 14 99  1  0  0  0
 15100  1  0  0  0
 16 17  2  0  0  0
 16 21  1  0  0  0
 16 31  1  0  0  0
 17 18  1  0  0  0
 17101  1  0  0  0
 18 19  2  0  0  0
 18102  1  0  0  0
 19 20  1  0  0  0
 19 24  1  0  0  0
 20 21  2  0  0  0
 20103  1  0  0  0
 21 23  1  0  0  0
 22 28  1  0  0  0
 22 32  2  0  0  0
 26 27  1  0  0  0
 28104  1  0  0  0
 28105  1  0  0  0
 29106  1  0  0  0
 29107  1  0  0  0
 33 34  1  0  0  0
 33 66  1  0  0  0
 33 70  2  0  0  0
 34 36  1  0  0  0
 34 59  1  0  0  0
 34108  1  0  0  0
 35 44  2  0  0  0
 35 45  1  0  0  0
 35 68  1  0  0  0
 36 56  1  0  0  0
 36109  1  0  0  0
 37 39  1  0  0  0
 37 47  1  0  0  0
 37 66  1  0  0  0
 37110  1  0  0  0
 38 43  2  0  0  0
 38 46  1  0  0  0
 38 47  1  0  0  0
 39 64  1  0  0  0
 39 67  2  0  0  0
 40 52  1  0  0  0
 40 53  2  0  0  0
 40 58  1  0  0  0
 41111  1  0  0  0
 41112  1  0  0  0
 41113  1  0  0  0
 41 48  1  0  0  0
 42 43  1  0  0  0
 42 66  1  0  0  0
 42114  1  0  0  0
 42115  1  0  0  0
 43 44  1  0  0  0
 44116  1  0  0  0
 45 46  2  0  0  0
 45117  1  0  0  0
 46118  1  0  0  0
 47119  1  0  0  0
 47120  1  0  0  0
 48 56  1  0  0  0
 48 65  1  0  0  0
 48121  1  0  0  0
 49 50  1  0  0  0
 49 53  1  0  0  0
 49 64  1  0  0  0
 49122  1  0  0  0
 50 51  1  0  0  0
 50123  1  0  0  0
 50124  1  0  0  0
 51 52  1  0  0  0
 51125  1  0  0  0
 51126  1  0  0  0
 52127  1  0  0  0
 52128  1  0  0  0
 53 54  1  0  0  0
 54 55  2  0  0  0
 54129  1  0  0  0
 55 57  1  0  0  0
 55130  1  0  0  0
 56 69  2  0  0  0
 57 58  2  0  0  0
 57131  1  0  0  0
 58132  1  0  0  0
 59 60  1  0  0  0
 59 61  1  0  0  0
 59 62  1  0  0  0
 60133  1  0  0  0
 60134  1  0  0  0
 60135  1  0  0  0
 61136  1  0  0  0
 61137  1  0  0  0
 61138  1  0  0  0
 62139  1  0  0  0
 62140  1  0  0  0
 62141  1  0  0  0
 63 65  1  0  0  0
 63142  1  0  0  0
 63143  1  0  0  0
 63144  1  0  0  0
 64145  1  0  0  0
 65146  1  0  0  0
 68 85  1  0  0  0
 71 73  2  0  0  0
 71 74  1  0  0  0
 71147  1  0  0  0
 72 73  1  0  0  0
 72 75  2  0  0  0
 72148  1  0  0  0
 73 77  1  0  0  0
 74 76  2  0  0  0
 74 79  1  0  0  0
 75 76  1  0  0  0
 75 86  1  0  0  0
 76 87  1  0  0  0
 77 78  2  0  0  0
 77149  1  0  0  0
 78150  1  0  0  0
 79151  1  0  0  0
 79152  1  0  0  0
 79153  1  0  0  0
 80 83  1  0  0  0
 80154  1  0  0  0
 80155  1  0  0  0
 80156  1  0  0  0
 81157  1  0  0  0
 81158  1  0  0  0
 81159  1  0  0  0
 81 85  1  0  0  0
 82 84  1  0  0  0
 82 85  1  0  0  0
 82160  1  0  0  0
 82161  1  0  0  0
 83 87  1  0  0  0
 83162  1  0  0  0
 83163  1  0  0  0
 84 86  1  0  0  0
 84164  1  0  0  0
 84165  1  0  0  0
 85166  1  0  0  0
M  ISO  4   1 100  68 101  78 100  85 101
M  END
> <chiral flag>
0

> <version>
0

> <s_m_source_file>
/data/baiqing/PycharmProjects/Reinvent-master-3.2/result/LINK_invent/BTK/process_docking_weight1_custom_product_contain_oxygen_bond_distance_aromatic_linkinvent_7_9_3/rearranged_h_0129.sdf

> <i_m_source_file_index>
42

> <r_mmod_Potential_Energy-OPLS-2005>
271.427337646484

> <r_mmod_Stretch_Energy-OPLS-2005>
56.9426574707031

> <r_mmod_Bend_Energy-OPLS-2005>
235.503082275391

> <r_mmod_Torsional_Energy-OPLS-2005>
307.753845214844

> <r_mmod_Improper_Torsional_Energy-OPLS-2005>
26.770959854126

> <r_mmod_Van_der_Waal_Energy-OPLS-2005>
146.292327880859

> <r_mmod_Electrostatic_Energy-OPLS-2005>
-359.457611083984

> <r_mmod_Solvation_Energy-OPLS-2005>
-200.144485473633

> <b_mmod_Minimization_Converged-OPLS-2005>
0

> <r_mmod_RMS_Derivative-OPLS-2005>
2.83786845207214

$$$$
42
                    3D
 Structure written by MMmdl.
158166  0  0  1  0            999 V2000
  -30.7674  -14.3864   20.5857 C   0  0  0  0  0  0
  -30.3946  -12.2563   19.4263 C   0  0  0  0  0  0
  -29.4913  -12.5095   18.2041 C   0  0  0  0  0  0
  -28.0067  -12.3907   18.6007 C   0  0  0  0  0  0
  -27.6575  -13.2135   19.8715 C   0  0  2  0  0  0
  -28.6949  -12.9928   20.9962 C   0  0  0  0  0  0
  -25.2558  -13.8172   20.5645 C   0  0  0  0  0  0
  -24.1814  -13.0443   20.9159 C   0  0  0  0  0  0
  -24.6365  -11.6908   20.8699 C   0  0  0  0  0  0
  -23.9026  -10.4295   21.0358 C   0  0  0  0  0  0
  -24.3594   -9.4224   21.9142 C   0  0  0  0  0  0
  -23.6292   -8.2250   22.0727 C   0  0  0  0  0  0
  -22.4275   -8.0262   21.3531 C   0  0  0  0  0  0
  -21.9891   -9.0222   20.4632 C   0  0  0  0  0  0
  -22.7194  -10.2111   20.3024 C   0  0  0  0  0  0
  -21.6858   -6.0715   22.5273 C   0  0  0  0  0  0
  -21.4004   -6.5626   23.8205 C   0  0  0  0  0  0
  -21.3666   -5.6778   24.9173 C   0  0  0  0  0  0
  -21.6059   -4.3045   24.7228 C   0  0  0  0  0  0
  -21.8824   -3.8124   23.4341 C   0  0  0  0  0  0
  -21.9190   -4.6938   22.3401 C   0  0  0  0  0  0
  -22.7844  -13.5231   21.1837 C   0  0  0  0  0  0
  -22.1662   -4.2123   21.0983 F   0  0  0  0  0  0
  -21.5644   -3.4537   25.7735 F   0  0  0  0  0  0
  -30.0329  -13.2517   20.4471 N   0  0  0  0  0  0
  -26.2988  -12.9348   20.3322 N   0  0  0  0  0  0
  -25.9292  -11.6500   20.5713 N   0  0  0  0  0  0
  -22.0486  -12.8231   22.0402 N   0  0  0  0  0  0
  -25.4293  -15.1890   20.4048 N   0  0  0  0  0  0
  -31.9152  -14.4725   20.1392 O   0  0  0  0  0  0
  -21.6651   -6.8857   21.4238 O   0  0  0  0  0  0
  -22.3526  -14.5534   20.6686 O   0  0  0  0  0  0
  -24.6095  -31.8722   23.2130 C   0  0  0  0  0  0
  -25.9001  -32.4850   23.8429 C   0  0  1  0  0  0
  -27.2413  -27.4685   20.1116 C   0  0  0  0  0  0
  -25.5872  -33.8647   24.2359 N   0  0  0  0  0  0
  -23.3975  -30.4934   21.5533 C   0  0  2  0  0  0
  -24.8471  -28.9590   20.1204 C   0  0  0  0  0  0
  -22.7386  -29.4676   22.5026 C   0  0  0  0  0  0
  -18.0269  -28.1371   22.8509 C   0  0  0  0  0  0
  -24.1466  -36.7305   23.2635 C   0  0  0  0  0  0
  -25.9229  -30.8459   21.3644 C   0  0  0  0  0  0
  -26.0029  -29.4819   20.7153 C   0  0  0  0  0  0
  -27.2041  -28.7437   20.7071 C   0  0  0  0  0  0
  -26.0741  -26.9465   19.5121 C   0  0  0  0  0  0
  -24.8757  -27.6878   19.5171 C   0  0  0  0  0  0
  -23.6053  -29.8217   20.1686 C   0  0  0  0  0  0
  -25.4082  -36.3134   24.0361 C   0  0  1  0  0  0
  -20.5855  -28.3653   23.1348 C   0  0  2  0  0  0
  -20.6756  -26.9394   22.5437 C   0  0  0  0  0  0
  -19.5732  -26.6383   21.5232 C   0  0  0  0  0  0
  -18.1912  -26.7923   22.1639 C   0  0  0  0  0  0
  -19.1519  -28.8828   23.2927 C   0  0  0  0  0  0
  -18.9447  -30.1437   23.8931 C   0  0  0  0  0  0
  -17.6448  -30.6580   24.0574 C   0  0  0  0  0  0
  -25.9026  -34.9500   23.5165 C   0  0  0  0  0  0
  -16.5339  -29.9084   23.6324 C   0  0  0  0  0  0
  -16.7258  -28.6500   23.0348 C   0  0  0  0  0  0
  -26.4431  -31.6628   25.0758 C   0  0  0  0  0  0
  -25.3692  -31.3728   26.1512 C   0  0  0  0  0  0
  -27.0272  -30.3080   24.6122 C   0  0  0  0  0  0
  -27.6034  -32.4343   25.7485 C   0  0  0  0  0  0
  -27.5600  -37.1768   24.8429 C   0  0  0  0  0  0
  -21.4120  -29.3023   22.3745 N   0  0  0  0  0  0
  -26.4248  -37.3844   23.9475 N   0  0  0  0  0  0
  -24.6611  -31.0843   22.1025 N   0  0  0  0  0  0
  -23.4171  -28.8239   23.3072 O   0  0  0  0  0  0
  -28.4138  -26.7579   20.0994 O   0  0  0  0  0  0
  -26.5590  -34.8954   22.4727 O   0  0  0  0  0  0
  -23.5292  -32.1466   23.7535 O   0  0  0  0  0  0
  -29.1956  -18.4994   21.0706 C   0  0  0  0  0  0
  -31.4730  -18.9631   21.7977 C   0  0  0  0  0  0
  -29.0393  -19.8537   20.7116 C   0  0  0  0  0  0
  -31.3173  -20.3140   21.4416 C   0  0  0  0  0  0
  -30.4485  -18.0338   21.5262 C   0  0  0  0  0  0
  -30.1312  -20.7436   20.8161 C   0  0  0  0  0  0
  -30.8318  -16.6201   21.4459 C   0  0  0  0  0  0
  -30.0728  -15.5880   21.0208 C   0  0  0  0  0  0
  -29.9051  -21.8842   18.6012 C   0  0  0  0  0  0
  -29.2299  -24.4981   20.1290 C   0  0  0  0  0  0
  -29.1126  -23.0859   20.7358 C   0  0  0  0  0  0
  -28.3861  -25.5475   20.8550 C   0  0  0  0  0  0
  -30.1119  -22.0942   20.1147 C   0  0  1  0  0  0
  -31.4467  -12.2958   19.1390 H   0  0  0  0  0  0
  -30.2355  -11.2471   19.8106 H   0  0  0  0  0  0
  -29.7278  -11.8058   17.4054 H   0  0  0  0  0  0
  -29.6901  -13.5052   17.8023 H   0  0  0  0  0  0
  -27.7901  -11.3348   18.7653 H   0  0  0  0  0  0
  -27.3726  -12.7029   17.7697 H   0  0  0  0  0  0
  -27.7006  -14.2632   19.5817 H   0  0  0  0  0  0
  -28.6478  -11.9638   21.3549 H   0  0  0  0  0  0
  -28.4757  -13.6165   21.8641 H   0  0  0  0  0  0
  -25.2728   -9.5738   22.4707 H   0  0  0  0  0  0
  -24.0023   -7.4645   22.7443 H   0  0  0  0  0  0
  -21.0823   -8.8709   19.8946 H   0  0  0  0  0  0
  -22.3614  -10.9630   19.6134 H   0  0  0  0  0  0
  -21.1987   -7.6125   23.9707 H   0  0  0  0  0  0
  -21.1497   -6.0502   25.9078 H   0  0  0  0  0  0
  -22.0597   -2.7588   23.2842 H   0  0  0  0  0  0
  -22.4098  -11.9904   22.4817 H   0  0  0  0  0  0
  -21.1091  -13.1237   22.2566 H   0  0  0  0  0  0
  -24.6667  -15.8497   20.5031 H   0  0  0  0  0  0
  -26.2901  -15.6221   20.0925 H   0  0  0  0  0  0
  -26.7086  -32.5580   23.1213 H   0  0  0  0  0  0
  -25.0008  -33.9825   25.0489 H   0  0  0  0  0  0
  -22.6855  -31.3100   21.4149 H   0  0  0  0  0  0
  -23.3796  -35.9559   23.3192 H   0  0  0  0  0  0
  -24.3605  -36.9011   22.2073 H   0  0  0  0  0  0
  -23.7105  -37.6437   23.6696 H   0  0  0  0  0  0
  -26.0341  -31.6120   20.5961 H   0  0  0  0  0  0
  -26.8104  -30.8989   21.9832 H   0  0  0  0  0  0
  -28.0976  -29.1440   21.1663 H   0  0  0  0  0  0
  -26.0959  -25.9732   19.0424 H   0  0  0  0  0  0
  -23.9877  -27.2778   19.0567 H   0  0  0  0  0  0
  -23.7096  -30.5958   19.4073 H   0  0  0  0  0  0
  -22.7313  -29.2366   19.8767 H   0  0  0  0  0  0
  -25.1228  -36.1992   25.0845 H   0  0  0  0  0  0
  -20.9955  -28.3212   24.1467 H   0  0  0  0  0  0
  -20.5674  -26.2257   23.3618 H   0  0  0  0  0  0
  -21.6623  -26.7450   22.1218 H   0  0  0  0  0  0
  -19.6888  -25.6303   21.1240 H   0  0  0  0  0  0
  -19.6672  -27.3214   20.6779 H   0  0  0  0  0  0
  -17.4191  -26.6702   21.4027 H   0  0  0  0  0  0
  -18.0291  -26.0051   22.9018 H   0  0  0  0  0  0
  -19.7923  -30.7242   24.2315 H   0  0  0  0  0  0
  -17.5008  -31.6263   24.5167 H   0  0  0  0  0  0
  -15.5342  -30.2996   23.7633 H   0  0  0  0  0  0
  -15.8662  -28.0832   22.7042 H   0  0  0  0  0  0
  -24.5815  -30.7152   25.7811 H   0  0  0  0  0  0
  -24.8942  -32.2893   26.5035 H   0  0  0  0  0  0
  -25.8026  -30.8806   27.0229 H   0  0  0  0  0  0
  -26.2834  -29.6863   24.1129 H   0  0  0  0  0  0
  -27.4001  -29.7302   25.4589 H   0  0  0  0  0  0
  -27.8679  -30.4429   23.9313 H   0  0  0  0  0  0
  -27.2680  -33.3635   26.2107 H   0  0  0  0  0  0
  -28.3789  -32.6921   25.0258 H   0  0  0  0  0  0
  -28.0763  -31.8443   26.5346 H   0  0  0  0  0  0
  -28.2479  -38.0205   24.7739 H   0  0  0  0  0  0
  -28.1240  -36.2776   24.5905 H   0  0  0  0  0  0
  -27.2393  -37.0981   25.8832 H   0  0  0  0  0  0
  -20.9272  -29.8717   21.6950 H   0  0  0  0  0  0
  -26.0138  -38.2887   24.1634 H   0  0  0  0  0  0
  -28.3905  -17.8119   20.8582 H   0  0  0  0  0  0
  -32.4381  -18.6290   22.1519 H   0  0  0  0  0  0
  -28.1168  -20.1725   20.2478 H   0  0  0  0  0  0
  -32.1589  -20.9857   21.5455 H   0  0  0  0  0  0
  -31.8793  -16.4373   21.6535 H   0  0  0  0  0  0
  -29.0074  -15.6866   20.8899 H   0  0  0  0  0  0
  -30.6202  -21.1552   18.2171 H   0  0  0  0  0  0
  -30.0638  -22.8037   18.0397 H   0  0  0  0  0  0
  -28.9047  -21.5146   18.3713 H   0  0  0  0  0  0
  -28.9147  -24.4697   19.0861 H   0  0  0  0  0  0
  -30.2719  -24.8195   20.1283 H   0  0  0  0  0  0
  -28.0943  -22.7123   20.6227 H   0  0  0  0  0  0
  -29.2992  -23.1449   21.8094 H   0  0  0  0  0  0
  -28.8017  -25.7398   21.8457 H   0  0  0  0  0  0
  -27.3759  -25.1648   21.0063 H   0  0  0  0  0  0
  -31.1062  -22.5277   20.2351 H   0  0  0  0  0  0
  1 25  1  0  0  0
  1 30  2  0  0  0
  1 78  1  0  0  0
  2  3  1  0  0  0
  2 25  1  0  0  0
  2 84  1  0  0  0
  2 85  1  0  0  0
  3  4  1  0  0  0
  3 86  1  0  0  0
  3 87  1  0  0  0
  4  5  1  0  0  0
  4 88  1  0  0  0
  4 89  1  0  0  0
  5  6  1  0  0  0
  5 26  1  0  0  0
  5 90  1  0  0  0
  6 25  1  0  0  0
  6 91  1  0  0  0
  6 92  1  0  0  0
  7  8  2  0  0  0
  7 26  1  0  0  0
  7 29  1  0  0  0
  8  9  1  0  0  0
  8 22  1  0  0  0
  9 10  1  0  0  0
  9 27  2  0  0  0
 10 11  2  0  0  0
 10 15  1  0  0  0
 11 12  1  0  0  0
 11 93  1  0  0  0
 12 13  2  0  0  0
 12 94  1  0  0  0
 13 14  1  0  0  0
 13 31  1  0  0  0
 14 15  2  0  0  0
 14 95  1  0  0  0
 15 96  1  0  0  0
 16 17  2  0  0  0
 16 21  1  0  0  0
 16 31  1  0  0  0
 17 18  1  0  0  0
 17 97  1  0  0  0
 18 19  2  0  0  0
 18 98  1  0  0  0
 19 20  1  0  0  0
 19 24  1  0  0  0
 20 21  2  0  0  0
 20 99  1  0  0  0
 21 23  1  0  0  0
 22 28  1  0  0  0
 22 32  2  0  0  0
 26 27  1  0  0  0
 28100  1  0  0  0
 28101  1  0  0  0
 29102  1  0  0  0
 29103  1  0  0  0
 33 34  1  0  0  0
 33 66  1  0  0  0
 33 70  2  0  0  0
 34 36  1  0  0  0
 34 59  1  0  0  0
 34104  1  0  0  0
 35 44  2  0  0  0
 35 45  1  0  0  0
 35 68  1  0  0  0
 36 56  1  0  0  0
 36105  1  0  0  0
 37 39  1  0  0  0
 37 47  1  0  0  0
 37 66  1  0  0  0
 37106  1  0  0  0
 38 43  2  0  0  0
 38 46  1  0  0  0
 38 47  1  0  0  0
 39 64  1  0  0  0
 39 67  2  0  0  0
 40 52  1  0  0  0
 40 53  2  0  0  0
 40 58  1  0  0  0
 41107  1  0  0  0
 41108  1  0  0  0
 41109  1  0  0  0
 41 48  1  0  0  0
 42 43  1  0  0  0
 42 66  1  0  0  0
 42110  1  0  0  0
 42111  1  0  0  0
 43 44  1  0  0  0
 44112  1  0  0  0
 45 46  2  0  0  0
 45113  1  0  0  0
 46114  1  0  0  0
 47115  1  0  0  0
 47116  1  0  0  0
 48 56  1  0  0  0
 48 65  1  0  0  0
 48117  1  0  0  0
 49 50  1  0  0  0
 49 53  1  0  0  0
 49 64  1  0  0  0
 49118  1  0  0  0
 50 51  1  0  0  0
 50119  1  0  0  0
 50120  1  0  0  0
 51 52  1  0  0  0
 51121  1  0  0  0
 51122  1  0  0  0
 52123  1  0  0  0
 52124  1  0  0  0
 53 54  1  0  0  0
 54 55  2  0  0  0
 54125  1  0  0  0
 55 57  1  0  0  0
 55126  1  0  0  0
 56 69  2  0  0  0
 57 58  2  0  0  0
 57127  1  0  0  0
 58128  1  0  0  0
 59 60  1  0  0  0
 59 61  1  0  0  0
 59 62  1  0  0  0
 60129  1  0  0  0
 60130  1  0  0  0
 60131  1  0  0  0
 61132  1  0  0  0
 61133  1  0  0  0
 61134  1  0  0  0
 62135  1  0  0  0
 62136  1  0  0  0
 62137  1  0  0  0
 63 65  1  0  0  0
 63138  1  0  0  0
 63139  1  0  0  0
 63140  1  0  0  0
 64141  1  0  0  0
 65142  1  0  0  0
 68 82  1  0  0  0
 71 73  2  0  0  0
 71 75  1  0  0  0
 71143  1  0  0  0
 72 74  1  0  0  0
 72 75  2  0  0  0
 72144  1  0  0  0
 73 76  1  0  0  0
 73145  1  0  0  0
 74 76  2  0  0  0
 74146  1  0  0  0
 75 77  1  0  0  0
 76 83  1  0  0  0
 77 78  2  0  0  0
 77147  1  0  0  0
 78148  1  0  0  0
 79149  1  0  0  0
 79150  1  0  0  0
 79151  1  0  0  0
 79 83  1  0  0  0
 80 81  1  0  0  0
 80 82  1  0  0  0
 80152  1  0  0  0
 80153  1  0  0  0
 81 83  1  0  0  0
 81154  1  0  0  0
 81155  1  0  0  0
 82156  1  0  0  0
 82157  1  0  0  0
 83158  1  0  0  0
M  ISO  4   1 100  68 101  78 100  82 101
M  END
> <chiral flag>
0

> <version>
0

> <s_m_source_file>
/data/baiqing/PycharmProjects/Reinvent-master-3.2/result/LINK_invent/BTK/process_docking_weight1_custom_product_contain_oxygen_bond_distance_aromatic_linkinvent_7_9_3/rearranged_h_0129.sdf

> <i_m_source_file_index>
43

> <r_mmod_Potential_Energy-OPLS-2005>
17.575704574585

> <r_mmod_Stretch_Energy-OPLS-2005>
30.9901103973389

> <r_mmod_Bend_Energy-OPLS-2005>
92.4684753417969

> <r_mmod_Torsional_Energy-OPLS-2005>
240.978256225586

> <r_mmod_Improper_Torsional_Energy-OPLS-2005>
12.9853277206421

> <r_mmod_Van_der_Waal_Energy-OPLS-2005>
160.292114257812

> <r_mmod_Electrostatic_Energy-OPLS-2005>
-348.437469482422

> <r_mmod_Solvation_Energy-OPLS-2005>
-186.2705078125

> <b_mmod_Minimization_Converged-OPLS-2005>
0

> <r_mmod_RMS_Derivative-OPLS-2005>
2.29394793510437

$$$$
43
                    3D
 Structure written by MMmdl.
161169  0  0  1  0            999 V2000
  -30.6808  -14.4355   20.6056 C   0  0  0  0  0  0
  -30.4318  -12.2966   19.4067 C   0  0  0  0  0  0
  -29.4941  -12.5119   18.1989 C   0  0  0  0  0  0
  -28.0147  -12.3738   18.6102 C   0  0  0  0  0  0
  -27.6674  -13.1972   19.8797 C   0  0  2  0  0  0
  -28.7037  -12.9257   20.9924 C   0  0  0  0  0  0
  -25.2629  -13.8148   20.5683 C   0  0  0  0  0  0
  -24.1857  -13.0444   20.9168 C   0  0  0  0  0  0
  -24.6390  -11.6908   20.8720 C   0  0  0  0  0  0
  -23.9058  -10.4298   21.0394 C   0  0  0  0  0  0
  -24.3615   -9.4214   21.9174 C   0  0  0  0  0  0
  -23.6289   -8.2246   22.0748 C   0  0  0  0  0  0
  -22.4272   -8.0278   21.3544 C   0  0  0  0  0  0
  -21.9899   -9.0247   20.4640 C   0  0  0  0  0  0
  -22.7229  -10.2130   20.3045 C   0  0  0  0  0  0
  -21.6857   -6.0731   22.5283 C   0  0  0  0  0  0
  -21.4007   -6.5635   23.8214 C   0  0  0  0  0  0
  -21.3656   -5.6793   24.9168 C   0  0  0  0  0  0
  -21.6047   -4.3052   24.7226 C   0  0  0  0  0  0
  -21.8821   -3.8146   23.4347 C   0  0  0  0  0  0
  -21.9194   -4.6966   22.3401 C   0  0  0  0  0  0
  -22.7875  -13.5246   21.1839 C   0  0  0  0  0  0
  -22.1662   -4.2150   21.0985 F   0  0  0  0  0  0
  -21.5629   -3.4543   25.7734 F   0  0  0  0  0  0
  -30.0431  -13.2440   20.4609 N   0  0  0  0  0  0
  -26.3048  -12.9300   20.3372 N   0  0  0  0  0  0
  -25.9313  -11.6468   20.5735 N   0  0  0  0  0  0
  -22.0511  -12.8232   22.0390 N   0  0  0  0  0  0
  -25.4377  -15.1867   20.4123 N   0  0  0  0  0  0
  -31.7691  -14.6877   20.0772 O   0  0  0  0  0  0
  -21.6635   -6.8878   21.4244 O   0  0  0  0  0  0
  -22.3557  -14.5563   20.6713 O   0  0  0  0  0  0
  -24.6139  -31.8686   23.2109 C   0  0  0  0  0  0
  -25.9041  -32.4824   23.8392 C   0  0  1  0  0  0
  -27.2435  -27.4554   20.0865 C   0  0  0  0  0  0
  -25.5902  -33.8612   24.2331 N   0  0  0  0  0  0
  -23.4016  -30.4943   21.5495 C   0  0  2  0  0  0
  -24.8494  -28.9611   20.1160 C   0  0  0  0  0  0
  -22.7412  -29.4675   22.4971 C   0  0  0  0  0  0
  -18.0280  -28.1383   22.8477 C   0  0  0  0  0  0
  -24.1489  -36.7305   23.2642 C   0  0  0  0  0  0
  -25.9289  -30.8384   21.3643 C   0  0  0  0  0  0
  -26.0075  -29.4726   20.7168 C   0  0  0  0  0  0
  -27.2081  -28.7269   20.7073 C   0  0  0  0  0  0
  -26.0708  -26.9586   19.4831 C   0  0  0  0  0  0
  -24.8736  -27.6993   19.4989 C   0  0  0  0  0  0
  -23.6107  -29.8270   20.1636 C   0  0  0  0  0  0
  -25.4104  -36.3102   24.0351 C   0  0  1  0  0  0
  -20.5871  -28.3664   23.1304 C   0  0  2  0  0  0
  -20.6787  -26.9406   22.5398 C   0  0  0  0  0  0
  -19.5764  -26.6383   21.5201 C   0  0  0  0  0  0
  -18.1936  -26.7922   22.1609 C   0  0  0  0  0  0
  -19.1532  -28.8834   23.2896 C   0  0  0  0  0  0
  -18.9469  -30.1437   23.8915 C   0  0  0  0  0  0
  -17.6477  -30.6583   24.0567 C   0  0  0  0  0  0
  -25.9032  -34.9470   23.5136 C   0  0  0  0  0  0
  -16.5369  -29.9095   23.6322 C   0  0  0  0  0  0
  -16.7271  -28.6514   23.0336 C   0  0  0  0  0  0
  -26.4472  -31.6598   25.0709 C   0  0  0  0  0  0
  -25.3748  -31.3723   26.1471 C   0  0  0  0  0  0
  -27.0297  -30.3052   24.6038 C   0  0  0  0  0  0
  -27.6042  -32.4317   25.7468 C   0  0  0  0  0  0
  -27.5595  -37.1792   24.8459 C   0  0  0  0  0  0
  -21.4138  -29.3048   22.3714 N   0  0  0  0  0  0
  -26.4283  -37.3792   23.9437 N   0  0  0  0  0  0
  -24.6666  -31.0805   22.1009 N   0  0  0  0  0  0
  -23.4196  -28.8215   23.3005 O   0  0  0  0  0  0
  -28.3584  -26.6511   20.0043 O   0  0  0  0  0  0
  -26.5585  -34.8922   22.4689 O   0  0  0  0  0  0
  -23.5335  -32.1422   23.7523 O   0  0  0  0  0  0
  -30.0341  -18.7818   19.8040 C   0  0  0  0  0  0
  -30.4049  -17.4467   20.0610 C   0  0  0  0  0  0
  -28.6983  -17.3221   21.7845 C   0  0  0  0  0  0
  -28.9938  -19.4025   20.5294 C   0  0  0  0  0  0
  -28.3245  -18.6621   21.5369 C   0  0  0  0  0  0
  -29.7331  -16.6983   21.0558 C   0  0  0  0  0  0
  -29.1778  -23.3343   20.7088 C   0  0  0  0  0  0
  -27.1918  -19.2563   22.3614 C   0  0  0  0  0  0
  -28.6336  -20.8499   20.1984 C   0  0  0  0  0  0
  -29.4800  -21.8575   21.0027 C   0  0  0  0  0  0
  -29.9027  -24.3631   21.5862 C   0  0  0  0  0  0
  -30.3888  -25.6482   20.8704 C   0  0  0  0  0  0
  -29.4175  -26.8453   20.9279 C   0  0  0  0  0  0
  -30.0060  -15.3295   21.3492 N   0  0  0  0  0  0
  -28.3892  -23.6737   19.8234 O   0  0  0  0  0  0
  -31.4724  -12.4205   19.1025 H   0  0  0  0  0  0
  -30.3523  -11.2730   19.7773 H   0  0  0  0  0  0
  -29.7291  -11.7947   17.4112 H   0  0  0  0  0  0
  -29.6636  -13.5002   17.7703 H   0  0  0  0  0  0
  -27.8203  -11.3158   18.7905 H   0  0  0  0  0  0
  -27.3659  -12.6644   17.7836 H   0  0  0  0  0  0
  -27.7262  -14.2523   19.6103 H   0  0  0  0  0  0
  -28.6738  -11.8739   21.2841 H   0  0  0  0  0  0
  -28.4510  -13.4745   21.8997 H   0  0  0  0  0  0
  -25.2758   -9.5693   22.4741 H   0  0  0  0  0  0
  -24.0009   -7.4638   22.7460 H   0  0  0  0  0  0
  -21.0834   -8.8766   19.8936 H   0  0  0  0  0  0
  -22.3694  -10.9665   19.6150 H   0  0  0  0  0  0
  -21.1991   -7.6139   23.9719 H   0  0  0  0  0  0
  -21.1473   -6.0514   25.9079 H   0  0  0  0  0  0
  -22.0603   -2.7610   23.2848 H   0  0  0  0  0  0
  -22.4125  -11.9892   22.4778 H   0  0  0  0  0  0
  -21.1121  -13.1251   22.2583 H   0  0  0  0  0  0
  -24.6793  -15.8485   20.5334 H   0  0  0  0  0  0
  -26.3040  -15.6269   20.1271 H   0  0  0  0  0  0
  -26.7112  -32.5539   23.1158 H   0  0  0  0  0  0
  -25.0094  -33.9769   25.0505 H   0  0  0  0  0  0
  -22.6904  -31.3111   21.4104 H   0  0  0  0  0  0
  -23.3757  -35.9630   23.3273 H   0  0  0  0  0  0
  -24.3607  -36.8920   22.2065 H   0  0  0  0  0  0
  -23.7225  -37.6508   23.6643 H   0  0  0  0  0  0
  -26.0364  -31.6013   20.5920 H   0  0  0  0  0  0
  -26.8206  -30.8957   21.9767 H   0  0  0  0  0  0
  -28.0964  -29.1401   21.1619 H   0  0  0  0  0  0
  -26.0862  -25.9911   19.0015 H   0  0  0  0  0  0
  -23.9853  -27.2978   19.0301 H   0  0  0  0  0  0
  -23.7246  -30.6041   19.4066 H   0  0  0  0  0  0
  -22.7340  -29.2509   19.8618 H   0  0  0  0  0  0
  -25.1271  -36.1966   25.0839 H   0  0  0  0  0  0
  -20.9958  -28.3226   24.1426 H   0  0  0  0  0  0
  -20.5689  -26.2275   23.3586 H   0  0  0  0  0  0
  -21.6655  -26.7448   22.1195 H   0  0  0  0  0  0
  -19.6939  -25.6300   21.1215 H   0  0  0  0  0  0
  -19.6721  -27.3206   20.6742 H   0  0  0  0  0  0
  -17.4211  -26.6674   21.4005 H   0  0  0  0  0  0
  -18.0343  -26.0056   22.8990 H   0  0  0  0  0  0
  -19.7956  -30.7241   24.2299 H   0  0  0  0  0  0
  -17.5045  -31.6267   24.5165 H   0  0  0  0  0  0
  -15.5373  -30.3023   23.7640 H   0  0  0  0  0  0
  -15.8660  -28.0854   22.7042 H   0  0  0  0  0  0
  -24.5863  -30.7133   25.7817 H   0  0  0  0  0  0
  -24.9016  -32.2906   26.4954 H   0  0  0  0  0  0
  -25.8098  -30.8860   27.0209 H   0  0  0  0  0  0
  -26.2824  -29.6822   24.1105 H   0  0  0  0  0  0
  -27.4142  -29.7272   25.4450 H   0  0  0  0  0  0
  -27.8616  -30.4413   23.9124 H   0  0  0  0  0  0
  -27.2644  -33.3602   26.2066 H   0  0  0  0  0  0
  -28.3837  -32.6897   25.0288 H   0  0  0  0  0  0
  -28.0710  -31.8427   26.5371 H   0  0  0  0  0  0
  -28.2547  -38.0160   24.7580 H   0  0  0  0  0  0
  -28.1157  -36.2685   24.6157 H   0  0  0  0  0  0
  -27.2336  -37.1286   25.8869 H   0  0  0  0  0  0
  -20.9290  -29.8772   21.6942 H   0  0  0  0  0  0
  -26.0169  -38.2851   24.1498 H   0  0  0  0  0  0
  -30.5523  -19.3329   19.0320 H   0  0  0  0  0  0
  -31.2011  -17.0175   19.4719 H   0  0  0  0  0  0
  -28.1655  -16.7634   22.5415 H   0  0  0  0  0  0
  -27.1847  -18.8358   23.3672 H   0  0  0  0  0  0
  -26.2306  -19.0297   21.8992 H   0  0  0  0  0  0
  -27.2727  -20.3360   22.4738 H   0  0  0  0  0  0
  -27.5698  -21.0259   20.3601 H   0  0  0  0  0  0
  -28.7871  -21.0130   19.1301 H   0  0  0  0  0  0
  -29.3427  -21.6866   22.0697 H   0  0  0  0  0  0
  -30.5363  -21.6866   20.7936 H   0  0  0  0  0  0
  -30.7708  -23.8554   22.0056 H   0  0  0  0  0  0
  -29.2687  -24.6150   22.4364 H   0  0  0  0  0  0
  -30.6692  -25.4376   19.8366 H   0  0  0  0  0  0
  -31.3157  -25.9542   21.3576 H   0  0  0  0  0  0
  -29.9531  -27.7596   20.6662 H   0  0  0  0  0  0
  -29.0386  -26.9645   21.9437 H   0  0  0  0  0  0
  -29.3156  -14.8919   21.9402 H   0  0  0  0  0  0
  1 25  1  0  0  0
  1 30  2  0  0  0
  1 84  1  0  0  0
  2  3  1  0  0  0
  2 25  1  0  0  0
  2 86  1  0  0  0
  2 87  1  0  0  0
  3  4  1  0  0  0
  3 88  1  0  0  0
  3 89  1  0  0  0
  4  5  1  0  0  0
  4 90  1  0  0  0
  4 91  1  0  0  0
  5  6  1  0  0  0
  5 26  1  0  0  0
  5 92  1  0  0  0
  6 25  1  0  0  0
  6 93  1  0  0  0
  6 94  1  0  0  0
  7  8  2  0  0  0
  7 26  1  0  0  0
  7 29  1  0  0  0
  8  9  1  0  0  0
  8 22  1  0  0  0
  9 10  1  0  0  0
  9 27  2  0  0  0
 10 11  2  0  0  0
 10 15  1  0  0  0
 11 12  1  0  0  0
 11 95  1  0  0  0
 12 13  2  0  0  0
 12 96  1  0  0  0
 13 14  1  0  0  0
 13 31  1  0  0  0
 14 15  2  0  0  0
 14 97  1  0  0  0
 15 98  1  0  0  0
 16 17  2  0  0  0
 16 21  1  0  0  0
 16 31  1  0  0  0
 17 18  1  0  0  0
 17 99  1  0  0  0
 18 19  2  0  0  0
 18100  1  0  0  0
 19 20  1  0  0  0
 19 24  1  0  0  0
 20 21  2  0  0  0
 20101  1  0  0  0
 21 23  1  0  0  0
 22 28  1  0  0  0
 22 32  2  0  0  0
 26 27  1  0  0  0
 28102  1  0  0  0
 28103  1  0  0  0
 29104  1  0  0  0
 29105  1  0  0  0
 33 34  1  0  0  0
 33 66  1  0  0  0
 33 70  2  0  0  0
 34 36  1  0  0  0
 34 59  1  0  0  0
 34106  1  0  0  0
 35 44  2  0  0  0
 35 45  1  0  0  0
 35 68  1  0  0  0
 36 56  1  0  0  0
 36107  1  0  0  0
 37 39  1  0  0  0
 37 47  1  0  0  0
 37 66  1  0  0  0
 37108  1  0  0  0
 38 43  2  0  0  0
 38 46  1  0  0  0
 38 47  1  0  0  0
 39 64  1  0  0  0
 39 67  2  0  0  0
 40 52  1  0  0  0
 40 53  2  0  0  0
 40 58  1  0  0  0
 41109  1  0  0  0
 41110  1  0  0  0
 41111  1  0  0  0
 41 48  1  0  0  0
 42 43  1  0  0  0
 42 66  1  0  0  0
 42112  1  0  0  0
 42113  1  0  0  0
 43 44  1  0  0  0
 44114  1  0  0  0
 45 46  2  0  0  0
 45115  1  0  0  0
 46116  1  0  0  0
 47117  1  0  0  0
 47118  1  0  0  0
 48 56  1  0  0  0
 48 65  1  0  0  0
 48119  1  0  0  0
 49 50  1  0  0  0
 49 53  1  0  0  0
 49 64  1  0  0  0
 49120  1  0  0  0
 50 51  1  0  0  0
 50121  1  0  0  0
 50122  1  0  0  0
 51 52  1  0  0  0
 51123  1  0  0  0
 51124  1  0  0  0
 52125  1  0  0  0
 52126  1  0  0  0
 53 54  1  0  0  0
 54 55  2  0  0  0
 54127  1  0  0  0
 55 57  1  0  0  0
 55128  1  0  0  0
 56 69  2  0  0  0
 57 58  2  0  0  0
 57129  1  0  0  0
 58130  1  0  0  0
 59 60  1  0  0  0
 59 61  1  0  0  0
 59 62  1  0  0  0
 60131  1  0  0  0
 60132  1  0  0  0
 60133  1  0  0  0
 61134  1  0  0  0
 61135  1  0  0  0
 61136  1  0  0  0
 62137  1  0  0  0
 62138  1  0  0  0
 62139  1  0  0  0
 63 65  1  0  0  0
 63140  1  0  0  0
 63141  1  0  0  0
 63142  1  0  0  0
 64143  1  0  0  0
 65144  1  0  0  0
 68 83  1  0  0  0
 71 72  2  0  0  0
 71 74  1  0  0  0
 71145  1  0  0  0
 72 76  1  0  0  0
 72146  1  0  0  0
 73 75  1  0  0  0
 73 76  2  0  0  0
 73147  1  0  0  0
 74 75  2  0  0  0
 74 79  1  0  0  0
 75 78  1  0  0  0
 76 84  1  0  0  0
 77 80  1  0  0  0
 77 81  1  0  0  0
 77 85  2  0  0  0
 78148  1  0  0  0
 78149  1  0  0  0
 78150  1  0  0  0
 79 80  1  0  0  0
 79151  1  0  0  0
 79152  1  0  0  0
 80153  1  0  0  0
 80154  1  0  0  0
 81 82  1  0  0  0
 81155  1  0  0  0
 81156  1  0  0  0
 82 83  1  0  0  0
 82157  1  0  0  0
 82158  1  0  0  0
 83159  1  0  0  0
 83160  1  0  0  0
 84161  1  0  0  0
M  ISO  4   1 100  68 101  83 101  84 100
M  END
> <chiral flag>
0

> <version>
0

> <s_m_source_file>
/data/baiqing/PycharmProjects/Reinvent-master-3.2/result/LINK_invent/BTK/process_docking_weight1_custom_product_contain_oxygen_bond_distance_aromatic_linkinvent_7_9_3/rearranged_h_0129.sdf

> <i_m_source_file_index>
44

> <r_mmod_Potential_Energy-OPLS-2005>
-114.778762817383

> <r_mmod_Stretch_Energy-OPLS-2005>
34.169921875

> <r_mmod_Bend_Energy-OPLS-2005>
104.426910400391

> <r_mmod_Torsional_Energy-OPLS-2005>
217.19645690918

> <r_mmod_Improper_Torsional_Energy-OPLS-2005>
4.01692581176758

> <r_mmod_Van_der_Waal_Energy-OPLS-2005>
149.934875488281

> <r_mmod_Electrostatic_Energy-OPLS-2005>
-415.680633544922

> <r_mmod_Solvation_Energy-OPLS-2005>
-218.351440429688

> <b_mmod_Minimization_Converged-OPLS-2005>
0

> <r_mmod_RMS_Derivative-OPLS-2005>
2.19586420059204

$$$$
44
                    3D
 Structure written by MMmdl.
160168  0  0  1  0            999 V2000
  -30.6428  -14.5466   20.6393 C   0  0  0  0  0  0
  -30.4436  -12.3785   19.4224 C   0  0  0  0  0  0
  -29.4992  -12.5506   18.2106 C   0  0  0  0  0  0
  -28.0245  -12.3754   18.6216 C   0  0  0  0  0  0
  -27.6636  -13.2088   19.8797 C   0  0  2  0  0  0
  -28.7025  -12.9711   20.9963 C   0  0  0  0  0  0
  -25.2581  -13.8165   20.5680 C   0  0  0  0  0  0
  -24.1831  -13.0430   20.9166 C   0  0  0  0  0  0
  -24.6394  -11.6902   20.8711 C   0  0  0  0  0  0
  -23.9069  -10.4288   21.0388 C   0  0  0  0  0  0
  -24.3635   -9.4201   21.9168 C   0  0  0  0  0  0
  -23.6297   -8.2245   22.0746 C   0  0  0  0  0  0
  -22.4275   -8.0294   21.3548 C   0  0  0  0  0  0
  -21.9914   -9.0260   20.4643 C   0  0  0  0  0  0
  -22.7242  -10.2134   20.3033 C   0  0  0  0  0  0
  -21.6846   -6.0739   22.5281 C   0  0  0  0  0  0
  -21.4008   -6.5637   23.8218 C   0  0  0  0  0  0
  -21.3656   -5.6785   24.9179 C   0  0  0  0  0  0
  -21.6047   -4.3050   24.7219 C   0  0  0  0  0  0
  -21.8816   -3.8149   23.4336 C   0  0  0  0  0  0
  -21.9187   -4.6969   22.3395 C   0  0  0  0  0  0
  -22.7855  -13.5231   21.1847 C   0  0  0  0  0  0
  -22.1654   -4.2164   21.0968 F   0  0  0  0  0  0
  -21.5633   -3.4523   25.7724 F   0  0  0  0  0  0
  -30.0367  -13.3299   20.4741 N   0  0  0  0  0  0
  -26.3028  -12.9334   20.3381 N   0  0  0  0  0  0
  -25.9325  -11.6486   20.5759 N   0  0  0  0  0  0
  -22.0501  -12.8213   22.0412 N   0  0  0  0  0  0
  -25.4271  -15.1890   20.4124 N   0  0  0  0  0  0
  -31.6674  -14.8672   20.0266 O   0  0  0  0  0  0
  -21.6635   -6.8892   21.4249 O   0  0  0  0  0  0
  -22.3511  -14.5521   20.6691 O   0  0  0  0  0  0
  -24.6221  -31.8624   23.2022 C   0  0  0  0  0  0
  -25.9087  -32.4792   23.8370 C   0  0  1  0  0  0
  -27.2423  -27.3630   20.1268 C   0  0  0  0  0  0
  -25.5913  -33.8595   24.2292 N   0  0  0  0  0  0
  -23.4154  -30.4814   21.5411 C   0  0  2  0  0  0
  -24.8673  -28.9300   20.1181 C   0  0  0  0  0  0
  -22.7472  -29.4629   22.4927 C   0  0  0  0  0  0
  -18.0297  -28.1391   22.8495 C   0  0  0  0  0  0
  -24.1472  -36.7291   23.2644 C   0  0  0  0  0  0
  -25.9512  -30.8037   21.3690 C   0  0  0  0  0  0
  -26.0297  -29.4323   20.7174 C   0  0  0  0  0  0
  -27.2232  -28.6614   20.7057 C   0  0  0  0  0  0
  -26.0603  -26.8848   19.5261 C   0  0  0  0  0  0
  -24.8810  -27.6593   19.5146 C   0  0  0  0  0  0
  -23.6324  -29.8071   20.1598 C   0  0  0  0  0  0
  -25.4100  -36.3085   24.0332 C   0  0  1  0  0  0
  -20.5892  -28.3683   23.1292 C   0  0  2  0  0  0
  -20.6773  -26.9402   22.5415 C   0  0  0  0  0  0
  -19.5742  -26.6379   21.5223 C   0  0  0  0  0  0
  -18.1929  -26.7934   22.1638 C   0  0  0  0  0  0
  -19.1550  -28.8857   23.2888 C   0  0  0  0  0  0
  -18.9470  -30.1464   23.8891 C   0  0  0  0  0  0
  -17.6465  -30.6584   24.0583 C   0  0  0  0  0  0
  -25.9036  -34.9456   23.5104 C   0  0  0  0  0  0
  -16.5356  -29.9086   23.6339 C   0  0  0  0  0  0
  -16.7288  -28.6517   23.0342 C   0  0  0  0  0  0
  -26.4497  -31.6610   25.0738 C   0  0  0  0  0  0
  -25.3744  -31.3721   26.1474 C   0  0  0  0  0  0
  -27.0376  -30.3056   24.6177 C   0  0  0  0  0  0
  -27.6063  -32.4369   25.7475 C   0  0  0  0  0  0
  -27.5562  -37.1783   24.8466 C   0  0  0  0  0  0
  -21.4189  -29.3040   22.3684 N   0  0  0  0  0  0
  -26.4275  -37.3778   23.9412 N   0  0  0  0  0  0
  -24.6807  -31.0659   22.0952 N   0  0  0  0  0  0
  -23.4211  -28.8186   23.3011 O   0  0  0  0  0  0
  -28.3999  -26.5928   20.1089 O   0  0  0  0  0  0
  -26.5605  -34.8912   22.4667 O   0  0  0  0  0  0
  -23.5396  -32.1423   23.7353 O   0  0  0  0  0  0
  -29.7337  -17.8019   20.9312 C   0  0  0  0  0  0
  -28.4014  -16.6322   22.5893 C   0  0  0  0  0  0
  -28.9505  -19.0060   21.1078 C   0  0  0  0  0  0
  -27.6141  -17.7765   22.7822 C   0  0  0  0  0  0
  -27.8386  -18.9415   22.0076 C   0  0  0  0  0  0
  -29.4423  -16.5929   21.6483 C   0  0  0  0  0  0
  -29.3304  -20.2942   20.3914 C   0  0  0  0  0  0
  -29.0882  -21.6031   20.7314 C   0  0  0  0  0  0
  -26.5281  -17.7141   23.8483 C   0  0  0  0  0  0
  -26.8230  -20.0775   22.1349 C   0  0  0  0  0  0
  -29.5158  -22.8749   19.9513 C   0  0  0  0  0  0
  -28.4617  -24.0289   19.6838 C   0  0  0  0  0  0
  -28.3755  -25.2453   20.6819 C   0  0  0  0  0  0
  -30.1156  -15.3080   21.6258 N   0  0  0  0  0  0
  -31.4799  -12.5345   19.1175 H   0  0  0  0  0  0
  -30.3946  -11.3568   19.8034 H   0  0  0  0  0  0
  -29.7555  -11.8387   17.4243 H   0  0  0  0  0  0
  -29.6369  -13.5441   17.7803 H   0  0  0  0  0  0
  -27.8572  -11.3155   18.8195 H   0  0  0  0  0  0
  -27.3656  -12.6380   17.7921 H   0  0  0  0  0  0
  -27.7090  -14.2611   19.5988 H   0  0  0  0  0  0
  -28.6983  -11.9198   21.2888 H   0  0  0  0  0  0
  -28.4210  -13.5140   21.8980 H   0  0  0  0  0  0
  -25.2789   -9.5647   22.4744 H   0  0  0  0  0  0
  -23.9997   -7.4608   22.7440 H   0  0  0  0  0  0
  -21.0848   -8.8750   19.8947 H   0  0  0  0  0  0
  -22.3692  -10.9660   19.6133 H   0  0  0  0  0  0
  -21.1996   -7.6145   23.9718 H   0  0  0  0  0  0
  -21.1491   -6.0521   25.9081 H   0  0  0  0  0  0
  -22.0606   -2.7613   23.2820 H   0  0  0  0  0  0
  -22.4149  -11.9911   22.4840 H   0  0  0  0  0  0
  -21.1106  -13.1212   22.2610 H   0  0  0  0  0  0
  -24.6677  -15.8468   20.5480 H   0  0  0  0  0  0
  -26.3019  -15.6394   20.1720 H   0  0  0  0  0  0
  -26.7169  -32.5464   23.1137 H   0  0  0  0  0  0
  -25.0105  -33.9761   25.0461 H   0  0  0  0  0  0
  -22.7075  -31.2997   21.3932 H   0  0  0  0  0  0
  -23.3731  -35.9629   23.3323 H   0  0  0  0  0  0
  -24.3555  -36.8890   22.2052 H   0  0  0  0  0  0
  -23.7213  -37.6483   23.6677 H   0  0  0  0  0  0
  -26.0762  -31.5634   20.5973 H   0  0  0  0  0  0
  -26.8349  -30.8582   21.9946 H   0  0  0  0  0  0
  -28.1229  -29.0459   21.1658 H   0  0  0  0  0  0
  -26.0501  -25.9086   19.0625 H   0  0  0  0  0  0
  -23.9903  -27.2632   19.0461 H   0  0  0  0  0  0
  -23.7545  -30.5810   19.4004 H   0  0  0  0  0  0
  -22.7539  -29.2345   19.8561 H   0  0  0  0  0  0
  -25.1261  -36.1951   25.0827 H   0  0  0  0  0  0
  -21.0014  -28.3256   24.1402 H   0  0  0  0  0  0
  -20.5672  -26.2297   23.3620 H   0  0  0  0  0  0
  -21.6636  -26.7419   22.1193 H   0  0  0  0  0  0
  -19.6885  -25.6294   21.1238 H   0  0  0  0  0  0
  -19.6665  -27.3211   20.6773 H   0  0  0  0  0  0
  -17.4194  -26.6726   21.4038 H   0  0  0  0  0  0
  -18.0301  -26.0071   22.9028 H   0  0  0  0  0  0
  -19.7939  -30.7308   24.2228 H   0  0  0  0  0  0
  -17.5013  -31.6256   24.5201 H   0  0  0  0  0  0
  -15.5360  -30.2990   23.7643 H   0  0  0  0  0  0
  -15.8698  -28.0849   22.7015 H   0  0  0  0  0  0
  -24.5894  -30.7119   25.7771 H   0  0  0  0  0  0
  -24.8973  -32.2881   26.4974 H   0  0  0  0  0  0
  -25.8065  -30.8815   27.0207 H   0  0  0  0  0  0
  -26.2950  -29.6750   24.1279 H   0  0  0  0  0  0
  -27.4185  -29.7374   25.4670 H   0  0  0  0  0  0
  -27.8760  -30.4366   23.9336 H   0  0  0  0  0  0
  -27.2682  -33.3667   26.2067 H   0  0  0  0  0  0
  -28.3837  -32.6946   25.0271 H   0  0  0  0  0  0
  -28.0804  -31.8513   26.5358 H   0  0  0  0  0  0
  -28.2575  -38.0083   24.7514 H   0  0  0  0  0  0
  -28.1056  -36.2606   24.6298 H   0  0  0  0  0  0
  -27.2289  -37.1436   25.8873 H   0  0  0  0  0  0
  -20.9381  -29.8781   21.6894 H   0  0  0  0  0  0
  -26.0155  -38.2839   24.1463 H   0  0  0  0  0  0
  -30.5771  -17.8088   20.2545 H   0  0  0  0  0  0
  -28.1884  -15.7572   23.1884 H   0  0  0  0  0  0
  -29.8630  -20.1330   19.4647 H   0  0  0  0  0  0
  -28.5812  -21.8304   21.6544 H   0  0  0  0  0  0
  -26.5267  -18.6190   24.4579 H   0  0  0  0  0  0
  -26.6833  -16.8744   24.5277 H   0  0  0  0  0  0
  -25.5439  -17.5914   23.3955 H   0  0  0  0  0  0
  -26.6836  -20.6031   21.1919 H   0  0  0  0  0  0
  -27.1128  -20.7877   22.9108 H   0  0  0  0  0  0
  -25.8299  -19.7062   22.3838 H   0  0  0  0  0  0
  -29.8898  -22.5327   18.9851 H   0  0  0  0  0  0
  -30.3869  -23.3025   20.4496 H   0  0  0  0  0  0
  -27.4701  -23.6029   19.5258 H   0  0  0  0  0  0
  -28.7239  -24.4665   18.7200 H   0  0  0  0  0  0
  -29.2401  -25.2005   21.3451 H   0  0  0  0  0  0
  -27.5161  -25.1196   21.3429 H   0  0  0  0  0  0
  -29.6787  -14.6757   22.2789 H   0  0  0  0  0  0
  1 25  1  0  0  0
  1 30  2  0  0  0
  1 84  1  0  0  0
  2  3  1  0  0  0
  2 25  1  0  0  0
  2 85  1  0  0  0
  2 86  1  0  0  0
  3  4  1  0  0  0
  3 87  1  0  0  0
  3 88  1  0  0  0
  4  5  1  0  0  0
  4 89  1  0  0  0
  4 90  1  0  0  0
  5  6  1  0  0  0
  5 26  1  0  0  0
  5 91  1  0  0  0
  6 25  1  0  0  0
  6 92  1  0  0  0
  6 93  1  0  0  0
  7  8  2  0  0  0
  7 26  1  0  0  0
  7 29  1  0  0  0
  8  9  1  0  0  0
  8 22  1  0  0  0
  9 10  1  0  0  0
  9 27  2  0  0  0
 10 11  2  0  0  0
 10 15  1  0  0  0
 11 12  1  0  0  0
 11 94  1  0  0  0
 12 13  2  0  0  0
 12 95  1  0  0  0
 13 14  1  0  0  0
 13 31  1  0  0  0
 14 15  2  0  0  0
 14 96  1  0  0  0
 15 97  1  0  0  0
 16 17  2  0  0  0
 16 21  1  0  0  0
 16 31  1  0  0  0
 17 18  1  0  0  0
 17 98  1  0  0  0
 18 19  2  0  0  0
 18 99  1  0  0  0
 19 20  1  0  0  0
 19 24  1  0  0  0
 20 21  2  0  0  0
 20100  1  0  0  0
 21 23  1  0  0  0
 22 28  1  0  0  0
 22 32  2  0  0  0
 26 27  1  0  0  0
 28101  1  0  0  0
 28102  1  0  0  0
 29103  1  0  0  0
 29104  1  0  0  0
 33 34  1  0  0  0
 33 66  1  0  0  0
 33 70  2  0  0  0
 34 36  1  0  0  0
 34 59  1  0  0  0
 34105  1  0  0  0
 35 44  2  0  0  0
 35 45  1  0  0  0
 35 68  1  0  0  0
 36 56  1  0  0  0
 36106  1  0  0  0
 37 39  1  0  0  0
 37 47  1  0  0  0
 37 66  1  0  0  0
 37107  1  0  0  0
 38 43  2  0  0  0
 38 46  1  0  0  0
 38 47  1  0  0  0
 39 64  1  0  0  0
 39 67  2  0  0  0
 40 52  1  0  0  0
 40 53  2  0  0  0
 40 58  1  0  0  0
 41108  1  0  0  0
 41109  1  0  0  0
 41110  1  0  0  0
 41 48  1  0  0  0
 42 43  1  0  0  0
 42 66  1  0  0  0
 42111  1  0  0  0
 42112  1  0  0  0
 43 44  1  0  0  0
 44113  1  0  0  0
 45 46  2  0  0  0
 45114  1  0  0  0
 46115  1  0  0  0
 47116  1  0  0  0
 47117  1  0  0  0
 48 56  1  0  0  0
 48 65  1  0  0  0
 48118  1  0  0  0
 49 50  1  0  0  0
 49 53  1  0  0  0
 49 64  1  0  0  0
 49119  1  0  0  0
 50 51  1  0  0  0
 50120  1  0  0  0
 50121  1  0  0  0
 51 52  1  0  0  0
 51122  1  0  0  0
 51123  1  0  0  0
 52124  1  0  0  0
 52125  1  0  0  0
 53 54  1  0  0  0
 54 55  2  0  0  0
 54126  1  0  0  0
 55 57  1  0  0  0
 55127  1  0  0  0
 56 69  2  0  0  0
 57 58  2  0  0  0
 57128  1  0  0  0
 58129  1  0  0  0
 59 60  1  0  0  0
 59 61  1  0  0  0
 59 62  1  0  0  0
 60130  1  0  0  0
 60131  1  0  0  0
 60132  1  0  0  0
 61133  1  0  0  0
 61134  1  0  0  0
 61135  1  0  0  0
 62136  1  0  0  0
 62137  1  0  0  0
 62138  1  0  0  0
 63 65  1  0  0  0
 63139  1  0  0  0
 63140  1  0  0  0
 63141  1  0  0  0
 64142  1  0  0  0
 65143  1  0  0  0
 68 83  1  0  0  0
 71 73  2  0  0  0
 71 76  1  0  0  0
 71144  1  0  0  0
 72 74  1  0  0  0
 72 76  2  0  0  0
 72145  1  0  0  0
 73 75  1  0  0  0
 73 77  1  0  0  0
 74 75  2  0  0  0
 74 79  1  0  0  0
 75 80  1  0  0  0
 76 84  1  0  0  0
 77 78  2  0  0  0
 77146  1  0  0  0
 78 81  1  0  0  0
 78147  1  0  0  0
 79148  1  0  0  0
 79149  1  0  0  0
 79150  1  0  0  0
 80151  1  0  0  0
 80152  1  0  0  0
 80153  1  0  0  0
 81 82  1  0  0  0
 81154  1  0  0  0
 81155  1  0  0  0
 82 83  1  0  0  0
 82156  1  0  0  0
 82157  1  0  0  0
 83158  1  0  0  0
 83159  1  0  0  0
 84160  1  0  0  0
M  ISO  4   1 100  68 101  83 101  84 100
M  END
> <chiral flag>
0

> <version>
0

> <s_m_source_file>
/data/baiqing/PycharmProjects/Reinvent-master-3.2/result/LINK_invent/BTK/process_docking_weight1_custom_product_contain_oxygen_bond_distance_aromatic_linkinvent_7_9_3/rearranged_h_0129.sdf

> <i_m_source_file_index>
45

> <r_mmod_Potential_Energy-OPLS-2005>
98.3460998535156

> <r_mmod_Stretch_Energy-OPLS-2005>
68.7629089355469

> <r_mmod_Bend_Energy-OPLS-2005>
152.309005737305

> <r_mmod_Torsional_Energy-OPLS-2005>
269.175506591797

> <r_mmod_Improper_Torsional_Energy-OPLS-2005>
6.9015588760376

> <r_mmod_Van_der_Waal_Energy-OPLS-2005>
143.641693115234

> <r_mmod_Electrostatic_Energy-OPLS-2005>
-372.094909667969

> <r_mmod_Solvation_Energy-OPLS-2005>
-198.988845825195

> <b_mmod_Minimization_Converged-OPLS-2005>
0

> <r_mmod_RMS_Derivative-OPLS-2005>
2.38204121589661

$$$$
45
                    3D
 Structure written by MMmdl.
160168  0  0  1  0            999 V2000
  -30.6813  -14.4846   20.4646 C   0  0  0  0  0  0
  -30.4189  -12.2823   19.4395 C   0  0  0  0  0  0
  -29.4958  -12.4700   18.2150 C   0  0  0  0  0  0
  -28.0156  -12.3406   18.6256 C   0  0  0  0  0  0
  -27.6554  -13.1999   19.8673 C   0  0  2  0  0  0
  -28.7001  -13.0230   20.9959 C   0  0  0  0  0  0
  -25.2574  -13.8136   20.5688 C   0  0  0  0  0  0
  -24.1827  -13.0422   20.9190 C   0  0  0  0  0  0
  -24.6373  -11.6888   20.8746 C   0  0  0  0  0  0
  -23.9042  -10.4283   21.0411 C   0  0  0  0  0  0
  -24.3604   -9.4202   21.9185 C   0  0  0  0  0  0
  -23.6287   -8.2234   22.0754 C   0  0  0  0  0  0
  -22.4270   -8.0270   21.3545 C   0  0  0  0  0  0
  -21.9900   -9.0239   20.4648 C   0  0  0  0  0  0
  -22.7219  -10.2123   20.3058 C   0  0  0  0  0  0
  -21.6850   -6.0731   22.5280 C   0  0  0  0  0  0
  -21.4009   -6.5637   23.8210 C   0  0  0  0  0  0
  -21.3657   -5.6795   24.9175 C   0  0  0  0  0  0
  -21.6046   -4.3057   24.7230 C   0  0  0  0  0  0
  -21.8821   -3.8143   23.4354 C   0  0  0  0  0  0
  -21.9192   -4.6957   22.3407 C   0  0  0  0  0  0
  -22.7853  -13.5228   21.1851 C   0  0  0  0  0  0
  -22.1662   -4.2139   21.0986 F   0  0  0  0  0  0
  -21.5631   -3.4547   25.7748 F   0  0  0  0  0  0
  -30.0333  -13.2917   20.4359 N   0  0  0  0  0  0
  -26.2994  -12.9291   20.3351 N   0  0  0  0  0  0
  -25.9298  -11.6463   20.5786 N   0  0  0  0  0  0
  -22.0497  -12.8221   22.0409 N   0  0  0  0  0  0
  -25.4287  -15.1859   20.4101 N   0  0  0  0  0  0
  -31.8694  -14.6092   20.1794 O   0  0  0  0  0  0
  -21.6635   -6.8869   21.4241 O   0  0  0  0  0  0
  -22.3541  -14.5535   20.6695 O   0  0  0  0  0  0
  -24.6128  -31.8693   23.2109 C   0  0  0  0  0  0
  -25.9032  -32.4826   23.8398 C   0  0  1  0  0  0
  -27.2403  -27.4491   20.0833 C   0  0  0  0  0  0
  -25.5899  -33.8626   24.2329 N   0  0  0  0  0  0
  -23.3992  -30.4921   21.5517 C   0  0  2  0  0  0
  -24.8437  -28.9563   20.1167 C   0  0  0  0  0  0
  -22.7396  -29.4665   22.5008 C   0  0  0  0  0  0
  -18.0269  -28.1382   22.8495 C   0  0  0  0  0  0
  -24.1487  -36.7318   23.2638 C   0  0  0  0  0  0
  -25.9257  -30.8362   21.3624 C   0  0  0  0  0  0
  -26.0013  -29.4698   20.7131 C   0  0  0  0  0  0
  -27.1963  -28.7183   20.7025 C   0  0  0  0  0  0
  -26.0565  -26.9363   19.5029 C   0  0  0  0  0  0
  -24.8641  -27.6857   19.5149 C   0  0  0  0  0  0
  -23.6056  -29.8226   20.1664 C   0  0  0  0  0  0
  -25.4110  -36.3115   24.0335 C   0  0  1  0  0  0
  -20.5856  -28.3664   23.1330 C   0  0  2  0  0  0
  -20.6761  -26.9403   22.5426 C   0  0  0  0  0  0
  -19.5743  -26.6391   21.5217 C   0  0  0  0  0  0
  -18.1917  -26.7933   22.1619 C   0  0  0  0  0  0
  -19.1518  -28.8839   23.2908 C   0  0  0  0  0  0
  -18.9447  -30.1446   23.8916 C   0  0  0  0  0  0
  -17.6450  -30.6585   24.0573 C   0  0  0  0  0  0
  -25.9037  -34.9480   23.5129 C   0  0  0  0  0  0
  -16.5341  -29.9089   23.6329 C   0  0  0  0  0  0
  -16.7259  -28.6508   23.0347 C   0  0  0  0  0  0
  -26.4465  -31.6602   25.0723 C   0  0  0  0  0  0
  -25.3733  -31.3703   26.1471 C   0  0  0  0  0  0
  -27.0291  -30.3048   24.6088 C   0  0  0  0  0  0
  -27.6051  -32.4313   25.7477 C   0  0  0  0  0  0
  -27.5583  -37.1811   24.8462 C   0  0  0  0  0  0
  -21.4129  -29.3030   22.3737 N   0  0  0  0  0  0
  -26.4296  -37.3798   23.9405 N   0  0  0  0  0  0
  -24.6640  -31.0803   22.1003 N   0  0  0  0  0  0
  -23.4172  -28.8219   23.3056 O   0  0  0  0  0  0
  -28.4374  -26.7623   20.0911 O   0  0  0  0  0  0
  -26.5600  -34.8928   22.4690 O   0  0  0  0  0  0
  -23.5328  -32.1444   23.7515 O   0  0  0  0  0  0
  -32.1904  -19.6633   18.0230 C   0  0  0  0  0  0
  -32.5724  -18.3381   17.7774 C   0  0  0  0  0  0
  -30.1877  -18.8767   19.1526 C   0  0  0  0  0  0
  -30.9622  -19.9520   18.6464 C   0  0  0  0  0  0
  -31.7388  -17.2698   18.1536 C   0  0  0  0  0  0
  -30.5644  -17.5233   18.9219 C   0  0  0  0  0  0
  -30.5098  -21.3574   18.5591 C   0  0  0  0  0  0
  -29.3183  -21.9016   18.8753 C   0  0  0  0  0  0
  -32.1258  -15.9060   17.6037 C   0  0  0  0  0  0
  -29.5846  -16.4092   19.3329 C   0  0  0  0  0  0
  -28.9656  -23.3359   18.4913 C   0  0  0  0  0  0
  -28.6883  -24.3317   19.6341 C   0  0  0  0  0  0
  -28.6934  -25.7779   19.0876 C   0  0  0  0  0  0
  -29.8637  -15.5493   20.5023 N   0  0  0  0  0  0
  -31.4654  -12.3668   19.1406 H   0  0  0  0  0  0
  -30.3054  -11.2808   19.8576 H   0  0  0  0  0  0
  -29.7346  -11.7317   17.4487 H   0  0  0  0  0  0
  -29.6668  -13.4449   17.7589 H   0  0  0  0  0  0
  -27.8270  -11.2881   18.8402 H   0  0  0  0  0  0
  -27.3665  -12.5984   17.7878 H   0  0  0  0  0  0
  -27.6782  -14.2368   19.5376 H   0  0  0  0  0  0
  -28.6674  -12.0072   21.3921 H   0  0  0  0  0  0
  -28.4814  -13.6818   21.8383 H   0  0  0  0  0  0
  -25.2752   -9.5683   22.4754 H   0  0  0  0  0  0
  -24.0000   -7.4627   22.7474 H   0  0  0  0  0  0
  -21.0831   -8.8754   19.8956 H   0  0  0  0  0  0
  -22.3674  -10.9662   19.6166 H   0  0  0  0  0  0
  -21.1993   -7.6143   23.9712 H   0  0  0  0  0  0
  -21.1478   -6.0526   25.9078 H   0  0  0  0  0  0
  -22.0599   -2.7605   23.2862 H   0  0  0  0  0  0
  -22.4121  -11.9882   22.4791 H   0  0  0  0  0  0
  -21.1115  -13.1240   22.2620 H   0  0  0  0  0  0
  -24.6593  -15.8377   20.5197 H   0  0  0  0  0  0
  -26.2767  -15.6297   20.0833 H   0  0  0  0  0  0
  -26.7105  -32.5541   23.1165 H   0  0  0  0  0  0
  -25.0048  -33.9796   25.0472 H   0  0  0  0  0  0
  -22.6871  -31.3081   21.4135 H   0  0  0  0  0  0
  -23.3744  -35.9656   23.3314 H   0  0  0  0  0  0
  -24.3579  -36.8922   22.2049 H   0  0  0  0  0  0
  -23.7246  -37.6529   23.6643 H   0  0  0  0  0  0
  -26.0355  -31.6006   20.5922 H   0  0  0  0  0  0
  -26.8151  -30.8915   21.9784 H   0  0  0  0  0  0
  -28.0920  -29.1159   21.1590 H   0  0  0  0  0  0
  -26.0340  -25.9556   19.0502 H   0  0  0  0  0  0
  -23.9694  -27.2780   19.0645 H   0  0  0  0  0  0
  -23.7123  -30.5963   19.4052 H   0  0  0  0  0  0
  -22.7293  -29.2416   19.8730 H   0  0  0  0  0  0
  -25.1286  -36.1983   25.0828 H   0  0  0  0  0  0
  -20.9944  -28.3232   24.1453 H   0  0  0  0  0  0
  -20.5671  -26.2273   23.3612 H   0  0  0  0  0  0
  -21.6636  -26.7458   22.1220 H   0  0  0  0  0  0
  -19.6910  -25.6307   21.1237 H   0  0  0  0  0  0
  -19.6690  -27.3214   20.6757 H   0  0  0  0  0  0
  -17.4197  -26.6697   21.4007 H   0  0  0  0  0  0
  -18.0301  -26.0063   22.9000 H   0  0  0  0  0  0
  -19.7921  -30.7259   24.2294 H   0  0  0  0  0  0
  -17.5004  -31.6264   24.5177 H   0  0  0  0  0  0
  -15.5344  -30.2999   23.7644 H   0  0  0  0  0  0
  -15.8657  -28.0836   22.7052 H   0  0  0  0  0  0
  -24.5910  -30.7046   25.7804 H   0  0  0  0  0  0
  -24.8915  -32.2856   26.4920 H   0  0  0  0  0  0
  -25.8088  -30.8871   27.0225 H   0  0  0  0  0  0
  -26.2830  -29.6813   24.1150 H   0  0  0  0  0  0
  -27.4074  -29.7283   25.4539 H   0  0  0  0  0  0
  -27.8657  -30.4372   23.9223 H   0  0  0  0  0  0
  -27.2682  -33.3596   26.2100 H   0  0  0  0  0  0
  -28.3833  -32.6900   25.0284 H   0  0  0  0  0  0
  -28.0749  -31.8407   26.5352 H   0  0  0  0  0  0
  -28.2611  -38.0100   24.7508 H   0  0  0  0  0  0
  -28.1070  -36.2634   24.6289 H   0  0  0  0  0  0
  -27.2301  -37.1466   25.8866 H   0  0  0  0  0  0
  -20.9291  -29.8735   21.6945 H   0  0  0  0  0  0
  -26.0188  -38.2877   24.1405 H   0  0  0  0  0  0
  -32.8128  -20.4604   17.6397 H   0  0  0  0  0  0
  -33.4783  -18.1495   17.2167 H   0  0  0  0  0  0
  -29.2460  -19.0885   19.6383 H   0  0  0  0  0  0
  -31.2372  -22.0271   18.1206 H   0  0  0  0  0  0
  -28.5469  -21.3168   19.3572 H   0  0  0  0  0  0
  -33.0133  -15.5288   18.1115 H   0  0  0  0  0  0
  -32.3738  -15.9902   16.5449 H   0  0  0  0  0  0
  -31.3365  -15.1627   17.6748 H   0  0  0  0  0  0
  -29.3852  -15.7796   18.4657 H   0  0  0  0  0  0
  -28.6187  -16.8745   19.5332 H   0  0  0  0  0  0
  -28.0968  -23.2979   17.8328 H   0  0  0  0  0  0
  -29.7767  -23.7298   17.8765 H   0  0  0  0  0  0
  -29.4515  -24.2385   20.4077 H   0  0  0  0  0  0
  -27.7315  -24.1046   20.1055 H   0  0  0  0  0  0
  -28.0435  -25.8752   18.2173 H   0  0  0  0  0  0
  -29.6915  -25.9939   18.7046 H   0  0  0  0  0  0
  -29.0255  -15.3565   21.0290 H   0  0  0  0  0  0
  1 25  1  0  0  0
  1 30  2  0  0  0
  1 84  1  0  0  0
  2  3  1  0  0  0
  2 25  1  0  0  0
  2 85  1  0  0  0
  2 86  1  0  0  0
  3  4  1  0  0  0
  3 87  1  0  0  0
  3 88  1  0  0  0
  4  5  1  0  0  0
  4 89  1  0  0  0
  4 90  1  0  0  0
  5  6  1  0  0  0
  5 26  1  0  0  0
  5 91  1  0  0  0
  6 25  1  0  0  0
  6 92  1  0  0  0
  6 93  1  0  0  0
  7  8  2  0  0  0
  7 26  1  0  0  0
  7 29  1  0  0  0
  8  9  1  0  0  0
  8 22  1  0  0  0
  9 10  1  0  0  0
  9 27  2  0  0  0
 10 11  2  0  0  0
 10 15  1  0  0  0
 11 12  1  0  0  0
 11 94  1  0  0  0
 12 13  2  0  0  0
 12 95  1  0  0  0
 13 14  1  0  0  0
 13 31  1  0  0  0
 14 15  2  0  0  0
 14 96  1  0  0  0
 15 97  1  0  0  0
 16 17  2  0  0  0
 16 21  1  0  0  0
 16 31  1  0  0  0
 17 18  1  0  0  0
 17 98  1  0  0  0
 18 19  2  0  0  0
 18 99  1  0  0  0
 19 20  1  0  0  0
 19 24  1  0  0  0
 20 21  2  0  0  0
 20100  1  0  0  0
 21 23  1  0  0  0
 22 28  1  0  0  0
 22 32  2  0  0  0
 26 27  1  0  0  0
 28101  1  0  0  0
 28102  1  0  0  0
 29103  1  0  0  0
 29104  1  0  0  0
 33 34  1  0  0  0
 33 66  1  0  0  0
 33 70  2  0  0  0
 34 36  1  0  0  0
 34 59  1  0  0  0
 34105  1  0  0  0
 35 44  2  0  0  0
 35 45  1  0  0  0
 35 68  1  0  0  0
 36 56  1  0  0  0
 36106  1  0  0  0
 37 39  1  0  0  0
 37 47  1  0  0  0
 37 66  1  0  0  0
 37107  1  0  0  0
 38 43  2  0  0  0
 38 46  1  0  0  0
 38 47  1  0  0  0
 39 64  1  0  0  0
 39 67  2  0  0  0
 40 52  1  0  0  0
 40 53  2  0  0  0
 40 58  1  0  0  0
 41108  1  0  0  0
 41109  1  0  0  0
 41110  1  0  0  0
 41 48  1  0  0  0
 42 43  1  0  0  0
 42 66  1  0  0  0
 42111  1  0  0  0
 42112  1  0  0  0
 43 44  1  0  0  0
 44113  1  0  0  0
 45 46  2  0  0  0
 45114  1  0  0  0
 46115  1  0  0  0
 47116  1  0  0  0
 47117  1  0  0  0
 48 56  1  0  0  0
 48 65  1  0  0  0
 48118  1  0  0  0
 49 50  1  0  0  0
 49 53  1  0  0  0
 49 64  1  0  0  0
 49119  1  0  0  0
 50 51  1  0  0  0
 50120  1  0  0  0
 50121  1  0  0  0
 51 52  1  0  0  0
 51122  1  0  0  0
 51123  1  0  0  0
 52124  1  0  0  0
 52125  1  0  0  0
 53 54  1  0  0  0
 54 55  2  0  0  0
 54126  1  0  0  0
 55 57  1  0  0  0
 55127  1  0  0  0
 56 69  2  0  0  0
 57 58  2  0  0  0
 57128  1  0  0  0
 58129  1  0  0  0
 59 60  1  0  0  0
 59 61  1  0  0  0
 59 62  1  0  0  0
 60130  1  0  0  0
 60131  1  0  0  0
 60132  1  0  0  0
 61133  1  0  0  0
 61134  1  0  0  0
 61135  1  0  0  0
 62136  1  0  0  0
 62137  1  0  0  0
 62138  1  0  0  0
 63 65  1  0  0  0
 63139  1  0  0  0
 63140  1  0  0  0
 63141  1  0  0  0
 64142  1  0  0  0
 65143  1  0  0  0
 68 83  1  0  0  0
 71 72  2  0  0  0
 71 74  1  0  0  0
 71144  1  0  0  0
 72 75  1  0  0  0
 72145  1  0  0  0
 73 74  2  0  0  0
 73 76  1  0  0  0
 73146  1  0  0  0
 74 77  1  0  0  0
 75 76  2  0  0  0
 75 79  1  0  0  0
 76 80  1  0  0  0
 77 78  2  0  0  0
 77147  1  0  0  0
 78 81  1  0  0  0
 78148  1  0  0  0
 79149  1  0  0  0
 79150  1  0  0  0
 79151  1  0  0  0
 80 84  1  0  0  0
 80152  1  0  0  0
 80153  1  0  0  0
 81 82  1  0  0  0
 81154  1  0  0  0
 81155  1  0  0  0
 82 83  1  0  0  0
 82156  1  0  0  0
 82157  1  0  0  0
 83158  1  0  0  0
 83159  1  0  0  0
 84160  1  0  0  0
M  ISO  4   1 100  68 101  83 101  84 100
M  END
> <chiral flag>
0

> <version>
0

> <s_m_source_file>
/data/baiqing/PycharmProjects/Reinvent-master-3.2/result/LINK_invent/BTK/process_docking_weight1_custom_product_contain_oxygen_bond_distance_aromatic_linkinvent_7_9_3/rearranged_h_0129.sdf

> <i_m_source_file_index>
46

> <r_mmod_Potential_Energy-OPLS-2005>
-3.16740417480469

> <r_mmod_Stretch_Energy-OPLS-2005>
36.6873893737793

> <r_mmod_Bend_Energy-OPLS-2005>
119.449935913086

> <r_mmod_Torsional_Energy-OPLS-2005>
264.041076660156

> <r_mmod_Improper_Torsional_Energy-OPLS-2005>
15.2211875915527

> <r_mmod_Van_der_Waal_Energy-OPLS-2005>
152.231231689453

> <r_mmod_Electrostatic_Energy-OPLS-2005>
-392.096221923828

> <r_mmod_Solvation_Energy-OPLS-2005>
-217.559753417969

> <b_mmod_Minimization_Converged-OPLS-2005>
0

> <r_mmod_RMS_Derivative-OPLS-2005>
0.736993134021759

$$$$
46
                    3D
 Structure written by MMmdl.
163172  0  0  1  0            999 V2000
  -30.7558  -14.5210   20.5158 C   0  0  0  0  0  0
  -30.4071  -12.3077   19.4982 C   0  0  0  0  0  0
  -29.5138  -12.4463   18.2503 C   0  0  0  0  0  0
  -28.0332  -12.3053   18.6465 C   0  0  0  0  0  0
  -27.6493  -13.2145   19.8464 C   0  0  2  0  0  0
  -28.6803  -13.1207   20.9931 C   0  0  0  0  0  0
  -25.2560  -13.8181   20.5639 C   0  0  0  0  0  0
  -24.1813  -13.0462   20.9153 C   0  0  0  0  0  0
  -24.6343  -11.6911   20.8671 C   0  0  0  0  0  0
  -23.8986  -10.4302   21.0347 C   0  0  0  0  0  0
  -24.3572   -9.4227   21.9138 C   0  0  0  0  0  0
  -23.6283   -8.2233   22.0709 C   0  0  0  0  0  0
  -22.4247   -8.0264   21.3524 C   0  0  0  0  0  0
  -21.9855   -9.0204   20.4633 C   0  0  0  0  0  0
  -22.7144  -10.2114   20.3025 C   0  0  0  0  0  0
  -21.6854   -6.0712   22.5273 C   0  0  0  0  0  0
  -21.4015   -6.5609   23.8186 C   0  0  0  0  0  0
  -21.3679   -5.6764   24.9153 C   0  0  0  0  0  0
  -21.6052   -4.3026   24.7221 C   0  0  0  0  0  0
  -21.8824   -3.8134   23.4317 C   0  0  0  0  0  0
  -21.9200   -4.6945   22.3376 C   0  0  0  0  0  0
  -22.7828  -13.5258   21.1817 C   0  0  0  0  0  0
  -22.1666   -4.2139   21.0951 F   0  0  0  0  0  0
  -21.5647   -3.4493   25.7712 F   0  0  0  0  0  0
  -30.0149  -13.3759   20.4386 N   0  0  0  0  0  0
  -26.2951  -12.9357   20.3171 N   0  0  0  0  0  0
  -25.9278  -11.6522   20.5659 N   0  0  0  0  0  0
  -22.0461  -12.8290   22.0412 N   0  0  0  0  0  0
  -25.4299  -15.1895   20.4093 N   0  0  0  0  0  0
  -31.9249  -14.5171   20.1232 O   0  0  0  0  0  0
  -21.6625   -6.8855   21.4223 O   0  0  0  0  0  0
  -22.3482  -14.5528   20.6612 O   0  0  0  0  0  0
  -24.6114  -31.8706   23.2147 C   0  0  0  0  0  0
  -25.9029  -32.4838   23.8429 C   0  0  1  0  0  0
  -27.2572  -27.4753   20.1016 C   0  0  0  0  0  0
  -25.5923  -33.8639   24.2367 N   0  0  0  0  0  0
  -23.3974  -30.4949   21.5543 C   0  0  2  0  0  0
  -24.8531  -28.9688   20.1177 C   0  0  0  0  0  0
  -22.7372  -29.4670   22.5023 C   0  0  0  0  0  0
  -18.0249  -28.1370   22.8463 C   0  0  0  0  0  0
  -24.1478  -36.7307   23.2629 C   0  0  0  0  0  0
  -25.9238  -30.8523   21.3624 C   0  0  0  0  0  0
  -26.0110  -29.4883   20.7159 C   0  0  0  0  0  0
  -27.2162  -28.7495   20.7116 C   0  0  0  0  0  0
  -26.0858  -26.9691   19.5031 C   0  0  0  0  0  0
  -24.8847  -27.7049   19.5075 C   0  0  0  0  0  0
  -23.6074  -29.8254   20.1699 C   0  0  0  0  0  0
  -25.4086  -36.3116   24.0354 C   0  0  1  0  0  0
  -20.5837  -28.3629   23.1350 C   0  0  2  0  0  0
  -20.6730  -26.9360   22.5455 C   0  0  0  0  0  0
  -19.5751  -26.6376   21.5195 C   0  0  0  0  0  0
  -18.1890  -26.7940   22.1536 C   0  0  0  0  0  0
  -19.1485  -28.8818   23.2909 C   0  0  0  0  0  0
  -18.9423  -30.1422   23.8901 C   0  0  0  0  0  0
  -17.6439  -30.6578   24.0541 C   0  0  0  0  0  0
  -25.9032  -34.9482   23.5137 C   0  0  0  0  0  0
  -16.5317  -29.9069   23.6347 C   0  0  0  0  0  0
  -16.7241  -28.6484   23.0349 C   0  0  0  0  0  0
  -26.4498  -31.6612   25.0729 C   0  0  0  0  0  0
  -25.3813  -31.3756   26.1538 C   0  0  0  0  0  0
  -27.0284  -30.3041   24.6077 C   0  0  0  0  0  0
  -27.6134  -32.4315   25.7405 C   0  0  0  0  0  0
  -27.5631  -37.1726   24.8411 C   0  0  0  0  0  0
  -21.4101  -29.3017   22.3764 N   0  0  0  0  0  0
  -26.4261  -37.3823   23.9480 N   0  0  0  0  0  0
  -24.6619  -31.0848   22.1031 N   0  0  0  0  0  0
  -23.4169  -28.8218   23.3044 O   0  0  0  0  0  0
  -28.3641  -26.6592   20.0390 O   0  0  0  0  0  0
  -26.5581  -34.8932   22.4687 O   0  0  0  0  0  0
  -23.5319  -32.1422   23.7580 O   0  0  0  0  0  0
  -29.4547  -19.0338   21.1417 C   0  0  0  0  0  0
  -29.4044  -20.4508   21.0345 C   0  0  0  0  0  0
  -31.8633  -19.1501   20.9845 C   0  0  0  0  0  0
  -30.6965  -18.3596   21.0899 C   0  0  0  0  0  0
  -30.5806  -21.2295   20.8461 C   0  0  0  0  0  0
  -31.8257  -20.5553   20.8511 C   0  0  0  0  0  0
  -30.1116  -25.9811   21.4753 C   0  0  0  0  0  0
  -30.9120  -16.8872   20.9973 C   0  0  0  0  0  0
  -29.5268  -26.9264   20.7103 C   0  0  0  0  0  0
  -30.0939  -15.8106   20.8221 C   0  0  0  0  0  0
  -31.5330  -25.9482   21.9576 C   0  0  0  0  0  0
  -29.5314  -24.6332   21.8243 C   0  0  0  0  0  0
  -31.9206  -24.4892   21.6380 C   0  0  0  0  0  0
  -33.1466  -21.2878   20.6652 C   0  0  0  0  0  0
  -30.4687  -22.7337   20.5128 C   0  0  0  0  0  0
  -30.6611  -23.6761   21.6597 N   0  3  2  0  0  0
  -31.4622  -12.3358   19.2158 H   0  0  0  0  0  0
  -30.2705  -11.3345   19.9706 H   0  0  0  0  0  0
  -29.7778  -11.6804   17.5206 H   0  0  0  0  0  0
  -29.6897  -13.4089   17.7729 H   0  0  0  0  0  0
  -27.8680  -11.2596   18.9106 H   0  0  0  0  0  0
  -27.3912  -12.5047   17.7878 H   0  0  0  0  0  0
  -27.6679  -14.2349   19.4704 H   0  0  0  0  0  0
  -28.6543  -12.1377   21.4610 H   0  0  0  0  0  0
  -28.4370  -13.8310   21.7862 H   0  0  0  0  0  0
  -25.2739   -9.5741   22.4672 H   0  0  0  0  0  0
  -24.0052   -7.4605   22.7366 H   0  0  0  0  0  0
  -21.0804   -8.8683   19.8915 H   0  0  0  0  0  0
  -22.3566  -10.9634   19.6114 H   0  0  0  0  0  0
  -21.1988   -7.6113   23.9694 H   0  0  0  0  0  0
  -21.1507   -6.0480   25.9064 H   0  0  0  0  0  0
  -22.0599   -2.7599   23.2781 H   0  0  0  0  0  0
  -22.4090  -12.0039   22.4978 H   0  0  0  0  0  0
  -21.1056  -13.1346   22.2492 H   0  0  0  0  0  0
  -24.6726  -15.8546   20.5407 H   0  0  0  0  0  0
  -26.2868  -15.6305   20.1063 H   0  0  0  0  0  0
  -26.7101  -32.5573   23.1206 H   0  0  0  0  0  0
  -25.0179  -33.9802   25.0587 H   0  0  0  0  0  0
  -22.6836  -31.3095   21.4155 H   0  0  0  0  0  0
  -23.3808  -35.9559   23.3138 H   0  0  0  0  0  0
  -24.3621  -36.9065   22.2072 H   0  0  0  0  0  0
  -23.7125  -37.6422   23.6725 H   0  0  0  0  0  0
  -26.0294  -31.6211   20.5948 H   0  0  0  0  0  0
  -26.8137  -30.9090   21.9774 H   0  0  0  0  0  0
  -28.0999  -29.1620   21.1742 H   0  0  0  0  0  0
  -26.1069  -25.9981   19.0297 H   0  0  0  0  0  0
  -23.9977  -27.2967   19.0389 H   0  0  0  0  0  0
  -23.6987  -30.5980   19.4052 H   0  0  0  0  0  0
  -22.7362  -29.2327   19.8830 H   0  0  0  0  0  0
  -25.1224  -36.1946   25.0845 H   0  0  0  0  0  0
  -20.9915  -28.3182   24.1473 H   0  0  0  0  0  0
  -20.5572  -26.2212   23.3626 H   0  0  0  0  0  0
  -21.6621  -26.7371   22.1303 H   0  0  0  0  0  0
  -19.6902  -25.6281   21.1239 H   0  0  0  0  0  0
  -19.6778  -27.3174   20.6721 H   0  0  0  0  0  0
  -17.4223  -26.6783   21.3867 H   0  0  0  0  0  0
  -18.0191  -26.0048   22.8870 H   0  0  0  0  0  0
  -19.7909  -30.7223   24.2293 H   0  0  0  0  0  0
  -17.5000  -31.6271   24.5111 H   0  0  0  0  0  0
  -15.5324  -30.2951   23.7707 H   0  0  0  0  0  0
  -15.8643  -28.0818   22.7070 H   0  0  0  0  0  0
  -24.5993  -30.7046   25.7960 H   0  0  0  0  0  0
  -24.8983  -32.2923   26.4933 H   0  0  0  0  0  0
  -25.8249  -30.9035   27.0316 H   0  0  0  0  0  0
  -26.2751  -29.6783   24.1275 H   0  0  0  0  0  0
  -27.4191  -29.7317   25.4503 H   0  0  0  0  0  0
  -27.8546  -30.4335   23.9078 H   0  0  0  0  0  0
  -27.2813  -33.3615   26.2029 H   0  0  0  0  0  0
  -28.3867  -32.6886   25.0150 H   0  0  0  0  0  0
  -28.0899  -31.8415   26.5245 H   0  0  0  0  0  0
  -28.2504  -38.0163   24.7703 H   0  0  0  0  0  0
  -28.1249  -36.2725   24.5867 H   0  0  0  0  0  0
  -27.2429  -37.0967   25.8816 H   0  0  0  0  0  0
  -20.9222  -29.8745   21.7020 H   0  0  0  0  0  0
  -26.0142  -38.2851   24.1663 H   0  0  0  0  0  0
  -28.5330  -18.4759   21.2257 H   0  0  0  0  0  0
  -28.4377  -20.9364   21.0350 H   0  0  0  0  0  0
  -32.8267  -18.6586   20.9406 H   0  0  0  0  0  0
  -31.9681  -16.6637   21.0419 H   0  0  0  0  0  0
  -29.9941  -27.8506   20.3971 H   0  0  0  0  0  0
  -29.0193  -15.9118   20.8187 H   0  0  0  0  0  0
  -31.5601  -26.1245   23.0340 H   0  0  0  0  0  0
  -32.1768  -26.6779   21.4656 H   0  0  0  0  0  0
  -28.6303  -24.4085   21.2563 H   0  0  0  0  0  0
  -29.2518  -24.6502   22.8782 H   0  0  0  0  0  0
  -32.6619  -24.1074   22.3418 H   0  0  0  0  0  0
  -32.3938  -24.4722   20.6530 H   0  0  0  0  0  0
  -33.9623  -20.5915   20.4674 H   0  0  0  0  0  0
  -33.4045  -21.8473   21.5642 H   0  0  0  0  0  0
  -33.1163  -21.9741   19.8199 H   0  0  0  0  0  0
  -29.4775  -22.8723   20.0819 H   0  0  0  0  0  0
  -31.1228  -22.9891   19.6782 H   0  0  0  0  0  0
  -30.6759  -23.1051   22.4926 H   0  0  0  0  0  0
  1 25  1  0  0  0
  1 30  2  0  0  0
  1 80  1  0  0  0
  2  3  1  0  0  0
  2 25  1  0  0  0
  2 87  1  0  0  0
  2 88  1  0  0  0
  3  4  1  0  0  0
  3 89  1  0  0  0
  3 90  1  0  0  0
  4  5  1  0  0  0
  4 91  1  0  0  0
  4 92  1  0  0  0
  5  6  1  0  0  0
  5 26  1  0  0  0
  5 93  1  0  0  0
  6 25  1  0  0  0
  6 94  1  0  0  0
  6 95  1  0  0  0
  7  8  2  0  0  0
  7 26  1  0  0  0
  7 29  1  0  0  0
  8  9  1  0  0  0
  8 22  1  0  0  0
  9 10  1  0  0  0
  9 27  2  0  0  0
 10 11  2  0  0  0
 10 15  1  0  0  0
 11 12  1  0  0  0
 11 96  1  0  0  0
 12 13  2  0  0  0
 12 97  1  0  0  0
 13 14  1  0  0  0
 13 31  1  0  0  0
 14 15  2  0  0  0
 14 98  1  0  0  0
 15 99  1  0  0  0
 16 17  2  0  0  0
 16 21  1  0  0  0
 16 31  1  0  0  0
 17 18  1  0  0  0
 17100  1  0  0  0
 18 19  2  0  0  0
 18101  1  0  0  0
 19 20  1  0  0  0
 19 24  1  0  0  0
 20 21  2  0  0  0
 20102  1  0  0  0
 21 23  1  0  0  0
 22 28  1  0  0  0
 22 32  2  0  0  0
 26 27  1  0  0  0
 28103  1  0  0  0
 28104  1  0  0  0
 29105  1  0  0  0
 29106  1  0  0  0
 33 34  1  0  0  0
 33 66  1  0  0  0
 33 70  2  0  0  0
 34 36  1  0  0  0
 34 59  1  0  0  0
 34107  1  0  0  0
 35 44  2  0  0  0
 35 45  1  0  0  0
 35 68  1  0  0  0
 36 56  1  0  0  0
 36108  1  0  0  0
 37 39  1  0  0  0
 37 47  1  0  0  0
 37 66  1  0  0  0
 37109  1  0  0  0
 38 43  2  0  0  0
 38 46  1  0  0  0
 38 47  1  0  0  0
 39 64  1  0  0  0
 39 67  2  0  0  0
 40 52  1  0  0  0
 40 53  2  0  0  0
 40 58  1  0  0  0
 41110  1  0  0  0
 41111  1  0  0  0
 41112  1  0  0  0
 41 48  1  0  0  0
 42 43  1  0  0  0
 42 66  1  0  0  0
 42113  1  0  0  0
 42114  1  0  0  0
 43 44  1  0  0  0
 44115  1  0  0  0
 45 46  2  0  0  0
 45116  1  0  0  0
 46117  1  0  0  0
 47118  1  0  0  0
 47119  1  0  0  0
 48 56  1  0  0  0
 48 65  1  0  0  0
 48120  1  0  0  0
 49 50  1  0  0  0
 49 53  1  0  0  0
 49 64  1  0  0  0
 49121  1  0  0  0
 50 51  1  0  0  0
 50122  1  0  0  0
 50123  1  0  0  0
 51 52  1  0  0  0
 51124  1  0  0  0
 51125  1  0  0  0
 52126  1  0  0  0
 52127  1  0  0  0
 53 54  1  0  0  0
 54 55  2  0  0  0
 54128  1  0  0  0
 55 57  1  0  0  0
 55129  1  0  0  0
 56 69  2  0  0  0
 57 58  2  0  0  0
 57130  1  0  0  0
 58131  1  0  0  0
 59 60  1  0  0  0
 59 61  1  0  0  0
 59 62  1  0  0  0
 60132  1  0  0  0
 60133  1  0  0  0
 60134  1  0  0  0
 61135  1  0  0  0
 61136  1  0  0  0
 61137  1  0  0  0
 62138  1  0  0  0
 62139  1  0  0  0
 62140  1  0  0  0
 63 65  1  0  0  0
 63141  1  0  0  0
 63142  1  0  0  0
 63143  1  0  0  0
 64144  1  0  0  0
 65145  1  0  0  0
 68 79  1  0  0  0
 71 72  2  0  0  0
 71 74  1  0  0  0
 71146  1  0  0  0
 72 75  1  0  0  0
 72147  1  0  0  0
 73 74  2  0  0  0
 73 76  1  0  0  0
 73148  1  0  0  0
 74 78  1  0  0  0
 75 76  2  0  0  0
 75 85  1  0  0  0
 76 84  1  0  0  0
 77 79  2  0  0  0
 77 81  1  0  0  0
 77 82  1  0  0  0
 78 80  2  0  0  0
 78149  1  0  0  0
 79150  1  0  0  0
 80151  1  0  0  0
 81 83  1  0  0  0
 81152  1  0  0  0
 81153  1  0  0  0
 82 86  1  0  0  0
 82154  1  0  0  0
 82155  1  0  0  0
 83 86  1  0  0  0
 83156  1  0  0  0
 83157  1  0  0  0
 84158  1  0  0  0
 84159  1  0  0  0
 84160  1  0  0  0
 85161  1  0  0  0
 85162  1  0  0  0
 85 86  1  0  0  0
 86163  1  0  0  0
M  CHG  1  86   1
M  ISO  4   1 100  68 101  79 101  80 100
M  END
> <chiral flag>
0

> <version>
0

> <s_m_source_file>
/data/baiqing/PycharmProjects/Reinvent-master-3.2/result/LINK_invent/BTK/process_docking_weight1_custom_product_contain_oxygen_bond_distance_aromatic_linkinvent_7_9_3/rearranged_h_0129.sdf

> <i_m_source_file_index>
47

> <r_mmod_Potential_Energy-OPLS-2005>
-37.4177436828613

> <r_mmod_Stretch_Energy-OPLS-2005>
43.7147560119629

> <r_mmod_Bend_Energy-OPLS-2005>
170.007064819336

> <r_mmod_Torsional_Energy-OPLS-2005>
225.553436279297

> <r_mmod_Improper_Torsional_Energy-OPLS-2005>
8.11763858795166

> <r_mmod_Van_der_Waal_Energy-OPLS-2005>
157.574966430664

> <r_mmod_Electrostatic_Energy-OPLS-2005>
-259.671173095703

> <r_mmod_Solvation_Energy-OPLS-2005>
-409.026641845703

> <b_mmod_Minimization_Converged-OPLS-2005>
0

> <r_mmod_RMS_Derivative-OPLS-2005>
4.9895339012146

$$$$
47
                    3D
 Structure written by MMmdl.
157165  0  0  1  0            999 V2000
  -30.6070  -14.6637   20.4863 C   0  0  0  0  0  0
  -30.4384  -12.4028   19.4584 C   0  0  0  0  0  0
  -29.5097  -12.5039   18.2259 C   0  0  0  0  0  0
  -28.0310  -12.3456   18.6343 C   0  0  0  0  0  0
  -27.6526  -13.2183   19.8613 C   0  0  2  0  0  0
  -28.6963  -13.0762   20.9918 C   0  0  0  0  0  0
  -25.2552  -13.8176   20.5661 C   0  0  0  0  0  0
  -24.1827  -13.0440   20.9184 C   0  0  0  0  0  0
  -24.6394  -11.6911   20.8715 C   0  0  0  0  0  0
  -23.9059  -10.4292   21.0383 C   0  0  0  0  0  0
  -24.3611   -9.4205   21.9157 C   0  0  0  0  0  0
  -23.6294   -8.2238   22.0741 C   0  0  0  0  0  0
  -22.4274   -8.0269   21.3536 C   0  0  0  0  0  0
  -21.9906   -9.0243   20.4638 C   0  0  0  0  0  0
  -22.7231  -10.2125   20.3041 C   0  0  0  0  0  0
  -21.6859   -6.0732   22.5270 C   0  0  0  0  0  0
  -21.4024   -6.5633   23.8204 C   0  0  0  0  0  0
  -21.3655   -5.6787   24.9163 C   0  0  0  0  0  0
  -21.6041   -4.3054   24.7223 C   0  0  0  0  0  0
  -21.8819   -3.8140   23.4348 C   0  0  0  0  0  0
  -21.9197   -4.6956   22.3399 C   0  0  0  0  0  0
  -22.7848  -13.5219   21.1849 C   0  0  0  0  0  0
  -22.1658   -4.2139   21.0982 F   0  0  0  0  0  0
  -21.5626   -3.4535   25.7738 F   0  0  0  0  0  0
  -30.0101  -13.4288   20.4335 N   0  0  0  0  0  0
  -26.2979  -12.9361   20.3297 N   0  0  0  0  0  0
  -25.9319  -11.6509   20.5733 N   0  0  0  0  0  0
  -22.0506  -12.8211   22.0416 N   0  0  0  0  0  0
  -25.4282  -15.1895   20.4064 N   0  0  0  0  0  0
  -31.7644  -14.8212   20.0855 O   0  0  0  0  0  0
  -21.6638   -6.8870   21.4233 O   0  0  0  0  0  0
  -22.3515  -14.5507   20.6684 O   0  0  0  0  0  0
  -24.6281  -31.8598   23.2010 C   0  0  0  0  0  0
  -25.9126  -32.4786   23.8335 C   0  0  1  0  0  0
  -27.2120  -27.2906   20.1126 C   0  0  0  0  0  0
  -25.5951  -33.8586   24.2266 N   0  0  0  0  0  0
  -23.4232  -30.4845   21.5443 C   0  0  2  0  0  0
  -24.8652  -28.9413   20.1073 C   0  0  0  0  0  0
  -22.7497  -29.4621   22.4917 C   0  0  0  0  0  0
  -18.0288  -28.1377   22.8505 C   0  0  0  0  0  0
  -24.1477  -36.7262   23.2636 C   0  0  0  0  0  0
  -25.9674  -30.7805   21.3764 C   0  0  0  0  0  0
  -26.0383  -29.4065   20.7160 C   0  0  0  0  0  0
  -27.2137  -28.5931   20.7106 C   0  0  0  0  0  0
  -26.0154  -26.8985   19.4640 C   0  0  0  0  0  0
  -24.8572  -27.6931   19.4727 C   0  0  0  0  0  0
  -23.6375  -29.8259   20.1578 C   0  0  0  0  0  0
  -25.4111  -36.3078   24.0325 C   0  0  1  0  0  0
  -20.5899  -28.3679   23.1275 C   0  0  2  0  0  0
  -20.6772  -26.9400   22.5409 C   0  0  0  0  0  0
  -19.5737  -26.6381   21.5219 C   0  0  0  0  0  0
  -18.1918  -26.7921   22.1635 C   0  0  0  0  0  0
  -19.1549  -28.8842   23.2883 C   0  0  0  0  0  0
  -18.9473  -30.1447   23.8898 C   0  0  0  0  0  0
  -17.6469  -30.6583   24.0557 C   0  0  0  0  0  0
  -25.9058  -34.9462   23.5081 C   0  0  0  0  0  0
  -16.5359  -29.9086   23.6328 C   0  0  0  0  0  0
  -16.7277  -28.6499   23.0369 C   0  0  0  0  0  0
  -26.4495  -31.6599   25.0709 C   0  0  0  0  0  0
  -25.3725  -31.3756   26.1431 C   0  0  0  0  0  0
  -27.0330  -30.3025   24.6155 C   0  0  0  0  0  0
  -27.6052  -32.4340   25.7483 C   0  0  0  0  0  0
  -27.5561  -37.1784   24.8475 C   0  0  0  0  0  0
  -21.4208  -29.3036   22.3669 N   0  0  0  0  0  0
  -26.4280  -37.3779   23.9413 N   0  0  0  0  0  0
  -24.6921  -31.0592   22.0968 N   0  0  0  0  0  0
  -23.4217  -28.8155   23.2988 O   0  0  0  0  0  0
  -28.3047  -26.3995   20.1836 O   0  0  0  0  0  0
  -26.5630  -34.8939   22.4649 O   0  0  0  0  0  0
  -23.5437  -32.1403   23.7321 O   0  0  0  0  0  0
  -29.3635  -19.5726   21.0025 C   0  0  0  0  0  0
  -29.9444  -18.8976   18.7863 C   0  0  0  0  0  0
  -29.5836  -19.9668   19.6559 C   0  0  0  0  0  0
  -29.4695  -18.1988   21.4276 C   0  0  0  0  0  0
  -29.8317  -17.1387   20.5264 C   0  0  0  0  0  0
  -30.0603  -17.5382   19.1865 C   0  0  0  0  0  0
  -29.4790  -21.3474   18.9966 C   0  0  0  0  0  0
  -29.2806  -22.7035   19.1857 C   0  0  0  0  0  0
  -30.4023  -18.2077   23.7805 C   0  0  0  0  0  0
  -29.1879  -17.9032   22.8934 C   0  0  0  0  0  0
  -29.0311  -23.7590   20.3109 C   0  0  0  0  0  0
  -28.0528  -24.9597   19.8824 C   0  0  0  0  0  0
  -29.8319  -15.7158   20.9143 N   0  0  0  0  0  0
  -30.3372  -16.6094   18.2397 F   0  0  0  0  0  0
  -31.4791  -12.5286   19.1559 H   0  0  0  0  0  0
  -30.3761  -11.4090   19.9033 H   0  0  0  0  0  0
  -29.7738  -11.7424   17.4914 H   0  0  0  0  0  0
  -29.6539  -13.4665   17.7314 H   0  0  0  0  0  0
  -27.8633  -11.2935   18.8651 H   0  0  0  0  0  0
  -27.3797  -12.5742   17.7901 H   0  0  0  0  0  0
  -27.6707  -14.2533   19.5196 H   0  0  0  0  0  0
  -28.7123  -12.0515   21.3665 H   0  0  0  0  0  0
  -28.4379  -13.7007   21.8476 H   0  0  0  0  0  0
  -25.2763   -9.5680   22.4720 H   0  0  0  0  0  0
  -24.0005   -7.4631   22.7458 H   0  0  0  0  0  0
  -21.0837   -8.8759   19.8947 H   0  0  0  0  0  0
  -22.3685  -10.9656   19.6141 H   0  0  0  0  0  0
  -21.2020   -7.6141   23.9707 H   0  0  0  0  0  0
  -21.1475   -6.0517   25.9069 H   0  0  0  0  0  0
  -22.0608   -2.7601   23.2850 H   0  0  0  0  0  0
  -22.4156  -11.9910   22.4843 H   0  0  0  0  0  0
  -21.1109  -13.1192   22.2592 H   0  0  0  0  0  0
  -24.6644  -15.8481   20.5151 H   0  0  0  0  0  0
  -26.2747  -15.6215   20.0582 H   0  0  0  0  0  0
  -26.7181  -32.5423   23.1070 H   0  0  0  0  0  0
  -25.0151  -33.9735   25.0446 H   0  0  0  0  0  0
  -22.7152  -31.3032   21.4041 H   0  0  0  0  0  0
  -23.3756  -35.9577   23.3322 H   0  0  0  0  0  0
  -24.3563  -36.8861   22.2045 H   0  0  0  0  0  0
  -23.7222  -37.6467   23.6642 H   0  0  0  0  0  0
  -26.1066  -31.5415   20.6072 H   0  0  0  0  0  0
  -26.8466  -30.8267   22.0074 H   0  0  0  0  0  0
  -28.1112  -28.9432   21.2014 H   0  0  0  0  0  0
  -25.9285  -25.9543   18.9496 H   0  0  0  0  0  0
  -23.9618  -27.3307   18.9862 H   0  0  0  0  0  0
  -23.7614  -30.6041   19.4036 H   0  0  0  0  0  0
  -22.7540  -29.2613   19.8537 H   0  0  0  0  0  0
  -25.1293  -36.1914   25.0820 H   0  0  0  0  0  0
  -20.9994  -28.3235   24.1394 H   0  0  0  0  0  0
  -20.5656  -26.2289   23.3610 H   0  0  0  0  0  0
  -21.6635  -26.7406   22.1203 H   0  0  0  0  0  0
  -19.6888  -25.6298   21.1236 H   0  0  0  0  0  0
  -19.6661  -27.3196   20.6749 H   0  0  0  0  0  0
  -17.4188  -26.6681   21.4036 H   0  0  0  0  0  0
  -18.0299  -26.0064   22.9027 H   0  0  0  0  0  0
  -19.7949  -30.7265   24.2254 H   0  0  0  0  0  0
  -17.5029  -31.6265   24.5155 H   0  0  0  0  0  0
  -15.5358  -30.2989   23.7649 H   0  0  0  0  0  0
  -15.8677  -28.0807   22.7094 H   0  0  0  0  0  0
  -24.5901  -30.7104   25.7754 H   0  0  0  0  0  0
  -24.8920  -32.2935   26.4824 H   0  0  0  0  0  0
  -25.8050  -30.8957   27.0219 H   0  0  0  0  0  0
  -26.2896  -29.6797   24.1166 H   0  0  0  0  0  0
  -27.4028  -29.7256   25.4637 H   0  0  0  0  0  0
  -27.8766  -30.4317   23.9379 H   0  0  0  0  0  0
  -27.2661  -33.3650   26.2035 H   0  0  0  0  0  0
  -28.3877  -32.6889   25.0327 H   0  0  0  0  0  0
  -28.0699  -31.8490   26.5424 H   0  0  0  0  0  0
  -28.2602  -38.0054   24.7513 H   0  0  0  0  0  0
  -28.1037  -36.2596   24.6323 H   0  0  0  0  0  0
  -27.2281  -37.1460   25.8879 H   0  0  0  0  0  0
  -20.9367  -29.8794   21.6928 H   0  0  0  0  0  0
  -26.0152  -38.2845   24.1450 H   0  0  0  0  0  0
  -29.0869  -20.3306   21.7227 H   0  0  0  0  0  0
  -30.1226  -19.1050   17.7421 H   0  0  0  0  0  0
  -29.6156  -21.2079   17.9323 H   0  0  0  0  0  0
  -29.3387  -23.2348   18.2438 H   0  0  0  0  0  0
  -30.1769  -18.0195   24.8308 H   0  0  0  0  0  0
  -30.7055  -19.2517   23.6923 H   0  0  0  0  0  0
  -31.2606  -17.5908   23.5068 H   0  0  0  0  0  0
  -28.8701  -16.8692   23.0320 H   0  0  0  0  0  0
  -28.3412  -18.5126   23.2140 H   0  0  0  0  0  0
  -30.0035  -24.1918   20.5483 H   0  0  0  0  0  0
  -28.6808  -23.2665   21.2187 H   0  0  0  0  0  0
  -27.0867  -24.6814   20.3069 H   0  0  0  0  0  0
  -27.9194  -24.9077   18.8010 H   0  0  0  0  0  0
  -29.0140  -15.4272   21.4275 H   0  0  0  0  0  0
  1 25  1  0  0  0
  1 30  2  0  0  0
  1 83  1  0  0  0
  2  3  1  0  0  0
  2 25  1  0  0  0
  2 85  1  0  0  0
  2 86  1  0  0  0
  3  4  1  0  0  0
  3 87  1  0  0  0
  3 88  1  0  0  0
  4  5  1  0  0  0
  4 89  1  0  0  0
  4 90  1  0  0  0
  5  6  1  0  0  0
  5 26  1  0  0  0
  5 91  1  0  0  0
  6 25  1  0  0  0
  6 92  1  0  0  0
  6 93  1  0  0  0
  7  8  2  0  0  0
  7 26  1  0  0  0
  7 29  1  0  0  0
  8  9  1  0  0  0
  8 22  1  0  0  0
  9 10  1  0  0  0
  9 27  2  0  0  0
 10 11  2  0  0  0
 10 15  1  0  0  0
 11 12  1  0  0  0
 11 94  1  0  0  0
 12 13  2  0  0  0
 12 95  1  0  0  0
 13 14  1  0  0  0
 13 31  1  0  0  0
 14 15  2  0  0  0
 14 96  1  0  0  0
 15 97  1  0  0  0
 16 17  2  0  0  0
 16 21  1  0  0  0
 16 31  1  0  0  0
 17 18  1  0  0  0
 17 98  1  0  0  0
 18 19  2  0  0  0
 18 99  1  0  0  0
 19 20  1  0  0  0
 19 24  1  0  0  0
 20 21  2  0  0  0
 20100  1  0  0  0
 21 23  1  0  0  0
 22 28  1  0  0  0
 22 32  2  0  0  0
 26 27  1  0  0  0
 28101  1  0  0  0
 28102  1  0  0  0
 29103  1  0  0  0
 29104  1  0  0  0
 33 34  1  0  0  0
 33 66  1  0  0  0
 33 70  2  0  0  0
 34 36  1  0  0  0
 34 59  1  0  0  0
 34105  1  0  0  0
 35 44  2  0  0  0
 35 45  1  0  0  0
 35 68  1  0  0  0
 36 56  1  0  0  0
 36106  1  0  0  0
 37 39  1  0  0  0
 37 47  1  0  0  0
 37 66  1  0  0  0
 37107  1  0  0  0
 38 43  2  0  0  0
 38 46  1  0  0  0
 38 47  1  0  0  0
 39 64  1  0  0  0
 39 67  2  0  0  0
 40 52  1  0  0  0
 40 53  2  0  0  0
 40 58  1  0  0  0
 41108  1  0  0  0
 41109  1  0  0  0
 41110  1  0  0  0
 41 48  1  0  0  0
 42 43  1  0  0  0
 42 66  1  0  0  0
 42111  1  0  0  0
 42112  1  0  0  0
 43 44  1  0  0  0
 44113  1  0  0  0
 45 46  2  0  0  0
 45114  1  0  0  0
 46115  1  0  0  0
 47116  1  0  0  0
 47117  1  0  0  0
 48 56  1  0  0  0
 48 65  1  0  0  0
 48118  1  0  0  0
 49 50  1  0  0  0
 49 53  1  0  0  0
 49 64  1  0  0  0
 49119  1  0  0  0
 50 51  1  0  0  0
 50120  1  0  0  0
 50121  1  0  0  0
 51 52  1  0  0  0
 51122  1  0  0  0
 51123  1  0  0  0
 52124  1  0  0  0
 52125  1  0  0  0
 53 54  1  0  0  0
 54 55  2  0  0  0
 54126  1  0  0  0
 55 57  1  0  0  0
 55127  1  0  0  0
 56 69  2  0  0  0
 57 58  2  0  0  0
 57128  1  0  0  0
 58129  1  0  0  0
 59 60  1  0  0  0
 59 61  1  0  0  0
 59 62  1  0  0  0
 60130  1  0  0  0
 60131  1  0  0  0
 60132  1  0  0  0
 61133  1  0  0  0
 61134  1  0  0  0
 61135  1  0  0  0
 62136  1  0  0  0
 62137  1  0  0  0
 62138  1  0  0  0
 63 65  1  0  0  0
 63139  1  0  0  0
 63140  1  0  0  0
 63141  1  0  0  0
 64142  1  0  0  0
 65143  1  0  0  0
 68 82  1  0  0  0
 71 73  2  0  0  0
 71 74  1  0  0  0
 71144  1  0  0  0
 72 73  1  0  0  0
 72 76  2  0  0  0
 72145  1  0  0  0
 73 77  1  0  0  0
 74 75  2  0  0  0
 74 80  1  0  0  0
 75 76  1  0  0  0
 75 83  1  0  0  0
 76 84  1  0  0  0
 77 78  2  0  0  0
 77146  1  0  0  0
 78 81  1  0  0  0
 78147  1  0  0  0
 79 80  1  0  0  0
 79148  1  0  0  0
 79149  1  0  0  0
 79150  1  0  0  0
 80151  1  0  0  0
 80152  1  0  0  0
 81 82  1  0  0  0
 81153  1  0  0  0
 81154  1  0  0  0
 82155  1  0  0  0
 82156  1  0  0  0
 83157  1  0  0  0
M  ISO  4   1 100  68 101  82 101  83 100
M  END
> <chiral flag>
0

> <version>
0

> <s_m_source_file>
/data/baiqing/PycharmProjects/Reinvent-master-3.2/result/LINK_invent/BTK/process_docking_weight1_custom_product_contain_oxygen_bond_distance_aromatic_linkinvent_7_9_3/rearranged_h_0129.sdf

> <i_m_source_file_index>
48

> <r_mmod_Potential_Energy-OPLS-2005>
166.722686767578

> <r_mmod_Stretch_Energy-OPLS-2005>
92.2424850463867

> <r_mmod_Bend_Energy-OPLS-2005>
226.232864379883

> <r_mmod_Torsional_Energy-OPLS-2005>
235.754257202148

> <r_mmod_Improper_Torsional_Energy-OPLS-2005>
3.83253288269043

> <r_mmod_Van_der_Waal_Energy-OPLS-2005>
148.659774780273

> <r_mmod_Electrostatic_Energy-OPLS-2005>
-394.202484130859

> <r_mmod_Solvation_Energy-OPLS-2005>
-207.02507019043

> <b_mmod_Minimization_Converged-OPLS-2005>
0

> <r_mmod_RMS_Derivative-OPLS-2005>
2.08243441581726

$$$$
48
                    3D
 Structure written by MMmdl.
158166  0  0  1  0            999 V2000
  -30.7167  -14.4731   20.5385 C   0  0  0  0  0  0
  -30.4171  -12.2993   19.4354 C   0  0  0  0  0  0
  -29.5053  -12.5133   18.2101 C   0  0  0  0  0  0
  -28.0212  -12.3750   18.6073 C   0  0  0  0  0  0
  -27.6606  -13.2111   19.8647 C   0  0  2  0  0  0
  -28.6979  -13.0001   20.9910 C   0  0  0  0  0  0
  -25.2588  -13.8174   20.5636 C   0  0  0  0  0  0
  -24.1858  -13.0457   20.9183 C   0  0  0  0  0  0
  -24.6404  -11.6917   20.8743 C   0  0  0  0  0  0
  -23.9081  -10.4299   21.0427 C   0  0  0  0  0  0
  -24.3623   -9.4221   21.9213 C   0  0  0  0  0  0
  -23.6312   -8.2237   22.0765 C   0  0  0  0  0  0
  -22.4302   -8.0287   21.3555 C   0  0  0  0  0  0
  -21.9943   -9.0270   20.4656 C   0  0  0  0  0  0
  -22.7265  -10.2142   20.3067 C   0  0  0  0  0  0
  -21.6853   -6.0760   22.5312 C   0  0  0  0  0  0
  -21.3997   -6.5647   23.8237 C   0  0  0  0  0  0
  -21.3649   -5.6787   24.9193 C   0  0  0  0  0  0
  -21.6038   -4.3054   24.7242 C   0  0  0  0  0  0
  -21.8817   -3.8166   23.4358 C   0  0  0  0  0  0
  -21.9174   -4.6983   22.3411 C   0  0  0  0  0  0
  -22.7873  -13.5272   21.1825 C   0  0  0  0  0  0
  -22.1658   -4.2182   21.0995 F   0  0  0  0  0  0
  -21.5631   -3.4524   25.7743 F   0  0  0  0  0  0
  -30.0319  -13.2971   20.4458 N   0  0  0  0  0  0
  -26.3014  -12.9345   20.3266 N   0  0  0  0  0  0
  -25.9314  -11.6502   20.5707 N   0  0  0  0  0  0
  -22.0453  -12.8294   22.0377 N   0  0  0  0  0  0
  -25.4338  -15.1894   20.4052 N   0  0  0  0  0  0
  -31.8767  -14.5721   20.1268 O   0  0  0  0  0  0
  -21.6635   -6.8902   21.4279 O   0  0  0  0  0  0
  -22.3563  -14.5563   20.6659 O   0  0  0  0  0  0
  -24.6147  -31.8708   23.2121 C   0  0  0  0  0  0
  -25.9057  -32.4804   23.8420 C   0  0  1  0  0  0
  -27.2277  -27.4302   20.1167 C   0  0  0  0  0  0
  -25.5928  -33.8599   24.2349 N   0  0  0  0  0  0
  -23.4013  -30.4947   21.5520 C   0  0  2  0  0  0
  -24.8478  -28.9555   20.1239 C   0  0  0  0  0  0
  -22.7410  -29.4683   22.5018 C   0  0  0  0  0  0
  -18.0273  -28.1377   22.8492 C   0  0  0  0  0  0
  -24.1474  -36.7290   23.2646 C   0  0  0  0  0  0
  -25.9309  -30.8305   21.3716 C   0  0  0  0  0  0
  -26.0057  -29.4615   20.7281 C   0  0  0  0  0  0
  -27.1992  -28.7040   20.7279 C   0  0  0  0  0  0
  -26.0606  -26.9462   19.4904 C   0  0  0  0  0  0
  -24.8700  -27.6963   19.5010 C   0  0  0  0  0  0
  -23.6120  -29.8266   20.1668 C   0  0  0  0  0  0
  -25.4089  -36.3079   24.0355 C   0  0  1  0  0  0
  -20.5861  -28.3669   23.1319 C   0  0  2  0  0  0
  -20.6759  -26.9418   22.5404 C   0  0  0  0  0  0
  -19.5730  -26.6387   21.5209 C   0  0  0  0  0  0
  -18.1912  -26.7928   22.1620 C   0  0  0  0  0  0
  -19.1525  -28.8837   23.2893 C   0  0  0  0  0  0
  -18.9454  -30.1447   23.8898 C   0  0  0  0  0  0
  -17.6462  -30.6586   24.0558 C   0  0  0  0  0  0
  -25.9030  -34.9458   23.5140 C   0  0  0  0  0  0
  -16.5350  -29.9090   23.6322 C   0  0  0  0  0  0
  -16.7267  -28.6500   23.0356 C   0  0  0  0  0  0
  -26.4490  -31.6568   25.0740 C   0  0  0  0  0  0
  -25.3748  -31.3678   26.1481 C   0  0  0  0  0  0
  -27.0346  -30.3008   24.6118 C   0  0  0  0  0  0
  -27.6050  -32.4309   25.7505 C   0  0  0  0  0  0
  -27.5574  -37.1788   24.8477 C   0  0  0  0  0  0
  -21.4144  -29.3044   22.3732 N   0  0  0  0  0  0
  -26.4267  -37.3776   23.9444 N   0  0  0  0  0  0
  -24.6664  -31.0820   22.1016 N   0  0  0  0  0  0
  -23.4185  -28.8259   23.3082 O   0  0  0  0  0  0
  -28.3949  -26.7066   20.0402 O   0  0  0  0  0  0
  -26.5577  -34.8924   22.4686 O   0  0  0  0  0  0
  -23.5340  -32.1477   23.7496 O   0  0  0  0  0  0
  -30.6663  -19.3554   21.0781 C   0  0  0  0  0  0
  -30.0933  -20.6351   21.2341 C   0  0  0  0  0  0
  -28.4748  -18.3421   21.2592 C   0  0  0  0  0  0
  -29.8645  -18.1939   21.0767 C   0  0  0  0  0  0
  -27.8879  -19.6206   21.4126 C   0  0  0  0  0  0
  -28.6926  -20.7933   21.3784 C   0  0  0  0  0  0
  -30.5098  -16.8839   20.8478 C   0  0  0  0  0  0
  -29.9443  -15.6557   20.9351 C   0  0  0  0  0  0
  -28.4570  -23.0502   20.7967 C   0  0  0  0  0  0
  -25.6331  -19.7969   20.2541 C   0  0  0  0  0  0
  -26.3770  -19.7007   21.5935 C   0  0  0  0  0  0
  -27.7055  -24.3754   20.7325 C   0  0  0  0  0  0
  -28.5768  -25.6352   20.9816 C   0  0  0  0  0  0
  -28.0734  -22.0531   21.4970 N   0  0  0  0  0  0
  -31.4666  -12.3704   19.1449 H   0  0  0  0  0  0
  -30.2905  -11.2939   19.8363 H   0  0  0  0  0  0
  -29.7618  -11.8019   17.4230 H   0  0  0  0  0  0
  -29.6780  -13.5044   17.7876 H   0  0  0  0  0  0
  -27.8222  -11.3180   18.7904 H   0  0  0  0  0  0
  -27.3835  -12.6621   17.7720 H   0  0  0  0  0  0
  -27.6997  -14.2607   19.5662 H   0  0  0  0  0  0
  -28.6739  -11.9647   21.3367 H   0  0  0  0  0  0
  -28.4554  -13.5946   21.8709 H   0  0  0  0  0  0
  -25.2771   -9.5701   22.4766 H   0  0  0  0  0  0
  -24.0056   -7.4610   22.7453 H   0  0  0  0  0  0
  -21.0886   -8.8785   19.8937 H   0  0  0  0  0  0
  -22.3779  -10.9669   19.6130 H   0  0  0  0  0  0
  -21.1999   -7.6157   23.9773 H   0  0  0  0  0  0
  -21.1458   -6.0496   25.9093 H   0  0  0  0  0  0
  -22.0604   -2.7634   23.2824 H   0  0  0  0  0  0
  -22.4044  -12.0000   22.4853 H   0  0  0  0  0  0
  -21.1042  -13.1345   22.2435 H   0  0  0  0  0  0
  -24.6731  -15.8506   20.5156 H   0  0  0  0  0  0
  -26.2869  -15.6199   20.0726 H   0  0  0  0  0  0
  -26.7138  -32.5526   23.1203 H   0  0  0  0  0  0
  -25.0123  -33.9763   25.0524 H   0  0  0  0  0  0
  -22.6889  -31.3106   21.4113 H   0  0  0  0  0  0
  -23.3735  -35.9623   23.3299 H   0  0  0  0  0  0
  -24.3582  -36.8900   22.2066 H   0  0  0  0  0  0
  -23.7223  -37.6496   23.6656 H   0  0  0  0  0  0
  -26.0475  -31.5930   20.6002 H   0  0  0  0  0  0
  -26.8170  -30.8820   21.9921 H   0  0  0  0  0  0
  -28.0946  -29.0946   21.1918 H   0  0  0  0  0  0
  -26.0643  -26.0010   18.9709 H   0  0  0  0  0  0
  -23.9875  -27.3070   19.0131 H   0  0  0  0  0  0
  -23.7270  -30.6000   19.4060 H   0  0  0  0  0  0
  -22.7357  -29.2490   19.8683 H   0  0  0  0  0  0
  -25.1251  -36.1932   25.0845 H   0  0  0  0  0  0
  -20.9941  -28.3224   24.1446 H   0  0  0  0  0  0
  -20.5684  -26.2298   23.3595 H   0  0  0  0  0  0
  -21.6633  -26.7480   22.1189 H   0  0  0  0  0  0
  -19.6899  -25.6294   21.1249 H   0  0  0  0  0  0
  -19.6662  -27.3185   20.6728 H   0  0  0  0  0  0
  -17.4203  -26.6709   21.4001 H   0  0  0  0  0  0
  -18.0290  -26.0053   22.8990 H   0  0  0  0  0  0
  -19.7940  -30.7241   24.2280 H   0  0  0  0  0  0
  -17.5029  -31.6272   24.5161 H   0  0  0  0  0  0
  -15.5348  -30.2997   23.7633 H   0  0  0  0  0  0
  -15.8673  -28.0806   22.7084 H   0  0  0  0  0  0
  -24.5891  -30.7062   25.7821 H   0  0  0  0  0  0
  -24.8971  -32.2834   26.4965 H   0  0  0  0  0  0
  -25.8088  -30.8814   27.0220 H   0  0  0  0  0  0
  -26.2898  -29.6726   24.1202 H   0  0  0  0  0  0
  -27.4168  -29.7279   25.4582 H   0  0  0  0  0  0
  -27.8710  -30.4347   23.9248 H   0  0  0  0  0  0
  -27.2634  -33.3590   26.2101 H   0  0  0  0  0  0
  -28.3832  -32.6893   25.0313 H   0  0  0  0  0  0
  -28.0740  -31.8421   26.5399 H   0  0  0  0  0  0
  -28.2566  -38.0108   24.7540 H   0  0  0  0  0  0
  -28.1080  -36.2635   24.6245 H   0  0  0  0  0  0
  -27.2313  -37.1378   25.8886 H   0  0  0  0  0  0
  -20.9329  -29.8764   21.6934 H   0  0  0  0  0  0
  -26.0143  -38.2851   24.1433 H   0  0  0  0  0  0
  -31.7353  -19.2700   20.9469 H   0  0  0  0  0  0
  -30.7538  -21.4928   21.2352 H   0  0  0  0  0  0
  -27.8331  -17.4717   21.2526 H   0  0  0  0  0  0
  -31.5456  -16.9524   20.5398 H   0  0  0  0  0  0
  -28.9193  -15.5754   21.2554 H   0  0  0  0  0  0
  -29.3268  -23.0057   20.1346 H   0  0  0  0  0  0
  -24.5569  -19.8593   20.4144 H   0  0  0  0  0  0
  -25.8299  -18.9249   19.6303 H   0  0  0  0  0  0
  -25.9361  -20.6826   19.6954 H   0  0  0  0  0  0
  -26.1125  -20.5529   22.2220 H   0  0  0  0  0  0
  -26.0382  -18.8194   22.1401 H   0  0  0  0  0  0
  -26.8713  -24.3653   21.4354 H   0  0  0  0  0  0
  -27.2666  -24.4090   19.7386 H   0  0  0  0  0  0
  -29.6314  -25.3664   20.9170 H   0  0  0  0  0  0
  -28.4370  -25.9984   22.0014 H   0  0  0  0  0  0
  1 25  1  0  0  0
  1 30  2  0  0  0
  1 78  1  0  0  0
  2  3  1  0  0  0
  2 25  1  0  0  0
  2 85  1  0  0  0
  2 86  1  0  0  0
  3  4  1  0  0  0
  3 87  1  0  0  0
  3 88  1  0  0  0
  4  5  1  0  0  0
  4 89  1  0  0  0
  4 90  1  0  0  0
  5  6  1  0  0  0
  5 26  1  0  0  0
  5 91  1  0  0  0
  6 25  1  0  0  0
  6 92  1  0  0  0
  6 93  1  0  0  0
  7  8  2  0  0  0
  7 26  1  0  0  0
  7 29  1  0  0  0
  8  9  1  0  0  0
  8 22  1  0  0  0
  9 10  1  0  0  0
  9 27  2  0  0  0
 10 11  2  0  0  0
 10 15  1  0  0  0
 11 12  1  0  0  0
 11 94  1  0  0  0
 12 13  2  0  0  0
 12 95  1  0  0  0
 13 14  1  0  0  0
 13 31  1  0  0  0
 14 15  2  0  0  0
 14 96  1  0  0  0
 15 97  1  0  0  0
 16 17  2  0  0  0
 16 21  1  0  0  0
 16 31  1  0  0  0
 17 18  1  0  0  0
 17 98  1  0  0  0
 18 19  2  0  0  0
 18 99  1  0  0  0
 19 20  1  0  0  0
 19 24  1  0  0  0
 20 21  2  0  0  0
 20100  1  0  0  0
 21 23  1  0  0  0
 22 28  1  0  0  0
 22 32  2  0  0  0
 26 27  1  0  0  0
 28101  1  0  0  0
 28102  1  0  0  0
 29103  1  0  0  0
 29104  1  0  0  0
 33 34  1  0  0  0
 33 66  1  0  0  0
 33 70  2  0  0  0
 34 36  1  0  0  0
 34 59  1  0  0  0
 34105  1  0  0  0
 35 44  2  0  0  0
 35 45  1  0  0  0
 35 68  1  0  0  0
 36 56  1  0  0  0
 36106  1  0  0  0
 37 39  1  0  0  0
 37 47  1  0  0  0
 37 66  1  0  0  0
 37107  1  0  0  0
 38 43  2  0  0  0
 38 46  1  0  0  0
 38 47  1  0  0  0
 39 64  1  0  0  0
 39 67  2  0  0  0
 40 52  1  0  0  0
 40 53  2  0  0  0
 40 58  1  0  0  0
 41108  1  0  0  0
 41109  1  0  0  0
 41110  1  0  0  0
 41 48  1  0  0  0
 42 43  1  0  0  0
 42 66  1  0  0  0
 42111  1  0  0  0
 42112  1  0  0  0
 43 44  1  0  0  0
 44113  1  0  0  0
 45 46  2  0  0  0
 45114  1  0  0  0
 46115  1  0  0  0
 47116  1  0  0  0
 47117  1  0  0  0
 48 56  1  0  0  0
 48 65  1  0  0  0
 48118  1  0  0  0
 49 50  1  0  0  0
 49 53  1  0  0  0
 49 64  1  0  0  0
 49119  1  0  0  0
 50 51  1  0  0  0
 50120  1  0  0  0
 50121  1  0  0  0
 51 52  1  0  0  0
 51122  1  0  0  0
 51123  1  0  0  0
 52124  1  0  0  0
 52125  1  0  0  0
 53 54  1  0  0  0
 54 55  2  0  0  0
 54126  1  0  0  0
 55 57  1  0  0  0
 55127  1  0  0  0
 56 69  2  0  0  0
 57 58  2  0  0  0
 57128  1  0  0  0
 58129  1  0  0  0
 59 60  1  0  0  0
 59 61  1  0  0  0
 59 62  1  0  0  0
 60130  1  0  0  0
 60131  1  0  0  0
 60132  1  0  0  0
 61133  1  0  0  0
 61134  1  0  0  0
 61135  1  0  0  0
 62136  1  0  0  0
 62137  1  0  0  0
 62138  1  0  0  0
 63 65  1  0  0  0
 63139  1  0  0  0
 63140  1  0  0  0
 63141  1  0  0  0
 64142  1  0  0  0
 65143  1  0  0  0
 68 83  1  0  0  0
 71 72  2  0  0  0
 71 74  1  0  0  0
 71144  1  0  0  0
 72 76  1  0  0  0
 72145  1  0  0  0
 73 74  2  0  0  0
 73 75  1  0  0  0
 73146  1  0  0  0
 74 77  1  0  0  0
 75 76  2  0  0  0
 75 81  1  0  0  0
 76 84  1  0  0  0
 77 78  2  0  0  0
 77147  1  0  0  0
 78148  1  0  0  0
 79 82  1  0  0  0
 79 84  2  0  0  0
 79149  1  0  0  0
 80 81  1  0  0  0
 80150  1  0  0  0
 80151  1  0  0  0
 80152  1  0  0  0
 81153  1  0  0  0
 81154  1  0  0  0
 82 83  1  0  0  0
 82155  1  0  0  0
 82156  1  0  0  0
 83157  1  0  0  0
 83158  1  0  0  0
M  ISO  4   1 100  68 101  78 100  83 101
M  END
> <chiral flag>
0

> <version>
0

> <s_m_source_file>
/data/baiqing/PycharmProjects/Reinvent-master-3.2/result/LINK_invent/BTK/process_docking_weight1_custom_product_contain_oxygen_bond_distance_aromatic_linkinvent_7_9_3/rearranged_h_0129.sdf

> <i_m_source_file_index>
49

> <r_mmod_Potential_Energy-OPLS-2005>
-33.5879707336426

> <r_mmod_Stretch_Energy-OPLS-2005>
37.7022476196289

> <r_mmod_Bend_Energy-OPLS-2005>
101.659393310547

> <r_mmod_Torsional_Energy-OPLS-2005>
217.870635986328

> <r_mmod_Improper_Torsional_Energy-OPLS-2005>
5.77692890167236

> <r_mmod_Van_der_Waal_Energy-OPLS-2005>
161.516006469727

> <r_mmod_Electrostatic_Energy-OPLS-2005>
-377.145202636719

> <r_mmod_Solvation_Energy-OPLS-2005>
-195.495162963867

> <b_mmod_Minimization_Converged-OPLS-2005>
0

> <r_mmod_RMS_Derivative-OPLS-2005>
3.41921424865723

$$$$
49
                    3D
 Structure written by MMmdl.
155163  0  0  1  0            999 V2000
  -30.7212  -14.4296   20.6627 C   0  0  0  0  0  0
  -30.4328  -12.3152   19.4061 C   0  0  0  0  0  0
  -29.4921  -12.5099   18.1998 C   0  0  0  0  0  0
  -28.0143  -12.3647   18.6136 C   0  0  0  0  0  0
  -27.6671  -13.1960   19.8757 C   0  0  2  0  0  0
  -28.7032  -12.9412   20.9909 C   0  0  0  0  0  0
  -25.2632  -13.8144   20.5679 C   0  0  0  0  0  0
  -24.1860  -13.0440   20.9147 C   0  0  0  0  0  0
  -24.6383  -11.6897   20.8710 C   0  0  0  0  0  0
  -23.9034  -10.4291   21.0381 C   0  0  0  0  0  0
  -24.3590   -9.4215   21.9163 C   0  0  0  0  0  0
  -23.6272   -8.2250   22.0745 C   0  0  0  0  0  0
  -22.4257   -8.0273   21.3533 C   0  0  0  0  0  0
  -21.9877   -9.0254   20.4640 C   0  0  0  0  0  0
  -22.7200  -10.2137   20.3043 C   0  0  0  0  0  0
  -21.6857   -6.0718   22.5270 C   0  0  0  0  0  0
  -21.4026   -6.5630   23.8201 C   0  0  0  0  0  0
  -21.3653   -5.6786   24.9166 C   0  0  0  0  0  0
  -21.6036   -4.3046   24.7228 C   0  0  0  0  0  0
  -21.8824   -3.8130   23.4352 C   0  0  0  0  0  0
  -21.9200   -4.6943   22.3402 C   0  0  0  0  0  0
  -22.7888  -13.5254   21.1814 C   0  0  0  0  0  0
  -22.1670   -4.2116   21.0986 F   0  0  0  0  0  0
  -21.5619   -3.4539   25.7749 F   0  0  0  0  0  0
  -30.0424  -13.2656   20.4593 N   0  0  0  0  0  0
  -26.3051  -12.9289   20.3357 N   0  0  0  0  0  0
  -25.9309  -11.6456   20.5740 N   0  0  0  0  0  0
  -22.0534  -12.8266   22.0389 N   0  0  0  0  0  0
  -25.4418  -15.1852   20.4116 N   0  0  0  0  0  0
  -31.7586  -14.7083   20.0539 O   0  0  0  0  0  0
  -21.6629   -6.8861   21.4234 O   0  0  0  0  0  0
  -22.3573  -14.5563   20.6656 O   0  0  0  0  0  0
  -24.6149  -31.8673   23.2099 C   0  0  0  0  0  0
  -25.9044  -32.4817   23.8385 C   0  0  1  0  0  0
  -27.2332  -27.4369   20.0899 C   0  0  0  0  0  0
  -25.5891  -33.8611   24.2314 N   0  0  0  0  0  0
  -23.4010  -30.4929   21.5509 C   0  0  2  0  0  0
  -24.8446  -28.9574   20.1165 C   0  0  0  0  0  0
  -22.7403  -29.4673   22.4994 C   0  0  0  0  0  0
  -18.0272  -28.1382   22.8498 C   0  0  0  0  0  0
  -24.1478  -36.7321   23.2636 C   0  0  0  0  0  0
  -25.9289  -30.8362   21.3585 C   0  0  0  0  0  0
  -26.0061  -29.4696   20.7071 C   0  0  0  0  0  0
  -27.2029  -28.7185   20.6861 C   0  0  0  0  0  0
  -26.0484  -26.9345   19.5028 C   0  0  0  0  0  0
  -24.8598  -27.6885   19.5127 C   0  0  0  0  0  0
  -23.6079  -29.8251   20.1651 C   0  0  0  0  0  0
  -25.4095  -36.3105   24.0335 C   0  0  1  0  0  0
  -20.5862  -28.3672   23.1318 C   0  0  2  0  0  0
  -20.6760  -26.9410   22.5417 C   0  0  0  0  0  0
  -19.5739  -26.6397   21.5211 C   0  0  0  0  0  0
  -18.1921  -26.7926   22.1631 C   0  0  0  0  0  0
  -19.1522  -28.8842   23.2909 C   0  0  0  0  0  0
  -18.9453  -30.1447   23.8927 C   0  0  0  0  0  0
  -17.6456  -30.6590   24.0576 C   0  0  0  0  0  0
  -25.9029  -34.9474   23.5124 C   0  0  0  0  0  0
  -16.5348  -29.9102   23.6320 C   0  0  0  0  0  0
  -16.7263  -28.6516   23.0345 C   0  0  0  0  0  0
  -26.4480  -31.6594   25.0708 C   0  0  0  0  0  0
  -25.3764  -31.3710   26.1476 C   0  0  0  0  0  0
  -27.0299  -30.3033   24.6071 C   0  0  0  0  0  0
  -27.6062  -32.4310   25.7461 C   0  0  0  0  0  0
  -27.5580  -37.1797   24.8461 C   0  0  0  0  0  0
  -21.4133  -29.3040   22.3729 N   0  0  0  0  0  0
  -26.4279  -37.3795   23.9425 N   0  0  0  0  0  0
  -24.6673  -31.0783   22.0995 N   0  0  0  0  0  0
  -23.4177  -28.8211   23.3032 O   0  0  0  0  0  0
  -28.4145  -26.7213   20.0903 O   0  0  0  0  0  0
  -26.5600  -34.8930   22.4691 O   0  0  0  0  0  0
  -23.5344  -32.1420   23.7504 O   0  0  0  0  0  0
  -28.6429  -18.8295   21.4458 C   0  0  0  0  0  0
  -30.6926  -18.5710   20.1696 C   0  0  0  0  0  0
  -28.5272  -20.1634   21.0028 C   0  0  0  0  0  0
  -30.5829  -19.9117   19.7328 C   0  0  0  0  0  0
  -29.7193  -18.0123   21.0361 C   0  0  0  0  0  0
  -29.5003  -20.7196   20.1471 C   0  0  0  0  0  0
  -29.7813  -16.6362   21.5878 C   0  0  0  0  0  0
  -30.1294  -15.3184   21.6761 C   0  0  0  0  0  0
  -29.3804  -22.1746   19.6895 C   0  0  0  0  0  0
  -29.6810  -23.1797   20.8212 C   0  0  0  0  0  0
  -29.6943  -24.6759   20.4196 C   0  0  0  0  0  0
  -28.3213  -25.2902   20.0802 C   0  0  0  0  0  0
  -31.4704  -12.4428   19.0921 H   0  0  0  0  0  0
  -30.3665  -11.2956   19.7883 H   0  0  0  0  0  0
  -29.7337  -11.7883   17.4180 H   0  0  0  0  0  0
  -29.6559  -13.4962   17.7635 H   0  0  0  0  0  0
  -27.8226  -11.3084   18.8069 H   0  0  0  0  0  0
  -27.3619  -12.6429   17.7850 H   0  0  0  0  0  0
  -27.7242  -14.2487   19.5958 H   0  0  0  0  0  0
  -28.6795  -11.8935   21.2937 H   0  0  0  0  0  0
  -28.4244  -13.4965   21.8857 H   0  0  0  0  0  0
  -25.2743   -9.5698   22.4726 H   0  0  0  0  0  0
  -23.9975   -7.4651   22.7479 H   0  0  0  0  0  0
  -21.0798   -8.8771   19.8969 H   0  0  0  0  0  0
  -22.3638  -10.9674   19.6152 H   0  0  0  0  0  0
  -21.2028   -7.6138   23.9703 H   0  0  0  0  0  0
  -21.1467   -6.0513   25.9066 H   0  0  0  0  0  0
  -22.0606   -2.7591   23.2869 H   0  0  0  0  0  0
  -22.4154  -11.9928   22.4780 H   0  0  0  0  0  0
  -21.1170  -13.1315   22.2615 H   0  0  0  0  0  0
  -24.6894  -15.8537   20.5337 H   0  0  0  0  0  0
  -26.3131  -15.6180   20.1309 H   0  0  0  0  0  0
  -26.7115  -32.5531   23.1151 H   0  0  0  0  0  0
  -25.0018  -33.9762   25.0443 H   0  0  0  0  0  0
  -22.6902  -31.3104   21.4124 H   0  0  0  0  0  0
  -23.3725  -35.9669   23.3295 H   0  0  0  0  0  0
  -24.3576  -36.8938   22.2053 H   0  0  0  0  0  0
  -23.7241  -37.6531   23.6651 H   0  0  0  0  0  0
  -26.0322  -31.6001   20.5865 H   0  0  0  0  0  0
  -26.8209  -30.8941   21.9709 H   0  0  0  0  0  0
  -28.1020  -29.1143   21.1381 H   0  0  0  0  0  0
  -26.0247  -25.9669   19.0246 H   0  0  0  0  0  0
  -23.9656  -27.2870   19.0559 H   0  0  0  0  0  0
  -23.7197  -30.6001   19.4058 H   0  0  0  0  0  0
  -22.7304  -29.2475   19.8680 H   0  0  0  0  0  0
  -25.1265  -36.1961   25.0824 H   0  0  0  0  0  0
  -20.9956  -28.3235   24.1437 H   0  0  0  0  0  0
  -20.5651  -26.2287   23.3606 H   0  0  0  0  0  0
  -21.6631  -26.7448   22.1214 H   0  0  0  0  0  0
  -19.6899  -25.6311   21.1230 H   0  0  0  0  0  0
  -19.6668  -27.3219   20.6748 H   0  0  0  0  0  0
  -17.4181  -26.6670   21.4043 H   0  0  0  0  0  0
  -18.0339  -26.0067   22.9032 H   0  0  0  0  0  0
  -19.7930  -30.7252   24.2310 H   0  0  0  0  0  0
  -17.5016  -31.6266   24.5184 H   0  0  0  0  0  0
  -15.5353  -30.3022   23.7615 H   0  0  0  0  0  0
  -15.8662  -28.0848   22.7040 H   0  0  0  0  0  0
  -24.5901  -30.7092   25.7827 H   0  0  0  0  0  0
  -24.9003  -32.2879   26.4958 H   0  0  0  0  0  0
  -25.8131  -30.8851   27.0210 H   0  0  0  0  0  0
  -26.2828  -29.6789   24.1155 H   0  0  0  0  0  0
  -27.4108  -29.7270   25.4513 H   0  0  0  0  0  0
  -27.8645  -30.4345   23.9179 H   0  0  0  0  0  0
  -27.2673  -33.3582   26.2092 H   0  0  0  0  0  0
  -28.3837  -32.6917   25.0269 H   0  0  0  0  0  0
  -28.0771  -31.8404   26.5329 H   0  0  0  0  0  0
  -28.2586  -38.0106   24.7521 H   0  0  0  0  0  0
  -28.1082  -36.2637   24.6251 H   0  0  0  0  0  0
  -27.2313  -37.1413   25.8867 H   0  0  0  0  0  0
  -20.9293  -29.8778   21.6965 H   0  0  0  0  0  0
  -26.0162  -38.2866   24.1447 H   0  0  0  0  0  0
  -27.8907  -18.4300   22.1138 H   0  0  0  0  0  0
  -31.5371  -17.9753   19.8502 H   0  0  0  0  0  0
  -27.6899  -20.7622   21.3336 H   0  0  0  0  0  0
  -31.3438  -20.3195   19.0817 H   0  0  0  0  0  0
  -29.8092  -16.4763   20.5216 H   0  0  0  0  0  0
  -29.9671  -14.8683   22.6450 H   0  0  0  0  0  0
  -28.3732  -22.3393   19.3044 H   0  0  0  0  0  0
  -30.0558  -22.3477   18.8499 H   0  0  0  0  0  0
  -30.6644  -22.9382   21.2273 H   0  0  0  0  0  0
  -28.9787  -23.0302   21.6419 H   0  0  0  0  0  0
  -30.3850  -24.8389   19.5915 H   0  0  0  0  0  0
  -30.1075  -25.2321   21.2616 H   0  0  0  0  0  0
  -27.5853  -24.9682   20.8194 H   0  0  0  0  0  0
  -27.9943  -24.9321   19.1033 H   0  0  0  0  0  0
  1 25  1  0  0  0
  1 30  2  0  0  0
  1 78  1  0  0  0
  2  3  1  0  0  0
  2 25  1  0  0  0
  2 83  1  0  0  0
  2 84  1  0  0  0
  3  4  1  0  0  0
  3 85  1  0  0  0
  3 86  1  0  0  0
  4  5  1  0  0  0
  4 87  1  0  0  0
  4 88  1  0  0  0
  5  6  1  0  0  0
  5 26  1  0  0  0
  5 89  1  0  0  0
  6 25  1  0  0  0
  6 90  1  0  0  0
  6 91  1  0  0  0
  7  8  2  0  0  0
  7 26  1  0  0  0
  7 29  1  0  0  0
  8  9  1  0  0  0
  8 22  1  0  0  0
  9 10  1  0  0  0
  9 27  2  0  0  0
 10 11  2  0  0  0
 10 15  1  0  0  0
 11 12  1  0  0  0
 11 92  1  0  0  0
 12 13  2  0  0  0
 12 93  1  0  0  0
 13 14  1  0  0  0
 13 31  1  0  0  0
 14 15  2  0  0  0
 14 94  1  0  0  0
 15 95  1  0  0  0
 16 17  2  0  0  0
 16 21  1  0  0  0
 16 31  1  0  0  0
 17 18  1  0  0  0
 17 96  1  0  0  0
 18 19  2  0  0  0
 18 97  1  0  0  0
 19 20  1  0  0  0
 19 24  1  0  0  0
 20 21  2  0  0  0
 20 98  1  0  0  0
 21 23  1  0  0  0
 22 28  1  0  0  0
 22 32  2  0  0  0
 26 27  1  0  0  0
 28 99  1  0  0  0
 28100  1  0  0  0
 29101  1  0  0  0
 29102  1  0  0  0
 33 34  1  0  0  0
 33 66  1  0  0  0
 33 70  2  0  0  0
 34 36  1  0  0  0
 34 59  1  0  0  0
 34103  1  0  0  0
 35 44  2  0  0  0
 35 45  1  0  0  0
 35 68  1  0  0  0
 36 56  1  0  0  0
 36104  1  0  0  0
 37 39  1  0  0  0
 37 47  1  0  0  0
 37 66  1  0  0  0
 37105  1  0  0  0
 38 43  2  0  0  0
 38 46  1  0  0  0
 38 47  1  0  0  0
 39 64  1  0  0  0
 39 67  2  0  0  0
 40 52  1  0  0  0
 40 53  2  0  0  0
 40 58  1  0  0  0
 41106  1  0  0  0
 41107  1  0  0  0
 41108  1  0  0  0
 41 48  1  0  0  0
 42 43  1  0  0  0
 42 66  1  0  0  0
 42109  1  0  0  0
 42110  1  0  0  0
 43 44  1  0  0  0
 44111  1  0  0  0
 45 46  2  0  0  0
 45112  1  0  0  0
 46113  1  0  0  0
 47114  1  0  0  0
 47115  1  0  0  0
 48 56  1  0  0  0
 48 65  1  0  0  0
 48116  1  0  0  0
 49 50  1  0  0  0
 49 53  1  0  0  0
 49 64  1  0  0  0
 49117  1  0  0  0
 50 51  1  0  0  0
 50118  1  0  0  0
 50119  1  0  0  0
 51 52  1  0  0  0
 51120  1  0  0  0
 51121  1  0  0  0
 52122  1  0  0  0
 52123  1  0  0  0
 53 54  1  0  0  0
 54 55  2  0  0  0
 54124  1  0  0  0
 55 57  1  0  0  0
 55125  1  0  0  0
 56 69  2  0  0  0
 57 58  2  0  0  0
 57126  1  0  0  0
 58127  1  0  0  0
 59 60  1  0  0  0
 59 61  1  0  0  0
 59 62  1  0  0  0
 60128  1  0  0  0
 60129  1  0  0  0
 60130  1  0  0  0
 61131  1  0  0  0
 61132  1  0  0  0
 61133  1  0  0  0
 62134  1  0  0  0
 62135  1  0  0  0
 62136  1  0  0  0
 63 65  1  0  0  0
 63137  1  0  0  0
 63138  1  0  0  0
 63139  1  0  0  0
 64140  1  0  0  0
 65141  1  0  0  0
 68 82  1  0  0  0
 71 73  2  0  0  0
 71 75  1  0  0  0
 71142  1  0  0  0
 72 74  1  0  0  0
 72 75  2  0  0  0
 72143  1  0  0  0
 73 76  1  0  0  0
 73144  1  0  0  0
 74 76  2  0  0  0
 74145  1  0  0  0
 75 77  1  0  0  0
 76 79  1  0  0  0
 77 78  2  0  0  0
 77146  1  0  0  0
 78147  1  0  0  0
 79 80  1  0  0  0
 79148  1  0  0  0
 79149  1  0  0  0
 80 81  1  0  0  0
 80150  1  0  0  0
 80151  1  0  0  0
 81 82  1  0  0  0
 81152  1  0  0  0
 81153  1  0  0  0
 82154  1  0  0  0
 82155  1  0  0  0
M  ISO  4   1 100  68 101  78 100  82 101
M  END
> <chiral flag>
0

> <version>
0

> <s_m_source_file>
/data/baiqing/PycharmProjects/Reinvent-master-3.2/result/LINK_invent/BTK/process_docking_weight1_custom_product_contain_oxygen_bond_distance_aromatic_linkinvent_7_9_3/rearranged_h_0129.sdf

> <i_m_source_file_index>
50

> <r_mmod_Potential_Energy-OPLS-2005>
244.236923217773

> <r_mmod_Stretch_Energy-OPLS-2005>
38.0331764221191

> <r_mmod_Bend_Energy-OPLS-2005>
333.904205322266

> <r_mmod_Torsional_Energy-OPLS-2005>
211.413864135742

> <r_mmod_Improper_Torsional_Energy-OPLS-2005>
7.15636396408081

> <r_mmod_Van_der_Waal_Energy-OPLS-2005>
164.181701660156

> <r_mmod_Electrostatic_Energy-OPLS-2005>
-333.69384765625

> <r_mmod_Solvation_Energy-OPLS-2005>
-186.533203125

> <b_mmod_Minimization_Converged-OPLS-2005>
0

> <r_mmod_RMS_Derivative-OPLS-2005>
1.67627251148224

$$$$
50
                    3D
 Structure written by MMmdl.
161169  0  0  1  0            999 V2000
  -30.7475  -14.5307   20.4561 C   0  0  0  0  0  0
  -30.3944  -12.3113   19.4711 C   0  0  0  0  0  0
  -29.4998  -12.4700   18.2268 C   0  0  0  0  0  0
  -28.0195  -12.3417   18.6271 C   0  0  0  0  0  0
  -27.6438  -13.2314   19.8459 C   0  0  2  0  0  0
  -28.6840  -13.1364   20.9825 C   0  0  0  0  0  0
  -25.2519  -13.8212   20.5679 C   0  0  0  0  0  0
  -24.1812  -13.0453   20.9190 C   0  0  0  0  0  0
  -24.6404  -11.6930   20.8719 C   0  0  0  0  0  0
  -23.9079  -10.4312   21.0386 C   0  0  0  0  0  0
  -24.3626   -9.4219   21.9157 C   0  0  0  0  0  0
  -23.6305   -8.2250   22.0737 C   0  0  0  0  0  0
  -22.4290   -8.0279   21.3526 C   0  0  0  0  0  0
  -21.9923   -9.0257   20.4634 C   0  0  0  0  0  0
  -22.7249  -10.2140   20.3045 C   0  0  0  0  0  0
  -21.6862   -6.0734   22.5273 C   0  0  0  0  0  0
  -21.4018   -6.5632   23.8210 C   0  0  0  0  0  0
  -21.3662   -5.6782   24.9165 C   0  0  0  0  0  0
  -21.6058   -4.3050   24.7207 C   0  0  0  0  0  0
  -21.8814   -3.8137   23.4326 C   0  0  0  0  0  0
  -21.9195   -4.6959   22.3384 C   0  0  0  0  0  0
  -22.7829  -13.5231   21.1843 C   0  0  0  0  0  0
  -22.1654   -4.2153   21.0960 F   0  0  0  0  0  0
  -21.5628   -3.4524   25.7713 F   0  0  0  0  0  0
  -30.0132  -13.3813   20.4143 N   0  0  0  0  0  0
  -26.2944  -12.9424   20.3257 N   0  0  0  0  0  0
  -25.9332  -11.6559   20.5723 N   0  0  0  0  0  0
  -22.0467  -12.8237   22.0407 N   0  0  0  0  0  0
  -25.4223  -15.1937   20.4121 N   0  0  0  0  0  0
  -31.9524  -14.4789   20.2017 O   0  0  0  0  0  0
  -21.6642   -6.8878   21.4237 O   0  0  0  0  0  0
  -22.3500  -14.5521   20.6677 O   0  0  0  0  0  0
  -24.6183  -31.8645   23.2081 C   0  0  0  0  0  0
  -25.9065  -32.4797   23.8386 C   0  0  1  0  0  0
  -27.2178  -27.3985   20.1125 C   0  0  0  0  0  0
  -25.5903  -33.8598   24.2310 N   0  0  0  0  0  0
  -23.4080  -30.4910   21.5476 C   0  0  2  0  0  0
  -24.8535  -28.9579   20.1097 C   0  0  0  0  0  0
  -22.7424  -29.4648   22.4941 C   0  0  0  0  0  0
  -18.0273  -28.1385   22.8481 C   0  0  0  0  0  0
  -24.1480  -36.7318   23.2634 C   0  0  0  0  0  0
  -25.9414  -30.8229   21.3666 C   0  0  0  0  0  0
  -26.0180  -29.4571   20.7085 C   0  0  0  0  0  0
  -27.2089  -28.6869   20.7024 C   0  0  0  0  0  0
  -26.0423  -26.9333   19.4860 C   0  0  0  0  0  0
  -24.8614  -27.6972   19.4926 C   0  0  0  0  0  0
  -23.6186  -29.8293   20.1606 C   0  0  0  0  0  0
  -25.4100  -36.3089   24.0326 C   0  0  1  0  0  0
  -20.5866  -28.3677   23.1293 C   0  0  2  0  0  0
  -20.6758  -26.9408   22.5408 C   0  0  0  0  0  0
  -19.5743  -26.6382   21.5199 C   0  0  0  0  0  0
  -18.1923  -26.7927   22.1617 C   0  0  0  0  0  0
  -19.1523  -28.8842   23.2891 C   0  0  0  0  0  0
  -18.9457  -30.1443   23.8908 C   0  0  0  0  0  0
  -17.6462  -30.6594   24.0561 C   0  0  0  0  0  0
  -25.9031  -34.9459   23.5115 C   0  0  0  0  0  0
  -16.5351  -29.9103   23.6322 C   0  0  0  0  0  0
  -16.7261  -28.6514   23.0354 C   0  0  0  0  0  0
  -26.4480  -31.6589   25.0733 C   0  0  0  0  0  0
  -25.3735  -31.3747   26.1483 C   0  0  0  0  0  0
  -27.0328  -30.3016   24.6168 C   0  0  0  0  0  0
  -27.6046  -32.4314   25.7519 C   0  0  0  0  0  0
  -27.5572  -37.1804   24.8455 C   0  0  0  0  0  0
  -21.4144  -29.3045   22.3690 N   0  0  0  0  0  0
  -26.4279  -37.3782   23.9401 N   0  0  0  0  0  0
  -24.6740  -31.0735   22.0995 N   0  0  0  0  0  0
  -23.4179  -28.8172   23.2986 O   0  0  0  0  0  0
  -28.3265  -26.5736   20.1623 O   0  0  0  0  0  0
  -26.5605  -34.8914   22.4680 O   0  0  0  0  0  0
  -23.5366  -32.1408   23.7457 O   0  0  0  0  0  0
  -30.4747  -21.2111   19.4618 C   0  0  0  0  0  0
  -31.4995  -20.4366   18.9135 C   0  0  0  0  0  0
  -29.5556  -19.2181   20.5438 C   0  0  0  0  0  0
  -30.6130  -18.4156   20.0161 C   0  0  0  0  0  0
  -29.4931  -20.6254   20.2788 C   0  0  0  0  0  0
  -31.5641  -19.0547   19.1621 C   0  0  0  0  0  0
  -30.8257  -16.9474   20.2413 C   0  0  0  0  0  0
  -30.0548  -15.8458   20.4899 C   0  0  0  0  0  0
  -32.6772  -18.2872   18.4546 C   0  0  0  0  0  0
  -30.5233  -24.6371   20.8460 C   0  0  0  0  0  0
  -28.3655  -21.5319   20.8017 C   0  0  0  0  0  0
  -28.7783  -22.8842   21.4821 C   0  0  0  0  0  0
  -28.0962  -25.3402   20.8973 C   0  0  0  0  0  0
  -29.0782  -24.1616   20.6076 C   0  0  1  0  0  0
  -31.4472  -12.3392   19.1837 H   0  0  0  0  0  0
  -30.2428  -11.3341   19.9321 H   0  0  0  0  0  0
  -29.7555  -11.7138   17.4834 H   0  0  0  0  0  0
  -29.6764  -13.4384   17.7575 H   0  0  0  0  0  0
  -27.8369  -11.2918   18.8620 H   0  0  0  0  0  0
  -27.3778  -12.5766   17.7766 H   0  0  0  0  0  0
  -27.6520  -14.2596   19.4834 H   0  0  0  0  0  0
  -28.6588  -12.1499   21.4467 H   0  0  0  0  0  0
  -28.4607  -13.8526   21.7748 H   0  0  0  0  0  0
  -25.2772   -9.5691   22.4728 H   0  0  0  0  0  0
  -24.0016   -7.4643   22.7464 H   0  0  0  0  0  0
  -21.0842   -8.8779   19.8948 H   0  0  0  0  0  0
  -22.3701  -10.9668   19.6153 H   0  0  0  0  0  0
  -21.2020   -7.6145   23.9714 H   0  0  0  0  0  0
  -21.1488   -6.0502   25.9072 H   0  0  0  0  0  0
  -22.0601   -2.7605   23.2810 H   0  0  0  0  0  0
  -22.4099  -11.9941   22.4857 H   0  0  0  0  0  0
  -21.1072  -13.1246   22.2573 H   0  0  0  0  0  0
  -24.6616  -15.8527   20.5371 H   0  0  0  0  0  0
  -26.2815  -15.6330   20.1058 H   0  0  0  0  0  0
  -26.7147  -32.5500   23.1157 H   0  0  0  0  0  0
  -25.0010  -33.9757   25.0425 H   0  0  0  0  0  0
  -22.6991  -31.3092   21.4090 H   0  0  0  0  0  0
  -23.3721  -35.9671   23.3297 H   0  0  0  0  0  0
  -24.3573  -36.8940   22.2050 H   0  0  0  0  0  0
  -23.7263  -37.6530   23.6666 H   0  0  0  0  0  0
  -26.0605  -31.5914   20.6008 H   0  0  0  0  0  0
  -26.8263  -30.8704   21.9907 H   0  0  0  0  0  0
  -28.1055  -29.0600   21.1768 H   0  0  0  0  0  0
  -26.0292  -25.9645   19.0073 H   0  0  0  0  0  0
  -23.9670  -27.3078   19.0263 H   0  0  0  0  0  0
  -23.7347  -30.6075   19.4057 H   0  0  0  0  0  0
  -22.7416  -29.2543   19.8584 H   0  0  0  0  0  0
  -25.1274  -36.1941   25.0822 H   0  0  0  0  0  0
  -20.9970  -28.3249   24.1405 H   0  0  0  0  0  0
  -20.5640  -26.2288   23.3597 H   0  0  0  0  0  0
  -21.6631  -26.7428   22.1211 H   0  0  0  0  0  0
  -19.6902  -25.6287   21.1238 H   0  0  0  0  0  0
  -19.6693  -27.3179   20.6717 H   0  0  0  0  0  0
  -17.4185  -26.6653   21.4031 H   0  0  0  0  0  0
  -18.0345  -26.0074   22.9025 H   0  0  0  0  0  0
  -19.7941  -30.7238   24.2301 H   0  0  0  0  0  0
  -17.5032  -31.6280   24.5149 H   0  0  0  0  0  0
  -15.5357  -30.3017   23.7642 H   0  0  0  0  0  0
  -15.8657  -28.0838   22.7073 H   0  0  0  0  0  0
  -24.5883  -30.7117   25.7833 H   0  0  0  0  0  0
  -24.8964  -32.2937   26.4904 H   0  0  0  0  0  0
  -25.8064  -30.8933   27.0260 H   0  0  0  0  0  0
  -26.2918  -29.6777   24.1163 H   0  0  0  0  0  0
  -27.4000  -29.7256   25.4670 H   0  0  0  0  0  0
  -27.8784  -30.4298   23.9408 H   0  0  0  0  0  0
  -27.2641  -33.3580   26.2153 H   0  0  0  0  0  0
  -28.3850  -32.6927   25.0361 H   0  0  0  0  0  0
  -28.0732  -31.8409   26.5403 H   0  0  0  0  0  0
  -28.2577  -38.0107   24.7489 H   0  0  0  0  0  0
  -28.1073  -36.2637   24.6281 H   0  0  0  0  0  0
  -27.2295  -37.1456   25.8858 H   0  0  0  0  0  0
  -20.9289  -29.8803   21.6949 H   0  0  0  0  0  0
  -26.0156  -38.2847   24.1424 H   0  0  0  0  0  0
  -30.4454  -22.2622   19.2259 H   0  0  0  0  0  0
  -32.2329  -20.9159   18.2806 H   0  0  0  0  0  0
  -28.8052  -18.7527   21.1679 H   0  0  0  0  0  0
  -31.8815  -16.7433   20.1808 H   0  0  0  0  0  0
  -28.9877  -15.9231   20.6366 H   0  0  0  0  0  0
  -33.1738  -18.8995   17.7021 H   0  0  0  0  0  0
  -32.2777  -17.4136   17.9384 H   0  0  0  0  0  0
  -33.4394  -17.9611   19.1632 H   0  0  0  0  0  0
  -31.2517  -23.8469   20.6669 H   0  0  0  0  0  0
  -30.6563  -24.9724   21.8759 H   0  0  0  0  0  0
  -30.7815  -25.4720   20.1948 H   0  0  0  0  0  0
  -27.8040  -20.9488   21.5327 H   0  0  0  0  0  0
  -27.6667  -21.7230   19.9879 H   0  0  0  0  0  0
  -29.5982  -22.6889   22.1743 H   0  0  0  0  0  0
  -27.9472  -23.1481   22.1386 H   0  0  0  0  0  0
  -28.1458  -25.5932   21.9571 H   0  0  0  0  0  0
  -27.0875  -24.9575   20.7388 H   0  0  0  0  0  0
  -28.9694  -23.9005   19.5540 H   0  0  0  0  0  0
  1 25  1  0  0  0
  1 30  2  0  0  0
  1 78  1  0  0  0
  2  3  1  0  0  0
  2 25  1  0  0  0
  2 85  1  0  0  0
  2 86  1  0  0  0
  3  4  1  0  0  0
  3 87  1  0  0  0
  3 88  1  0  0  0
  4  5  1  0  0  0
  4 89  1  0  0  0
  4 90  1  0  0  0
  5  6  1  0  0  0
  5 26  1  0  0  0
  5 91  1  0  0  0
  6 25  1  0  0  0
  6 92  1  0  0  0
  6 93  1  0  0  0
  7  8  2  0  0  0
  7 26  1  0  0  0
  7 29  1  0  0  0
  8  9  1  0  0  0
  8 22  1  0  0  0
  9 10  1  0  0  0
  9 27  2  0  0  0
 10 11  2  0  0  0
 10 15  1  0  0  0
 11 12  1  0  0  0
 11 94  1  0  0  0
 12 13  2  0  0  0
 12 95  1  0  0  0
 13 14  1  0  0  0
 13 31  1  0  0  0
 14 15  2  0  0  0
 14 96  1  0  0  0
 15 97  1  0  0  0
 16 17  2  0  0  0
 16 21  1  0  0  0
 16 31  1  0  0  0
 17 18  1  0  0  0
 17 98  1  0  0  0
 18 19  2  0  0  0
 18 99  1  0  0  0
 19 20  1  0  0  0
 19 24  1  0  0  0
 20 21  2  0  0  0
 20100  1  0  0  0
 21 23  1  0  0  0
 22 28  1  0  0  0
 22 32  2  0  0  0
 26 27  1  0  0  0
 28101  1  0  0  0
 28102  1  0  0  0
 29103  1  0  0  0
 29104  1  0  0  0
 33 34  1  0  0  0
 33 66  1  0  0  0
 33 70  2  0  0  0
 34 36  1  0  0  0
 34 59  1  0  0  0
 34105  1  0  0  0
 35 44  2  0  0  0
 35 45  1  0  0  0
 35 68  1  0  0  0
 36 56  1  0  0  0
 36106  1  0  0  0
 37 39  1  0  0  0
 37 47  1  0  0  0
 37 66  1  0  0  0
 37107  1  0  0  0
 38 43  2  0  0  0
 38 46  1  0  0  0
 38 47  1  0  0  0
 39 64  1  0  0  0
 39 67  2  0  0  0
 40 52  1  0  0  0
 40 53  2  0  0  0
 40 58  1  0  0  0
 41108  1  0  0  0
 41109  1  0  0  0
 41110  1  0  0  0
 41 48  1  0  0  0
 42 43  1  0  0  0
 42 66  1  0  0  0
 42111  1  0  0  0
 42112  1  0  0  0
 43 44  1  0  0  0
 44113  1  0  0  0
 45 46  2  0  0  0
 45114  1  0  0  0
 46115  1  0  0  0
 47116  1  0  0  0
 47117  1  0  0  0
 48 56  1  0  0  0
 48 65  1  0  0  0
 48118  1  0  0  0
 49 50  1  0  0  0
 49 53  1  0  0  0
 49 64  1  0  0  0
 49119  1  0  0  0
 50 51  1  0  0  0
 50120  1  0  0  0
 50121  1  0  0  0
 51 52  1  0  0  0
 51122  1  0  0  0
 51123  1  0  0  0
 52124  1  0  0  0
 52125  1  0  0  0
 53 54  1  0  0  0
 54 55  2  0  0  0
 54126  1  0  0  0
 55 57  1  0  0  0
 55127  1  0  0  0
 56 69  2  0  0  0
 57 58  2  0  0  0
 57128  1  0  0  0
 58129  1  0  0  0
 59 60  1  0  0  0
 59 61  1  0  0  0
 59 62  1  0  0  0
 60130  1  0  0  0
 60131  1  0  0  0
 60132  1  0  0  0
 61133  1  0  0  0
 61134  1  0  0  0
 61135  1  0  0  0
 62136  1  0  0  0
 62137  1  0  0  0
 62138  1  0  0  0
 63 65  1  0  0  0
 63139  1  0  0  0
 63140  1  0  0  0
 63141  1  0  0  0
 64142  1  0  0  0
 65143  1  0  0  0
 68 83  1  0  0  0
 71 72  2  0  0  0
 71 75  1  0  0  0
 71144  1  0  0  0
 72 76  1  0  0  0
 72145  1  0  0  0
 73 74  1  0  0  0
 73 75  2  0  0  0
 73146  1  0  0  0
 74 76  2  0  0  0
 74 77  1  0  0  0
 75 81  1  0  0  0
 76 79  1  0  0  0
 77 78  2  0  0  0
 77147  1  0  0  0
 78148  1  0  0  0
 79149  1  0  0  0
 79150  1  0  0  0
 79151  1  0  0  0
 80152  1  0  0  0
 80153  1  0  0  0
 80154  1  0  0  0
 80 84  1  0  0  0
 81 82  1  0  0  0
 81155  1  0  0  0
 81156  1  0  0  0
 82 84  1  0  0  0
 82157  1  0  0  0
 82158  1  0  0  0
 83 84  1  0  0  0
 83159  1  0  0  0
 83160  1  0  0  0
 84161  1  0  0  0
M  ISO  4   1 100  68 101  78 100  83 101
M  END
> <chiral flag>
0

> <version>
0

> <s_m_source_file>
/data/baiqing/PycharmProjects/Reinvent-master-3.2/result/LINK_invent/BTK/process_docking_weight1_custom_product_contain_oxygen_bond_distance_aromatic_linkinvent_7_9_3/rearranged_h_0129.sdf

> <i_m_source_file_index>
51

> <r_mmod_Potential_Energy-OPLS-2005>
113.793327331543

> <r_mmod_Stretch_Energy-OPLS-2005>
53.2000770568848

> <r_mmod_Bend_Energy-OPLS-2005>
138.746658325195

> <r_mmod_Torsional_Energy-OPLS-2005>
237.172119140625

> <r_mmod_Improper_Torsional_Energy-OPLS-2005>
7.87506103515625

> <r_mmod_Van_der_Waal_Energy-OPLS-2005>
166.552368164062

> <r_mmod_Electrostatic_Energy-OPLS-2005>
-344.811431884766

> <r_mmod_Solvation_Energy-OPLS-2005>
-184.374969482422

> <b_mmod_Minimization_Converged-OPLS-2005>
0

> <r_mmod_RMS_Derivative-OPLS-2005>
2.27948427200317

$$$$
51
                    3D
 Structure written by MMmdl.
155163  0  0  1  0            999 V2000
  -30.5444  -14.8806   20.4250 C   0  0  0  0  0  0
  -30.4509  -12.5392   19.4844 C   0  0  0  0  0  0
  -29.5228  -12.5244   18.2466 C   0  0  0  0  0  0
  -28.0523  -12.3188   18.6624 C   0  0  0  0  0  0
  -27.6395  -13.2295   19.8475 C   0  0  2  0  0  0
  -28.6880  -13.2114   20.9819 C   0  0  0  0  0  0
  -25.2484  -13.8142   20.5737 C   0  0  0  0  0  0
  -24.1782  -13.0387   20.9219 C   0  0  0  0  0  0
  -24.6392  -11.6878   20.8745 C   0  0  0  0  0  0
  -23.9071  -10.4264   21.0402 C   0  0  0  0  0  0
  -24.3619   -9.4185   21.9182 C   0  0  0  0  0  0
  -23.6288   -8.2227   22.0756 C   0  0  0  0  0  0
  -22.4269   -8.0271   21.3544 C   0  0  0  0  0  0
  -21.9908   -9.0246   20.4646 C   0  0  0  0  0  0
  -22.7244  -10.2117   20.3051 C   0  0  0  0  0  0
  -21.6847   -6.0730   22.5281 C   0  0  0  0  0  0
  -21.4012   -6.5636   23.8215 C   0  0  0  0  0  0
  -21.3658   -5.6786   24.9176 C   0  0  0  0  0  0
  -21.6044   -4.3050   24.7225 C   0  0  0  0  0  0
  -21.8820   -3.8143   23.4347 C   0  0  0  0  0  0
  -21.9192   -4.6959   22.3403 C   0  0  0  0  0  0
  -22.7805  -13.5183   21.1870 C   0  0  0  0  0  0
  -22.1659   -4.2148   21.0980 F   0  0  0  0  0  0
  -21.5630   -3.4533   25.7736 F   0  0  0  0  0  0
  -29.9757  -13.6136   20.3948 N   0  0  0  0  0  0
  -26.2927  -12.9367   20.3276 N   0  0  0  0  0  0
  -25.9324  -11.6509   20.5742 N   0  0  0  0  0  0
  -22.0440  -12.8191   22.0427 N   0  0  0  0  0  0
  -25.4073  -15.1873   20.4253 N   0  0  0  0  0  0
  -31.7357  -15.0011   20.1207 O   0  0  0  0  0  0
  -21.6628   -6.8872   21.4242 O   0  0  0  0  0  0
  -22.3502  -14.5491   20.6712 O   0  0  0  0  0  0
  -24.6404  -31.8474   23.1919 C   0  0  0  0  0  0
  -25.9196  -32.4709   23.8290 C   0  0  1  0  0  0
  -27.2245  -27.1773   20.1362 C   0  0  0  0  0  0
  -25.5960  -33.8513   24.2211 N   0  0  0  0  0  0
  -23.4420  -30.4679   21.5368 C   0  0  2  0  0  0
  -24.8928  -28.9044   20.1069 C   0  0  0  0  0  0
  -22.7554  -29.4560   22.4876 C   0  0  0  0  0  0
  -18.0298  -28.1392   22.8473 C   0  0  0  0  0  0
  -24.1493  -36.7259   23.2640 C   0  0  0  0  0  0
  -25.9954  -30.7314   21.3882 C   0  0  0  0  0  0
  -26.0668  -29.3471   20.7287 C   0  0  0  0  0  0
  -27.2305  -28.4963   20.7344 C   0  0  0  0  0  0
  -26.0283  -26.8367   19.4621 C   0  0  0  0  0  0
  -24.8845  -27.6609   19.4599 C   0  0  0  0  0  0
  -23.6661  -29.7998   20.1544 C   0  0  0  0  0  0
  -25.4123  -36.3040   24.0318 C   0  0  1  0  0  0
  -20.5910  -28.3712   23.1242 C   0  0  2  0  0  0
  -20.6784  -26.9421   22.5402 C   0  0  0  0  0  0
  -19.5760  -26.6380   21.5207 C   0  0  0  0  0  0
  -18.1940  -26.7931   22.1620 C   0  0  0  0  0  0
  -19.1556  -28.8872   23.2847 C   0  0  0  0  0  0
  -18.9473  -30.1470   23.8870 C   0  0  0  0  0  0
  -17.6471  -30.6590   24.0555 C   0  0  0  0  0  0
  -25.9072  -34.9414   23.5070 C   0  0  0  0  0  0
  -16.5361  -29.9079   23.6337 C   0  0  0  0  0  0
  -16.7284  -28.6500   23.0354 C   0  0  0  0  0  0
  -26.4530  -31.6565   25.0718 C   0  0  0  0  0  0
  -25.3720  -31.3745   26.1415 C   0  0  0  0  0  0
  -27.0392  -30.2963   24.6284 C   0  0  0  0  0  0
  -27.6069  -32.4319   25.7499 C   0  0  0  0  0  0
  -27.5576  -37.1786   24.8465 C   0  0  0  0  0  0
  -21.4250  -29.3043   22.3624 N   0  0  0  0  0  0
  -26.4288  -37.3750   23.9407 N   0  0  0  0  0  0
  -24.7118  -31.0360   22.0940 N   0  0  0  0  0  0
  -23.4214  -28.8108   23.3012 O   0  0  0  0  0  0
  -28.2845  -26.2122   20.2288 O   0  0  0  0  0  0
  -26.5649  -34.8908   22.4643 O   0  0  0  0  0  0
  -23.5533  -32.1339   23.7160 O   0  0  0  0  0  0
  -30.2359  -19.9281   20.9140 C   0  0  0  0  0  0
  -30.4275  -18.4898   21.0779 C   0  0  0  0  0  0
  -28.5537  -19.5013   19.3180 C   0  0  0  0  0  0
  -29.2678  -20.5148   20.0283 C   0  0  0  0  0  0
  -28.7411  -18.0756   19.4613 C   0  0  0  0  0  0
  -29.6934  -17.4816   20.3588 C   0  0  0  0  0  0
  -28.8757  -23.4715   20.4289 C   0  0  0  0  0  0
  -28.6392  -16.5776   17.4065 C   0  0  0  0  0  0
  -29.0722  -22.0857   19.5838 C   0  0  0  0  0  0
  -27.8723  -17.1836   18.5890 C   0  0  0  0  0  0
  -28.0680  -24.7496   19.7913 C   0  0  0  0  0  0
  -29.6940  -15.9831   20.6334 N   0  0  0  0  0  0
  -29.3496  -23.5578   21.5667 O   0  0  0  0  0  0
  -31.4851  -12.6983   19.1740 H   0  0  0  0  0  0
  -30.4362  -11.5729   19.9912 H   0  0  0  0  0  0
  -29.8296  -11.7400   17.5530 H   0  0  0  0  0  0
  -29.6204  -13.4659   17.7042 H   0  0  0  0  0  0
  -27.9327  -11.2721   18.9443 H   0  0  0  0  0  0
  -27.3915  -12.4817   17.8102 H   0  0  0  0  0  0
  -27.6161  -14.2351   19.4376 H   0  0  0  0  0  0
  -28.7596  -12.2194   21.4300 H   0  0  0  0  0  0
  -28.3983  -13.8883   21.7873 H   0  0  0  0  0  0
  -25.2763   -9.5660   22.4759 H   0  0  0  0  0  0
  -23.9993   -7.4616   22.7477 H   0  0  0  0  0  0
  -21.0838   -8.8770   19.8954 H   0  0  0  0  0  0
  -22.3709  -10.9657   19.6161 H   0  0  0  0  0  0
  -21.2005   -7.6144   23.9719 H   0  0  0  0  0  0
  -21.1479   -6.0514   25.9078 H   0  0  0  0  0  0
  -22.0602   -2.7607   23.2843 H   0  0  0  0  0  0
  -22.4044  -11.9857   22.4833 H   0  0  0  0  0  0
  -21.1067  -13.1242   22.2628 H   0  0  0  0  0  0
  -24.6301  -15.8279   20.5458 H   0  0  0  0  0  0
  -26.2499  -15.6441   20.1098 H   0  0  0  0  0  0
  -26.7260  -32.5331   23.1021 H   0  0  0  0  0  0
  -25.0106  -33.9630   25.0359 H   0  0  0  0  0  0
  -22.7419  -31.2924   21.3853 H   0  0  0  0  0  0
  -23.3759  -35.9587   23.3297 H   0  0  0  0  0  0
  -24.3585  -36.8894   22.2057 H   0  0  0  0  0  0
  -23.7247  -37.6454   23.6678 H   0  0  0  0  0  0
  -26.1495  -31.4881   20.6177 H   0  0  0  0  0  0
  -26.8667  -30.7788   22.0297 H   0  0  0  0  0  0
  -28.1214  -28.8266   21.2501 H   0  0  0  0  0  0
  -25.9335  -25.8980   18.9387 H   0  0  0  0  0  0
  -23.9910  -27.3210   18.9540 H   0  0  0  0  0  0
  -23.7967  -30.5753   19.3986 H   0  0  0  0  0  0
  -22.7827  -29.2374   19.8468 H   0  0  0  0  0  0
  -25.1314  -36.1867   25.0810 H   0  0  0  0  0  0
  -20.9994  -28.3294   24.1366 H   0  0  0  0  0  0
  -20.5676  -26.2326   23.3615 H   0  0  0  0  0  0
  -21.6651  -26.7428   22.1203 H   0  0  0  0  0  0
  -19.6923  -25.6284   21.1254 H   0  0  0  0  0  0
  -19.6702  -27.3173   20.6723 H   0  0  0  0  0  0
  -17.4210  -26.6665   21.4022 H   0  0  0  0  0  0
  -18.0346  -26.0080   22.9025 H   0  0  0  0  0  0
  -19.7951  -30.7291   24.2225 H   0  0  0  0  0  0
  -17.5026  -31.6269   24.5158 H   0  0  0  0  0  0
  -15.5360  -30.2972   23.7682 H   0  0  0  0  0  0
  -15.8684  -28.0814   22.7082 H   0  0  0  0  0  0
  -24.5908  -30.7085   25.7734 H   0  0  0  0  0  0
  -24.8897  -32.2923   26.4788 H   0  0  0  0  0  0
  -25.8008  -30.8952   27.0224 H   0  0  0  0  0  0
  -26.3006  -29.6681   24.1291 H   0  0  0  0  0  0
  -27.4014  -29.7268   25.4854 H   0  0  0  0  0  0
  -27.8915  -30.4206   23.9598 H   0  0  0  0  0  0
  -27.2677  -33.3640   26.2028 H   0  0  0  0  0  0
  -28.3907  -32.6837   25.0342 H   0  0  0  0  0  0
  -28.0707  -31.8469   26.5452 H   0  0  0  0  0  0
  -28.2585  -38.0088   24.7512 H   0  0  0  0  0  0
  -28.1078  -36.2618   24.6294 H   0  0  0  0  0  0
  -27.2294  -37.1436   25.8867 H   0  0  0  0  0  0
  -20.9457  -29.8763   21.6811 H   0  0  0  0  0  0
  -26.0157  -38.2820   24.1400 H   0  0  0  0  0  0
  -30.8727  -20.5912   21.4834 H   0  0  0  0  0  0
  -31.1579  -18.1615   21.8038 H   0  0  0  0  0  0
  -27.8311  -19.8354   18.5864 H   0  0  0  0  0  0
  -27.9903  -15.9332   16.8129 H   0  0  0  0  0  0
  -29.4842  -15.9759   17.7404 H   0  0  0  0  0  0
  -29.0250  -17.3566   16.7484 H   0  0  0  0  0  0
  -28.2266  -22.0819   18.8968 H   0  0  0  0  0  0
  -29.9290  -22.2917   18.9426 H   0  0  0  0  0  0
  -27.0173  -17.7469   18.2130 H   0  0  0  0  0  0
  -27.4486  -16.3998   19.2052 H   0  0  0  0  0  0
  -27.0264  -24.4973   19.9824 H   0  0  0  0  0  0
  -28.1944  -24.7081   18.7093 H   0  0  0  0  0  0
  -28.7688  -15.6412   20.8386 H   0  0  0  0  0  0
  1 25  1  0  0  0
  1 30  2  0  0  0
  1 82  1  0  0  0
  2  3  1  0  0  0
  2 25  1  0  0  0
  2 84  1  0  0  0
  2 85  1  0  0  0
  3  4  1  0  0  0
  3 86  1  0  0  0
  3 87  1  0  0  0
  4  5  1  0  0  0
  4 88  1  0  0  0
  4 89  1  0  0  0
  5  6  1  0  0  0
  5 26  1  0  0  0
  5 90  1  0  0  0
  6 25  1  0  0  0
  6 91  1  0  0  0
  6 92  1  0  0  0
  7  8  2  0  0  0
  7 26  1  0  0  0
  7 29  1  0  0  0
  8  9  1  0  0  0
  8 22  1  0  0  0
  9 10  1  0  0  0
  9 27  2  0  0  0
 10 11  2  0  0  0
 10 15  1  0  0  0
 11 12  1  0  0  0
 11 93  1  0  0  0
 12 13  2  0  0  0
 12 94  1  0  0  0
 13 14  1  0  0  0
 13 31  1  0  0  0
 14 15  2  0  0  0
 14 95  1  0  0  0
 15 96  1  0  0  0
 16 17  2  0  0  0
 16 21  1  0  0  0
 16 31  1  0  0  0
 17 18  1  0  0  0
 17 97  1  0  0  0
 18 19  2  0  0  0
 18 98  1  0  0  0
 19 20  1  0  0  0
 19 24  1  0  0  0
 20 21  2  0  0  0
 20 99  1  0  0  0
 21 23  1  0  0  0
 22 28  1  0  0  0
 22 32  2  0  0  0
 26 27  1  0  0  0
 28100  1  0  0  0
 28101  1  0  0  0
 29102  1  0  0  0
 29103  1  0  0  0
 33 34  1  0  0  0
 33 66  1  0  0  0
 33 70  2  0  0  0
 34 36  1  0  0  0
 34 59  1  0  0  0
 34104  1  0  0  0
 35 44  2  0  0  0
 35 45  1  0  0  0
 35 68  1  0  0  0
 36 56  1  0  0  0
 36105  1  0  0  0
 37 39  1  0  0  0
 37 47  1  0  0  0
 37 66  1  0  0  0
 37106  1  0  0  0
 38 43  2  0  0  0
 38 46  1  0  0  0
 38 47  1  0  0  0
 39 64  1  0  0  0
 39 67  2  0  0  0
 40 52  1  0  0  0
 40 53  2  0  0  0
 40 58  1  0  0  0
 41107  1  0  0  0
 41108  1  0  0  0
 41109  1  0  0  0
 41 48  1  0  0  0
 42 43  1  0  0  0
 42 66  1  0  0  0
 42110  1  0  0  0
 42111  1  0  0  0
 43 44  1  0  0  0
 44112  1  0  0  0
 45 46  2  0  0  0
 45113  1  0  0  0
 46114  1  0  0  0
 47115  1  0  0  0
 47116  1  0  0  0
 48 56  1  0  0  0
 48 65  1  0  0  0
 48117  1  0  0  0
 49 50  1  0  0  0
 49 53  1  0  0  0
 49 64  1  0  0  0
 49118  1  0  0  0
 50 51  1  0  0  0
 50119  1  0  0  0
 50120  1  0  0  0
 51 52  1  0  0  0
 51121  1  0  0  0
 51122  1  0  0  0
 52123  1  0  0  0
 52124  1  0  0  0
 53 54  1  0  0  0
 54 55  2  0  0  0
 54125  1  0  0  0
 55 57  1  0  0  0
 55126  1  0  0  0
 56 69  2  0  0  0
 57 58  2  0  0  0
 57127  1  0  0  0
 58128  1  0  0  0
 59 60  1  0  0  0
 59 61  1  0  0  0
 59 62  1  0  0  0
 60129  1  0  0  0
 60130  1  0  0  0
 60131  1  0  0  0
 61132  1  0  0  0
 61133  1  0  0  0
 61134  1  0  0  0
 62135  1  0  0  0
 62136  1  0  0  0
 62137  1  0  0  0
 63 65  1  0  0  0
 63138  1  0  0  0
 63139  1  0  0  0
 63140  1  0  0  0
 64141  1  0  0  0
 65142  1  0  0  0
 68 81  1  0  0  0
 71 72  2  0  0  0
 71 74  1  0  0  0
 71143  1  0  0  0
 72 76  1  0  0  0
 72144  1  0  0  0
 73 74  2  0  0  0
 73 75  1  0  0  0
 73145  1  0  0  0
 74 79  1  0  0  0
 75 76  2  0  0  0
 75 80  1  0  0  0
 76 82  1  0  0  0
 77 79  1  0  0  0
 77 81  1  0  0  0
 77 83  2  0  0  0
 78 80  1  0  0  0
 78146  1  0  0  0
 78147  1  0  0  0
 78148  1  0  0  0
 79149  1  0  0  0
 79150  1  0  0  0
 80151  1  0  0  0
 80152  1  0  0  0
 81153  1  0  0  0
 81154  1  0  0  0
 82155  1  0  0  0
M  ISO  4   1 100  68 101  81 101  82 100
M  END
> <chiral flag>
0

> <version>
0

> <s_m_source_file>
/data/baiqing/PycharmProjects/Reinvent-master-3.2/result/LINK_invent/BTK/process_docking_weight1_custom_product_contain_oxygen_bond_distance_aromatic_linkinvent_7_9_3/rearranged_h_0129.sdf

> <i_m_source_file_index>
52

> <r_mmod_Potential_Energy-OPLS-2005>
402.856903076172

> <r_mmod_Stretch_Energy-OPLS-2005>
192.450561523438

> <r_mmod_Bend_Energy-OPLS-2005>
250.660873413086

> <r_mmod_Torsional_Energy-OPLS-2005>
240.01579284668

> <r_mmod_Improper_Torsional_Energy-OPLS-2005>
6.96896600723267

> <r_mmod_Van_der_Waal_Energy-OPLS-2005>
125.99388885498

> <r_mmod_Electrostatic_Energy-OPLS-2005>
-331.827728271484

> <r_mmod_Solvation_Energy-OPLS-2005>
-235.352294921875

> <b_mmod_Minimization_Converged-OPLS-2005>
0

> <r_mmod_RMS_Derivative-OPLS-2005>
0.6465784907341

$$$$
52
                    3D
 Structure written by MMmdl.
153161  0  0  1  0            999 V2000
  -30.6317  -14.6114   20.6154 C   0  0  0  0  0  0
  -30.4380  -12.4263   19.4439 C   0  0  0  0  0  0
  -29.5041  -12.5462   18.2214 C   0  0  0  0  0  0
  -28.0239  -12.3788   18.6154 C   0  0  0  0  0  0
  -27.6483  -13.2213   19.8614 C   0  0  2  0  0  0
  -28.6770  -13.0276   20.9954 C   0  0  0  0  0  0
  -25.2535  -13.8202   20.5675 C   0  0  0  0  0  0
  -24.1794  -13.0452   20.9133 C   0  0  0  0  0  0
  -24.6343  -11.6935   20.8653 C   0  0  0  0  0  0
  -23.9023  -10.4333   21.0327 C   0  0  0  0  0  0
  -24.3594   -9.4245   21.9091 C   0  0  0  0  0  0
  -23.6339   -8.2246   22.0674 C   0  0  0  0  0  0
  -22.4300   -8.0265   21.3505 C   0  0  0  0  0  0
  -21.9922   -9.0222   20.4591 C   0  0  0  0  0  0
  -22.7180  -10.2127   20.2997 C   0  0  0  0  0  0
  -21.6859   -6.0753   22.5267 C   0  0  0  0  0  0
  -21.4035   -6.5626   23.8220 C   0  0  0  0  0  0
  -21.3687   -5.6767   24.9183 C   0  0  0  0  0  0
  -21.6058   -4.3037   24.7214 C   0  0  0  0  0  0
  -21.8821   -3.8149   23.4330 C   0  0  0  0  0  0
  -21.9202   -4.6985   22.3391 C   0  0  0  0  0  0
  -22.7795  -13.5261   21.1796 C   0  0  0  0  0  0
  -22.1661   -4.2168   21.0960 F   0  0  0  0  0  0
  -21.5630   -3.4493   25.7726 F   0  0  0  0  0  0
  -29.9987  -13.4022   20.4654 N   0  0  0  0  0  0
  -26.2930  -12.9399   20.3219 N   0  0  0  0  0  0
  -25.9252  -11.6560   20.5600 N   0  0  0  0  0  0
  -22.0456  -12.8316   22.0421 N   0  0  0  0  0  0
  -25.4258  -15.1911   20.4208 N   0  0  0  0  0  0
  -31.7266  -14.8073   20.0745 O   0  0  0  0  0  0
  -21.6671   -6.8845   21.4215 O   0  0  0  0  0  0
  -22.3478  -14.5571   20.6602 O   0  0  0  0  0  0
  -24.6231  -31.8639   23.2031 C   0  0  0  0  0  0
  -25.9105  -32.4764   23.8375 C   0  0  1  0  0  0
  -27.2123  -27.3653   20.1197 C   0  0  0  0  0  0
  -25.5924  -33.8551   24.2303 N   0  0  0  0  0  0
  -23.4086  -30.4987   21.5385 C   0  0  2  0  0  0
  -24.8564  -28.9626   20.0991 C   0  0  0  0  0  0
  -22.7396  -29.4699   22.4821 C   0  0  0  0  0  0
  -18.0288  -28.1361   22.8453 C   0  0  0  0  0  0
  -24.1486  -36.7331   23.2626 C   0  0  0  0  0  0
  -25.9455  -30.8174   21.3632 C   0  0  0  0  0  0
  -26.0210  -29.4502   20.7034 C   0  0  0  0  0  0
  -27.2036  -28.6607   20.7069 C   0  0  0  0  0  0
  -26.0339  -26.9278   19.4739 C   0  0  0  0  0  0
  -24.8623  -27.7062   19.4748 C   0  0  0  0  0  0
  -23.6231  -29.8398   20.1498 C   0  0  0  0  0  0
  -25.4076  -36.3049   24.0337 C   0  0  1  0  0  0
  -20.5877  -28.3685   23.1218 C   0  0  2  0  0  0
  -20.6755  -26.9395   22.5342 C   0  0  0  0  0  0
  -19.5754  -26.6356   21.5127 C   0  0  0  0  0  0
  -18.1946  -26.7914   22.1569 C   0  0  0  0  0  0
  -19.1536  -28.8818   23.2873 C   0  0  0  0  0  0
  -18.9470  -30.1406   23.8906 C   0  0  0  0  0  0
  -17.6480  -30.6559   24.0538 C   0  0  0  0  0  0
  -25.9019  -34.9438   23.5109 C   0  0  0  0  0  0
  -16.5366  -29.9060   23.6291 C   0  0  0  0  0  0
  -16.7280  -28.6478   23.0310 C   0  0  0  0  0  0
  -26.4535  -31.6555   25.0733 C   0  0  0  0  0  0
  -25.3823  -31.3679   26.1508 C   0  0  0  0  0  0
  -27.0351  -30.2967   24.6142 C   0  0  0  0  0  0
  -27.6078  -32.4275   25.7533 C   0  0  0  0  0  0
  -27.5574  -37.1778   24.8425 C   0  0  0  0  0  0
  -21.4113  -29.3095   22.3598 N   0  0  0  0  0  0
  -26.4230  -37.3764   23.9452 N   0  0  0  0  0  0
  -24.6772  -31.0739   22.0928 N   0  0  0  0  0  0
  -23.4168  -28.8197   23.2841 O   0  0  0  0  0  0
  -28.3333  -26.5428   20.2041 O   0  0  0  0  0  0
  -26.5543  -34.8913   22.4635 O   0  0  0  0  0  0
  -23.5423  -32.1359   23.7422 O   0  0  0  0  0  0
  -28.8112  -19.7351   23.3176 C   0  0  0  0  0  0
  -29.0193  -18.3312   23.1337 C   0  0  0  0  0  0
  -29.1481  -20.3933   22.1702 C   0  0  0  0  0  0
  -29.5096  -18.1811   21.8557 C   0  0  0  0  0  0
  -29.1477  -21.8433   21.9149 C   0  0  0  0  0  0
  -29.9999  -17.0047   21.1185 C   0  0  0  0  0  0
  -29.9564  -15.6684   21.4186 C   0  0  0  0  0  0
  -29.0330  -22.6759   20.8427 C   0  0  0  0  0  0
  -28.7881  -17.2738   24.1818 C   0  0  0  0  0  0
  -29.1830  -24.2315   20.8970 C   0  0  0  0  0  0
  -28.1258  -25.0945   20.1295 C   0  0  0  0  0  0
  -29.5432  -19.4398   21.2444 O   0  0  0  0  0  0
  -31.4667  -12.6029   19.1272 H   0  0  0  0  0  0
  -30.4305  -11.4129   19.8491 H   0  0  0  0  0  0
  -29.7811  -11.8033   17.4728 H   0  0  0  0  0  0
  -29.6328  -13.5236   17.7490 H   0  0  0  0  0  0
  -27.8473  -11.3202   18.8087 H   0  0  0  0  0  0
  -27.3875  -12.6446   17.7690 H   0  0  0  0  0  0
  -27.6899  -14.2676   19.5496 H   0  0  0  0  0  0
  -28.6889  -11.9898   21.3386 H   0  0  0  0  0  0
  -28.3834  -13.6036   21.8716 H   0  0  0  0  0  0
  -25.2729   -9.5813   22.4621 H   0  0  0  0  0  0
  -24.0079   -7.4708   22.7420 H   0  0  0  0  0  0
  -21.0823   -8.8717   19.8957 H   0  0  0  0  0  0
  -22.3559  -10.9648   19.6118 H   0  0  0  0  0  0
  -21.2016   -7.6136   23.9738 H   0  0  0  0  0  0
  -21.1482   -6.0479   25.9078 H   0  0  0  0  0  0
  -22.0575   -2.7611   23.2801 H   0  0  0  0  0  0
  -22.4129  -12.0135   22.5039 H   0  0  0  0  0  0
  -21.1001  -13.1252   22.2462 H   0  0  0  0  0  0
  -24.6646  -15.8502   20.5499 H   0  0  0  0  0  0
  -26.2909  -15.6297   20.1343 H   0  0  0  0  0  0
  -26.7164  -32.5494   23.1153 H   0  0  0  0  0  0
  -25.0126  -33.9648   25.0474 H   0  0  0  0  0  0
  -22.7066  -31.3223   21.3981 H   0  0  0  0  0  0
  -23.3719  -35.9682   23.3188 H   0  0  0  0  0  0
  -24.3638  -36.9040   22.2060 H   0  0  0  0  0  0
  -23.7270  -37.6518   23.6718 H   0  0  0  0  0  0
  -26.0605  -31.5915   20.6019 H   0  0  0  0  0  0
  -26.8309  -30.8701   21.9819 H   0  0  0  0  0  0
  -28.0936  -29.0249   21.1989 H   0  0  0  0  0  0
  -25.9932  -25.9734   18.9688 H   0  0  0  0  0  0
  -23.9743  -27.3305   18.9885 H   0  0  0  0  0  0
  -23.7302  -30.6199   19.3936 H   0  0  0  0  0  0
  -22.7467  -29.2675   19.8452 H   0  0  0  0  0  0
  -25.1242  -36.1877   25.0824 H   0  0  0  0  0  0
  -21.0051  -28.3292   24.1306 H   0  0  0  0  0  0
  -20.5529  -26.2319   23.3553 H   0  0  0  0  0  0
  -21.6653  -26.7332   22.1234 H   0  0  0  0  0  0
  -19.6902  -25.6246   21.1188 H   0  0  0  0  0  0
  -19.6709  -27.3119   20.6626 H   0  0  0  0  0  0
  -17.4180  -26.6584   21.4009 H   0  0  0  0  0  0
  -18.0432  -26.0052   22.8979 H   0  0  0  0  0  0
  -19.7951  -30.7182   24.2314 H   0  0  0  0  0  0
  -17.5042  -31.6249   24.5131 H   0  0  0  0  0  0
  -15.5369  -30.2974   23.7586 H   0  0  0  0  0  0
  -15.8685  -28.0798   22.7016 H   0  0  0  0  0  0
  -24.5997  -30.6997   25.7938 H   0  0  0  0  0  0
  -24.9028  -32.2825   26.4993 H   0  0  0  0  0  0
  -25.8237  -30.8883   27.0250 H   0  0  0  0  0  0
  -26.2882  -29.6715   24.1228 H   0  0  0  0  0  0
  -27.4110  -29.7258   25.4653 H   0  0  0  0  0  0
  -27.8763  -30.4250   23.9312 H   0  0  0  0  0  0
  -27.2673  -33.3560   26.2142 H   0  0  0  0  0  0
  -28.3936  -32.6830   25.0411 H   0  0  0  0  0  0
  -28.0716  -31.8368   26.5446 H   0  0  0  0  0  0
  -28.2463  -38.0192   24.7566 H   0  0  0  0  0  0
  -28.1181  -36.2712   24.6081 H   0  0  0  0  0  0
  -27.2332  -37.1252   25.8830 H   0  0  0  0  0  0
  -20.9171  -29.8979   21.7015 H   0  0  0  0  0  0
  -26.0100  -38.2815   24.1508 H   0  0  0  0  0  0
  -28.4766  -20.2126   24.2312 H   0  0  0  0  0  0
  -29.3169  -22.3793   22.8375 H   0  0  0  0  0  0
  -30.5029  -17.2689   20.1978 H   0  0  0  0  0  0
  -29.4408  -15.3733   22.3174 H   0  0  0  0  0  0
  -28.8515  -22.2438   19.8681 H   0  0  0  0  0  0
  -28.7401  -17.7060   25.1835 H   0  0  0  0  0  0
  -29.6069  -16.5546   24.1862 H   0  0  0  0  0  0
  -27.8519  -16.7473   23.9884 H   0  0  0  0  0  0
  -30.1644  -24.4807   20.4880 H   0  0  0  0  0  0
  -29.1989  -24.5513   21.9429 H   0  0  0  0  0  0
  -27.1463  -24.8111   20.5230 H   0  0  0  0  0  0
  -28.1349  -24.8072   19.0781 H   0  0  0  0  0  0
  1 25  1  0  0  0
  1 30  2  0  0  0
  1 77  1  0  0  0
  2  3  1  0  0  0
  2 25  1  0  0  0
  2 83  1  0  0  0
  2 84  1  0  0  0
  3  4  1  0  0  0
  3 85  1  0  0  0
  3 86  1  0  0  0
  4  5  1  0  0  0
  4 87  1  0  0  0
  4 88  1  0  0  0
  5  6  1  0  0  0
  5 26  1  0  0  0
  5 89  1  0  0  0
  6 25  1  0  0  0
  6 90  1  0  0  0
  6 91  1  0  0  0
  7  8  2  0  0  0
  7 26  1  0  0  0
  7 29  1  0  0  0
  8  9  1  0  0  0
  8 22  1  0  0  0
  9 10  1  0  0  0
  9 27  2  0  0  0
 10 11  2  0  0  0
 10 15  1  0  0  0
 11 12  1  0  0  0
 11 92  1  0  0  0
 12 13  2  0  0  0
 12 93  1  0  0  0
 13 14  1  0  0  0
 13 31  1  0  0  0
 14 15  2  0  0  0
 14 94  1  0  0  0
 15 95  1  0  0  0
 16 17  2  0  0  0
 16 21  1  0  0  0
 16 31  1  0  0  0
 17 18  1  0  0  0
 17 96  1  0  0  0
 18 19  2  0  0  0
 18 97  1  0  0  0
 19 20  1  0  0  0
 19 24  1  0  0  0
 20 21  2  0  0  0
 20 98  1  0  0  0
 21 23  1  0  0  0
 22 28  1  0  0  0
 22 32  2  0  0  0
 26 27  1  0  0  0
 28 99  1  0  0  0
 28100  1  0  0  0
 29101  1  0  0  0
 29102  1  0  0  0
 33 34  1  0  0  0
 33 66  1  0  0  0
 33 70  2  0  0  0
 34 36  1  0  0  0
 34 59  1  0  0  0
 34103  1  0  0  0
 35 44  2  0  0  0
 35 45  1  0  0  0
 35 68  1  0  0  0
 36 56  1  0  0  0
 36104  1  0  0  0
 37 39  1  0  0  0
 37 47  1  0  0  0
 37 66  1  0  0  0
 37105  1  0  0  0
 38 43  2  0  0  0
 38 46  1  0  0  0
 38 47  1  0  0  0
 39 64  1  0  0  0
 39 67  2  0  0  0
 40 52  1  0  0  0
 40 53  2  0  0  0
 40 58  1  0  0  0
 41106  1  0  0  0
 41107  1  0  0  0
 41108  1  0  0  0
 41 48  1  0  0  0
 42 43  1  0  0  0
 42 66  1  0  0  0
 42109  1  0  0  0
 42110  1  0  0  0
 43 44  1  0  0  0
 44111  1  0  0  0
 45 46  2  0  0  0
 45112  1  0  0  0
 46113  1  0  0  0
 47114  1  0  0  0
 47115  1  0  0  0
 48 56  1  0  0  0
 48 65  1  0  0  0
 48116  1  0  0  0
 49 50  1  0  0  0
 49 53  1  0  0  0
 49 64  1  0  0  0
 49117  1  0  0  0
 50 51  1  0  0  0
 50118  1  0  0  0
 50119  1  0  0  0
 51 52  1  0  0  0
 51120  1  0  0  0
 51121  1  0  0  0
 52122  1  0  0  0
 52123  1  0  0  0
 53 54  1  0  0  0
 54 55  2  0  0  0
 54124  1  0  0  0
 55 57  1  0  0  0
 55125  1  0  0  0
 56 69  2  0  0  0
 57 58  2  0  0  0
 57126  1  0  0  0
 58127  1  0  0  0
 59 60  1  0  0  0
 59 61  1  0  0  0
 59 62  1  0  0  0
 60128  1  0  0  0
 60129  1  0  0  0
 60130  1  0  0  0
 61131  1  0  0  0
 61132  1  0  0  0
 61133  1  0  0  0
 62134  1  0  0  0
 62135  1  0  0  0
 62136  1  0  0  0
 63 65  1  0  0  0
 63137  1  0  0  0
 63138  1  0  0  0
 63139  1  0  0  0
 64140  1  0  0  0
 65141  1  0  0  0
 68 81  1  0  0  0
 71 72  1  0  0  0
 71 73  2  0  0  0
 71142  1  0  0  0
 72 74  2  0  0  0
 72 79  1  0  0  0
 73 75  1  0  0  0
 73 82  1  0  0  0
 74 76  1  0  0  0
 74 82  1  0  0  0
 75 78  2  0  0  0
 75143  1  0  0  0
 76 77  2  0  0  0
 76144  1  0  0  0
 77145  1  0  0  0
 78 80  1  0  0  0
 78146  1  0  0  0
 79147  1  0  0  0
 79148  1  0  0  0
 79149  1  0  0  0
 80 81  1  0  0  0
 80150  1  0  0  0
 80151  1  0  0  0
 81152  1  0  0  0
 81153  1  0  0  0
M  ISO  4   1 100  68 101  77 100  81 101
M  END
> <chiral flag>
0

> <version>
0

> <s_m_source_file>
/data/baiqing/PycharmProjects/Reinvent-master-3.2/result/LINK_invent/BTK/process_docking_weight1_custom_product_contain_oxygen_bond_distance_aromatic_linkinvent_7_9_3/rearranged_h_0129.sdf

> <i_m_source_file_index>
53

> <r_mmod_Potential_Energy-OPLS-2005>
4.92399740219116

> <r_mmod_Stretch_Energy-OPLS-2005>
62.1364936828613

> <r_mmod_Bend_Energy-OPLS-2005>
125.907081604004

> <r_mmod_Torsional_Energy-OPLS-2005>
186.412139892578

> <r_mmod_Improper_Torsional_Energy-OPLS-2005>
2.64130091667175

> <r_mmod_Van_der_Waal_Energy-OPLS-2005>
127.037933349609

> <r_mmod_Electrostatic_Energy-OPLS-2005>
-341.992156982422

> <r_mmod_Solvation_Energy-OPLS-2005>
-195.531311035156

> <b_mmod_Minimization_Converged-OPLS-2005>
0

> <r_mmod_RMS_Derivative-OPLS-2005>
7.51988315582275

$$$$
53
                    3D
 Structure written by MMmdl.
158166  0  0  1  0            999 V2000
  -30.7899  -14.4259   20.5451 C   0  0  0  0  0  0
  -30.3950  -12.2698   19.4419 C   0  0  0  0  0  0
  -29.4929  -12.4922   18.2138 C   0  0  0  0  0  0
  -28.0110  -12.3749   18.6189 C   0  0  0  0  0  0
  -27.6572  -13.2234   19.8704 C   0  0  2  0  0  0
  -28.6997  -13.0562   20.9983 C   0  0  0  0  0  0
  -25.2570  -13.8199   20.5723 C   0  0  0  0  0  0
  -24.1823  -13.0467   20.9195 C   0  0  0  0  0  0
  -24.6383  -11.6931   20.8728 C   0  0  0  0  0  0
  -23.9044  -10.4303   21.0394 C   0  0  0  0  0  0
  -24.3591   -9.4223   21.9178 C   0  0  0  0  0  0
  -23.6286   -8.2246   22.0749 C   0  0  0  0  0  0
  -22.4271   -8.0273   21.3537 C   0  0  0  0  0  0
  -21.9898   -9.0246   20.4654 C   0  0  0  0  0  0
  -22.7211  -10.2137   20.3053 C   0  0  0  0  0  0
  -21.6853   -6.0717   22.5277 C   0  0  0  0  0  0
  -21.4013   -6.5618   23.8214 C   0  0  0  0  0  0
  -21.3673   -5.6764   24.9175 C   0  0  0  0  0  0
  -21.6057   -4.3022   24.7208 C   0  0  0  0  0  0
  -21.8820   -3.8127   23.4322 C   0  0  0  0  0  0
  -21.9199   -4.6952   22.3391 C   0  0  0  0  0  0
  -22.7853  -13.5276   21.1847 C   0  0  0  0  0  0
  -22.1674   -4.2150   21.0967 F   0  0  0  0  0  0
  -21.5639   -3.4506   25.7711 F   0  0  0  0  0  0
  -30.0364  -13.2965   20.4358 N   0  0  0  0  0  0
  -26.3013  -12.9401   20.3381 N   0  0  0  0  0  0
  -25.9318  -11.6536   20.5744 N   0  0  0  0  0  0
  -22.0458  -12.8297   22.0391 N   0  0  0  0  0  0
  -25.4260  -15.1930   20.4156 N   0  0  0  0  0  0
  -31.9474  -14.4628   20.1223 O   0  0  0  0  0  0
  -21.6629   -6.8879   21.4243 O   0  0  0  0  0  0
  -22.3571  -14.5588   20.6699 O   0  0  0  0  0  0
  -24.6122  -31.8694   23.2118 C   0  0  0  0  0  0
  -25.9015  -32.4827   23.8411 C   0  0  1  0  0  0
  -27.2342  -27.4532   20.0993 C   0  0  0  0  0  0
  -25.5884  -33.8629   24.2351 N   0  0  0  0  0  0
  -23.4005  -30.4942   21.5503 C   0  0  2  0  0  0
  -24.8497  -28.9636   20.1137 C   0  0  0  0  0  0
  -22.7396  -29.4666   22.4970 C   0  0  0  0  0  0
  -18.0257  -28.1390   22.8510 C   0  0  0  0  0  0
  -24.1487  -36.7322   23.2640 C   0  0  0  0  0  0
  -25.9290  -30.8420   21.3626 C   0  0  0  0  0  0
  -26.0091  -29.4793   20.7086 C   0  0  0  0  0  0
  -27.2082  -28.7327   20.6962 C   0  0  0  0  0  0
  -26.0642  -26.9513   19.4931 C   0  0  0  0  0  0
  -24.8715  -27.6975   19.5015 C   0  0  0  0  0  0
  -23.6101  -29.8263   20.1644 C   0  0  0  0  0  0
  -25.4099  -36.3111   24.0345 C   0  0  1  0  0  0
  -20.5854  -28.3667   23.1323 C   0  0  2  0  0  0
  -20.6738  -26.9397   22.5419 C   0  0  0  0  0  0
  -19.5709  -26.6380   21.5226 C   0  0  0  0  0  0
  -18.1893  -26.7935   22.1641 C   0  0  0  0  0  0
  -19.1514  -28.8839   23.2922 C   0  0  0  0  0  0
  -18.9446  -30.1453   23.8911 C   0  0  0  0  0  0
  -17.6452  -30.6603   24.0554 C   0  0  0  0  0  0
  -25.9019  -34.9479   23.5146 C   0  0  0  0  0  0
  -16.5336  -29.9098   23.6334 C   0  0  0  0  0  0
  -16.7250  -28.6519   23.0356 C   0  0  0  0  0  0
  -26.4461  -31.6599   25.0736 C   0  0  0  0  0  0
  -25.3763  -31.3736   26.1530 C   0  0  0  0  0  0
  -27.0230  -30.3017   24.6098 C   0  0  0  0  0  0
  -27.6073  -32.4293   25.7468 C   0  0  0  0  0  0
  -27.5588  -37.1817   24.8462 C   0  0  0  0  0  0
  -21.4122  -29.3058   22.3742 N   0  0  0  0  0  0
  -26.4287  -37.3797   23.9414 N   0  0  0  0  0  0
  -24.6658  -31.0813   22.1004 N   0  0  0  0  0  0
  -23.4188  -28.8169   23.2964 O   0  0  0  0  0  0
  -28.3734  -26.6862   20.1204 O   0  0  0  0  0  0
  -26.5581  -34.8925   22.4704 O   0  0  0  0  0  0
  -23.5313  -32.1419   23.7522 O   0  0  0  0  0  0
  -31.3613  -18.9401   22.2918 C   0  0  0  0  0  0
  -31.2867  -20.3414   22.1948 C   0  0  0  0  0  0
  -29.7128  -18.7357   20.5240 C   0  0  0  0  0  0
  -30.6146  -18.1269   21.4190 C   0  0  0  0  0  0
  -30.4645  -20.9656   21.2271 C   0  0  0  0  0  0
  -29.6455  -20.1441   20.3955 C   0  0  0  0  0  0
  -30.9244  -16.6927   21.3302 C   0  0  0  0  0  0
  -30.1331  -15.6759   20.9151 C   0  0  0  0  0  0
  -29.3994  -23.2930   21.1445 C   0  0  0  0  0  0
  -29.4412  -24.6202   20.8927 C   0  0  0  0  0  0
  -30.6105  -22.4513   21.0967 C   0  0  0  0  0  0
  -29.6183  -21.0489   18.0198 C   0  0  0  0  0  0
  -28.7857  -20.6921   19.2591 C   0  0  0  0  0  0
  -28.2356  -25.5359   20.9620 C   0  0  0  0  0  0
  -31.7375  -22.9545   21.0152 O   0  0  0  0  0  0
  -31.4447  -12.2974   19.1457 H   0  0  0  0  0  0
  -30.2332  -11.2719   19.8531 H   0  0  0  0  0  0
  -29.7275  -11.7653   17.4356 H   0  0  0  0  0  0
  -29.6870  -13.4773   17.7849 H   0  0  0  0  0  0
  -27.8046  -11.3217   18.8122 H   0  0  0  0  0  0
  -27.3696  -12.6618   17.7837 H   0  0  0  0  0  0
  -27.6881  -14.2667   19.5542 H   0  0  0  0  0  0
  -28.6516  -12.0496   21.4169 H   0  0  0  0  0  0
  -28.4822  -13.7304   21.8266 H   0  0  0  0  0  0
  -25.2728   -9.5720   22.4752 H   0  0  0  0  0  0
  -24.0019   -7.4622   22.7442 H   0  0  0  0  0  0
  -21.0839   -8.8747   19.8942 H   0  0  0  0  0  0
  -22.3664  -10.9660   19.6155 H   0  0  0  0  0  0
  -21.1982   -7.6115   23.9723 H   0  0  0  0  0  0
  -21.1520   -6.0475   25.9091 H   0  0  0  0  0  0
  -22.0589   -2.7585   23.2787 H   0  0  0  0  0  0
  -22.4032  -11.9962   22.4814 H   0  0  0  0  0  0
  -21.1084  -13.1398   22.2547 H   0  0  0  0  0  0
  -24.6561  -15.8439   20.5224 H   0  0  0  0  0  0
  -26.2805  -15.6376   20.1055 H   0  0  0  0  0  0
  -26.7092  -32.5552   23.1186 H   0  0  0  0  0  0
  -25.0026  -33.9782   25.0489 H   0  0  0  0  0  0
  -22.6895  -31.3115   21.4110 H   0  0  0  0  0  0
  -23.3763  -35.9641   23.3261 H   0  0  0  0  0  0
  -24.3598  -36.8975   22.2065 H   0  0  0  0  0  0
  -23.7218  -37.6507   23.6680 H   0  0  0  0  0  0
  -26.0406  -31.6118   20.5971 H   0  0  0  0  0  0
  -26.8158  -30.8937   21.9820 H   0  0  0  0  0  0
  -28.1042  -29.1253   21.1576 H   0  0  0  0  0  0
  -26.0769  -25.9809   19.0168 H   0  0  0  0  0  0
  -23.9807  -27.2967   19.0374 H   0  0  0  0  0  0
  -23.7160  -30.6009   19.4037 H   0  0  0  0  0  0
  -22.7365  -29.2414   19.8703 H   0  0  0  0  0  0
  -25.1273  -36.1977   25.0837 H   0  0  0  0  0  0
  -20.9965  -28.3224   24.1438 H   0  0  0  0  0  0
  -20.5654  -26.2263   23.3609 H   0  0  0  0  0  0
  -21.6605  -26.7433   22.1208 H   0  0  0  0  0  0
  -19.6851  -25.6287   21.1269 H   0  0  0  0  0  0
  -19.6653  -27.3178   20.6747 H   0  0  0  0  0  0
  -17.4166  -26.6710   21.4039 H   0  0  0  0  0  0
  -18.0274  -26.0073   22.9033 H   0  0  0  0  0  0
  -19.7921  -30.7272   24.2285 H   0  0  0  0  0  0
  -17.5006  -31.6296   24.5134 H   0  0  0  0  0  0
  -15.5337  -30.3007   23.7652 H   0  0  0  0  0  0
  -15.8651  -28.0844   22.7052 H   0  0  0  0  0  0
  -24.5753  -30.7323   25.7849 H   0  0  0  0  0  0
  -24.9200  -32.2932   26.5211 H   0  0  0  0  0  0
  -25.8105  -30.8655   27.0153 H   0  0  0  0  0  0
  -26.2730  -29.6819   24.1177 H   0  0  0  0  0  0
  -27.3988  -29.7225   25.4542 H   0  0  0  0  0  0
  -27.8599  -30.4289   23.9224 H   0  0  0  0  0  0
  -27.2737  -33.3611   26.2053 H   0  0  0  0  0  0
  -28.3881  -32.6823   25.0284 H   0  0  0  0  0  0
  -28.0746  -31.8406   26.5374 H   0  0  0  0  0  0
  -28.2601  -38.0118   24.7502 H   0  0  0  0  0  0
  -28.1084  -36.2649   24.6281 H   0  0  0  0  0  0
  -27.2319  -37.1467   25.8867 H   0  0  0  0  0  0
  -20.9247  -29.8845   21.7046 H   0  0  0  0  0  0
  -26.0180  -38.2882   24.1395 H   0  0  0  0  0  0
  -32.0598  -18.4978   22.9896 H   0  0  0  0  0  0
  -31.9177  -20.9420   22.8377 H   0  0  0  0  0  0
  -29.1563  -18.1135   19.8358 H   0  0  0  0  0  0
  -31.9689  -16.4803   21.5273 H   0  0  0  0  0  0
  -29.0738  -15.8162   20.7629 H   0  0  0  0  0  0
  -28.4675  -22.8160   21.4085 H   0  0  0  0  0  0
  -30.3802  -25.0958   20.6422 H   0  0  0  0  0  0
  -28.9741  -21.3989   17.2129 H   0  0  0  0  0  0
  -30.1679  -20.1817   17.6532 H   0  0  0  0  0  0
  -30.3417  -21.8355   18.2310 H   0  0  0  0  0  0
  -28.1934  -21.5454   19.5805 H   0  0  0  0  0  0
  -28.0489  -19.9384   18.9765 H   0  0  0  0  0  0
  -28.1263  -25.8673   21.9961 H   0  0  0  0  0  0
  -27.3466  -24.9509   20.7209 H   0  0  0  0  0  0
  1 25  1  0  0  0
  1 30  2  0  0  0
  1 78  1  0  0  0
  2  3  1  0  0  0
  2 25  1  0  0  0
  2 86  1  0  0  0
  2 87  1  0  0  0
  3  4  1  0  0  0
  3 88  1  0  0  0
  3 89  1  0  0  0
  4  5  1  0  0  0
  4 90  1  0  0  0
  4 91  1  0  0  0
  5  6  1  0  0  0
  5 26  1  0  0  0
  5 92  1  0  0  0
  6 25  1  0  0  0
  6 93  1  0  0  0
  6 94  1  0  0  0
  7  8  2  0  0  0
  7 26  1  0  0  0
  7 29  1  0  0  0
  8  9  1  0  0  0
  8 22  1  0  0  0
  9 10  1  0  0  0
  9 27  2  0  0  0
 10 11  2  0  0  0
 10 15  1  0  0  0
 11 12  1  0  0  0
 11 95  1  0  0  0
 12 13  2  0  0  0
 12 96  1  0  0  0
 13 14  1  0  0  0
 13 31  1  0  0  0
 14 15  2  0  0  0
 14 97  1  0  0  0
 15 98  1  0  0  0
 16 17  2  0  0  0
 16 21  1  0  0  0
 16 31  1  0  0  0
 17 18  1  0  0  0
 17 99  1  0  0  0
 18 19  2  0  0  0
 18100  1  0  0  0
 19 20  1  0  0  0
 19 24  1  0  0  0
 20 21  2  0  0  0
 20101  1  0  0  0
 21 23  1  0  0  0
 22 28  1  0  0  0
 22 32  2  0  0  0
 26 27  1  0  0  0
 28102  1  0  0  0
 28103  1  0  0  0
 29104  1  0  0  0
 29105  1  0  0  0
 33 34  1  0  0  0
 33 66  1  0  0  0
 33 70  2  0  0  0
 34 36  1  0  0  0
 34 59  1  0  0  0
 34106  1  0  0  0
 35 44  2  0  0  0
 35 45  1  0  0  0
 35 68  1  0  0  0
 36 56  1  0  0  0
 36107  1  0  0  0
 37 39  1  0  0  0
 37 47  1  0  0  0
 37 66  1  0  0  0
 37108  1  0  0  0
 38 43  2  0  0  0
 38 46  1  0  0  0
 38 47  1  0  0  0
 39 64  1  0  0  0
 39 67  2  0  0  0
 40 52  1  0  0  0
 40 53  2  0  0  0
 40 58  1  0  0  0
 41109  1  0  0  0
 41110  1  0  0  0
 41111  1  0  0  0
 41 48  1  0  0  0
 42 43  1  0  0  0
 42 66  1  0  0  0
 42112  1  0  0  0
 42113  1  0  0  0
 43 44  1  0  0  0
 44114  1  0  0  0
 45 46  2  0  0  0
 45115  1  0  0  0
 46116  1  0  0  0
 47117  1  0  0  0
 47118  1  0  0  0
 48 56  1  0  0  0
 48 65  1  0  0  0
 48119  1  0  0  0
 49 50  1  0  0  0
 49 53  1  0  0  0
 49 64  1  0  0  0
 49120  1  0  0  0
 50 51  1  0  0  0
 50121  1  0  0  0
 50122  1  0  0  0
 51 52  1  0  0  0
 51123  1  0  0  0
 51124  1  0  0  0
 52125  1  0  0  0
 52126  1  0  0  0
 53 54  1  0  0  0
 54 55  2  0  0  0
 54127  1  0  0  0
 55 57  1  0  0  0
 55128  1  0  0  0
 56 69  2  0  0  0
 57 58  2  0  0  0
 57129  1  0  0  0
 58130  1  0  0  0
 59 60  1  0  0  0
 59 61  1  0  0  0
 59 62  1  0  0  0
 60131  1  0  0  0
 60132  1  0  0  0
 60133  1  0  0  0
 61134  1  0  0  0
 61135  1  0  0  0
 61136  1  0  0  0
 62137  1  0  0  0
 62138  1  0  0  0
 62139  1  0  0  0
 63 65  1  0  0  0
 63140  1  0  0  0
 63141  1  0  0  0
 63142  1  0  0  0
 64143  1  0  0  0
 65144  1  0  0  0
 68 84  1  0  0  0
 71 72  2  0  0  0
 71 74  1  0  0  0
 71145  1  0  0  0
 72 75  1  0  0  0
 72146  1  0  0  0
 73 74  2  0  0  0
 73 76  1  0  0  0
 73147  1  0  0  0
 74 77  1  0  0  0
 75 76  2  0  0  0
 75 81  1  0  0  0
 76 83  1  0  0  0
 77 78  2  0  0  0
 77148  1  0  0  0
 78149  1  0  0  0
 79 80  2  0  0  0
 79 81  1  0  0  0
 79150  1  0  0  0
 80 84  1  0  0  0
 80151  1  0  0  0
 81 85  2  0  0  0
 82 83  1  0  0  0
 82152  1  0  0  0
 82153  1  0  0  0
 82154  1  0  0  0
 83155  1  0  0  0
 83156  1  0  0  0
 84157  1  0  0  0
 84158  1  0  0  0
M  ISO  4   1 100  68 101  78 100  84 101
M  END
> <chiral flag>
0

> <version>
0

> <s_m_source_file>
/data/baiqing/PycharmProjects/Reinvent-master-3.2/result/LINK_invent/BTK/process_docking_weight1_custom_product_contain_oxygen_bond_distance_aromatic_linkinvent_7_9_3/rearranged_h_0129.sdf

> <i_m_source_file_index>
54

> <r_mmod_Potential_Energy-OPLS-2005>
41.2466163635254

> <r_mmod_Stretch_Energy-OPLS-2005>
35.9375648498535

> <r_mmod_Bend_Energy-OPLS-2005>
100.932968139648

> <r_mmod_Torsional_Energy-OPLS-2005>
244.605651855469

> <r_mmod_Improper_Torsional_Energy-OPLS-2005>
11.0343151092529

> <r_mmod_Van_der_Waal_Energy-OPLS-2005>
159.517654418945

> <r_mmod_Electrostatic_Energy-OPLS-2005>
-327.918609619141

> <r_mmod_Solvation_Energy-OPLS-2005>
-202.704528808594

> <b_mmod_Minimization_Converged-OPLS-2005>
0

> <r_mmod_RMS_Derivative-OPLS-2005>
2.65369343757629

$$$$
54
                    3D
 Structure written by MMmdl.
155163  0  0  1  0            999 V2000
  -30.6646  -14.5670   20.5861 C   0  0  0  0  0  0
  -30.4377  -12.3720   19.4311 C   0  0  0  0  0  0
  -29.5028  -12.5269   18.2106 C   0  0  0  0  0  0
  -28.0238  -12.3667   18.6171 C   0  0  0  0  0  0
  -27.6624  -13.2048   19.8719 C   0  0  2  0  0  0
  -28.7031  -12.9880   20.9887 C   0  0  0  0  0  0
  -25.2615  -13.8137   20.5658 C   0  0  0  0  0  0
  -24.1857  -13.0433   20.9136 C   0  0  0  0  0  0
  -24.6404  -11.6897   20.8707 C   0  0  0  0  0  0
  -23.9063  -10.4296   21.0394 C   0  0  0  0  0  0
  -24.3621   -9.4213   21.9173 C   0  0  0  0  0  0
  -23.6289   -8.2254   22.0761 C   0  0  0  0  0  0
  -22.4268   -8.0294   21.3549 C   0  0  0  0  0  0
  -21.9901   -9.0265   20.4647 C   0  0  0  0  0  0
  -22.7231  -10.2141   20.3048 C   0  0  0  0  0  0
  -21.6862   -6.0735   22.5279 C   0  0  0  0  0  0
  -21.4014   -6.5638   23.8210 C   0  0  0  0  0  0
  -21.3662   -5.6791   24.9176 C   0  0  0  0  0  0
  -21.6044   -4.3054   24.7225 C   0  0  0  0  0  0
  -21.8821   -3.8143   23.4349 C   0  0  0  0  0  0
  -21.9195   -4.6961   22.3402 C   0  0  0  0  0  0
  -22.7887  -13.5263   21.1807 C   0  0  0  0  0  0
  -22.1666   -4.2144   21.0981 F   0  0  0  0  0  0
  -21.5629   -3.4542   25.7741 F   0  0  0  0  0  0
  -30.0253  -13.3596   20.4493 N   0  0  0  0  0  0
  -26.3042  -12.9297   20.3332 N   0  0  0  0  0  0
  -25.9333  -11.6462   20.5728 N   0  0  0  0  0  0
  -22.0528  -12.8274   22.0369 N   0  0  0  0  0  0
  -25.4358  -15.1860   20.4106 N   0  0  0  0  0  0
  -31.7816  -14.7449   20.0900 O   0  0  0  0  0  0
  -21.6643   -6.8886   21.4243 O   0  0  0  0  0  0
  -22.3589  -14.5576   20.6662 O   0  0  0  0  0  0
  -24.6215  -31.8617   23.2069 C   0  0  0  0  0  0
  -25.9079  -32.4786   23.8383 C   0  0  1  0  0  0
  -27.2325  -27.3626   20.1149 C   0  0  0  0  0  0
  -25.5924  -33.8594   24.2309 N   0  0  0  0  0  0
  -23.4144  -30.4855   21.5450 C   0  0  2  0  0  0
  -24.8630  -28.9452   20.1155 C   0  0  0  0  0  0
  -22.7440  -29.4625   22.4929 C   0  0  0  0  0  0
  -18.0279  -28.1397   22.8461 C   0  0  0  0  0  0
  -24.1491  -36.7304   23.2637 C   0  0  0  0  0  0
  -25.9511  -30.8074   21.3720 C   0  0  0  0  0  0
  -26.0285  -29.4366   20.7182 C   0  0  0  0  0  0
  -27.2166  -28.6550   20.7101 C   0  0  0  0  0  0
  -26.0463  -26.9135   19.4902 C   0  0  0  0  0  0
  -24.8718  -27.6877   19.4932 C   0  0  0  0  0  0
  -23.6299  -29.8212   20.1597 C   0  0  0  0  0  0
  -25.4111  -36.3090   24.0334 C   0  0  1  0  0  0
  -20.5873  -28.3690   23.1282 C   0  0  2  0  0  0
  -20.6777  -26.9418   22.5406 C   0  0  0  0  0  0
  -19.5760  -26.6390   21.5200 C   0  0  0  0  0  0
  -18.1933  -26.7938   22.1605 C   0  0  0  0  0  0
  -19.1530  -28.8857   23.2867 C   0  0  0  0  0  0
  -18.9459  -30.1462   23.8877 C   0  0  0  0  0  0
  -17.6462  -30.6593   24.0563 C   0  0  0  0  0  0
  -25.9042  -34.9456   23.5114 C   0  0  0  0  0  0
  -16.5350  -29.9093   23.6334 C   0  0  0  0  0  0
  -16.7265  -28.6523   23.0324 C   0  0  0  0  0  0
  -26.4502  -31.6582   25.0722 C   0  0  0  0  0  0
  -25.3784  -31.3693   26.1480 C   0  0  0  0  0  0
  -27.0342  -30.3012   24.6144 C   0  0  0  0  0  0
  -27.6060  -32.4314   25.7494 C   0  0  0  0  0  0
  -27.5575  -37.1811   24.8463 C   0  0  0  0  0  0
  -21.4154  -29.3050   22.3676 N   0  0  0  0  0  0
  -26.4289  -37.3775   23.9406 N   0  0  0  0  0  0
  -24.6803  -31.0673   22.0987 N   0  0  0  0  0  0
  -23.4175  -28.8159   23.2996 O   0  0  0  0  0  0
  -28.3716  -26.5604   20.1306 O   0  0  0  0  0  0
  -26.5583  -34.8908   22.4661 O   0  0  0  0  0  0
  -23.5385  -32.1395   23.7418 O   0  0  0  0  0  0
  -29.9720  -19.4026   20.4108 C   0  0  0  0  0  0
  -31.1848  -20.0263   18.4081 C   0  0  0  0  0  0
  -30.9935  -17.6733   19.0266 C   0  0  0  0  0  0
  -30.4455  -20.4342   19.5382 C   0  0  0  0  0  0
  -30.2635  -18.0092   20.1859 C   0  0  0  0  0  0
  -31.4566  -18.6702   18.1480 C   0  0  0  0  0  0
  -30.2588  -21.9271   19.6422 C   0  0  0  0  0  0
  -29.8093  -16.9643   21.1709 C   0  0  0  0  0  0
  -29.3148  -22.7300   20.2103 C   0  0  0  0  0  0
  -29.9385  -15.6070   21.3509 C   0  0  0  0  0  0
  -29.4130  -24.2381   20.1134 C   0  0  0  0  0  0
  -32.2576  -18.2787   16.9221 C   0  0  0  0  0  0
  -28.1674  -25.1308   20.3985 C   0  0  0  0  0  0
  -30.4692  -24.8003   19.8001 O   0  0  0  0  0  0
  -31.4774  -12.4947   19.1236 H   0  0  0  0  0  0
  -30.3702  -11.3607   19.8353 H   0  0  0  0  0  0
  -29.7598  -11.7964   17.4420 H   0  0  0  0  0  0
  -29.6520  -13.5094   17.7583 H   0  0  0  0  0  0
  -27.8465  -11.3082   18.8138 H   0  0  0  0  0  0
  -27.3753  -12.6343   17.7823 H   0  0  0  0  0  0
  -27.7087  -14.2548   19.5835 H   0  0  0  0  0  0
  -28.7130  -11.9404   21.2928 H   0  0  0  0  0  0
  -28.4160  -13.5251   21.8890 H   0  0  0  0  0  0
  -25.2786   -9.5689   22.4735 H   0  0  0  0  0  0
  -24.0001   -7.4653   22.7495 H   0  0  0  0  0  0
  -21.0828   -8.8774   19.8965 H   0  0  0  0  0  0
  -22.3687  -10.9673   19.6149 H   0  0  0  0  0  0
  -21.2007   -7.6149   23.9709 H   0  0  0  0  0  0
  -21.1480   -6.0526   25.9074 H   0  0  0  0  0  0
  -22.0598   -2.7608   23.2850 H   0  0  0  0  0  0
  -22.4159  -11.9947   22.4759 H   0  0  0  0  0  0
  -21.1146  -13.1300   22.2581 H   0  0  0  0  0  0
  -24.6744  -15.8453   20.5313 H   0  0  0  0  0  0
  -26.3028  -15.6257   20.1259 H   0  0  0  0  0  0
  -26.7143  -32.5486   23.1139 H   0  0  0  0  0  0
  -25.0130  -33.9766   25.0491 H   0  0  0  0  0  0
  -22.7074  -31.3051   21.4019 H   0  0  0  0  0  0
  -23.3740  -35.9651   23.3305 H   0  0  0  0  0  0
  -24.3584  -36.8910   22.2050 H   0  0  0  0  0  0
  -23.7273  -37.6519   23.6653 H   0  0  0  0  0  0
  -26.0772  -31.5715   20.6040 H   0  0  0  0  0  0
  -26.8342  -30.8587   21.9969 H   0  0  0  0  0  0
  -28.1146  -29.0238   21.1864 H   0  0  0  0  0  0
  -26.0084  -25.9637   18.9799 H   0  0  0  0  0  0
  -23.9817  -27.3101   19.0082 H   0  0  0  0  0  0
  -23.7508  -30.5988   19.4043 H   0  0  0  0  0  0
  -22.7530  -29.2482   19.8516 H   0  0  0  0  0  0
  -25.1299  -36.1939   25.0829 H   0  0  0  0  0  0
  -20.9973  -28.3280   24.1397 H   0  0  0  0  0  0
  -20.5681  -26.2299   23.3601 H   0  0  0  0  0  0
  -21.6651  -26.7455   22.1201 H   0  0  0  0  0  0
  -19.6931  -25.6297   21.1236 H   0  0  0  0  0  0
  -19.6721  -27.3193   20.6724 H   0  0  0  0  0  0
  -17.4206  -26.6651   21.4011 H   0  0  0  0  0  0
  -18.0345  -26.0099   22.9021 H   0  0  0  0  0  0
  -19.7939  -30.7280   24.2231 H   0  0  0  0  0  0
  -17.5022  -31.6269   24.5179 H   0  0  0  0  0  0
  -15.5354  -30.2991   23.7693 H   0  0  0  0  0  0
  -15.8655  -28.0865   22.7019 H   0  0  0  0  0  0
  -24.5955  -30.7032   25.7835 H   0  0  0  0  0  0
  -24.8991  -32.2848   26.4954 H   0  0  0  0  0  0
  -25.8172  -30.8857   27.0218 H   0  0  0  0  0  0
  -26.2894  -29.6747   24.1217 H   0  0  0  0  0  0
  -27.4100  -29.7281   25.4631 H   0  0  0  0  0  0
  -27.8741  -30.4294   23.9312 H   0  0  0  0  0  0
  -27.2657  -33.3596   26.2096 H   0  0  0  0  0  0
  -28.3865  -32.6902   25.0328 H   0  0  0  0  0  0
  -28.0732  -31.8427   26.5396 H   0  0  0  0  0  0
  -28.2595  -38.0102   24.7485 H   0  0  0  0  0  0
  -28.1071  -36.2633   24.6320 H   0  0  0  0  0  0
  -27.2290  -37.1494   25.8864 H   0  0  0  0  0  0
  -20.9316  -29.8790   21.6911 H   0  0  0  0  0  0
  -26.0167  -38.2844   24.1412 H   0  0  0  0  0  0
  -29.4016  -19.6874   21.2831 H   0  0  0  0  0  0
  -31.5514  -20.7737   17.7171 H   0  0  0  0  0  0
  -31.2075  -16.6455   18.7865 H   0  0  0  0  0  0
  -31.0641  -22.4609   19.1537 H   0  0  0  0  0  0
  -29.2079  -17.4090   21.9506 H   0  0  0  0  0  0
  -28.4660  -22.3090   20.7294 H   0  0  0  0  0  0
  -29.4373  -15.2601   22.2401 H   0  0  0  0  0  0
  -32.7020  -19.1497   16.4389 H   0  0  0  0  0  0
  -31.6224  -17.7728   16.1946 H   0  0  0  0  0  0
  -33.0669  -17.6018   17.1973 H   0  0  0  0  0  0
  -27.8993  -25.0133   21.4489 H   0  0  0  0  0  0
  -27.3569  -24.7125   19.8064 H   0  0  0  0  0  0
  1 25  1  0  0  0
  1 30  2  0  0  0
  1 80  1  0  0  0
  2  3  1  0  0  0
  2 25  1  0  0  0
  2 85  1  0  0  0
  2 86  1  0  0  0
  3  4  1  0  0  0
  3 87  1  0  0  0
  3 88  1  0  0  0
  4  5  1  0  0  0
  4 89  1  0  0  0
  4 90  1  0  0  0
  5  6  1  0  0  0
  5 26  1  0  0  0
  5 91  1  0  0  0
  6 25  1  0  0  0
  6 92  1  0  0  0
  6 93  1  0  0  0
  7  8  2  0  0  0
  7 26  1  0  0  0
  7 29  1  0  0  0
  8  9  1  0  0  0
  8 22  1  0  0  0
  9 10  1  0  0  0
  9 27  2  0  0  0
 10 11  2  0  0  0
 10 15  1  0  0  0
 11 12  1  0  0  0
 11 94  1  0  0  0
 12 13  2  0  0  0
 12 95  1  0  0  0
 13 14  1  0  0  0
 13 31  1  0  0  0
 14 15  2  0  0  0
 14 96  1  0  0  0
 15 97  1  0  0  0
 16 17  2  0  0  0
 16 21  1  0  0  0
 16 31  1  0  0  0
 17 18  1  0  0  0
 17 98  1  0  0  0
 18 19  2  0  0  0
 18 99  1  0  0  0
 19 20  1  0  0  0
 19 24  1  0  0  0
 20 21  2  0  0  0
 20100  1  0  0  0
 21 23  1  0  0  0
 22 28  1  0  0  0
 22 32  2  0  0  0
 26 27  1  0  0  0
 28101  1  0  0  0
 28102  1  0  0  0
 29103  1  0  0  0
 29104  1  0  0  0
 33 34  1  0  0  0
 33 66  1  0  0  0
 33 70  2  0  0  0
 34 36  1  0  0  0
 34 59  1  0  0  0
 34105  1  0  0  0
 35 44  2  0  0  0
 35 45  1  0  0  0
 35 68  1  0  0  0
 36 56  1  0  0  0
 36106  1  0  0  0
 37 39  1  0  0  0
 37 47  1  0  0  0
 37 66  1  0  0  0
 37107  1  0  0  0
 38 43  2  0  0  0
 38 46  1  0  0  0
 38 47  1  0  0  0
 39 64  1  0  0  0
 39 67  2  0  0  0
 40 52  1  0  0  0
 40 53  2  0  0  0
 40 58  1  0  0  0
 41108  1  0  0  0
 41109  1  0  0  0
 41110  1  0  0  0
 41 48  1  0  0  0
 42 43  1  0  0  0
 42 66  1  0  0  0
 42111  1  0  0  0
 42112  1  0  0  0
 43 44  1  0  0  0
 44113  1  0  0  0
 45 46  2  0  0  0
 45114  1  0  0  0
 46115  1  0  0  0
 47116  1  0  0  0
 47117  1  0  0  0
 48 56  1  0  0  0
 48 65  1  0  0  0
 48118  1  0  0  0
 49 50  1  0  0  0
 49 53  1  0  0  0
 49 64  1  0  0  0
 49119  1  0  0  0
 50 51  1  0  0  0
 50120  1  0  0  0
 50121  1  0  0  0
 51 52  1  0  0  0
 51122  1  0  0  0
 51123  1  0  0  0
 52124  1  0  0  0
 52125  1  0  0  0
 53 54  1  0  0  0
 54 55  2  0  0  0
 54126  1  0  0  0
 55 57  1  0  0  0
 55127  1  0  0  0
 56 69  2  0  0  0
 57 58  2  0  0  0
 57128  1  0  0  0
 58129  1  0  0  0
 59 60  1  0  0  0
 59 61  1  0  0  0
 59 62  1  0  0  0
 60130  1  0  0  0
 60131  1  0  0  0
 60132  1  0  0  0
 61133  1  0  0  0
 61134  1  0  0  0
 61135  1  0  0  0
 62136  1  0  0  0
 62137  1  0  0  0
 62138  1  0  0  0
 63 65  1  0  0  0
 63139  1  0  0  0
 63140  1  0  0  0
 63141  1  0  0  0
 64142  1  0  0  0
 65143  1  0  0  0
 68 83  1  0  0  0
 71 74  2  0  0  0
 71 75  1  0  0  0
 71144  1  0  0  0
 72 74  1  0  0  0
 72 76  2  0  0  0
 72145  1  0  0  0
 73 75  2  0  0  0
 73 76  1  0  0  0
 73146  1  0  0  0
 74 77  1  0  0  0
 75 78  1  0  0  0
 76 82  1  0  0  0
 77 79  2  0  0  0
 77147  1  0  0  0
 78 80  2  0  0  0
 78148  1  0  0  0
 79 81  1  0  0  0
 79149  1  0  0  0
 80150  1  0  0  0
 81 83  1  0  0  0
 81 84  2  0  0  0
 82151  1  0  0  0
 82152  1  0  0  0
 82153  1  0  0  0
 83154  1  0  0  0
 83155  1  0  0  0
M  ISO  4   1 100  68 101  80 100  83 101
M  END
> <chiral flag>
0

> <version>
0

> <s_m_source_file>
/data/baiqing/PycharmProjects/Reinvent-master-3.2/result/LINK_invent/BTK/process_docking_weight1_custom_product_contain_oxygen_bond_distance_aromatic_linkinvent_7_9_3/rearranged_h_0129.sdf

> <i_m_source_file_index>
55

> <r_mmod_Potential_Energy-OPLS-2005>
69.2755584716797

> <r_mmod_Stretch_Energy-OPLS-2005>
63.7347793579102

> <r_mmod_Bend_Energy-OPLS-2005>
157.100204467773

> <r_mmod_Torsional_Energy-OPLS-2005>
195.385620117188

> <r_mmod_Improper_Torsional_Energy-OPLS-2005>
1.95292520523071

> <r_mmod_Van_der_Waal_Energy-OPLS-2005>
154.194686889648

> <r_mmod_Electrostatic_Energy-OPLS-2005>
-311.874450683594

> <r_mmod_Solvation_Energy-OPLS-2005>
-218.05094909668

> <b_mmod_Minimization_Converged-OPLS-2005>
0

> <r_mmod_RMS_Derivative-OPLS-2005>
2.09699583053589

$$$$
55
                    3D
 Structure written by MMmdl.
160168  0  0  1  0            999 V2000
  -30.6733  -14.4278   20.5620 C   0  0  0  0  0  0
  -30.4331  -12.2741   19.4094 C   0  0  0  0  0  0
  -29.4973  -12.4993   18.2010 C   0  0  0  0  0  0
  -28.0135  -12.3785   18.6082 C   0  0  0  0  0  0
  -27.6679  -13.1917   19.8844 C   0  0  2  0  0  0
  -28.7094  -12.9180   20.9955 C   0  0  0  0  0  0
  -25.2591  -13.8075   20.5617 C   0  0  0  0  0  0
  -24.1836  -13.0379   20.9155 C   0  0  0  0  0  0
  -24.6392  -11.6850   20.8754 C   0  0  0  0  0  0
  -23.9049  -10.4252   21.0437 C   0  0  0  0  0  0
  -24.3594   -9.4168   21.9219 C   0  0  0  0  0  0
  -23.6266   -8.2204   22.0769 C   0  0  0  0  0  0
  -22.4255   -8.0257   21.3541 C   0  0  0  0  0  0
  -21.9892   -9.0242   20.4654 C   0  0  0  0  0  0
  -22.7226  -10.2119   20.3075 C   0  0  0  0  0  0
  -21.6840   -6.0719   22.5284 C   0  0  0  0  0  0
  -21.4002   -6.5624   23.8217 C   0  0  0  0  0  0
  -21.3666   -5.6790   24.9190 C   0  0  0  0  0  0
  -21.6042   -4.3048   24.7245 C   0  0  0  0  0  0
  -21.8821   -3.8128   23.4368 C   0  0  0  0  0  0
  -21.9188   -4.6944   22.3419 C   0  0  0  0  0  0
  -22.7857  -13.5195   21.1831 C   0  0  0  0  0  0
  -22.1651   -4.2119   21.0998 F   0  0  0  0  0  0
  -21.5637   -3.4540   25.7762 F   0  0  0  0  0  0
  -30.0455  -13.2296   20.4554 N   0  0  0  0  0  0
  -26.3048  -12.9241   20.3388 N   0  0  0  0  0  0
  -25.9319  -11.6425   20.5801 N   0  0  0  0  0  0
  -22.0463  -12.8220   22.0397 N   0  0  0  0  0  0
  -25.4306  -15.1753   20.3924 N   0  0  0  0  0  0
  -31.7794  -14.6726   20.0715 O   0  0  0  0  0  0
  -21.6612   -6.8862   21.4237 O   0  0  0  0  0  0
  -22.3565  -14.5520   20.6709 O   0  0  0  0  0  0
  -24.6106  -31.8683   23.2070 C   0  0  0  0  0  0
  -25.9017  -32.4812   23.8366 C   0  0  1  0  0  0
  -27.2464  -27.4630   20.0948 C   0  0  0  0  0  0
  -25.5884  -33.8608   24.2296 N   0  0  0  0  0  0
  -23.3993  -30.4894   21.5435 C   0  0  2  0  0  0
  -24.8486  -28.9465   20.1196 C   0  0  0  0  0  0
  -22.7357  -29.4710   22.4971 C   0  0  0  0  0  0
  -18.0287  -28.1446   22.8457 C   0  0  0  0  0  0
  -24.1504  -36.7318   23.2633 C   0  0  0  0  0  0
  -25.9228  -30.8412   21.3550 C   0  0  0  0  0  0
  -26.0054  -29.4757   20.7074 C   0  0  0  0  0  0
  -27.2097  -28.7420   20.6905 C   0  0  0  0  0  0
  -26.0766  -26.9340   19.5130 C   0  0  0  0  0  0
  -24.8763  -27.6726   19.5212 C   0  0  0  0  0  0
  -23.6070  -29.8055   20.1649 C   0  0  0  0  0  0
  -25.4128  -36.3089   24.0314 C   0  0  1  0  0  0
  -20.5848  -28.3689   23.1241 C   0  0  2  0  0  0
  -20.6756  -26.9411   22.5432 C   0  0  0  0  0  0
  -19.5750  -26.6414   21.5210 C   0  0  0  0  0  0
  -18.1931  -26.8007   22.1581 C   0  0  0  0  0  0
  -19.1526  -28.8885   23.2859 C   0  0  0  0  0  0
  -18.9478  -30.1475   23.8860 C   0  0  0  0  0  0
  -17.6490  -30.6635   24.0523 C   0  0  0  0  0  0
  -25.9046  -34.9460   23.5101 C   0  0  0  0  0  0
  -16.5382  -29.9154   23.6270 C   0  0  0  0  0  0
  -16.7280  -28.6573   23.0312 C   0  0  0  0  0  0
  -26.4467  -31.6588   25.0682 C   0  0  0  0  0  0
  -25.3741  -31.3695   26.1431 C   0  0  0  0  0  0
  -27.0293  -30.3034   24.6047 C   0  0  0  0  0  0
  -27.6042  -32.4291   25.7462 C   0  0  0  0  0  0
  -27.5587  -37.1811   24.8463 C   0  0  0  0  0  0
  -21.4104  -29.3003   22.3602 N   0  0  0  0  0  0
  -26.4315  -37.3773   23.9382 N   0  0  0  0  0  0
  -24.6617  -31.0801   22.0955 N   0  0  0  0  0  0
  -23.4117  -28.8350   23.3110 O   0  0  0  0  0  0
  -28.4271  -26.7650   20.0523 O   0  0  0  0  0  0
  -26.5618  -34.8928   22.4674 O   0  0  0  0  0  0
  -23.5308  -32.1445   23.7486 O   0  0  0  0  0  0
  -26.3455  -20.3861   19.5689 C   0  0  0  0  0  0
  -26.8253  -18.3458   20.8066 C   0  0  0  0  0  0
  -28.6424  -19.8674   20.2202 C   0  0  0  0  0  0
  -25.8961  -19.1939   20.1702 C   0  0  0  0  0  0
  -27.7104  -20.7282   19.6003 C   0  0  0  0  0  0
  -28.1994  -18.6729   20.8319 C   0  0  0  0  0  0
  -27.9236  -23.2287   19.8736 C   0  0  0  0  0  0
  -28.6710  -24.3457   19.8668 C   0  0  0  0  0  0
  -24.4206  -18.8462   20.1531 C   0  0  0  0  0  0
  -28.1634  -22.0327   18.9725 C   0  0  0  0  0  0
  -29.1803  -17.7386   21.5243 C   0  0  0  0  0  0
  -28.4473  -25.5364   20.7780 C   0  0  0  0  0  0
  -29.8770  -16.7719   20.5450 C   0  0  0  0  0  0
  -29.8906  -15.3981   21.0475 N   0  0  0  0  0  0
  -31.4756  -12.3919   19.1074 H   0  0  0  0  0  0
  -30.3451  -11.2516   19.7826 H   0  0  0  0  0  0
  -29.7257  -11.7775   17.4153 H   0  0  0  0  0  0
  -29.6806  -13.4838   17.7704 H   0  0  0  0  0  0
  -27.8003  -11.3217   18.7780 H   0  0  0  0  0  0
  -27.3716  -12.6873   17.7815 H   0  0  0  0  0  0
  -27.7262  -14.2473   19.6156 H   0  0  0  0  0  0
  -28.6769  -11.8671   21.2892 H   0  0  0  0  0  0
  -28.4806  -13.4726   21.9061 H   0  0  0  0  0  0
  -25.2740   -9.5618   22.4809 H   0  0  0  0  0  0
  -23.9977   -7.4578   22.7475 H   0  0  0  0  0  0
  -21.0829   -8.8744   19.8956 H   0  0  0  0  0  0
  -22.3692  -10.9656   19.6177 H   0  0  0  0  0  0
  -21.1970   -7.6128   23.9712 H   0  0  0  0  0  0
  -21.1502   -6.0524   25.9098 H   0  0  0  0  0  0
  -22.0600   -2.7584   23.2885 H   0  0  0  0  0  0
  -22.4030  -11.9864   22.4803 H   0  0  0  0  0  0
  -21.1098  -13.1309   22.2598 H   0  0  0  0  0  0
  -24.6628  -15.8289   20.4918 H   0  0  0  0  0  0
  -26.2788  -15.6053   20.0477 H   0  0  0  0  0  0
  -26.7066  -32.5545   23.1113 H   0  0  0  0  0  0
  -25.0000  -33.9790   25.0412 H   0  0  0  0  0  0
  -22.6927  -31.3084   21.3952 H   0  0  0  0  0  0
  -23.3732  -35.9683   23.3314 H   0  0  0  0  0  0
  -24.3587  -36.8924   22.2042 H   0  0  0  0  0  0
  -23.7318  -37.6549   23.6653 H   0  0  0  0  0  0
  -26.0320  -31.6064   20.5844 H   0  0  0  0  0  0
  -26.8099  -30.8960   21.9741 H   0  0  0  0  0  0
  -28.1073  -29.1521   21.1330 H   0  0  0  0  0  0
  -26.1030  -25.9610   19.0432 H   0  0  0  0  0  0
  -23.9890  -27.2539   19.0665 H   0  0  0  0  0  0
  -23.7063  -30.5666   19.3919 H   0  0  0  0  0  0
  -22.7347  -29.2123   19.8806 H   0  0  0  0  0  0
  -25.1317  -36.1931   25.0807 H   0  0  0  0  0  0
  -20.9883  -28.3360   24.1374 H   0  0  0  0  0  0
  -20.5643  -26.2354   23.3678 H   0  0  0  0  0  0
  -21.6620  -26.7398   22.1251 H   0  0  0  0  0  0
  -19.6874  -25.6312   21.1261 H   0  0  0  0  0  0
  -19.6721  -27.3220   20.6717 H   0  0  0  0  0  0
  -17.4225  -26.6823   21.3951 H   0  0  0  0  0  0
  -18.0248  -26.0182   22.8977 H   0  0  0  0  0  0
  -19.7991  -30.7277   24.2160 H   0  0  0  0  0  0
  -17.5046  -31.6348   24.5074 H   0  0  0  0  0  0
  -15.5398  -30.3081   23.7482 H   0  0  0  0  0  0
  -15.8673  -28.0974   22.6923 H   0  0  0  0  0  0
  -24.5901  -30.7064   25.7755 H   0  0  0  0  0  0
  -24.8952  -32.2859   26.4883 H   0  0  0  0  0  0
  -25.8092  -30.8841   27.0180 H   0  0  0  0  0  0
  -26.2836  -29.6776   24.1134 H   0  0  0  0  0  0
  -27.4112  -29.7275   25.4486 H   0  0  0  0  0  0
  -27.8638  -30.4329   23.9155 H   0  0  0  0  0  0
  -27.2654  -33.3562   26.2101 H   0  0  0  0  0  0
  -28.3842  -32.6909   25.0297 H   0  0  0  0  0  0
  -28.0729  -31.8374   26.5338 H   0  0  0  0  0  0
  -28.2611  -38.0100   24.7481 H   0  0  0  0  0  0
  -28.1079  -36.2629   24.6317 H   0  0  0  0  0  0
  -27.2293  -37.1486   25.8866 H   0  0  0  0  0  0
  -20.9267  -29.8518   21.6660 H   0  0  0  0  0  0
  -26.0182  -38.2849   24.1351 H   0  0  0  0  0  0
  -25.6399  -21.0492   19.0844 H   0  0  0  0  0  0
  -26.4784  -17.4427   21.2902 H   0  0  0  0  0  0
  -29.6928  -20.1255   20.2324 H   0  0  0  0  0  0
  -27.0818  -23.1572   20.5493 H   0  0  0  0  0  0
  -29.5075  -24.4240   19.1867 H   0  0  0  0  0  0
  -23.8933  -19.3901   19.3673 H   0  0  0  0  0  0
  -23.9555  -19.0953   21.1073 H   0  0  0  0  0  0
  -24.2733  -17.7829   19.9752 H   0  0  0  0  0  0
  -27.6014  -22.1761   18.0485 H   0  0  0  0  0  0
  -29.2132  -21.9707   18.6896 H   0  0  0  0  0  0
  -28.6467  -17.1894   22.2991 H   0  0  0  0  0  0
  -29.9322  -18.3245   22.0583 H   0  0  0  0  0  0
  -29.2907  -25.5759   21.4676 H   0  0  0  0  0  0
  -27.5589  -25.3891   21.3951 H   0  0  0  0  0  0
  -30.8760  -17.1303   20.2971 H   0  0  0  0  0  0
  -29.3278  -16.7450   19.6015 H   0  0  0  0  0  0
  -29.0356  -15.0740   21.4771 H   0  0  0  0  0  0
  1 25  1  0  0  0
  1 30  2  0  0  0
  1 84  1  0  0  0
  2  3  1  0  0  0
  2 25  1  0  0  0
  2 85  1  0  0  0
  2 86  1  0  0  0
  3  4  1  0  0  0
  3 87  1  0  0  0
  3 88  1  0  0  0
  4  5  1  0  0  0
  4 89  1  0  0  0
  4 90  1  0  0  0
  5  6  1  0  0  0
  5 26  1  0  0  0
  5 91  1  0  0  0
  6 25  1  0  0  0
  6 92  1  0  0  0
  6 93  1  0  0  0
  7  8  2  0  0  0
  7 26  1  0  0  0
  7 29  1  0  0  0
  8  9  1  0  0  0
  8 22  1  0  0  0
  9 10  1  0  0  0
  9 27  2  0  0  0
 10 11  2  0  0  0
 10 15  1  0  0  0
 11 12  1  0  0  0
 11 94  1  0  0  0
 12 13  2  0  0  0
 12 95  1  0  0  0
 13 14  1  0  0  0
 13 31  1  0  0  0
 14 15  2  0  0  0
 14 96  1  0  0  0
 15 97  1  0  0  0
 16 17  2  0  0  0
 16 21  1  0  0  0
 16 31  1  0  0  0
 17 18  1  0  0  0
 17 98  1  0  0  0
 18 19  2  0  0  0
 18 99  1  0  0  0
 19 20  1  0  0  0
 19 24  1  0  0  0
 20 21  2  0  0  0
 20100  1  0  0  0
 21 23  1  0  0  0
 22 28  1  0  0  0
 22 32  2  0  0  0
 26 27  1  0  0  0
 28101  1  0  0  0
 28102  1  0  0  0
 29103  1  0  0  0
 29104  1  0  0  0
 33 34  1  0  0  0
 33 66  1  0  0  0
 33 70  2  0  0  0
 34 36  1  0  0  0
 34 59  1  0  0  0
 34105  1  0  0  0
 35 44  2  0  0  0
 35 45  1  0  0  0
 35 68  1  0  0  0
 36 56  1  0  0  0
 36106  1  0  0  0
 37 39  1  0  0  0
 37 47  1  0  0  0
 37 66  1  0  0  0
 37107  1  0  0  0
 38 43  2  0  0  0
 38 46  1  0  0  0
 38 47  1  0  0  0
 39 64  1  0  0  0
 39 67  2  0  0  0
 40 52  1  0  0  0
 40 53  2  0  0  0
 40 58  1  0  0  0
 41108  1  0  0  0
 41109  1  0  0  0
 41110  1  0  0  0
 41 48  1  0  0  0
 42 43  1  0  0  0
 42 66  1  0  0  0
 42111  1  0  0  0
 42112  1  0  0  0
 43 44  1  0  0  0
 44113  1  0  0  0
 45 46  2  0  0  0
 45114  1  0  0  0
 46115  1  0  0  0
 47116  1  0  0  0
 47117  1  0  0  0
 48 56  1  0  0  0
 48 65  1  0  0  0
 48118  1  0  0  0
 49 50  1  0  0  0
 49 53  1  0  0  0
 49 64  1  0  0  0
 49119  1  0  0  0
 50 51  1  0  0  0
 50120  1  0  0  0
 50121  1  0  0  0
 51 52  1  0  0  0
 51122  1  0  0  0
 51123  1  0  0  0
 52124  1  0  0  0
 52125  1  0  0  0
 53 54  1  0  0  0
 54 55  2  0  0  0
 54126  1  0  0  0
 55 57  1  0  0  0
 55127  1  0  0  0
 56 69  2  0  0  0
 57 58  2  0  0  0
 57128  1  0  0  0
 58129  1  0  0  0
 59 60  1  0  0  0
 59 61  1  0  0  0
 59 62  1  0  0  0
 60130  1  0  0  0
 60131  1  0  0  0
 60132  1  0  0  0
 61133  1  0  0  0
 61134  1  0  0  0
 61135  1  0  0  0
 62136  1  0  0  0
 62137  1  0  0  0
 62138  1  0  0  0
 63 65  1  0  0  0
 63139  1  0  0  0
 63140  1  0  0  0
 63141  1  0  0  0
 64142  1  0  0  0
 65143  1  0  0  0
 68 82  1  0  0  0
 71 74  2  0  0  0
 71 75  1  0  0  0
 71144  1  0  0  0
 72 74  1  0  0  0
 72 76  2  0  0  0
 72145  1  0  0  0
 73 75  2  0  0  0
 73 76  1  0  0  0
 73146  1  0  0  0
 74 79  1  0  0  0
 75 80  1  0  0  0
 76 81  1  0  0  0
 77 78  2  0  0  0
 77 80  1  0  0  0
 77147  1  0  0  0
 78 82  1  0  0  0
 78148  1  0  0  0
 79149  1  0  0  0
 79150  1  0  0  0
 79151  1  0  0  0
 80152  1  0  0  0
 80153  1  0  0  0
 81 83  1  0  0  0
 81154  1  0  0  0
 81155  1  0  0  0
 82156  1  0  0  0
 82157  1  0  0  0
 83 84  1  0  0  0
 83158  1  0  0  0
 83159  1  0  0  0
 84160  1  0  0  0
M  ISO  4   1 100  68 101  82 101  84 100
M  END
> <chiral flag>
0

> <version>
0

> <s_m_source_file>
/data/baiqing/PycharmProjects/Reinvent-master-3.2/result/LINK_invent/BTK/process_docking_weight1_custom_product_contain_oxygen_bond_distance_aromatic_linkinvent_7_9_3/rearranged_h_0129.sdf

> <i_m_source_file_index>
56

> <r_mmod_Potential_Energy-OPLS-2005>
-63.2263031005859

> <r_mmod_Stretch_Energy-OPLS-2005>
30.8489837646484

> <r_mmod_Bend_Energy-OPLS-2005>
82.3914489746094

> <r_mmod_Torsional_Energy-OPLS-2005>
247.011566162109

> <r_mmod_Improper_Torsional_Energy-OPLS-2005>
7.18958711624146

> <r_mmod_Van_der_Waal_Energy-OPLS-2005>
143.504577636719

> <r_mmod_Electrostatic_Energy-OPLS-2005>
-385.731384277344

> <r_mmod_Solvation_Energy-OPLS-2005>
-197.931884765625

> <b_mmod_Minimization_Converged-OPLS-2005>
0

> <r_mmod_RMS_Derivative-OPLS-2005>
3.98544073104858

$$$$
56
                    3D
 Structure written by MMmdl.
161169  0  0  1  0            999 V2000
  -30.7164  -14.4024   20.6535 C   0  0  0  0  0  0
  -30.4265  -12.2962   19.3877 C   0  0  0  0  0  0
  -29.4866  -12.5283   18.1885 C   0  0  0  0  0  0
  -28.0096  -12.3814   18.6083 C   0  0  0  0  0  0
  -27.6693  -13.1968   19.8842 C   0  0  2  0  0  0
  -28.7131  -12.9230   20.9903 C   0  0  0  0  0  0
  -25.2637  -13.8137   20.5695 C   0  0  0  0  0  0
  -24.1867  -13.0428   20.9163 C   0  0  0  0  0  0
  -24.6398  -11.6887   20.8719 C   0  0  0  0  0  0
  -23.9050  -10.4283   21.0399 C   0  0  0  0  0  0
  -24.3602   -9.4202   21.9180 C   0  0  0  0  0  0
  -23.6281   -8.2236   22.0757 C   0  0  0  0  0  0
  -22.4264   -8.0270   21.3547 C   0  0  0  0  0  0
  -21.9895   -9.0241   20.4648 C   0  0  0  0  0  0
  -22.7217  -10.2126   20.3054 C   0  0  0  0  0  0
  -21.6850   -6.0722   22.5276 C   0  0  0  0  0  0
  -21.4010   -6.5632   23.8205 C   0  0  0  0  0  0
  -21.3665   -5.6792   24.9172 C   0  0  0  0  0  0
  -21.6046   -4.3052   24.7226 C   0  0  0  0  0  0
  -21.8821   -3.8139   23.4349 C   0  0  0  0  0  0
  -21.9197   -4.6953   22.3404 C   0  0  0  0  0  0
  -22.7892  -13.5237   21.1826 C   0  0  0  0  0  0
  -22.1665   -4.2135   21.0983 F   0  0  0  0  0  0
  -21.5636   -3.4542   25.7744 F   0  0  0  0  0  0
  -30.0432  -13.2404   20.4453 N   0  0  0  0  0  0
  -26.3069  -12.9286   20.3419 N   0  0  0  0  0  0
  -25.9327  -11.6448   20.5766 N   0  0  0  0  0  0
  -22.0526  -12.8231   22.0381 N   0  0  0  0  0  0
  -25.4383  -15.1854   20.4110 N   0  0  0  0  0  0
  -31.7899  -14.6519   20.0943 O   0  0  0  0  0  0
  -21.6635   -6.8864   21.4238 O   0  0  0  0  0  0
  -22.3578  -14.5545   20.6680 O   0  0  0  0  0  0
  -24.6107  -31.8697   23.2131 C   0  0  0  0  0  0
  -25.9016  -32.4832   23.8415 C   0  0  1  0  0  0
  -27.2402  -27.4688   20.0755 C   0  0  0  0  0  0
  -25.5883  -33.8631   24.2344 N   0  0  0  0  0  0
  -23.3977  -30.4929   21.5531 C   0  0  2  0  0  0
  -24.8443  -28.9593   20.1174 C   0  0  0  0  0  0
  -22.7387  -29.4661   22.5012 C   0  0  0  0  0  0
  -18.0262  -28.1371   22.8497 C   0  0  0  0  0  0
  -24.1487  -36.7330   23.2640 C   0  0  0  0  0  0
  -25.9232  -30.8397   21.3649 C   0  0  0  0  0  0
  -26.0007  -29.4739   20.7179 C   0  0  0  0  0  0
  -27.1983  -28.7276   20.7101 C   0  0  0  0  0  0
  -26.0651  -26.9523   19.4880 C   0  0  0  0  0  0
  -24.8679  -27.6928   19.5073 C   0  0  0  0  0  0
  -23.6052  -29.8238   20.1673 C   0  0  0  0  0  0
  -25.4104  -36.3122   24.0342 C   0  0  1  0  0  0
  -20.5849  -28.3651   23.1335 C   0  0  2  0  0  0
  -20.6749  -26.9392   22.5424 C   0  0  0  0  0  0
  -19.5732  -26.6383   21.5215 C   0  0  0  0  0  0
  -18.1909  -26.7920   22.1624 C   0  0  0  0  0  0
  -19.1510  -28.8828   23.2913 C   0  0  0  0  0  0
  -18.9440  -30.1437   23.8915 C   0  0  0  0  0  0
  -17.6443  -30.6581   24.0566 C   0  0  0  0  0  0
  -25.9026  -34.9482   23.5141 C   0  0  0  0  0  0
  -16.5336  -29.9084   23.6323 C   0  0  0  0  0  0
  -16.7254  -28.6501   23.0347 C   0  0  0  0  0  0
  -26.4456  -31.6598   25.0728 C   0  0  0  0  0  0
  -25.3741  -31.3699   26.1495 C   0  0  0  0  0  0
  -27.0269  -30.3039   24.6082 C   0  0  0  0  0  0
  -27.6047  -32.4301   25.7479 C   0  0  0  0  0  0
  -27.5581  -37.1820   24.8465 C   0  0  0  0  0  0
  -21.4118  -29.3026   22.3751 N   0  0  0  0  0  0
  -26.4299  -37.3797   23.9401 N   0  0  0  0  0  0
  -24.6619  -31.0815   22.1024 N   0  0  0  0  0  0
  -23.4170  -28.8200   23.3044 O   0  0  0  0  0  0
  -28.4158  -26.7590   20.0452 O   0  0  0  0  0  0
  -26.5592  -34.8926   22.4702 O   0  0  0  0  0  0
  -23.5307  -32.1443   23.7538 O   0  0  0  0  0  0
  -29.4943  -21.2377   19.3383 C   0  0  0  0  0  0
  -29.4184  -19.8335   19.3841 C   0  0  0  0  0  0
  -31.4411  -19.7701   20.7247 C   0  0  0  0  0  0
  -30.5423  -21.9354   19.9843 C   0  0  0  0  0  0
  -30.3938  -19.0868   20.0726 C   0  0  0  0  0  0
  -31.5200  -21.1807   20.6875 C   0  0  0  0  0  0
  -30.6601  -23.4071   19.8575 C   0  0  0  0  0  0
  -30.0313  -24.1771   18.9488 C   0  0  0  0  0  0
  -32.6823  -21.8576   21.3963 C   0  0  0  0  0  0
  -30.3127  -17.5642   20.0730 C   0  0  0  0  0  0
  -30.2109  -25.6779   18.8123 C   0  0  0  0  0  0
  -30.0982  -15.4663   21.5827 C   0  0  0  0  0  0
  -30.6498  -16.9027   21.4270 C   0  0  0  0  0  0
  -28.8836  -26.4475   18.7367 C   0  0  0  0  0  0
  -31.4679  -12.4083   19.0807 H   0  0  0  0  0  0
  -30.3339  -11.2717   19.7525 H   0  0  0  0  0  0
  -29.7194  -11.8283   17.3849 H   0  0  0  0  0  0
  -29.6530  -13.5270   17.7810 H   0  0  0  0  0  0
  -27.8171  -11.3223   18.7849 H   0  0  0  0  0  0
  -27.3544  -12.6760   17.7878 H   0  0  0  0  0  0
  -27.7301  -14.2523   19.6189 H   0  0  0  0  0  0
  -28.6848  -11.8705   21.2758 H   0  0  0  0  0  0
  -28.4757  -13.4657   21.9046 H   0  0  0  0  0  0
  -25.2750   -9.5681   22.4748 H   0  0  0  0  0  0
  -23.9994   -7.4632   22.7478 H   0  0  0  0  0  0
  -21.0830   -8.8750   19.8951 H   0  0  0  0  0  0
  -22.3670  -10.9661   19.6162 H   0  0  0  0  0  0
  -21.1985   -7.6140   23.9699 H   0  0  0  0  0  0
  -21.1496   -6.0527   25.9076 H   0  0  0  0  0  0
  -22.0595   -2.7598   23.2856 H   0  0  0  0  0  0
  -22.4136  -11.9894   22.4777 H   0  0  0  0  0  0
  -21.1149  -13.1270   22.2587 H   0  0  0  0  0  0
  -24.6770  -15.8462   20.5206 H   0  0  0  0  0  0
  -26.3008  -15.6215   20.1095 H   0  0  0  0  0  0
  -26.7086  -32.5555   23.1182 H   0  0  0  0  0  0
  -25.0023  -33.9797   25.0482 H   0  0  0  0  0  0
  -22.6848  -31.3082   21.4150 H   0  0  0  0  0  0
  -23.3740  -35.9672   23.3308 H   0  0  0  0  0  0
  -24.3583  -36.8938   22.2052 H   0  0  0  0  0  0
  -23.7247  -37.6542   23.6648 H   0  0  0  0  0  0
  -26.0301  -31.6033   20.5933 H   0  0  0  0  0  0
  -26.8138  -30.8971   21.9793 H   0  0  0  0  0  0
  -28.0933  -29.1221   21.1706 H   0  0  0  0  0  0
  -26.0689  -25.9783   19.0197 H   0  0  0  0  0  0
  -23.9769  -27.2860   19.0488 H   0  0  0  0  0  0
  -23.7107  -30.5985   19.4068 H   0  0  0  0  0  0
  -22.7300  -29.2413   19.8734 H   0  0  0  0  0  0
  -25.1280  -36.1998   25.0837 H   0  0  0  0  0  0
  -20.9936  -28.3208   24.1458 H   0  0  0  0  0  0
  -20.5647  -26.2259   23.3605 H   0  0  0  0  0  0
  -21.6623  -26.7433   22.1223 H   0  0  0  0  0  0
  -19.6892  -25.6298   21.1231 H   0  0  0  0  0  0
  -19.6674  -27.3207   20.6755 H   0  0  0  0  0  0
  -17.4182  -26.6677   21.4020 H   0  0  0  0  0  0
  -18.0304  -26.0053   22.9012 H   0  0  0  0  0  0
  -19.7915  -30.7248   24.2291 H   0  0  0  0  0  0
  -17.4999  -31.6262   24.5164 H   0  0  0  0  0  0
  -15.5338  -30.2993   23.7629 H   0  0  0  0  0  0
  -15.8655  -28.0828   22.7048 H   0  0  0  0  0  0
  -24.5891  -30.7071   25.7836 H   0  0  0  0  0  0
  -24.8968  -32.2860   26.4985 H   0  0  0  0  0  0
  -25.8115  -30.8833   27.0223 H   0  0  0  0  0  0
  -26.2796  -29.6816   24.1146 H   0  0  0  0  0  0
  -27.4049  -29.7257   25.4523 H   0  0  0  0  0  0
  -27.8630  -30.4353   23.9210 H   0  0  0  0  0  0
  -27.2683  -33.3595   26.2084 H   0  0  0  0  0  0
  -28.3841  -32.6863   25.0293 H   0  0  0  0  0  0
  -28.0726  -31.8403   26.5371 H   0  0  0  0  0  0
  -28.2618  -38.0097   24.7484 H   0  0  0  0  0  0
  -28.1056  -36.2630   24.6325 H   0  0  0  0  0  0
  -27.2300  -37.1515   25.8870 H   0  0  0  0  0  0
  -20.9269  -29.8772   21.7001 H   0  0  0  0  0  0
  -26.0196  -38.2884   24.1379 H   0  0  0  0  0  0
  -28.7275  -21.7678   18.7930 H   0  0  0  0  0  0
  -28.6080  -19.3329   18.8716 H   0  0  0  0  0  0
  -32.2003  -19.2075   21.2494 H   0  0  0  0  0  0
  -31.3117  -23.9049   20.5606 H   0  0  0  0  0  0
  -29.3629  -23.7347   18.2252 H   0  0  0  0  0  0
  -33.3441  -21.1302   21.8673 H   0  0  0  0  0  0
  -32.3199  -22.5259   22.1783 H   0  0  0  0  0  0
  -33.2783  -22.4380   20.6912 H   0  0  0  0  0  0
  -30.9737  -17.1827   19.2936 H   0  0  0  0  0  0
  -29.3017  -17.2787   19.7784 H   0  0  0  0  0  0
  -30.7530  -25.8367   17.8793 H   0  0  0  0  0  0
  -30.8465  -26.0746   19.6053 H   0  0  0  0  0  0
  -29.0227  -15.5196   21.4199 H   0  0  0  0  0  0
  -30.2421  -15.1318   22.6098 H   0  0  0  0  0  0
  -30.2066  -17.5023   22.2233 H   0  0  0  0  0  0
  -31.7259  -16.9207   21.6042 H   0  0  0  0  0  0
  -28.1543  -25.8801   18.1577 H   0  0  0  0  0  0
  -29.0463  -27.3851   18.2023 H   0  0  0  0  0  0
  1 25  1  0  0  0
  1 30  2  0  0  0
  1 82  1  0  0  0
  2  3  1  0  0  0
  2 25  1  0  0  0
  2 85  1  0  0  0
  2 86  1  0  0  0
  3  4  1  0  0  0
  3 87  1  0  0  0
  3 88  1  0  0  0
  4  5  1  0  0  0
  4 89  1  0  0  0
  4 90  1  0  0  0
  5  6  1  0  0  0
  5 26  1  0  0  0
  5 91  1  0  0  0
  6 25  1  0  0  0
  6 92  1  0  0  0
  6 93  1  0  0  0
  7  8  2  0  0  0
  7 26  1  0  0  0
  7 29  1  0  0  0
  8  9  1  0  0  0
  8 22  1  0  0  0
  9 10  1  0  0  0
  9 27  2  0  0  0
 10 11  2  0  0  0
 10 15  1  0  0  0
 11 12  1  0  0  0
 11 94  1  0  0  0
 12 13  2  0  0  0
 12 95  1  0  0  0
 13 14  1  0  0  0
 13 31  1  0  0  0
 14 15  2  0  0  0
 14 96  1  0  0  0
 15 97  1  0  0  0
 16 17  2  0  0  0
 16 21  1  0  0  0
 16 31  1  0  0  0
 17 18  1  0  0  0
 17 98  1  0  0  0
 18 19  2  0  0  0
 18 99  1  0  0  0
 19 20  1  0  0  0
 19 24  1  0  0  0
 20 21  2  0  0  0
 20100  1  0  0  0
 21 23  1  0  0  0
 22 28  1  0  0  0
 22 32  2  0  0  0
 26 27  1  0  0  0
 28101  1  0  0  0
 28102  1  0  0  0
 29103  1  0  0  0
 29104  1  0  0  0
 33 34  1  0  0  0
 33 66  1  0  0  0
 33 70  2  0  0  0
 34 36  1  0  0  0
 34 59  1  0  0  0
 34105  1  0  0  0
 35 44  2  0  0  0
 35 45  1  0  0  0
 35 68  1  0  0  0
 36 56  1  0  0  0
 36106  1  0  0  0
 37 39  1  0  0  0
 37 47  1  0  0  0
 37 66  1  0  0  0
 37107  1  0  0  0
 38 43  2  0  0  0
 38 46  1  0  0  0
 38 47  1  0  0  0
 39 64  1  0  0  0
 39 67  2  0  0  0
 40 52  1  0  0  0
 40 53  2  0  0  0
 40 58  1  0  0  0
 41108  1  0  0  0
 41109  1  0  0  0
 41110  1  0  0  0
 41 48  1  0  0  0
 42 43  1  0  0  0
 42 66  1  0  0  0
 42111  1  0  0  0
 42112  1  0  0  0
 43 44  1  0  0  0
 44113  1  0  0  0
 45 46  2  0  0  0
 45114  1  0  0  0
 46115  1  0  0  0
 47116  1  0  0  0
 47117  1  0  0  0
 48 56  1  0  0  0
 48 65  1  0  0  0
 48118  1  0  0  0
 49 50  1  0  0  0
 49 53  1  0  0  0
 49 64  1  0  0  0
 49119  1  0  0  0
 50 51  1  0  0  0
 50120  1  0  0  0
 50121  1  0  0  0
 51 52  1  0  0  0
 51122  1  0  0  0
 51123  1  0  0  0
 52124  1  0  0  0
 52125  1  0  0  0
 53 54  1  0  0  0
 54 55  2  0  0  0
 54126  1  0  0  0
 55 57  1  0  0  0
 55127  1  0  0  0
 56 69  2  0  0  0
 57 58  2  0  0  0
 57128  1  0  0  0
 58129  1  0  0  0
 59 60  1  0  0  0
 59 61  1  0  0  0
 59 62  1  0  0  0
 60130  1  0  0  0
 60131  1  0  0  0
 60132  1  0  0  0
 61133  1  0  0  0
 61134  1  0  0  0
 61135  1  0  0  0
 62136  1  0  0  0
 62137  1  0  0  0
 62138  1  0  0  0
 63 65  1  0  0  0
 63139  1  0  0  0
 63140  1  0  0  0
 63141  1  0  0  0
 64142  1  0  0  0
 65143  1  0  0  0
 68 84  1  0  0  0
 71 72  2  0  0  0
 71 74  1  0  0  0
 71144  1  0  0  0
 72 75  1  0  0  0
 72145  1  0  0  0
 73 75  2  0  0  0
 73 76  1  0  0  0
 73146  1  0  0  0
 74 76  2  0  0  0
 74 77  1  0  0  0
 75 80  1  0  0  0
 76 79  1  0  0  0
 77 78  2  0  0  0
 77147  1  0  0  0
 78 81  1  0  0  0
 78148  1  0  0  0
 79149  1  0  0  0
 79150  1  0  0  0
 79151  1  0  0  0
 80 83  1  0  0  0
 80152  1  0  0  0
 80153  1  0  0  0
 81 84  1  0  0  0
 81154  1  0  0  0
 81155  1  0  0  0
 82 83  1  0  0  0
 82156  1  0  0  0
 82157  1  0  0  0
 83158  1  0  0  0
 83159  1  0  0  0
 84160  1  0  0  0
 84161  1  0  0  0
M  ISO  4   1 100  68 101  82 100  84 101
M  END
> <chiral flag>
0

> <version>
0

> <s_m_source_file>
/data/baiqing/PycharmProjects/Reinvent-master-3.2/result/LINK_invent/BTK/process_docking_weight1_custom_product_contain_oxygen_bond_distance_aromatic_linkinvent_7_9_3/rearranged_h_0129.sdf

> <i_m_source_file_index>
57

> <r_mmod_Potential_Energy-OPLS-2005>
-55.193359375

> <r_mmod_Stretch_Energy-OPLS-2005>
33.1376647949219

> <r_mmod_Bend_Energy-OPLS-2005>
86.1482086181641

> <r_mmod_Torsional_Energy-OPLS-2005>
182.210800170898

> <r_mmod_Improper_Torsional_Energy-OPLS-2005>
2.09696340560913

> <r_mmod_Van_der_Waal_Energy-OPLS-2005>
157.464981079102

> <r_mmod_Electrostatic_Energy-OPLS-2005>
-333.228729248047

> <r_mmod_Solvation_Energy-OPLS-2005>
-190.449600219727

> <b_mmod_Minimization_Converged-OPLS-2005>
0

> <r_mmod_RMS_Derivative-OPLS-2005>
0.862002372741699

$$$$
57
                    3D
 Structure written by MMmdl.
154162  0  0  1  0            999 V2000
  -30.6044  -14.6710   20.5200 C   0  0  0  0  0  0
  -30.4462  -12.4161   19.4478 C   0  0  0  0  0  0
  -29.5130  -12.5285   18.2192 C   0  0  0  0  0  0
  -28.0335  -12.3389   18.6252 C   0  0  0  0  0  0
  -27.6545  -13.1873   19.8661 C   0  0  2  0  0  0
  -28.7041  -13.0038   20.9867 C   0  0  0  0  0  0
  -25.2635  -13.8086   20.5732 C   0  0  0  0  0  0
  -24.1836  -13.0388   20.9151 C   0  0  0  0  0  0
  -24.6353  -11.6855   20.8691 C   0  0  0  0  0  0
  -23.9006  -10.4280   21.0389 C   0  0  0  0  0  0
  -24.3594   -9.4213   21.9172 C   0  0  0  0  0  0
  -23.6306   -8.2230   22.0730 C   0  0  0  0  0  0
  -22.4277   -8.0261   21.3536 C   0  0  0  0  0  0
  -21.9890   -9.0211   20.4619 C   0  0  0  0  0  0
  -22.7186  -10.2106   20.3033 C   0  0  0  0  0  0
  -21.6873   -6.0709   22.5287 C   0  0  0  0  0  0
  -21.4015   -6.5622   23.8215 C   0  0  0  0  0  0
  -21.3656   -5.6778   24.9188 C   0  0  0  0  0  0
  -21.6050   -4.3043   24.7265 C   0  0  0  0  0  0
  -21.8836   -3.8124   23.4397 C   0  0  0  0  0  0
  -21.9213   -4.6932   22.3433 C   0  0  0  0  0  0
  -22.7877  -13.5211   21.1854 C   0  0  0  0  0  0
  -22.1687   -4.2111   21.1006 F   0  0  0  0  0  0
  -21.5638   -3.4528   25.7775 F   0  0  0  0  0  0
  -30.0023  -13.4279   20.4378 N   0  0  0  0  0  0
  -26.2998  -12.9190   20.3345 N   0  0  0  0  0  0
  -25.9276  -11.6371   20.5694 N   0  0  0  0  0  0
  -22.0542  -12.8183   22.0412 N   0  0  0  0  0  0
  -25.4527  -15.1781   20.4311 N   0  0  0  0  0  0
  -31.7726  -14.8083   20.1339 O   0  0  0  0  0  0
  -21.6656   -6.8849   21.4234 O   0  0  0  0  0  0
  -22.3559  -14.5514   20.6695 O   0  0  0  0  0  0
  -24.6215  -31.8607   23.2023 C   0  0  0  0  0  0
  -25.9038  -32.4809   23.8372 C   0  0  1  0  0  0
  -27.2372  -27.3179   20.1499 C   0  0  0  0  0  0
  -25.5834  -33.8603   24.2278 N   0  0  0  0  0  0
  -23.4207  -30.4769   21.5435 C   0  0  2  0  0  0
  -24.8758  -28.9238   20.1206 C   0  0  0  0  0  0
  -22.7472  -29.4582   22.4947 C   0  0  0  0  0  0
  -18.0272  -28.1364   22.8483 C   0  0  0  0  0  0
  -24.1475  -36.7288   23.2654 C   0  0  0  0  0  0
  -25.9596  -30.7938   21.3745 C   0  0  0  0  0  0
  -26.0424  -29.4177   20.7203 C   0  0  0  0  0  0
  -27.2300  -28.6274   20.7176 C   0  0  0  0  0  0
  -26.0502  -26.8669   19.5365 C   0  0  0  0  0  0
  -24.8807  -27.6524   19.5214 C   0  0  0  0  0  0
  -23.6410  -29.8024   20.1632 C   0  0  0  0  0  0
  -25.4110  -36.3112   24.0350 C   0  0  1  0  0  0
  -20.5868  -28.3642   23.1305 C   0  0  2  0  0  0
  -20.6738  -26.9364   22.5422 C   0  0  0  0  0  0
  -19.5717  -26.6351   21.5205 C   0  0  0  0  0  0
  -18.1902  -26.7908   22.1628 C   0  0  0  0  0  0
  -19.1532  -28.8826   23.2885 C   0  0  0  0  0  0
  -18.9456  -30.1427   23.8897 C   0  0  0  0  0  0
  -17.6457  -30.6578   24.0544 C   0  0  0  0  0  0
  -25.9035  -34.9474   23.5131 C   0  0  0  0  0  0
  -16.5344  -29.9071   23.6326 C   0  0  0  0  0  0
  -16.7262  -28.6485   23.0358 C   0  0  0  0  0  0
  -26.4397  -31.6648   25.0764 C   0  0  0  0  0  0
  -25.3595  -31.3811   26.1482 C   0  0  0  0  0  0
  -27.0247  -30.3087   24.6215 C   0  0  0  0  0  0
  -27.5988  -32.4365   25.7507 C   0  0  0  0  0  0
  -27.5590  -37.1804   24.8464 C   0  0  0  0  0  0
  -21.4181  -29.3010   22.3718 N   0  0  0  0  0  0
  -26.4298  -37.3802   23.9418 N   0  0  0  0  0  0
  -24.6851  -31.0604   22.0977 N   0  0  0  0  0  0
  -23.4205  -28.8116   23.3019 O   0  0  0  0  0  0
  -28.3587  -26.4800   20.1606 O   0  0  0  0  0  0
  -26.5638  -34.8935   22.4719 O   0  0  0  0  0  0
  -23.5371  -32.1372   23.7339 O   0  0  0  0  0  0
  -32.0738  -18.9300   21.7255 C   0  0  0  0  0  0
  -31.5793  -17.6185   21.5607 C   0  0  0  0  0  0
  -31.3535  -20.0534   21.2603 C   0  0  0  0  0  0
  -29.6208  -18.5538   20.4640 C   0  0  0  0  0  0
  -30.3391  -17.3824   20.9299 C   0  0  0  0  0  0
  -30.1080  -19.9053   20.6121 C   0  0  0  0  0  0
  -29.7384  -15.9665   20.9181 C   0  0  0  0  0  0
  -29.4211  -21.1738   19.9679 C   0  0  0  0  0  0
  -29.0725  -22.4891   20.8165 C   0  0  0  0  0  0
  -28.8349  -23.8607   20.0123 C   0  0  0  0  0  0
  -28.2317  -25.1331   20.7688 C   0  0  0  0  0  0
  -28.5102  -15.9291   21.2319 N   0  0  0  0  0  0
  -31.4840  -12.5534   19.1431 H   0  0  0  0  0  0
  -30.3972  -11.4111   19.8709 H   0  0  0  0  0  0
  -29.7909  -11.7941   17.4621 H   0  0  0  0  0  0
  -29.6481  -13.5063   17.7516 H   0  0  0  0  0  0
  -27.8829  -11.2787   18.8371 H   0  0  0  0  0  0
  -27.3721  -12.5770   17.7910 H   0  0  0  0  0  0
  -27.6719  -14.2203   19.5254 H   0  0  0  0  0  0
  -28.7454  -11.9542   21.2840 H   0  0  0  0  0  0
  -28.4455  -13.5285   21.9053 H   0  0  0  0  0  0
  -25.2762   -9.5722   22.4698 H   0  0  0  0  0  0
  -24.0072   -7.4620   22.7418 H   0  0  0  0  0  0
  -21.0837   -8.8690   19.8914 H   0  0  0  0  0  0
  -22.3650  -10.9618   19.6107 H   0  0  0  0  0  0
  -21.1989   -7.6124   23.9700 H   0  0  0  0  0  0
  -21.1452   -6.0512   25.9072 H   0  0  0  0  0  0
  -22.0616   -2.7580   23.2909 H   0  0  0  0  0  0
  -22.4252  -11.9914   22.4842 H   0  0  0  0  0  0
  -21.1107  -13.1089   22.2545 H   0  0  0  0  0  0
  -24.7248  -15.8614   20.6114 H   0  0  0  0  0  0
  -26.3901  -15.5748   20.4157 H   0  0  0  0  0  0
  -26.7105  -32.5484   23.1128 H   0  0  0  0  0  0
  -24.9891  -33.9737   25.0356 H   0  0  0  0  0  0
  -22.7083  -31.2907   21.3911 H   0  0  0  0  0  0
  -23.3769  -35.9585   23.3315 H   0  0  0  0  0  0
  -24.3565  -36.8904   22.2067 H   0  0  0  0  0  0
  -23.7166  -37.6469   23.6662 H   0  0  0  0  0  0
  -26.0868  -31.5582   20.6065 H   0  0  0  0  0  0
  -26.8403  -30.8480   22.0040 H   0  0  0  0  0  0
  -28.1282  -29.0041   21.1874 H   0  0  0  0  0  0
  -26.0208  -25.8871   19.0823 H   0  0  0  0  0  0
  -23.9858  -27.2566   19.0624 H   0  0  0  0  0  0
  -23.7568  -30.5710   19.3973 H   0  0  0  0  0  0
  -22.7621  -29.2256   19.8708 H   0  0  0  0  0  0
  -25.1283  -36.1997   25.0846 H   0  0  0  0  0  0
  -20.9941  -28.3183   24.1431 H   0  0  0  0  0  0
  -20.5570  -26.2240   23.3604 H   0  0  0  0  0  0
  -21.6610  -26.7334   22.1251 H   0  0  0  0  0  0
  -19.6867  -25.6254   21.1238 H   0  0  0  0  0  0
  -19.6683  -27.3150   20.6726 H   0  0  0  0  0  0
  -17.4157  -26.6633   21.4049 H   0  0  0  0  0  0
  -18.0329  -26.0063   22.9046 H   0  0  0  0  0  0
  -19.7936  -30.7238   24.2278 H   0  0  0  0  0  0
  -17.5021  -31.6273   24.5116 H   0  0  0  0  0  0
  -15.5350  -30.2976   23.7658 H   0  0  0  0  0  0
  -15.8655  -28.0802   22.7089 H   0  0  0  0  0  0
  -24.5716  -30.7231   25.7796 H   0  0  0  0  0  0
  -24.8819  -32.2991   26.4932 H   0  0  0  0  0  0
  -25.7869  -30.8943   27.0254 H   0  0  0  0  0  0
  -26.2867  -29.6893   24.1113 H   0  0  0  0  0  0
  -27.3819  -29.7308   25.4742 H   0  0  0  0  0  0
  -27.8769  -30.4417   23.9547 H   0  0  0  0  0  0
  -27.2630  -33.3655   26.2122 H   0  0  0  0  0  0
  -28.3762  -32.6951   25.0307 H   0  0  0  0  0  0
  -28.0679  -31.8457   26.5375 H   0  0  0  0  0  0
  -28.2612  -38.0106   24.7559 H   0  0  0  0  0  0
  -28.1089  -36.2644   24.6245 H   0  0  0  0  0  0
  -27.2308  -37.1401   25.8868 H   0  0  0  0  0  0
  -20.9339  -29.8808   21.7006 H   0  0  0  0  0  0
  -26.0198  -38.2886   24.1444 H   0  0  0  0  0  0
  -33.0276  -19.0715   22.2172 H   0  0  0  0  0  0
  -32.1493  -16.7870   21.9519 H   0  0  0  0  0  0
  -31.7854  -21.0363   21.3764 H   0  0  0  0  0  0
  -28.6725  -18.4039   19.9654 H   0  0  0  0  0  0
  -28.5191  -20.8483   19.4487 H   0  0  0  0  0  0
  -30.1048  -21.4841   19.1763 H   0  0  0  0  0  0
  -29.8733  -22.6689   21.5369 H   0  0  0  0  0  0
  -28.1856  -22.2806   21.4167 H   0  0  0  0  0  0
  -28.1847  -23.6509   19.1633 H   0  0  0  0  0  0
  -29.7879  -24.1569   19.5746 H   0  0  0  0  0  0
  -28.7324  -25.2102   21.7335 H   0  0  0  0  0  0
  -27.1932  -24.9171   21.0213 H   0  0  0  0  0  0
  -28.1960  -16.8633   21.4648 H   0  0  0  0  0  0
  1 25  1  0  0  0
  1 30  2  0  0  0
  1 77  1  0  0  0
  2  3  1  0  0  0
  2 25  1  0  0  0
  2 83  1  0  0  0
  2 84  1  0  0  0
  3  4  1  0  0  0
  3 85  1  0  0  0
  3 86  1  0  0  0
  4  5  1  0  0  0
  4 87  1  0  0  0
  4 88  1  0  0  0
  5  6  1  0  0  0
  5 26  1  0  0  0
  5 89  1  0  0  0
  6 25  1  0  0  0
  6 90  1  0  0  0
  6 91  1  0  0  0
  7  8  2  0  0  0
  7 26  1  0  0  0
  7 29  1  0  0  0
  8  9  1  0  0  0
  8 22  1  0  0  0
  9 10  1  0  0  0
  9 27  2  0  0  0
 10 11  2  0  0  0
 10 15  1  0  0  0
 11 12  1  0  0  0
 11 92  1  0  0  0
 12 13  2  0  0  0
 12 93  1  0  0  0
 13 14  1  0  0  0
 13 31  1  0  0  0
 14 15  2  0  0  0
 14 94  1  0  0  0
 15 95  1  0  0  0
 16 17  2  0  0  0
 16 21  1  0  0  0
 16 31  1  0  0  0
 17 18  1  0  0  0
 17 96  1  0  0  0
 18 19  2  0  0  0
 18 97  1  0  0  0
 19 20  1  0  0  0
 19 24  1  0  0  0
 20 21  2  0  0  0
 20 98  1  0  0  0
 21 23  1  0  0  0
 22 28  1  0  0  0
 22 32  2  0  0  0
 26 27  1  0  0  0
 28 99  1  0  0  0
 28100  1  0  0  0
 29101  1  0  0  0
 29102  1  0  0  0
 33 34  1  0  0  0
 33 66  1  0  0  0
 33 70  2  0  0  0
 34 36  1  0  0  0
 34 59  1  0  0  0
 34103  1  0  0  0
 35 44  2  0  0  0
 35 45  1  0  0  0
 35 68  1  0  0  0
 36 56  1  0  0  0
 36104  1  0  0  0
 37 39  1  0  0  0
 37 47  1  0  0  0
 37 66  1  0  0  0
 37105  1  0  0  0
 38 43  2  0  0  0
 38 46  1  0  0  0
 38 47  1  0  0  0
 39 64  1  0  0  0
 39 67  2  0  0  0
 40 52  1  0  0  0
 40 53  2  0  0  0
 40 58  1  0  0  0
 41106  1  0  0  0
 41107  1  0  0  0
 41108  1  0  0  0
 41 48  1  0  0  0
 42 43  1  0  0  0
 42 66  1  0  0  0
 42109  1  0  0  0
 42110  1  0  0  0
 43 44  1  0  0  0
 44111  1  0  0  0
 45 46  2  0  0  0
 45112  1  0  0  0
 46113  1  0  0  0
 47114  1  0  0  0
 47115  1  0  0  0
 48 56  1  0  0  0
 48 65  1  0  0  0
 48116  1  0  0  0
 49 50  1  0  0  0
 49 53  1  0  0  0
 49 64  1  0  0  0
 49117  1  0  0  0
 50 51  1  0  0  0
 50118  1  0  0  0
 50119  1  0  0  0
 51 52  1  0  0  0
 51120  1  0  0  0
 51121  1  0  0  0
 52122  1  0  0  0
 52123  1  0  0  0
 53 54  1  0  0  0
 54 55  2  0  0  0
 54124  1  0  0  0
 55 57  1  0  0  0
 55125  1  0  0  0
 56 69  2  0  0  0
 57 58  2  0  0  0
 57126  1  0  0  0
 58127  1  0  0  0
 59 60  1  0  0  0
 59 61  1  0  0  0
 59 62  1  0  0  0
 60128  1  0  0  0
 60129  1  0  0  0
 60130  1  0  0  0
 61131  1  0  0  0
 61132  1  0  0  0
 61133  1  0  0  0
 62134  1  0  0  0
 62135  1  0  0  0
 62136  1  0  0  0
 63 65  1  0  0  0
 63137  1  0  0  0
 63138  1  0  0  0
 63139  1  0  0  0
 64140  1  0  0  0
 65141  1  0  0  0
 68 81  1  0  0  0
 71 72  2  0  0  0
 71 73  1  0  0  0
 71142  1  0  0  0
 72 75  1  0  0  0
 72143  1  0  0  0
 73 76  2  0  0  0
 73144  1  0  0  0
 74 75  2  0  0  0
 74 76  1  0  0  0
 74145  1  0  0  0
 75 77  1  0  0  0
 76 78  1  0  0  0
 77 82  2  0  0  0
 78 79  1  0  0  0
 78146  1  0  0  0
 78147  1  0  0  0
 79 80  1  0  0  0
 79148  1  0  0  0
 79149  1  0  0  0
 80 81  1  0  0  0
 80150  1  0  0  0
 80151  1  0  0  0
 81152  1  0  0  0
 81153  1  0  0  0
 82154  1  0  0  0
M  ISO  4   1 100  68 101  77 100  81 101
M  END
> <chiral flag>
0

> <version>
0

> <s_m_source_file>
/data/baiqing/PycharmProjects/Reinvent-master-3.2/result/LINK_invent/BTK/process_docking_weight1_custom_product_contain_oxygen_bond_distance_aromatic_linkinvent_7_9_3/rearranged_h_0129.sdf

> <i_m_source_file_index>
58

> <r_mmod_Potential_Energy-OPLS-2005>
263.549713134766

> <r_mmod_Stretch_Energy-OPLS-2005>
105.703308105469

> <r_mmod_Bend_Energy-OPLS-2005>
151.937103271484

> <r_mmod_Torsional_Energy-OPLS-2005>
212.197128295898

> <r_mmod_Improper_Torsional_Energy-OPLS-2005>
5.68203592300415

> <r_mmod_Van_der_Waal_Energy-OPLS-2005>
147.719268798828

> <r_mmod_Electrostatic_Energy-OPLS-2005>
-226.247985839844

> <r_mmod_Solvation_Energy-OPLS-2005>
-184.562042236328

> <b_mmod_Minimization_Converged-OPLS-2005>
0

> <r_mmod_RMS_Derivative-OPLS-2005>
3.62674188613892

$$$$
58
                    3D
 Structure written by MMmdl.
158166  0  0  1  0            999 V2000
  -30.6823  -14.6814   20.5167 C   0  0  0  0  0  0
  -30.4217  -12.4169   19.4992 C   0  0  0  0  0  0
  -29.5242  -12.5289   18.2486 C   0  0  0  0  0  0
  -28.0373  -12.3868   18.6305 C   0  0  0  0  0  0
  -27.6500  -13.2510   19.8641 C   0  0  2  0  0  0
  -28.6886  -13.1394   21.0049 C   0  0  0  0  0  0
  -25.2517  -13.8248   20.5733 C   0  0  0  0  0  0
  -24.1826  -13.0459   20.9195 C   0  0  0  0  0  0
  -24.6449  -11.6951   20.8742 C   0  0  0  0  0  0
  -23.9136  -10.4312   21.0391 C   0  0  0  0  0  0
  -24.3671   -9.4194   21.9172 C   0  0  0  0  0  0
  -23.6320   -8.2253   22.0738 C   0  0  0  0  0  0
  -22.4308   -8.0282   21.3524 C   0  0  0  0  0  0
  -21.9959   -9.0275   20.4651 C   0  0  0  0  0  0
  -22.7311  -10.2146   20.3036 C   0  0  0  0  0  0
  -21.6874   -6.0748   22.5290 C   0  0  0  0  0  0
  -21.4050   -6.5646   23.8237 C   0  0  0  0  0  0
  -21.3668   -5.6779   24.9175 C   0  0  0  0  0  0
  -21.6040   -4.3038   24.7206 C   0  0  0  0  0  0
  -21.8803   -3.8139   23.4326 C   0  0  0  0  0  0
  -21.9199   -4.6968   22.3383 C   0  0  0  0  0  0
  -22.7835  -13.5233   21.1811 C   0  0  0  0  0  0
  -22.1647   -4.2159   21.0955 F   0  0  0  0  0  0
  -21.5614   -3.4504   25.7706 F   0  0  0  0  0  0
  -30.0102  -13.4757   20.4533 N   0  0  0  0  0  0
  -26.2987  -12.9504   20.3324 N   0  0  0  0  0  0
  -25.9401  -11.6619   20.5770 N   0  0  0  0  0  0
  -22.0471  -12.8275   22.0393 N   0  0  0  0  0  0
  -25.4096  -15.1992   20.4216 N   0  0  0  0  0  0
  -31.8133  -14.7597   20.0240 O   0  0  0  0  0  0
  -21.6649   -6.8882   21.4248 O   0  0  0  0  0  0
  -22.3499  -14.5479   20.6551 O   0  0  0  0  0  0
  -24.6272  -31.8562   23.1989 C   0  0  0  0  0  0
  -25.9114  -32.4755   23.8340 C   0  0  1  0  0  0
  -27.2541  -27.2977   20.1404 C   0  0  0  0  0  0
  -25.5946  -33.8564   24.2278 N   0  0  0  0  0  0
  -23.4264  -30.4805   21.5344 C   0  0  2  0  0  0
  -24.8847  -28.9274   20.1094 C   0  0  0  0  0  0
  -22.7485  -29.4643   22.4858 C   0  0  0  0  0  0
  -18.0310  -28.1374   22.8503 C   0  0  0  0  0  0
  -24.1492  -36.7288   23.2641 C   0  0  0  0  0  0
  -25.9673  -30.7863   21.3698 C   0  0  0  0  0  0
  -26.0490  -29.4073   20.7215 C   0  0  0  0  0  0
  -27.2314  -28.6030   20.7299 C   0  0  0  0  0  0
  -26.0677  -26.8847   19.4853 C   0  0  0  0  0  0
  -24.8982  -27.6701   19.4815 C   0  0  0  0  0  0
  -23.6511  -29.8100   20.1516 C   0  0  0  0  0  0
  -25.4106  -36.3071   24.0333 C   0  0  1  0  0  0
  -20.5914  -28.3708   23.1241 C   0  0  2  0  0  0
  -20.6790  -26.9421   22.5394 C   0  0  0  0  0  0
  -19.5757  -26.6379   21.5205 C   0  0  0  0  0  0
  -18.1942  -26.7924   22.1627 C   0  0  0  0  0  0
  -19.1558  -28.8846   23.2889 C   0  0  0  0  0  0
  -18.9481  -30.1445   23.8912 C   0  0  0  0  0  0
  -17.6477  -30.6577   24.0558 C   0  0  0  0  0  0
  -25.9044  -34.9443   23.5099 C   0  0  0  0  0  0
  -16.5368  -29.9083   23.6304 C   0  0  0  0  0  0
  -16.7295  -28.6486   23.0351 C   0  0  0  0  0  0
  -26.4489  -31.6548   25.0701 C   0  0  0  0  0  0
  -25.3758  -31.3625   26.1446 C   0  0  0  0  0  0
  -27.0314  -30.2992   24.6085 C   0  0  0  0  0  0
  -27.6043  -32.4260   25.7501 C   0  0  0  0  0  0
  -27.5562  -37.1811   24.8459 C   0  0  0  0  0  0
  -21.4188  -29.3081   22.3615 N   0  0  0  0  0  0
  -26.4269  -37.3770   23.9411 N   0  0  0  0  0  0
  -24.6925  -31.0586   22.0927 N   0  0  0  0  0  0
  -23.4186  -28.8166   23.2947 O   0  0  0  0  0  0
  -28.3729  -26.4405   20.2257 O   0  0  0  0  0  0
  -26.5591  -34.8918   22.4650 O   0  0  0  0  0  0
  -23.5425  -32.1359   23.7291 O   0  0  0  0  0  0
  -29.8202  -18.5878   22.7174 C   0  0  0  0  0  0
  -29.5603  -19.7961   23.3897 C   0  0  0  0  0  0
  -29.6696  -19.7915   20.6223 C   0  0  0  0  0  0
  -29.9143  -18.5388   21.3157 C   0  0  0  0  0  0
  -29.3323  -21.0126   22.7049 C   0  0  0  0  0  0
  -29.3504  -21.0516   21.2778 C   0  0  0  0  0  0
  -30.2967  -17.1927   20.6862 C   0  0  0  0  0  0
  -30.0447  -15.9003   21.1199 C   0  0  0  0  0  0
  -30.3905  -22.9430   23.9379 C   0  0  0  0  0  0
  -29.0782  -22.2259   23.5821 C   0  0  0  0  0  0
  -28.8419  -22.3183   20.4425 C   0  0  0  0  0  0
  -29.2104  -23.8824   20.6706 C   0  0  0  0  0  0
  -28.1904  -24.9681   20.0550 C   0  0  0  0  0  0
  -31.4754  -12.4854   19.2196 H   0  0  0  0  0  0
  -30.3080  -11.4320   19.9558 H   0  0  0  0  0  0
  -29.8095  -11.7772   17.5139 H   0  0  0  0  0  0
  -29.6866  -13.4982   17.7750 H   0  0  0  0  0  0
  -27.8535  -11.3332   18.8405 H   0  0  0  0  0  0
  -27.4132  -12.6494   17.7732 H   0  0  0  0  0  0
  -27.6573  -14.2886   19.5276 H   0  0  0  0  0  0
  -28.7021  -12.1265   21.4112 H   0  0  0  0  0  0
  -28.4201  -13.7892   21.8362 H   0  0  0  0  0  0
  -25.2805   -9.5680   22.4740 H   0  0  0  0  0  0
  -24.0012   -7.4663   22.7467 H   0  0  0  0  0  0
  -21.0878   -8.8826   19.8993 H   0  0  0  0  0  0
  -22.3770  -10.9671   19.6122 H   0  0  0  0  0  0
  -21.2078   -7.6154   23.9753 H   0  0  0  0  0  0
  -21.1505   -6.0496   25.9094 H   0  0  0  0  0  0
  -22.0584   -2.7605   23.2813 H   0  0  0  0  0  0
  -22.4094  -12.0010   22.4912 H   0  0  0  0  0  0
  -21.1054  -13.1321   22.2455 H   0  0  0  0  0  0
  -24.6398  -15.8469   20.5548 H   0  0  0  0  0  0
  -26.2694  -15.6587   20.1504 H   0  0  0  0  0  0
  -26.7192  -32.5437   23.1094 H   0  0  0  0  0  0
  -25.0126  -33.9696   25.0447 H   0  0  0  0  0  0
  -22.7239  -31.3020   21.3817 H   0  0  0  0  0  0
  -23.3751  -35.9624   23.3278 H   0  0  0  0  0  0
  -24.3601  -36.8921   22.2063 H   0  0  0  0  0  0
  -23.7238  -37.6487   23.6664 H   0  0  0  0  0  0
  -26.0864  -31.5443   20.5939 H   0  0  0  0  0  0
  -26.8510  -30.8498   21.9908 H   0  0  0  0  0  0
  -28.1182  -28.9671   21.2300 H   0  0  0  0  0  0
  -26.0299  -25.9307   18.9805 H   0  0  0  0  0  0
  -24.0109  -27.2910   18.9905 H   0  0  0  0  0  0
  -23.7839  -30.5853   19.3950 H   0  0  0  0  0  0
  -22.7714  -29.2450   19.8374 H   0  0  0  0  0  0
  -25.1284  -36.1911   25.0822 H   0  0  0  0  0  0
  -21.0063  -28.3304   24.1335 H   0  0  0  0  0  0
  -20.5680  -26.2327   23.3612 H   0  0  0  0  0  0
  -21.6659  -26.7430   22.1194 H   0  0  0  0  0  0
  -19.6919  -25.6289   21.1236 H   0  0  0  0  0  0
  -19.6684  -27.3176   20.6722 H   0  0  0  0  0  0
  -17.4223  -26.6695   21.4021 H   0  0  0  0  0  0
  -18.0353  -26.0046   22.9007 H   0  0  0  0  0  0
  -19.7960  -30.7250   24.2304 H   0  0  0  0  0  0
  -17.5031  -31.6260   24.5160 H   0  0  0  0  0  0
  -15.5363  -30.2978   23.7606 H   0  0  0  0  0  0
  -15.8719  -28.0794   22.7051 H   0  0  0  0  0  0
  -24.5970  -30.6920   25.7772 H   0  0  0  0  0  0
  -24.8921  -32.2771   26.4907 H   0  0  0  0  0  0
  -25.8168  -30.8801   27.0188 H   0  0  0  0  0  0
  -26.2853  -29.6759   24.1144 H   0  0  0  0  0  0
  -27.4083  -29.7196   25.4514 H   0  0  0  0  0  0
  -27.8691  -30.4281   23.9225 H   0  0  0  0  0  0
  -27.2654  -33.3556   26.2076 H   0  0  0  0  0  0
  -28.3904  -32.6811   25.0384 H   0  0  0  0  0  0
  -28.0660  -31.8383   26.5443 H   0  0  0  0  0  0
  -28.2556  -38.0126   24.7523 H   0  0  0  0  0  0
  -28.1085  -36.2664   24.6268 H   0  0  0  0  0  0
  -27.2303  -37.1438   25.8867 H   0  0  0  0  0  0
  -20.9333  -29.8832   21.6864 H   0  0  0  0  0  0
  -26.0141  -38.2832   24.1439 H   0  0  0  0  0  0
  -30.0041  -17.6977   23.3051 H   0  0  0  0  0  0
  -29.5436  -19.7806   24.4732 H   0  0  0  0  0  0
  -29.7077  -19.7797   19.5438 H   0  0  0  0  0  0
  -30.9269  -17.2923   19.8106 H   0  0  0  0  0  0
  -29.3959  -15.7660   21.9748 H   0  0  0  0  0  0
  -30.1974  -23.8231   24.5519 H   0  0  0  0  0  0
  -30.9355  -23.2683   23.0519 H   0  0  0  0  0  0
  -31.0611  -22.2881   24.4967 H   0  0  0  0  0  0
  -28.6058  -21.9009   24.5118 H   0  0  0  0  0  0
  -28.3435  -22.8905   23.1308 H   0  0  0  0  0  0
  -27.7574  -22.2502   20.5163 H   0  0  0  0  0  0
  -29.0590  -22.1010   19.3974 H   0  0  0  0  0  0
  -30.2101  -24.0555   20.2715 H   0  0  0  0  0  0
  -29.2967  -24.1293   21.7226 H   0  0  0  0  0  0
  -27.2134  -24.7021   20.4625 H   0  0  0  0  0  0
  -28.1179  -24.7825   18.9833 H   0  0  0  0  0  0
  1 25  1  0  0  0
  1 30  2  0  0  0
  1 78  1  0  0  0
  2  3  1  0  0  0
  2 25  1  0  0  0
  2 84  1  0  0  0
  2 85  1  0  0  0
  3  4  1  0  0  0
  3 86  1  0  0  0
  3 87  1  0  0  0
  4  5  1  0  0  0
  4 88  1  0  0  0
  4 89  1  0  0  0
  5  6  1  0  0  0
  5 26  1  0  0  0
  5 90  1  0  0  0
  6 25  1  0  0  0
  6 91  1  0  0  0
  6 92  1  0  0  0
  7  8  2  0  0  0
  7 26  1  0  0  0
  7 29  1  0  0  0
  8  9  1  0  0  0
  8 22  1  0  0  0
  9 10  1  0  0  0
  9 27  2  0  0  0
 10 11  2  0  0  0
 10 15  1  0  0  0
 11 12  1  0  0  0
 11 93  1  0  0  0
 12 13  2  0  0  0
 12 94  1  0  0  0
 13 14  1  0  0  0
 13 31  1  0  0  0
 14 15  2  0  0  0
 14 95  1  0  0  0
 15 96  1  0  0  0
 16 17  2  0  0  0
 16 21  1  0  0  0
 16 31  1  0  0  0
 17 18  1  0  0  0
 17 97  1  0  0  0
 18 19  2  0  0  0
 18 98  1  0  0  0
 19 20  1  0  0  0
 19 24  1  0  0  0
 20 21  2  0  0  0
 20 99  1  0  0  0
 21 23  1  0  0  0
 22 28  1  0  0  0
 22 32  2  0  0  0
 26 27  1  0  0  0
 28100  1  0  0  0
 28101  1  0  0  0
 29102  1  0  0  0
 29103  1  0  0  0
 33 34  1  0  0  0
 33 66  1  0  0  0
 33 70  2  0  0  0
 34 36  1  0  0  0
 34 59  1  0  0  0
 34104  1  0  0  0
 35 44  2  0  0  0
 35 45  1  0  0  0
 35 68  1  0  0  0
 36 56  1  0  0  0
 36105  1  0  0  0
 37 39  1  0  0  0
 37 47  1  0  0  0
 37 66  1  0  0  0
 37106  1  0  0  0
 38 43  2  0  0  0
 38 46  1  0  0  0
 38 47  1  0  0  0
 39 64  1  0  0  0
 39 67  2  0  0  0
 40 52  1  0  0  0
 40 53  2  0  0  0
 40 58  1  0  0  0
 41107  1  0  0  0
 41108  1  0  0  0
 41109  1  0  0  0
 41 48  1  0  0  0
 42 43  1  0  0  0
 42 66  1  0  0  0
 42110  1  0  0  0
 42111  1  0  0  0
 43 44  1  0  0  0
 44112  1  0  0  0
 45 46  2  0  0  0
 45113  1  0  0  0
 46114  1  0  0  0
 47115  1  0  0  0
 47116  1  0  0  0
 48 56  1  0  0  0
 48 65  1  0  0  0
 48117  1  0  0  0
 49 50  1  0  0  0
 49 53  1  0  0  0
 49 64  1  0  0  0
 49118  1  0  0  0
 50 51  1  0  0  0
 50119  1  0  0  0
 50120  1  0  0  0
 51 52  1  0  0  0
 51121  1  0  0  0
 51122  1  0  0  0
 52123  1  0  0  0
 52124  1  0  0  0
 53 54  1  0  0  0
 54 55  2  0  0  0
 54125  1  0  0  0
 55 57  1  0  0  0
 55126  1  0  0  0
 56 69  2  0  0  0
 57 58  2  0  0  0
 57127  1  0  0  0
 58128  1  0  0  0
 59 60  1  0  0  0
 59 61  1  0  0  0
 59 62  1  0  0  0
 60129  1  0  0  0
 60130  1  0  0  0
 60131  1  0  0  0
 61132  1  0  0  0
 61133  1  0  0  0
 61134  1  0  0  0
 62135  1  0  0  0
 62136  1  0  0  0
 62137  1  0  0  0
 63 65  1  0  0  0
 63138  1  0  0  0
 63139  1  0  0  0
 63140  1  0  0  0
 64141  1  0  0  0
 65142  1  0  0  0
 68 83  1  0  0  0
 71 72  2  0  0  0
 71 74  1  0  0  0
 71143  1  0  0  0
 72 75  1  0  0  0
 72144  1  0  0  0
 73 74  2  0  0  0
 73 76  1  0  0  0
 73145  1  0  0  0
 74 77  1  0  0  0
 75 76  2  0  0  0
 75 80  1  0  0  0
 76 81  1  0  0  0
 77 78  2  0  0  0
 77146  1  0  0  0
 78147  1  0  0  0
 79 80  1  0  0  0
 79148  1  0  0  0
 79149  1  0  0  0
 79150  1  0  0  0
 80151  1  0  0  0
 80152  1  0  0  0
 81 82  1  0  0  0
 81153  1  0  0  0
 81154  1  0  0  0
 82 83  1  0  0  0
 82155  1  0  0  0
 82156  1  0  0  0
 83157  1  0  0  0
 83158  1  0  0  0
M  ISO  4   1 100  68 101  78 100  83 101
M  END
> <chiral flag>
0

> <version>
0

> <s_m_source_file>
/data/baiqing/PycharmProjects/Reinvent-master-3.2/result/LINK_invent/BTK/process_docking_weight1_custom_product_contain_oxygen_bond_distance_aromatic_linkinvent_7_9_3/rearranged_h_0129.sdf

> <i_m_source_file_index>
59

> <r_mmod_Potential_Energy-OPLS-2005>
150.653182983398

> <r_mmod_Stretch_Energy-OPLS-2005>
113.228820800781

> <r_mmod_Bend_Energy-OPLS-2005>
170.954406738281

> <r_mmod_Torsional_Energy-OPLS-2005>
195.347030639648

> <r_mmod_Improper_Torsional_Energy-OPLS-2005>
4.07784509658813

> <r_mmod_Van_der_Waal_Energy-OPLS-2005>
144.99772644043

> <r_mmod_Electrostatic_Energy-OPLS-2005>
-348.380737304688

> <r_mmod_Solvation_Energy-OPLS-2005>
-190.245742797852

> <b_mmod_Minimization_Converged-OPLS-2005>
0

> <r_mmod_RMS_Derivative-OPLS-2005>
4.75880527496338

$$$$
59
                    3D
 Structure written by MMmdl.
156165  0  0  1  0            999 V2000
  -30.5697  -14.8836   20.4376 C   0  0  0  0  0  0
  -30.4387  -12.5408   19.5150 C   0  0  0  0  0  0
  -29.5308  -12.5459   18.2630 C   0  0  0  0  0  0
  -28.0554  -12.3437   18.6599 C   0  0  0  0  0  0
  -27.6378  -13.2504   19.8494 C   0  0  2  0  0  0
  -28.6753  -13.2313   20.9915 C   0  0  0  0  0  0
  -25.2487  -13.8230   20.5715 C   0  0  0  0  0  0
  -24.1798  -13.0441   20.9197 C   0  0  0  0  0  0
  -24.6437  -11.6929   20.8728 C   0  0  0  0  0  0
  -23.9130  -10.4283   21.0386 C   0  0  0  0  0  0
  -24.3677   -9.4200   21.9167 C   0  0  0  0  0  0
  -23.6326   -8.2252   22.0743 C   0  0  0  0  0  0
  -22.4307   -8.0283   21.3550 C   0  0  0  0  0  0
  -21.9956   -9.0261   20.4646 C   0  0  0  0  0  0
  -22.7294  -10.2133   20.3035 C   0  0  0  0  0  0
  -21.6854   -6.0747   22.5281 C   0  0  0  0  0  0
  -21.4013   -6.5653   23.8223 C   0  0  0  0  0  0
  -21.3659   -5.6800   24.9179 C   0  0  0  0  0  0
  -21.6042   -4.3060   24.7221 C   0  0  0  0  0  0
  -21.8811   -3.8163   23.4340 C   0  0  0  0  0  0
  -21.9199   -4.6982   22.3401 C   0  0  0  0  0  0
  -22.7812  -13.5203   21.1853 C   0  0  0  0  0  0
  -22.1654   -4.2176   21.0975 F   0  0  0  0  0  0
  -21.5642   -3.4547   25.7736 F   0  0  0  0  0  0
  -29.9711  -13.6254   20.4244 N   0  0  0  0  0  0
  -26.2932  -12.9472   20.3260 N   0  0  0  0  0  0
  -25.9370  -11.6601   20.5728 N   0  0  0  0  0  0
  -22.0454  -12.8191   22.0409 N   0  0  0  0  0  0
  -25.4166  -15.1963   20.4207 N   0  0  0  0  0  0
  -31.7313  -14.9476   20.0249 O   0  0  0  0  0  0
  -21.6657   -6.8888   21.4243 O   0  0  0  0  0  0
  -22.3484  -14.5491   20.6680 O   0  0  0  0  0  0
  -24.6344  -31.8479   23.1907 C   0  0  0  0  0  0
  -25.9154  -32.4715   23.8284 C   0  0  1  0  0  0
  -27.2435  -27.2144   20.1386 C   0  0  0  0  0  0
  -25.5936  -33.8518   24.2222 N   0  0  0  0  0  0
  -23.4364  -30.4634   21.5319 C   0  0  2  0  0  0
  -24.8926  -28.8972   20.1005 C   0  0  0  0  0  0
  -22.7517  -29.4555   22.4871 C   0  0  0  0  0  0
  -18.0284  -28.1403   22.8476 C   0  0  0  0  0  0
  -24.1485  -36.7274   23.2634 C   0  0  0  0  0  0
  -25.9808  -30.7468   21.3737 C   0  0  0  0  0  0
  -26.0565  -29.3596   20.7247 C   0  0  0  0  0  0
  -27.2242  -28.5270   20.7403 C   0  0  0  0  0  0
  -26.0615  -26.8317   19.4707 C   0  0  0  0  0  0
  -24.9042  -27.6448   19.4580 C   0  0  0  0  0  0
  -23.6605  -29.7856   20.1500 C   0  0  0  0  0  0
  -25.4103  -36.3039   24.0325 C   0  0  1  0  0  0
  -20.5890  -28.3705   23.1261 C   0  0  2  0  0  0
  -20.6761  -26.9419   22.5398 C   0  0  0  0  0  0
  -19.5742  -26.6384   21.5201 C   0  0  0  0  0  0
  -18.1927  -26.7944   22.1619 C   0  0  0  0  0  0
  -19.1537  -28.8871   23.2872 C   0  0  0  0  0  0
  -18.9456  -30.1471   23.8902 C   0  0  0  0  0  0
  -17.6454  -30.6606   24.0553 C   0  0  0  0  0  0
  -25.9063  -34.9417   23.5077 C   0  0  0  0  0  0
  -16.5343  -29.9104   23.6334 C   0  0  0  0  0  0
  -16.7261  -28.6513   23.0363 C   0  0  0  0  0  0
  -26.4518  -31.6550   25.0687 C   0  0  0  0  0  0
  -25.3752  -31.3692   26.1416 C   0  0  0  0  0  0
  -27.0313  -30.2945   24.6159 C   0  0  0  0  0  0
  -27.6122  -32.4232   25.7435 C   0  0  0  0  0  0
  -27.5588  -37.1764   24.8444 C   0  0  0  0  0  0
  -21.4214  -29.3051   22.3653 N   0  0  0  0  0  0
  -26.4257  -37.3765   23.9447 N   0  0  0  0  0  0
  -24.7032  -31.0389   22.0901 N   0  0  0  0  0  0
  -23.4188  -28.8096   23.3005 O   0  0  0  0  0  0
  -28.3393  -26.3168   20.2885 O   0  0  0  0  0  0
  -26.5644  -34.8911   22.4655 O   0  0  0  0  0  0
  -23.5480  -32.1317   23.7173 O   0  0  0  0  0  0
  -29.5107  -18.8818   21.0944 C   0  0  0  0  0  0
  -29.2720  -20.2727   20.5130 C   0  0  0  0  0  0
  -29.1229  -21.2773   21.4687 C   0  0  0  0  0  0
  -29.3205  -18.9474   22.4654 C   0  0  0  0  0  0
  -29.9737  -17.4850   20.4805 C   0  0  0  0  0  0
  -29.8244  -16.1430   20.9118 C   0  0  0  0  0  0
  -29.1267  -20.8288   19.0923 C   0  0  0  0  0  0
  -29.0298  -22.8315   21.3157 C   0  0  0  0  0  0
  -29.1160  -22.4292   18.9038 C   0  0  0  0  0  0
  -28.4487  -23.4027   19.9717 C   0  0  2  0  0  0
  -29.3931  -17.8696   23.4990 C   0  0  0  0  0  0
  -28.5889  -25.0124   19.5476 C   0  0  0  0  0  0
  -29.0349  -20.5749   23.0507 S   0  0  0  0  0  0
  -31.4815  -12.6661   19.2209 H   0  0  0  0  0  0
  -30.4002  -11.5759   20.0221 H   0  0  0  0  0  0
  -29.8467  -11.7733   17.5624 H   0  0  0  0  0  0
  -29.6400  -13.4976   17.7385 H   0  0  0  0  0  0
  -27.9269  -11.2944   18.9270 H   0  0  0  0  0  0
  -27.4054  -12.5212   17.8021 H   0  0  0  0  0  0
  -27.6172  -14.2657   19.4553 H   0  0  0  0  0  0
  -28.7364  -12.2414   21.4434 H   0  0  0  0  0  0
  -28.3742  -13.9056   21.7933 H   0  0  0  0  0  0
  -25.2822   -9.5690   22.4740 H   0  0  0  0  0  0
  -24.0046   -7.4651   22.7465 H   0  0  0  0  0  0
  -21.0885   -8.8783   19.8950 H   0  0  0  0  0  0
  -22.3747  -10.9681   19.6148 H   0  0  0  0  0  0
  -21.1990   -7.6160   23.9738 H   0  0  0  0  0  0
  -21.1484   -6.0524   25.9084 H   0  0  0  0  0  0
  -22.0593   -2.7639   23.2837 H   0  0  0  0  0  0
  -22.4101  -11.9884   22.4836 H   0  0  0  0  0  0
  -21.1049  -13.1192   22.2563 H   0  0  0  0  0  0
  -24.6577  -15.8531   20.5632 H   0  0  0  0  0  0
  -26.2815  -15.6428   20.1407 H   0  0  0  0  0  0
  -26.7218  -32.5351   23.1025 H   0  0  0  0  0  0
  -25.0085  -33.9642   25.0361 H   0  0  0  0  0  0
  -22.7355  -31.2868   21.3751 H   0  0  0  0  0  0
  -23.3776  -35.9572   23.3166 H   0  0  0  0  0  0
  -24.3624  -36.9029   22.2082 H   0  0  0  0  0  0
  -23.7177  -37.6402   23.6753 H   0  0  0  0  0  0
  -26.1079  -31.4966   20.5918 H   0  0  0  0  0  0
  -26.8632  -30.8153   21.9986 H   0  0  0  0  0  0
  -28.1065  -28.8704   21.2621 H   0  0  0  0  0  0
  -26.0052  -25.8656   18.9914 H   0  0  0  0  0  0
  -24.0185  -27.2877   18.9529 H   0  0  0  0  0  0
  -23.7857  -30.5570   19.3899 H   0  0  0  0  0  0
  -22.7804  -29.2178   19.8425 H   0  0  0  0  0  0
  -25.1268  -36.1859   25.0811 H   0  0  0  0  0  0
  -20.9975  -28.3272   24.1389 H   0  0  0  0  0  0
  -20.5634  -26.2320   23.3610 H   0  0  0  0  0  0
  -21.6633  -26.7447   22.1202 H   0  0  0  0  0  0
  -19.6900  -25.6284   21.1268 H   0  0  0  0  0  0
  -19.6681  -27.3169   20.6713 H   0  0  0  0  0  0
  -17.4183  -26.6678   21.4039 H   0  0  0  0  0  0
  -18.0345  -26.0096   22.9027 H   0  0  0  0  0  0
  -19.7929  -30.7289   24.2286 H   0  0  0  0  0  0
  -17.5003  -31.6300   24.5126 H   0  0  0  0  0  0
  -15.5345  -30.3006   23.7663 H   0  0  0  0  0  0
  -15.8658  -28.0833   22.7104 H   0  0  0  0  0  0
  -24.5891  -30.7103   25.7705 H   0  0  0  0  0  0
  -24.9014  -32.2860   26.4922 H   0  0  0  0  0  0
  -25.8072  -30.8765   27.0135 H   0  0  0  0  0  0
  -26.2844  -29.6690   24.1249 H   0  0  0  0  0  0
  -27.4032  -29.7214   25.4662 H   0  0  0  0  0  0
  -27.8733  -30.4165   23.9344 H   0  0  0  0  0  0
  -27.2841  -33.3605   26.1922 H   0  0  0  0  0  0
  -28.3999  -32.6618   25.0282 H   0  0  0  0  0  0
  -28.0700  -31.8367   26.5401 H   0  0  0  0  0  0
  -28.2488  -38.0174   24.7641 H   0  0  0  0  0  0
  -28.1200  -36.2717   24.6058 H   0  0  0  0  0  0
  -27.2360  -37.1150   25.8851 H   0  0  0  0  0  0
  -20.9404  -29.8791   21.6870 H   0  0  0  0  0  0
  -26.0109  -38.2810   24.1530 H   0  0  0  0  0  0
  -30.6116  -17.6091   19.6171 H   0  0  0  0  0  0
  -29.1538  -15.9739   21.7340 H   0  0  0  0  0  0
  -28.1843  -20.4606   18.6859 H   0  0  0  0  0  0
  -29.8933  -20.4046   18.4449 H   0  0  0  0  0  0
  -30.0384  -23.2329   21.4325 H   0  0  0  0  0  0
  -28.4646  -23.2509   22.1497 H   0  0  0  0  0  0
  -28.7222  -22.6604   17.9136 H   0  0  0  0  0  0
  -30.1650  -22.7280   18.8537 H   0  0  0  0  0  0
  -27.3810  -23.1830   19.9835 H   0  0  0  0  0  0
  -28.5578  -17.1785   23.3938 H   0  0  0  0  0  0
  -29.3276  -18.2819   24.5058 H   0  0  0  0  0  0
  -30.3319  -17.3190   23.4338 H   0  0  0  0  0  0
  -28.1039  -25.1189   18.5781 H   0  0  0  0  0  0
  -29.6467  -25.1187   19.3036 H   0  0  0  0  0  0
  1 25  1  0  0  0
  1 30  2  0  0  0
  1 76  1  0  0  0
  2  3  1  0  0  0
  2 25  1  0  0  0
  2 84  1  0  0  0
  2 85  1  0  0  0
  3  4  1  0  0  0
  3 86  1  0  0  0
  3 87  1  0  0  0
  4  5  1  0  0  0
  4 88  1  0  0  0
  4 89  1  0  0  0
  5  6  1  0  0  0
  5 26  1  0  0  0
  5 90  1  0  0  0
  6 25  1  0  0  0
  6 91  1  0  0  0
  6 92  1  0  0  0
  7  8  2  0  0  0
  7 26  1  0  0  0
  7 29  1  0  0  0
  8  9  1  0  0  0
  8 22  1  0  0  0
  9 10  1  0  0  0
  9 27  2  0  0  0
 10 11  2  0  0  0
 10 15  1  0  0  0
 11 12  1  0  0  0
 11 93  1  0  0  0
 12 13  2  0  0  0
 12 94  1  0  0  0
 13 14  1  0  0  0
 13 31  1  0  0  0
 14 15  2  0  0  0
 14 95  1  0  0  0
 15 96  1  0  0  0
 16 17  2  0  0  0
 16 21  1  0  0  0
 16 31  1  0  0  0
 17 18  1  0  0  0
 17 97  1  0  0  0
 18 19  2  0  0  0
 18 98  1  0  0  0
 19 20  1  0  0  0
 19 24  1  0  0  0
 20 21  2  0  0  0
 20 99  1  0  0  0
 21 23  1  0  0  0
 22 28  1  0  0  0
 22 32  2  0  0  0
 26 27  1  0  0  0
 28100  1  0  0  0
 28101  1  0  0  0
 29102  1  0  0  0
 29103  1  0  0  0
 33 34  1  0  0  0
 33 66  1  0  0  0
 33 70  2  0  0  0
 34 36  1  0  0  0
 34 59  1  0  0  0
 34104  1  0  0  0
 35 44  2  0  0  0
 35 45  1  0  0  0
 35 68  1  0  0  0
 36 56  1  0  0  0
 36105  1  0  0  0
 37 39  1  0  0  0
 37 47  1  0  0  0
 37 66  1  0  0  0
 37106  1  0  0  0
 38 43  2  0  0  0
 38 46  1  0  0  0
 38 47  1  0  0  0
 39 64  1  0  0  0
 39 67  2  0  0  0
 40 52  1  0  0  0
 40 53  2  0  0  0
 40 58  1  0  0  0
 41107  1  0  0  0
 41108  1  0  0  0
 41109  1  0  0  0
 41 48  1  0  0  0
 42 43  1  0  0  0
 42 66  1  0  0  0
 42110  1  0  0  0
 42111  1  0  0  0
 43 44  1  0  0  0
 44112  1  0  0  0
 45 46  2  0  0  0
 45113  1  0  0  0
 46114  1  0  0  0
 47115  1  0  0  0
 47116  1  0  0  0
 48 56  1  0  0  0
 48 65  1  0  0  0
 48117  1  0  0  0
 49 50  1  0  0  0
 49 53  1  0  0  0
 49 64  1  0  0  0
 49118  1  0  0  0
 50 51  1  0  0  0
 50119  1  0  0  0
 50120  1  0  0  0
 51 52  1  0  0  0
 51121  1  0  0  0
 51122  1  0  0  0
 52123  1  0  0  0
 52124  1  0  0  0
 53 54  1  0  0  0
 54 55  2  0  0  0
 54125  1  0  0  0
 55 57  1  0  0  0
 55126  1  0  0  0
 56 69  2  0  0  0
 57 58  2  0  0  0
 57127  1  0  0  0
 58128  1  0  0  0
 59 60  1  0  0  0
 59 61  1  0  0  0
 59 62  1  0  0  0
 60129  1  0  0  0
 60130  1  0  0  0
 60131  1  0  0  0
 61132  1  0  0  0
 61133  1  0  0  0
 61134  1  0  0  0
 62135  1  0  0  0
 62136  1  0  0  0
 62137  1  0  0  0
 63 65  1  0  0  0
 63138  1  0  0  0
 63139  1  0  0  0
 63140  1  0  0  0
 64141  1  0  0  0
 65142  1  0  0  0
 68 82  1  0  0  0
 71 72  1  0  0  0
 71 74  2  0  0  0
 71 75  1  0  0  0
 72 73  2  0  0  0
 72 77  1  0  0  0
 73 78  1  0  0  0
 73 83  1  0  0  0
 74 81  1  0  0  0
 74 83  1  0  0  0
 75 76  2  0  0  0
 75143  1  0  0  0
 76144  1  0  0  0
 77 79  1  0  0  0
 77145  1  0  0  0
 77146  1  0  0  0
 78 80  1  0  0  0
 78147  1  0  0  0
 78148  1  0  0  0
 79 80  1  0  0  0
 79149  1  0  0  0
 79150  1  0  0  0
 80 82  1  0  0  0
 80151  1  0  0  0
 81152  1  0  0  0
 81153  1  0  0  0
 81154  1  0  0  0
 82155  1  0  0  0
 82156  1  0  0  0
M  ISO  4   1 100  68 101  76 100  82 101
M  END
> <chiral flag>
0

> <version>
0

> <s_m_source_file>
/data/baiqing/PycharmProjects/Reinvent-master-3.2/result/LINK_invent/BTK/process_docking_weight1_custom_product_contain_oxygen_bond_distance_aromatic_linkinvent_7_9_3/rearranged_h_0129.sdf

> <i_m_source_file_index>
60

> <r_mmod_Potential_Energy-OPLS-2005>
398.505737304688

> <r_mmod_Stretch_Energy-OPLS-2005>
186.807540893555

> <r_mmod_Bend_Energy-OPLS-2005>
279.246429443359

> <r_mmod_Torsional_Energy-OPLS-2005>
206.724472045898

> <r_mmod_Improper_Torsional_Energy-OPLS-2005>
4.19993448257446

> <r_mmod_Van_der_Waal_Energy-OPLS-2005>
120.44059753418

> <r_mmod_Electrostatic_Energy-OPLS-2005>
-342.286560058594

> <r_mmod_Solvation_Energy-OPLS-2005>
-194.849029541016

> <b_mmod_Minimization_Converged-OPLS-2005>
0

> <r_mmod_RMS_Derivative-OPLS-2005>
2.89316844940186

$$$$
60
                    3D
 Structure written by MMmdl.
153161  0  0  1  0            999 V2000
  -30.6432  -14.5824   20.3304 C   0  0  0  0  0  0
  -30.4339  -12.3103   19.4457 C   0  0  0  0  0  0
  -29.4998  -12.4047   18.2166 C   0  0  0  0  0  0
  -28.0174  -12.3016   18.6348 C   0  0  0  0  0  0
  -27.6422  -13.1940   19.8489 C   0  0  2  0  0  0
  -28.7078  -13.1053   20.9676 C   0  0  0  0  0  0
  -25.2579  -13.8097   20.5770 C   0  0  0  0  0  0
  -24.1817  -13.0405   20.9229 C   0  0  0  0  0  0
  -24.6361  -11.6866   20.8800 C   0  0  0  0  0  0
  -23.9032  -10.4269   21.0448 C   0  0  0  0  0  0
  -24.3592   -9.4178   21.9206 C   0  0  0  0  0  0
  -23.6273   -8.2221   22.0769 C   0  0  0  0  0  0
  -22.4264   -8.0264   21.3549 C   0  0  0  0  0  0
  -21.9895   -9.0240   20.4656 C   0  0  0  0  0  0
  -22.7224  -10.2119   20.3077 C   0  0  0  0  0  0
  -21.6841   -6.0726   22.5280 C   0  0  0  0  0  0
  -21.4001   -6.5638   23.8211 C   0  0  0  0  0  0
  -21.3655   -5.6796   24.9179 C   0  0  0  0  0  0
  -21.6045   -4.3061   24.7236 C   0  0  0  0  0  0
  -21.8823   -3.8145   23.4362 C   0  0  0  0  0  0
  -21.9194   -4.6956   22.3412 C   0  0  0  0  0  0
  -22.7833  -13.5220   21.1845 C   0  0  0  0  0  0
  -22.1662   -4.2125   21.1000 F   0  0  0  0  0  0
  -21.5635   -3.4557   25.7757 F   0  0  0  0  0  0
  -30.0413  -13.3598   20.3968 N   0  0  0  0  0  0
  -26.2965  -12.9214   20.3378 N   0  0  0  0  0  0
  -25.9282  -11.6402   20.5841 N   0  0  0  0  0  0
  -22.0460  -12.8230   22.0397 N   0  0  0  0  0  0
  -25.4337  -15.1822   20.4226 N   0  0  0  0  0  0
  -31.8654  -14.7176   20.3328 O   0  0  0  0  0  0
  -21.6625   -6.8866   21.4240 O   0  0  0  0  0  0
  -22.3529  -14.5517   20.6660 O   0  0  0  0  0  0
  -24.6189  -31.8647   23.2088 C   0  0  0  0  0  0
  -25.9076  -32.4797   23.8388 C   0  0  1  0  0  0
  -27.2369  -27.4055   20.1050 C   0  0  0  0  0  0
  -25.5919  -33.8600   24.2316 N   0  0  0  0  0  0
  -23.4086  -30.4899   21.5480 C   0  0  2  0  0  0
  -24.8559  -28.9507   20.1173 C   0  0  0  0  0  0
  -22.7436  -29.4655   22.4966 C   0  0  0  0  0  0
  -18.0281  -28.1374   22.8492 C   0  0  0  0  0  0
  -24.1486  -36.7308   23.2638 C   0  0  0  0  0  0
  -25.9412  -30.8231   21.3669 C   0  0  0  0  0  0
  -26.0184  -29.4560   20.7125 C   0  0  0  0  0  0
  -27.2134  -28.6941   20.6959 C   0  0  0  0  0  0
  -26.0555  -26.9268   19.4951 C   0  0  0  0  0  0
  -24.8704  -27.6865   19.5046 C   0  0  0  0  0  0
  -23.6202  -29.8217   20.1637 C   0  0  0  0  0  0
  -25.4104  -36.3096   24.0338 C   0  0  1  0  0  0
  -20.5875  -28.3669   23.1300 C   0  0  2  0  0  0
  -20.6765  -26.9400   22.5409 C   0  0  0  0  0  0
  -19.5739  -26.6387   21.5209 C   0  0  0  0  0  0
  -18.1922  -26.7925   22.1622 C   0  0  0  0  0  0
  -19.1531  -28.8840   23.2894 C   0  0  0  0  0  0
  -18.9458  -30.1452   23.8897 C   0  0  0  0  0  0
  -17.6456  -30.6577   24.0571 C   0  0  0  0  0  0
  -25.9042  -34.9464   23.5124 C   0  0  0  0  0  0
  -16.5351  -29.9076   23.6327 C   0  0  0  0  0  0
  -16.7273  -28.6497   23.0345 C   0  0  0  0  0  0
  -26.4496  -31.6582   25.0724 C   0  0  0  0  0  0
  -25.3760  -31.3695   26.1468 C   0  0  0  0  0  0
  -27.0339  -30.3016   24.6142 C   0  0  0  0  0  0
  -27.6072  -32.4301   25.7481 C   0  0  0  0  0  0
  -27.5584  -37.1801   24.8463 C   0  0  0  0  0  0
  -21.4159  -29.3036   22.3702 N   0  0  0  0  0  0
  -26.4286  -37.3787   23.9421 N   0  0  0  0  0  0
  -24.6742  -31.0739   22.0991 N   0  0  0  0  0  0
  -23.4193  -28.8199   23.3024 O   0  0  0  0  0  0
  -28.3994  -26.6510   20.0918 O   0  0  0  0  0  0
  -26.5605  -34.8918   22.4688 O   0  0  0  0  0  0
  -23.5375  -32.1409   23.7471 O   0  0  0  0  0  0
  -30.7502  -19.0582   22.5804 C   0  0  0  0  0  0
  -30.5217  -17.8980   21.8079 C   0  0  0  0  0  0
  -30.5034  -20.3453   22.0510 C   0  0  0  0  0  0
  -29.8126  -19.3285   19.9705 C   0  0  0  0  0  0
  -30.0154  -18.0218   20.4990 C   0  0  0  0  0  0
  -30.0493  -20.5066   20.7233 C   0  0  0  0  0  0
  -29.6233  -16.8799   19.6390 C   0  0  0  0  0  0
  -29.8067  -21.8514   20.1159 C   0  0  0  0  0  0
  -29.8153  -15.5360   19.5791 C   0  0  0  0  0  0
  -29.6507  -23.0374   20.7562 C   0  0  0  0  0  0
  -29.5215  -24.4173   20.0858 C   0  0  0  0  0  0
  -28.2965  -25.2701   20.5221 C   0  0  0  0  0  0
  -31.4781  -12.4084   19.1393 H   0  0  0  0  0  0
  -30.3437  -11.3326   19.9207 H   0  0  0  0  0  0
  -29.7349  -11.6005   17.5195 H   0  0  0  0  0  0
  -29.6780  -13.3225   17.6592 H   0  0  0  0  0  0
  -27.8321  -11.2567   18.8836 H   0  0  0  0  0  0
  -27.3694  -12.5250   17.7869 H   0  0  0  0  0  0
  -27.6000  -14.2121   19.4793 H   0  0  0  0  0  0
  -28.6934  -12.1213   21.4374 H   0  0  0  0  0  0
  -28.4912  -13.8285   21.7558 H   0  0  0  0  0  0
  -25.2744   -9.5658   22.4769 H   0  0  0  0  0  0
  -23.9986   -7.4614   22.7502 H   0  0  0  0  0  0
  -21.0826   -8.8773   19.8960 H   0  0  0  0  0  0
  -22.3697  -10.9669   19.6188 H   0  0  0  0  0  0
  -21.1976   -7.6142   23.9707 H   0  0  0  0  0  0
  -21.1470   -6.0531   25.9076 H   0  0  0  0  0  0
  -22.0603   -2.7601   23.2879 H   0  0  0  0  0  0
  -22.4078  -11.9890   22.4789 H   0  0  0  0  0  0
  -21.1083  -13.1260   22.2619 H   0  0  0  0  0  0
  -24.6773  -15.8459   20.5464 H   0  0  0  0  0  0
  -26.3053  -15.6210   20.1514 H   0  0  0  0  0  0
  -26.7152  -32.5498   23.1154 H   0  0  0  0  0  0
  -25.0062  -33.9752   25.0457 H   0  0  0  0  0  0
  -22.6982  -31.3070   21.4061 H   0  0  0  0  0  0
  -23.3744  -35.9645   23.3286 H   0  0  0  0  0  0
  -24.3587  -36.8940   22.2056 H   0  0  0  0  0  0
  -23.7239  -37.6511   23.6659 H   0  0  0  0  0  0
  -26.0610  -31.5915   20.6022 H   0  0  0  0  0  0
  -26.8262  -30.8714   21.9908 H   0  0  0  0  0  0
  -28.1132  -29.0846   21.1507 H   0  0  0  0  0  0
  -26.0395  -25.9704   18.9936 H   0  0  0  0  0  0
  -23.9787  -27.2959   19.0331 H   0  0  0  0  0  0
  -23.7336  -30.5948   19.4033 H   0  0  0  0  0  0
  -22.7432  -29.2443   19.8658 H   0  0  0  0  0  0
  -25.1275  -36.1952   25.0831 H   0  0  0  0  0  0
  -20.9972  -28.3236   24.1421 H   0  0  0  0  0  0
  -20.5658  -26.2284   23.3602 H   0  0  0  0  0  0
  -21.6633  -26.7429   22.1206 H   0  0  0  0  0  0
  -19.6897  -25.6303   21.1226 H   0  0  0  0  0  0
  -19.6671  -27.3209   20.6748 H   0  0  0  0  0  0
  -17.4195  -26.6692   21.4024 H   0  0  0  0  0  0
  -18.0313  -26.0053   22.9005 H   0  0  0  0  0  0
  -19.7933  -30.7277   24.2250 H   0  0  0  0  0  0
  -17.5008  -31.6253   24.5181 H   0  0  0  0  0  0
  -15.5345  -30.2979   23.7646 H   0  0  0  0  0  0
  -15.8678  -28.0825   22.7035 H   0  0  0  0  0  0
  -24.5915  -30.7068   25.7792 H   0  0  0  0  0  0
  -24.8974  -32.2855   26.4939 H   0  0  0  0  0  0
  -25.8108  -30.8828   27.0208 H   0  0  0  0  0  0
  -26.2899  -29.6742   24.1218 H   0  0  0  0  0  0
  -27.4111  -29.7287   25.4628 H   0  0  0  0  0  0
  -27.8730  -30.4310   23.9304 H   0  0  0  0  0  0
  -27.2698  -33.3587   26.2094 H   0  0  0  0  0  0
  -28.3862  -32.6882   25.0295 H   0  0  0  0  0  0
  -28.0765  -31.8398   26.5365 H   0  0  0  0  0  0
  -28.2587  -38.0112   24.7531 H   0  0  0  0  0  0
  -28.1093  -36.2647   24.6249 H   0  0  0  0  0  0
  -27.2313  -37.1406   25.8867 H   0  0  0  0  0  0
  -20.9326  -29.8763   21.6922 H   0  0  0  0  0  0
  -26.0170  -38.2861   24.1425 H   0  0  0  0  0  0
  -31.1087  -18.9619   23.5955 H   0  0  0  0  0  0
  -30.6947  -16.9236   22.2429 H   0  0  0  0  0  0
  -30.6957  -21.2097   22.6694 H   0  0  0  0  0  0
  -29.4450  -19.4333   18.9591 H   0  0  0  0  0  0
  -28.9681  -17.2092   18.8438 H   0  0  0  0  0  0
  -29.7973  -21.8675   19.0337 H   0  0  0  0  0  0
  -29.2932  -15.1083   18.7429 H   0  0  0  0  0  0
  -29.6393  -23.0534   21.8361 H   0  0  0  0  0  0
  -29.5208  -24.3028   19.0010 H   0  0  0  0  0  0
  -30.4297  -24.9689   20.3313 H   0  0  0  0  0  0
  -28.2214  -25.2699   21.6098 H   0  0  0  0  0  0
  -27.3964  -24.7781   20.1575 H   0  0  0  0  0  0
  1 25  1  0  0  0
  1 30  2  0  0  0
  1 79  1  0  0  0
  2  3  1  0  0  0
  2 25  1  0  0  0
  2 83  1  0  0  0
  2 84  1  0  0  0
  3  4  1  0  0  0
  3 85  1  0  0  0
  3 86  1  0  0  0
  4  5  1  0  0  0
  4 87  1  0  0  0
  4 88  1  0  0  0
  5  6  1  0  0  0
  5 26  1  0  0  0
  5 89  1  0  0  0
  6 25  1  0  0  0
  6 90  1  0  0  0
  6 91  1  0  0  0
  7  8  2  0  0  0
  7 26  1  0  0  0
  7 29  1  0  0  0
  8  9  1  0  0  0
  8 22  1  0  0  0
  9 10  1  0  0  0
  9 27  2  0  0  0
 10 11  2  0  0  0
 10 15  1  0  0  0
 11 12  1  0  0  0
 11 92  1  0  0  0
 12 13  2  0  0  0
 12 93  1  0  0  0
 13 14  1  0  0  0
 13 31  1  0  0  0
 14 15  2  0  0  0
 14 94  1  0  0  0
 15 95  1  0  0  0
 16 17  2  0  0  0
 16 21  1  0  0  0
 16 31  1  0  0  0
 17 18  1  0  0  0
 17 96  1  0  0  0
 18 19  2  0  0  0
 18 97  1  0  0  0
 19 20  1  0  0  0
 19 24  1  0  0  0
 20 21  2  0  0  0
 20 98  1  0  0  0
 21 23  1  0  0  0
 22 28  1  0  0  0
 22 32  2  0  0  0
 26 27  1  0  0  0
 28 99  1  0  0  0
 28100  1  0  0  0
 29101  1  0  0  0
 29102  1  0  0  0
 33 34  1  0  0  0
 33 66  1  0  0  0
 33 70  2  0  0  0
 34 36  1  0  0  0
 34 59  1  0  0  0
 34103  1  0  0  0
 35 44  2  0  0  0
 35 45  1  0  0  0
 35 68  1  0  0  0
 36 56  1  0  0  0
 36104  1  0  0  0
 37 39  1  0  0  0
 37 47  1  0  0  0
 37 66  1  0  0  0
 37105  1  0  0  0
 38 43  2  0  0  0
 38 46  1  0  0  0
 38 47  1  0  0  0
 39 64  1  0  0  0
 39 67  2  0  0  0
 40 52  1  0  0  0
 40 53  2  0  0  0
 40 58  1  0  0  0
 41106  1  0  0  0
 41107  1  0  0  0
 41108  1  0  0  0
 41 48  1  0  0  0
 42 43  1  0  0  0
 42 66  1  0  0  0
 42109  1  0  0  0
 42110  1  0  0  0
 43 44  1  0  0  0
 44111  1  0  0  0
 45 46  2  0  0  0
 45112  1  0  0  0
 46113  1  0  0  0
 47114  1  0  0  0
 47115  1  0  0  0
 48 56  1  0  0  0
 48 65  1  0  0  0
 48116  1  0  0  0
 49 50  1  0  0  0
 49 53  1  0  0  0
 49 64  1  0  0  0
 49117  1  0  0  0
 50 51  1  0  0  0
 50118  1  0  0  0
 50119  1  0  0  0
 51 52  1  0  0  0
 51120  1  0  0  0
 51121  1  0  0  0
 52122  1  0  0  0
 52123  1  0  0  0
 53 54  1  0  0  0
 54 55  2  0  0  0
 54124  1  0  0  0
 55 57  1  0  0  0
 55125  1  0  0  0
 56 69  2  0  0  0
 57 58  2  0  0  0
 57126  1  0  0  0
 58127  1  0  0  0
 59 60  1  0  0  0
 59 61  1  0  0  0
 59 62  1  0  0  0
 60128  1  0  0  0
 60129  1  0  0  0
 60130  1  0  0  0
 61131  1  0  0  0
 61132  1  0  0  0
 61133  1  0  0  0
 62134  1  0  0  0
 62135  1  0  0  0
 62136  1  0  0  0
 63 65  1  0  0  0
 63137  1  0  0  0
 63138  1  0  0  0
 63139  1  0  0  0
 64140  1  0  0  0
 65141  1  0  0  0
 68 82  1  0  0  0
 71 72  2  0  0  0
 71 73  1  0  0  0
 71142  1  0  0  0
 72 75  1  0  0  0
 72143  1  0  0  0
 73 76  2  0  0  0
 73144  1  0  0  0
 74 75  2  0  0  0
 74 76  1  0  0  0
 74145  1  0  0  0
 75 77  1  0  0  0
 76 78  1  0  0  0
 77 79  2  0  0  0
 77146  1  0  0  0
 78 80  2  0  0  0
 78147  1  0  0  0
 79148  1  0  0  0
 80 81  1  0  0  0
 80149  1  0  0  0
 81 82  1  0  0  0
 81150  1  0  0  0
 81151  1  0  0  0
 82152  1  0  0  0
 82153  1  0  0  0
M  ISO  4   1 100  68 101  79 100  82 101
M  END
> <chiral flag>
0

> <version>
0

> <s_m_source_file>
/data/baiqing/PycharmProjects/Reinvent-master-3.2/result/LINK_invent/BTK/process_docking_weight1_custom_product_contain_oxygen_bond_distance_aromatic_linkinvent_7_9_3/rearranged_h_0129.sdf

> <i_m_source_file_index>
61

> <r_mmod_Potential_Energy-OPLS-2005>
134.151138305664

> <r_mmod_Stretch_Energy-OPLS-2005>
43.0053253173828

> <r_mmod_Bend_Energy-OPLS-2005>
143.216537475586

> <r_mmod_Torsional_Energy-OPLS-2005>
243.136535644531

> <r_mmod_Improper_Torsional_Energy-OPLS-2005>
24.4558200836182

> <r_mmod_Van_der_Waal_Energy-OPLS-2005>
150.359085083008

> <r_mmod_Electrostatic_Energy-OPLS-2005>
-317.982391357422

> <r_mmod_Solvation_Energy-OPLS-2005>
-196.948257446289

> <b_mmod_Minimization_Converged-OPLS-2005>
0

> <r_mmod_RMS_Derivative-OPLS-2005>
1.64670050144196

$$$$
61
                    3D
 Structure written by MMmdl.
156164  0  0  1  0            999 V2000
  -30.7551  -14.3897   20.5667 C   0  0  0  0  0  0
  -30.4048  -12.2514   19.4314 C   0  0  0  0  0  0
  -29.4992  -12.5067   18.2106 C   0  0  0  0  0  0
  -28.0144  -12.3885   18.6094 C   0  0  0  0  0  0
  -27.6665  -13.2124   19.8806 C   0  0  2  0  0  0
  -28.7020  -12.9780   21.0029 C   0  0  0  0  0  0
  -25.2609  -13.8167   20.5681 C   0  0  0  0  0  0
  -24.1860  -13.0437   20.9161 C   0  0  0  0  0  0
  -24.6423  -11.6906   20.8715 C   0  0  0  0  0  0
  -23.9081  -10.4296   21.0386 C   0  0  0  0  0  0
  -24.3634   -9.4222   21.9173 C   0  0  0  0  0  0
  -23.6309   -8.2257   22.0753 C   0  0  0  0  0  0
  -22.4286   -8.0288   21.3548 C   0  0  0  0  0  0
  -21.9922   -9.0263   20.4647 C   0  0  0  0  0  0
  -22.7252  -10.2140   20.3049 C   0  0  0  0  0  0
  -21.6859   -6.0745   22.5286 C   0  0  0  0  0  0
  -21.4018   -6.5638   23.8223 C   0  0  0  0  0  0
  -21.3660   -5.6790   24.9180 C   0  0  0  0  0  0
  -21.6043   -4.3056   24.7225 C   0  0  0  0  0  0
  -21.8818   -3.8148   23.4348 C   0  0  0  0  0  0
  -21.9198   -4.6969   22.3408 C   0  0  0  0  0  0
  -22.7879  -13.5236   21.1824 C   0  0  0  0  0  0
  -22.1658   -4.2158   21.0987 F   0  0  0  0  0  0
  -21.5639   -3.4537   25.7738 F   0  0  0  0  0  0
  -30.0439  -13.2375   20.4605 N   0  0  0  0  0  0
  -26.3058  -12.9354   20.3373 N   0  0  0  0  0  0
  -25.9351  -11.6502   20.5740 N   0  0  0  0  0  0
  -22.0516  -12.8244   22.0386 N   0  0  0  0  0  0
  -25.4334  -15.1876   20.4118 N   0  0  0  0  0  0
  -31.8907  -14.5079   20.0956 O   0  0  0  0  0  0
  -21.6646   -6.8886   21.4243 O   0  0  0  0  0  0
  -22.3579  -14.5552   20.6681 O   0  0  0  0  0  0
  -24.6120  -31.8707   23.2138 C   0  0  0  0  0  0
  -25.9022  -32.4831   23.8417 C   0  0  1  0  0  0
  -27.2272  -27.4569   20.0763 C   0  0  0  0  0  0
  -25.5896  -33.8637   24.2346 N   0  0  0  0  0  0
  -23.3974  -30.4963   21.5553 C   0  0  2  0  0  0
  -24.8385  -28.9683   20.1139 C   0  0  0  0  0  0
  -22.7403  -29.4657   22.5017 C   0  0  0  0  0  0
  -18.0263  -28.1366   22.8495 C   0  0  0  0  0  0
  -24.1484  -36.7323   23.2633 C   0  0  0  0  0  0
  -25.9246  -30.8405   21.3636 C   0  0  0  0  0  0
  -25.9984  -29.4773   20.7099 C   0  0  0  0  0  0
  -27.1931  -28.7269   20.6916 C   0  0  0  0  0  0
  -26.0488  -26.9652   19.4645 C   0  0  0  0  0  0
  -24.8575  -27.7105   19.4908 C   0  0  0  0  0  0
  -23.6026  -29.8346   20.1672 C   0  0  0  0  0  0
  -25.4097  -36.3120   24.0337 C   0  0  1  0  0  0
  -20.5852  -28.3644   23.1340 C   0  0  2  0  0  0
  -20.6750  -26.9385   22.5427 C   0  0  0  0  0  0
  -19.5724  -26.6382   21.5224 C   0  0  0  0  0  0
  -18.1906  -26.7913   22.1631 C   0  0  0  0  0  0
  -19.1511  -28.8823   23.2912 C   0  0  0  0  0  0
  -18.9436  -30.1434   23.8912 C   0  0  0  0  0  0
  -17.6437  -30.6570   24.0566 C   0  0  0  0  0  0
  -25.9036  -34.9482   23.5138 C   0  0  0  0  0  0
  -16.5331  -29.9076   23.6313 C   0  0  0  0  0  0
  -16.7253  -28.6498   23.0330 C   0  0  0  0  0  0
  -26.4457  -31.6590   25.0729 C   0  0  0  0  0  0
  -25.3751  -31.3671   26.1497 C   0  0  0  0  0  0
  -27.0264  -30.3032   24.6063 C   0  0  0  0  0  0
  -27.6031  -32.4305   25.7494 C   0  0  0  0  0  0
  -27.5582  -37.1811   24.8458 C   0  0  0  0  0  0
  -21.4135  -29.3024   22.3764 N   0  0  0  0  0  0
  -26.4279  -37.3807   23.9424 N   0  0  0  0  0  0
  -24.6629  -31.0828   22.1027 N   0  0  0  0  0  0
  -23.4198  -28.8193   23.3030 O   0  0  0  0  0  0
  -28.4142  -26.7577   20.0929 O   0  0  0  0  0  0
  -26.5600  -34.8926   22.4703 O   0  0  0  0  0  0
  -23.5322  -32.1445   23.7558 O   0  0  0  0  0  0
  -29.4879  -19.9136   22.1269 C   0  0  0  0  0  0
  -29.6863  -18.5364   21.9019 C   0  0  0  0  0  0
  -29.1682  -20.2575   19.7438 C   0  0  0  0  0  0
  -29.2687  -20.7927   21.0452 C   0  0  0  0  0  0
  -29.6916  -18.0262   20.5871 C   0  0  0  0  0  0
  -29.3635  -18.8838   19.5095 C   0  0  0  0  0  0
  -29.2574  -22.2453   21.2785 C   0  0  0  0  0  0
  -30.1247  -16.6532   20.3097 C   0  0  0  0  0  0
  -30.0612  -15.5537   21.0870 C   0  0  0  0  0  0
  -29.4893  -23.1771   20.3350 C   0  0  0  0  0  0
  -29.2621  -18.3697   18.0817 C   0  0  0  0  0  0
  -29.4892  -24.6709   20.5767 C   0  0  0  0  0  0
  -28.3879  -25.3675   19.7763 C   0  0  0  0  0  0
  -31.4568  -12.2964   19.1422 H   0  0  0  0  0  0
  -30.2548  -11.2406   19.8124 H   0  0  0  0  0  0
  -29.7341  -11.7996   17.4150 H   0  0  0  0  0  0
  -29.6959  -13.5003   17.8030 H   0  0  0  0  0  0
  -27.8045  -11.3325   18.7793 H   0  0  0  0  0  0
  -27.3777  -12.6960   17.7786 H   0  0  0  0  0  0
  -27.7190  -14.2656   19.6042 H   0  0  0  0  0  0
  -28.6505  -11.9461   21.3534 H   0  0  0  0  0  0
  -28.4768  -13.5905   21.8764 H   0  0  0  0  0  0
  -25.2788   -9.5709   22.4738 H   0  0  0  0  0  0
  -24.0031   -7.4653   22.7471 H   0  0  0  0  0  0
  -21.0859   -8.8778   19.8956 H   0  0  0  0  0  0
  -22.3707  -10.9678   19.6155 H   0  0  0  0  0  0
  -21.2002   -7.6146   23.9736 H   0  0  0  0  0  0
  -21.1479   -6.0511   25.9090 H   0  0  0  0  0  0
  -22.0595   -2.7609   23.2841 H   0  0  0  0  0  0
  -22.4105  -11.9897   22.4779 H   0  0  0  0  0  0
  -21.1131  -13.1284   22.2561 H   0  0  0  0  0  0
  -24.6722  -15.8457   20.5375 H   0  0  0  0  0  0
  -26.3020  -15.6314   20.1391 H   0  0  0  0  0  0
  -26.7098  -32.5545   23.1190 H   0  0  0  0  0  0
  -25.0040  -33.9814   25.0484 H   0  0  0  0  0  0
  -22.6827  -31.3111   21.4223 H   0  0  0  0  0  0
  -23.3746  -35.9657   23.3282 H   0  0  0  0  0  0
  -24.3592  -36.8952   22.2052 H   0  0  0  0  0  0
  -23.7229  -37.6522   23.6653 H   0  0  0  0  0  0
  -26.0342  -31.6068   20.5949 H   0  0  0  0  0  0
  -26.8151  -30.8942   21.9780 H   0  0  0  0  0  0
  -28.0902  -29.1185   21.1510 H   0  0  0  0  0  0
  -26.0265  -26.0187   18.9451 H   0  0  0  0  0  0
  -23.9676  -27.3175   19.0179 H   0  0  0  0  0  0
  -23.7131  -30.6132   19.4110 H   0  0  0  0  0  0
  -22.7259  -29.2567   19.8697 H   0  0  0  0  0  0
  -25.1264  -36.1983   25.0827 H   0  0  0  0  0  0
  -20.9930  -28.3194   24.1465 H   0  0  0  0  0  0
  -20.5658  -26.2248   23.3610 H   0  0  0  0  0  0
  -21.6617  -26.7441   22.1208 H   0  0  0  0  0  0
  -19.6878  -25.6305   21.1223 H   0  0  0  0  0  0
  -19.6652  -27.3220   20.6776 H   0  0  0  0  0  0
  -17.4183  -26.6674   21.4026 H   0  0  0  0  0  0
  -18.0289  -26.0046   22.9016 H   0  0  0  0  0  0
  -19.7913  -30.7251   24.2280 H   0  0  0  0  0  0
  -17.4989  -31.6249   24.5174 H   0  0  0  0  0  0
  -15.5328  -30.2984   23.7620 H   0  0  0  0  0  0
  -15.8655  -28.0837   22.7006 H   0  0  0  0  0  0
  -24.5934  -30.6993   25.7855 H   0  0  0  0  0  0
  -24.8933  -32.2816   26.4968 H   0  0  0  0  0  0
  -25.8145  -30.8846   27.0239 H   0  0  0  0  0  0
  -26.2785  -29.6827   24.1107 H   0  0  0  0  0  0
  -27.4031  -29.7216   25.4488 H   0  0  0  0  0  0
  -27.8625  -30.4345   23.9191 H   0  0  0  0  0  0
  -27.2634  -33.3592   26.2088 H   0  0  0  0  0  0
  -28.3830  -32.6886   25.0319 H   0  0  0  0  0  0
  -28.0701  -31.8421   26.5402 H   0  0  0  0  0  0
  -28.2573  -38.0135   24.7548 H   0  0  0  0  0  0
  -28.1104  -36.2675   24.6212 H   0  0  0  0  0  0
  -27.2327  -37.1373   25.8866 H   0  0  0  0  0  0
  -20.9287  -29.8779   21.7023 H   0  0  0  0  0  0
  -26.0165  -38.2880   24.1446 H   0  0  0  0  0  0
  -29.5676  -20.2999   23.1334 H   0  0  0  0  0  0
  -29.9211  -17.8945   22.7395 H   0  0  0  0  0  0
  -28.9699  -20.9031   18.9008 H   0  0  0  0  0  0
  -29.0430  -22.5663   22.2889 H   0  0  0  0  0  0
  -30.6268  -16.5525   19.3565 H   0  0  0  0  0  0
  -29.5682  -15.5482   22.0478 H   0  0  0  0  0  0
  -29.7037  -22.8851   19.3169 H   0  0  0  0  0  0
  -28.7625  -19.0917   17.4352 H   0  0  0  0  0  0
  -28.6874  -17.4430   18.0407 H   0  0  0  0  0  0
  -30.2539  -18.1817   17.6700 H   0  0  0  0  0  0
  -30.4663  -25.0703   20.3043 H   0  0  0  0  0  0
  -29.3527  -24.8710   21.6400 H   0  0  0  0  0  0
  -27.4478  -24.8874   20.0508 H   0  0  0  0  0  0
  -28.5359  -25.2327   18.7029 H   0  0  0  0  0  0
  1 25  1  0  0  0
  1 30  2  0  0  0
  1 79  1  0  0  0
  2  3  1  0  0  0
  2 25  1  0  0  0
  2 84  1  0  0  0
  2 85  1  0  0  0
  3  4  1  0  0  0
  3 86  1  0  0  0
  3 87  1  0  0  0
  4  5  1  0  0  0
  4 88  1  0  0  0
  4 89  1  0  0  0
  5  6  1  0  0  0
  5 26  1  0  0  0
  5 90  1  0  0  0
  6 25  1  0  0  0
  6 91  1  0  0  0
  6 92  1  0  0  0
  7  8  2  0  0  0
  7 26  1  0  0  0
  7 29  1  0  0  0
  8  9  1  0  0  0
  8 22  1  0  0  0
  9 10  1  0  0  0
  9 27  2  0  0  0
 10 11  2  0  0  0
 10 15  1  0  0  0
 11 12  1  0  0  0
 11 93  1  0  0  0
 12 13  2  0  0  0
 12 94  1  0  0  0
 13 14  1  0  0  0
 13 31  1  0  0  0
 14 15  2  0  0  0
 14 95  1  0  0  0
 15 96  1  0  0  0
 16 17  2  0  0  0
 16 21  1  0  0  0
 16 31  1  0  0  0
 17 18  1  0  0  0
 17 97  1  0  0  0
 18 19  2  0  0  0
 18 98  1  0  0  0
 19 20  1  0  0  0
 19 24  1  0  0  0
 20 21  2  0  0  0
 20 99  1  0  0  0
 21 23  1  0  0  0
 22 28  1  0  0  0
 22 32  2  0  0  0
 26 27  1  0  0  0
 28100  1  0  0  0
 28101  1  0  0  0
 29102  1  0  0  0
 29103  1  0  0  0
 33 34  1  0  0  0
 33 66  1  0  0  0
 33 70  2  0  0  0
 34 36  1  0  0  0
 34 59  1  0  0  0
 34104  1  0  0  0
 35 44  2  0  0  0
 35 45  1  0  0  0
 35 68  1  0  0  0
 36 56  1  0  0  0
 36105  1  0  0  0
 37 39  1  0  0  0
 37 47  1  0  0  0
 37 66  1  0  0  0
 37106  1  0  0  0
 38 43  2  0  0  0
 38 46  1  0  0  0
 38 47  1  0  0  0
 39 64  1  0  0  0
 39 67  2  0  0  0
 40 52  1  0  0  0
 40 53  2  0  0  0
 40 58  1  0  0  0
 41107  1  0  0  0
 41108  1  0  0  0
 41109  1  0  0  0
 41 48  1  0  0  0
 42 43  1  0  0  0
 42 66  1  0  0  0
 42110  1  0  0  0
 42111  1  0  0  0
 43 44  1  0  0  0
 44112  1  0  0  0
 45 46  2  0  0  0
 45113  1  0  0  0
 46114  1  0  0  0
 47115  1  0  0  0
 47116  1  0  0  0
 48 56  1  0  0  0
 48 65  1  0  0  0
 48117  1  0  0  0
 49 50  1  0  0  0
 49 53  1  0  0  0
 49 64  1  0  0  0
 49118  1  0  0  0
 50 51  1  0  0  0
 50119  1  0  0  0
 50120  1  0  0  0
 51 52  1  0  0  0
 51121  1  0  0  0
 51122  1  0  0  0
 52123  1  0  0  0
 52124  1  0  0  0
 53 54  1  0  0  0
 54 55  2  0  0  0
 54125  1  0  0  0
 55 57  1  0  0  0
 55126  1  0  0  0
 56 69  2  0  0  0
 57 58  2  0  0  0
 57127  1  0  0  0
 58128  1  0  0  0
 59 60  1  0  0  0
 59 61  1  0  0  0
 59 62  1  0  0  0
 60129  1  0  0  0
 60130  1  0  0  0
 60131  1  0  0  0
 61132  1  0  0  0
 61133  1  0  0  0
 61134  1  0  0  0
 62135  1  0  0  0
 62136  1  0  0  0
 62137  1  0  0  0
 63 65  1  0  0  0
 63138  1  0  0  0
 63139  1  0  0  0
 63140  1  0  0  0
 64141  1  0  0  0
 65142  1  0  0  0
 68 83  1  0  0  0
 71 72  2  0  0  0
 71 74  1  0  0  0
 71143  1  0  0  0
 72 75  1  0  0  0
 72144  1  0  0  0
 73 74  2  0  0  0
 73 76  1  0  0  0
 73145  1  0  0  0
 74 77  1  0  0  0
 75 76  2  0  0  0
 75 78  1  0  0  0
 76 81  1  0  0  0
 77 80  2  0  0  0
 77146  1  0  0  0
 78 79  2  0  0  0
 78147  1  0  0  0
 79148  1  0  0  0
 80 82  1  0  0  0
 80149  1  0  0  0
 81150  1  0  0  0
 81151  1  0  0  0
 81152  1  0  0  0
 82 83  1  0  0  0
 82153  1  0  0  0
 82154  1  0  0  0
 83155  1  0  0  0
 83156  1  0  0  0
M  ISO  4   1 100  68 101  79 100  83 101
M  END
> <chiral flag>
0

> <version>
0

> <s_m_source_file>
/data/baiqing/PycharmProjects/Reinvent-master-3.2/result/LINK_invent/BTK/process_docking_weight1_custom_product_contain_oxygen_bond_distance_aromatic_linkinvent_7_9_3/rearranged_h_0129.sdf

> <i_m_source_file_index>
62

> <r_mmod_Potential_Energy-OPLS-2005>
-13.907190322876

> <r_mmod_Stretch_Energy-OPLS-2005>
31.1868381500244

> <r_mmod_Bend_Energy-OPLS-2005>
98.5071716308594

> <r_mmod_Torsional_Energy-OPLS-2005>
200.145690917969

> <r_mmod_Improper_Torsional_Energy-OPLS-2005>
5.40911722183228

> <r_mmod_Van_der_Waal_Energy-OPLS-2005>
167.818801879883

> <r_mmod_Electrostatic_Energy-OPLS-2005>
-340.814056396484

> <r_mmod_Solvation_Energy-OPLS-2005>
-189.276382446289

> <b_mmod_Minimization_Converged-OPLS-2005>
0

> <r_mmod_RMS_Derivative-OPLS-2005>
1.69844627380371

$$$$
62
                    3D
 Structure written by MMmdl.
159167  0  0  1  0            999 V2000
  -29.5695  -16.1458   20.2903 C   0  0  0  0  0  0
  -30.2402  -13.5116   19.6219 C   0  0  0  0  0  0
  -29.5288  -12.8113   18.4161 C   0  0  0  0  0  0
  -28.1348  -12.3239   18.8223 C   0  0  0  0  0  0
  -27.4895  -13.3269   19.7929 C   0  0  2  0  0  0
  -28.3750  -13.8153   20.9432 C   0  0  0  0  0  0
  -25.1883  -13.8292   20.5823 C   0  0  0  0  0  0
  -24.1359  -13.0413   20.9351 C   0  0  0  0  0  0
  -24.6046  -11.6917   20.8823 C   0  0  0  0  0  0
  -23.8879  -10.4217   21.0445 C   0  0  0  0  0  0
  -24.3535   -9.4181   21.9228 C   0  0  0  0  0  0
  -23.6219   -8.2241   22.0800 C   0  0  0  0  0  0
  -22.4251   -8.0242   21.3556 C   0  0  0  0  0  0
  -21.9804   -9.0196   20.4718 C   0  0  0  0  0  0
  -22.7069  -10.2070   20.3080 C   0  0  0  0  0  0
  -21.6867   -6.0737   22.5281 C   0  0  0  0  0  0
  -21.3986   -6.5622   23.8221 C   0  0  0  0  0  0
  -21.3627   -5.6775   24.9189 C   0  0  0  0  0  0
  -21.6061   -4.3045   24.7237 C   0  0  0  0  0  0
  -21.8820   -3.8127   23.4355 C   0  0  0  0  0  0
  -21.9184   -4.6954   22.3410 C   0  0  0  0  0  0
  -22.7422  -13.5175   21.2034 C   0  0  0  0  0  0
  -22.1684   -4.2116   21.1006 F   0  0  0  0  0  0
  -21.5608   -3.4542   25.7761 F   0  0  0  0  0  0
  -29.3662  -14.6418   20.2777 N   0  0  0  0  0  0
  -26.2085  -12.9546   20.2942 N   0  0  0  0  0  0
  -25.8904  -11.6648   20.5535 N   0  0  0  0  0  0
  -22.0029  -12.8220   22.0615 N   0  0  0  0  0  0
  -25.3361  -15.2079   20.4460 N   0  0  0  0  0  0
  -30.8355  -16.0873   20.1772 O   0  0  0  0  0  0
  -21.6656   -6.8853   21.4232 O   0  0  0  0  0  0
  -22.3171  -14.5483   20.6839 O   0  0  0  0  0  0
  -24.7566  -31.7661   22.7295 C   0  0  0  0  0  0
  -25.9561  -32.4098   23.6053 C   0  0  1  0  0  0
  -26.3657  -28.1576   21.6356 C   0  0  0  0  0  0
  -25.5646  -33.7871   24.0364 N   0  0  0  0  0  0
  -24.1463  -29.3366   20.8787 C   0  0  2  0  0  0
  -25.5093  -29.0105   19.3755 C   0  0  0  0  0  0
  -23.7195  -27.3975   22.2953 C   0  0  0  0  0  0
  -18.2463  -28.1331   22.6308 C   0  0  0  0  0  0
  -24.1409  -36.7192   23.2774 C   0  0  0  0  0  0
  -26.0463  -31.0828   20.7632 C   0  0  0  0  0  0
  -26.4655  -29.7569   20.1554 C   0  0  0  0  0  0
  -27.2700  -29.0036   21.0115 C   0  0  0  0  0  0
  -26.0727  -27.1396   20.6213 C   0  0  0  0  0  0
  -25.5298  -27.6068   19.4123 C   0  0  0  0  0  0
  -24.1335  -29.4749   19.3938 C   0  0  0  0  0  0
  -25.4133  -36.2755   24.0219 C   0  0  1  0  0  0
  -20.7968  -27.5243   23.2289 C   0  0  2  0  0  0
  -20.3650  -26.2570   22.5313 C   0  0  0  0  0  0
  -19.5300  -26.4292   21.2782 C   0  0  0  0  0  0
  -18.1655  -26.9617   21.6586 C   0  0  0  0  0  0
  -19.5118  -28.6134   23.1760 C   0  0  0  0  0  0
  -19.3148  -29.8300   23.9395 C   0  0  0  0  0  0
  -18.0264  -30.4511   24.1555 C   0  0  0  0  0  0
  -25.9235  -34.9332   23.4312 C   0  0  0  0  0  0
  -16.8349  -29.8514   23.6747 C   0  0  0  0  0  0
  -16.9711  -28.6647   22.9357 C   0  0  0  0  0  0
  -26.4518  -31.6584   24.9467 C   0  0  0  0  0  0
  -25.3358  -31.4123   25.9859 C   0  0  0  0  0  0
  -27.0526  -30.2829   24.6380 C   0  0  0  0  0  0
  -27.6037  -32.4344   25.6367 C   0  0  0  0  0  0
  -27.5500  -37.1737   24.8540 C   0  0  0  0  0  0
  -22.3996  -27.3002   23.0723 N   0  0  0  0  0  0
  -26.4127  -37.3717   23.9553 N   0  0  0  0  0  0
  -24.7990  -30.9073   21.4835 N   0  0  0  0  0  0
  -24.2927  -27.1096   23.3303 O   0  0  0  0  0  0
  -25.4069  -28.9770   22.6450 O   0  0  0  0  0  0
  -26.6442  -34.9392   22.4315 O   0  0  0  0  0  0
  -23.6860  -32.1724   23.2591 O   0  0  0  0  0  0
  -25.8401  -22.2247   20.3047 C   0  0  0  0  0  0
  -23.6399  -20.8743   20.4237 C   0  0  0  0  0  0
  -26.2020  -20.5210   20.4499 C   0  0  0  0  0  0
  -24.4571  -23.2711   20.3063 C   0  0  0  0  0  0
  -24.8361  -20.1480   20.7414 C   0  0  0  0  0  0
  -23.4537  -22.2686   20.1669 C   0  0  0  0  0  0
  -27.3631  -18.8358   20.4658 C   0  0  0  0  0  0
  -23.4879  -25.0251   20.1291 C   0  0  0  0  0  0
  -28.6435  -17.7956   20.2259 C   0  0  0  0  0  0
  -22.6998  -26.4975   20.1479 C   0  0  0  0  0  0
  -24.5689  -18.9568   21.6570 C   0  0  0  0  0  0
  -22.0335  -22.6418   19.7668 C   0  0  0  0  0  0
  -22.0163  -28.3712   20.9773 C   0  0  0  0  0  0
  -23.1883  -29.5509   22.8432 C   0  0  0  0  0  0
  -31.1826  -13.9129   19.2478 H   0  0  0  0  0  0
  -30.5549  -12.7783   20.3655 H   0  0  0  0  0  0
  -30.1377  -11.9913   18.0434 H   0  0  0  0  0  0
  -29.4442  -13.5429   17.6140 H   0  0  0  0  0  0
  -28.2548  -11.3659   19.3328 H   0  0  0  0  0  0
  -27.5125  -12.1479   17.9481 H   0  0  0  0  0  0
  -27.2871  -14.1933   19.1620 H   0  0  0  0  0  0
  -28.7779  -13.0090   21.5616 H   0  0  0  0  0  0
  -27.8226  -14.4628   21.6285 H   0  0  0  0  0  0
  -25.2655   -9.5794   22.4857 H   0  0  0  0  0  0
  -23.9956   -7.4683   22.7495 H   0  0  0  0  0  0
  -21.0765   -8.8715   19.9051 H   0  0  0  0  0  0
  -22.3481  -10.9682   19.6274 H   0  0  0  0  0  0
  -21.1983   -7.6131   23.9711 H   0  0  0  0  0  0
  -21.1441   -6.0523   25.9092 H   0  0  0  0  0  0
  -22.0619   -2.7580   23.2891 H   0  0  0  0  0  0
  -22.3563  -11.9892   22.5112 H   0  0  0  0  0  0
  -21.0679  -13.1418   22.2834 H   0  0  0  0  0  0
  -24.5471  -15.8336   20.5685 H   0  0  0  0  0  0
  -26.1720  -15.6801   20.1380 H   0  0  0  0  0  0
  -26.8435  -32.5139   22.9850 H   0  0  0  0  0  0
  -24.8466  -33.8421   24.7453 H   0  0  0  0  0  0
  -23.3554  -30.0588   20.7266 H   0  0  0  0  0  0
  -23.3684  -35.9496   23.3223 H   0  0  0  0  0  0
  -24.3390  -36.9223   22.2240 H   0  0  0  0  0  0
  -23.7263  -37.6260   23.7156 H   0  0  0  0  0  0
  -25.9359  -31.8031   19.9412 H   0  0  0  0  0  0
  -26.8946  -31.4169   21.3583 H   0  0  0  0  0  0
  -27.8660  -29.6051   21.6767 H   0  0  0  0  0  0
  -25.9363  -26.1144   20.9500 H   0  0  0  0  0  0
  -24.9080  -26.9845   18.7893 H   0  0  0  0  0  0
  -23.9524  -30.4909   18.9948 H   0  0  0  0  0  0
  -23.4984  -28.8064   18.8304 H   0  0  0  0  0  0
  -25.1441  -36.1123   25.0740 H   0  0  0  0  0  0
  -20.7475  -27.3145   24.2938 H   0  0  0  0  0  0
  -19.7937  -25.7020   23.2626 H   0  0  0  0  0  0
  -21.1625  -25.5523   22.2777 H   0  0  0  0  0  0
  -19.5012  -25.5020   20.7189 H   0  0  0  0  0  0
  -19.9359  -27.0523   20.4854 H   0  0  0  0  0  0
  -17.7543  -27.3500   20.7159 H   0  0  0  0  0  0
  -17.5295  -26.1434   21.9721 H   0  0  0  0  0  0
  -20.1617  -30.2260   24.4984 H   0  0  0  0  0  0
  -17.9449  -31.3103   24.8203 H   0  0  0  0  0  0
  -15.8510  -30.2334   23.9356 H   0  0  0  0  0  0
  -16.0834  -28.1608   22.5568 H   0  0  0  0  0  0
  -24.4347  -31.0620   25.4962 H   0  0  0  0  0  0
  -25.0630  -32.3150   26.5181 H   0  0  0  0  0  0
  -25.6042  -30.6380   26.7031 H   0  0  0  0  0  0
  -26.2596  -29.5369   24.6796 H   0  0  0  0  0  0
  -27.7669  -29.9772   25.4027 H   0  0  0  0  0  0
  -27.5866  -30.2590   23.6877 H   0  0  0  0  0  0
  -27.3393  -33.4349   25.9729 H   0  0  0  0  0  0
  -28.4506  -32.5287   24.9579 H   0  0  0  0  0  0
  -27.9807  -31.9008   26.5057 H   0  0  0  0  0  0
  -28.2507  -38.0078   24.7615 H   0  0  0  0  0  0
  -28.0972  -36.2569   24.6124 H   0  0  0  0  0  0
  -27.2362  -37.1226   25.9027 H   0  0  0  0  0  0
  -22.7069  -26.8519   23.9503 H   0  0  0  0  0  0
  -25.9745  -38.2622   24.1809 H   0  0  0  0  0  0
  -26.7290  -22.8303   20.1540 H   0  0  0  0  0  0
  -22.7287  -20.3142   20.4773 H   0  0  0  0  0  0
  -26.7926  -18.1251   21.0072 H   0  0  0  0  0  0
  -23.2915  -24.8659   19.0716 H   0  0  0  0  0  0
  -29.3767  -18.4095   19.7232 H   0  0  0  0  0  0
  -22.3276  -26.6209   19.1339 H   0  0  0  0  0  0
  -23.5111  -18.8948   21.9106 H   0  0  0  0  0  0
  -25.0736  -19.1055   22.6163 H   0  0  0  0  0  0
  -24.8112  -17.9948   21.2417 H   0  0  0  0  0  0
  -21.4094  -21.7547   19.6273 H   0  0  0  0  0  0
  -21.9707  -23.1936   18.8279 H   0  0  0  0  0  0
  -21.6002  -23.2584   20.5426 H   0  0  0  0  0  0
  -20.9634  -28.6302   21.1343 H   0  0  0  0  0  0
  -21.7988  -28.9827   20.0760 H   0  0  0  0  0  0
  -23.0114  -29.2917   23.8657 H   0  0  0  0  0  0
  -22.5748  -30.4294   22.9513 H   0  0  0  0  0  0
  1 25  1  0  0  0
  1 30  2  0  0  0
  1 79  1  0  0  0
  2  3  1  0  0  0
  2 25  1  0  0  0
  2 85  1  0  0  0
  2 86  1  0  0  0
  3  4  1  0  0  0
  3 87  1  0  0  0
  3 88  1  0  0  0
  4  5  1  0  0  0
  4 89  1  0  0  0
  4 90  1  0  0  0
  5  6  1  0  0  0
  5 26  1  0  0  0
  5 91  1  0  0  0
  6 25  1  0  0  0
  6 92  1  0  0  0
  6 93  1  0  0  0
  7  8  2  0  0  0
  7 26  1  0  0  0
  7 29  1  0  0  0
  8  9  1  0  0  0
  8 22  1  0  0  0
  9 10  1  0  0  0
  9 27  2  0  0  0
 10 11  2  0  0  0
 10 15  1  0  0  0
 11 12  1  0  0  0
 11 94  1  0  0  0
 12 13  2  0  0  0
 12 95  1  0  0  0
 13 14  1  0  0  0
 13 31  1  0  0  0
 14 15  2  0  0  0
 14 96  1  0  0  0
 15 97  1  0  0  0
 16 17  2  0  0  0
 16 21  1  0  0  0
 16 31  1  0  0  0
 17 18  1  0  0  0
 17 98  1  0  0  0
 18 19  2  0  0  0
 18 99  1  0  0  0
 19 20  1  0  0  0
 19 24  1  0  0  0
 20 21  2  0  0  0
 20100  1  0  0  0
 21 23  1  0  0  0
 22 28  1  0  0  0
 22 32  2  0  0  0
 26 27  1  0  0  0
 28101  1  0  0  0
 28102  1  0  0  0
 29103  1  0  0  0
 29104  1  0  0  0
 33 34  1  0  0  0
 33 66  1  0  0  0
 33 70  2  0  0  0
 34 36  1  0  0  0
 34 59  1  0  0  0
 34105  1  0  0  0
 35 44  2  0  0  0
 35 45  1  0  0  0
 35 68  1  0  0  0
 36 56  1  0  0  0
 36106  1  0  0  0
 37 39  1  0  0  0
 37 47  1  0  0  0
 37 66  1  0  0  0
 37107  1  0  0  0
 38 43  2  0  0  0
 38 46  1  0  0  0
 38 47  1  0  0  0
 39 64  1  0  0  0
 39 67  2  0  0  0
 40 52  1  0  0  0
 40 53  2  0  0  0
 40 58  1  0  0  0
 41108  1  0  0  0
 41109  1  0  0  0
 41110  1  0  0  0
 41 48  1  0  0  0
 42 43  1  0  0  0
 42 66  1  0  0  0
 42111  1  0  0  0
 42112  1  0  0  0
 43 44  1  0  0  0
 44113  1  0  0  0
 45 46  2  0  0  0
 45114  1  0  0  0
 46115  1  0  0  0
 47116  1  0  0  0
 47117  1  0  0  0
 48 56  1  0  0  0
 48 65  1  0  0  0
 48118  1  0  0  0
 49 50  1  0  0  0
 49 53  1  0  0  0
 49 64  1  0  0  0
 49119  1  0  0  0
 50 51  1  0  0  0
 50120  1  0  0  0
 50121  1  0  0  0
 51 52  1  0  0  0
 51122  1  0  0  0
 51123  1  0  0  0
 52124  1  0  0  0
 52125  1  0  0  0
 53 54  1  0  0  0
 54 55  2  0  0  0
 54126  1  0  0  0
 55 57  1  0  0  0
 55127  1  0  0  0
 56 69  2  0  0  0
 57 58  2  0  0  0
 57128  1  0  0  0
 58129  1  0  0  0
 59 60  1  0  0  0
 59 61  1  0  0  0
 59 62  1  0  0  0
 60130  1  0  0  0
 60131  1  0  0  0
 60132  1  0  0  0
 61133  1  0  0  0
 61134  1  0  0  0
 61135  1  0  0  0
 62136  1  0  0  0
 62137  1  0  0  0
 62138  1  0  0  0
 63 65  1  0  0  0
 63139  1  0  0  0
 63140  1  0  0  0
 63141  1  0  0  0
 64142  1  0  0  0
 65143  1  0  0  0
 68 84  1  0  0  0
 71 73  2  0  0  0
 71 74  1  0  0  0
 71144  1  0  0  0
 72 75  2  0  0  0
 72 76  1  0  0  0
 72145  1  0  0  0
 73 75  1  0  0  0
 73 77  1  0  0  0
 74 76  2  0  0  0
 74 78  1  0  0  0
 75 81  1  0  0  0
 76 82  1  0  0  0
 77 79  2  0  0  0
 77146  1  0  0  0
 78 80  2  0  0  0
 78147  1  0  0  0
 79148  1  0  0  0
 80 83  1  0  0  0
 80149  1  0  0  0
 81150  1  0  0  0
 81151  1  0  0  0
 81152  1  0  0  0
 82153  1  0  0  0
 82154  1  0  0  0
 82155  1  0  0  0
 83 84  1  0  0  0
 83156  1  0  0  0
 83157  1  0  0  0
 84158  1  0  0  0
 84159  1  0  0  0
M  ISO  4   1 100  68 101  79 100  84 101
M  END
> <chiral flag>
0

> <version>
0

> <s_m_source_file>
/data/baiqing/PycharmProjects/Reinvent-master-3.2/result/LINK_invent/BTK/process_docking_weight1_custom_product_contain_oxygen_bond_distance_aromatic_linkinvent_7_9_3/rearranged_h_0129.sdf

> <i_m_source_file_index>
63

> <r_mmod_Potential_Energy-OPLS-2005>
17856.6796875

> <r_mmod_Stretch_Energy-OPLS-2005>
6672.47119140625

> <r_mmod_Bend_Energy-OPLS-2005>
2370.18530273438

> <r_mmod_Torsional_Energy-OPLS-2005>
722.197875976562

> <r_mmod_Improper_Torsional_Energy-OPLS-2005>
118.190055847168

> <r_mmod_Van_der_Waal_Energy-OPLS-2005>
2207.7880859375

> <r_mmod_Electrostatic_Energy-OPLS-2005>
-351.455383300781

> <r_mmod_Solvation_Energy-OPLS-2005>
-190.286865234375

> <b_mmod_Minimization_Converged-OPLS-2005>
0

> <r_mmod_RMS_Derivative-OPLS-2005>
44.9222297668457

$$$$
63
                    3D
 Structure written by MMmdl.
151159  0  0  1  0            999 V2000
  -30.5760  -14.8768   20.4144 C   0  0  0  0  0  0
  -30.4330  -12.5316   19.5041 C   0  0  0  0  0  0
  -29.5209  -12.5167   18.2557 C   0  0  0  0  0  0
  -28.0488  -12.3190   18.6638 C   0  0  0  0  0  0
  -27.6307  -13.2457   19.8353 C   0  0  2  0  0  0
  -28.6693  -13.2535   20.9750 C   0  0  0  0  0  0
  -25.2471  -13.8217   20.5698 C   0  0  0  0  0  0
  -24.1782  -13.0443   20.9213 C   0  0  0  0  0  0
  -24.6392  -11.6927   20.8741 C   0  0  0  0  0  0
  -23.9076  -10.4297   21.0403 C   0  0  0  0  0  0
  -24.3625   -9.4212   21.9181 C   0  0  0  0  0  0
  -23.6299   -8.2247   22.0752 C   0  0  0  0  0  0
  -22.4281   -8.0283   21.3544 C   0  0  0  0  0  0
  -21.9917   -9.0256   20.4646 C   0  0  0  0  0  0
  -22.7247  -10.2135   20.3054 C   0  0  0  0  0  0
  -21.6856   -6.0737   22.5279 C   0  0  0  0  0  0
  -21.4016   -6.5640   23.8212 C   0  0  0  0  0  0
  -21.3661   -5.6792   24.9174 C   0  0  0  0  0  0
  -21.6044   -4.3055   24.7225 C   0  0  0  0  0  0
  -21.8819   -3.8147   23.4346 C   0  0  0  0  0  0
  -21.9193   -4.6964   22.3402 C   0  0  0  0  0  0
  -22.7804  -13.5215   21.1879 C   0  0  0  0  0  0
  -22.1662   -4.2149   21.0980 F   0  0  0  0  0  0
  -21.5628   -3.4539   25.7737 F   0  0  0  0  0  0
  -29.9628  -13.6293   20.3935 N   0  0  0  0  0  0
  -26.2887  -12.9445   20.3214 N   0  0  0  0  0  0
  -25.9322  -11.6576   20.5715 N   0  0  0  0  0  0
  -22.0459  -12.8200   22.0437 N   0  0  0  0  0  0
  -25.4155  -15.1945   20.4147 N   0  0  0  0  0  0
  -31.7833  -14.9015   20.1524 O   0  0  0  0  0  0
  -21.6644   -6.8880   21.4241 O   0  0  0  0  0  0
  -22.3483  -14.5518   20.6726 O   0  0  0  0  0  0
  -24.6396  -31.8479   23.1913 C   0  0  0  0  0  0
  -25.9185  -32.4715   23.8289 C   0  0  1  0  0  0
  -27.2149  -27.1758   20.1476 C   0  0  0  0  0  0
  -25.5947  -33.8519   24.2209 N   0  0  0  0  0  0
  -23.4405  -30.4685   21.5366 C   0  0  2  0  0  0
  -24.8882  -28.9002   20.1126 C   0  0  0  0  0  0
  -22.7545  -29.4568   22.4879 C   0  0  0  0  0  0
  -18.0300  -28.1392   22.8480 C   0  0  0  0  0  0
  -24.1491  -36.7265   23.2642 C   0  0  0  0  0  0
  -25.9934  -30.7349   21.3831 C   0  0  0  0  0  0
  -26.0647  -29.3493   20.7257 C   0  0  0  0  0  0
  -27.2313  -28.5035   20.7241 C   0  0  0  0  0  0
  -26.0125  -26.8157   19.5010 C   0  0  0  0  0  0
  -24.8726  -27.6457   19.4856 C   0  0  0  0  0  0
  -23.6640  -29.7987   20.1553 C   0  0  0  0  0  0
  -25.4122  -36.3045   24.0319 C   0  0  1  0  0  0
  -20.5910  -28.3714   23.1247 C   0  0  2  0  0  0
  -20.6786  -26.9423   22.5404 C   0  0  0  0  0  0
  -19.5759  -26.6382   21.5213 C   0  0  0  0  0  0
  -18.1941  -26.7931   22.1626 C   0  0  0  0  0  0
  -19.1556  -28.8871   23.2856 C   0  0  0  0  0  0
  -18.9474  -30.1468   23.8880 C   0  0  0  0  0  0
  -17.6471  -30.6591   24.0560 C   0  0  0  0  0  0
  -25.9069  -34.9418   23.5071 C   0  0  0  0  0  0
  -16.5362  -29.9085   23.6334 C   0  0  0  0  0  0
  -16.7285  -28.6502   23.0356 C   0  0  0  0  0  0
  -26.4520  -31.6570   25.0716 C   0  0  0  0  0  0
  -25.3715  -31.3747   26.1418 C   0  0  0  0  0  0
  -27.0382  -30.2973   24.6268 C   0  0  0  0  0  0
  -27.6054  -32.4330   25.7500 C   0  0  0  0  0  0
  -27.5576  -37.1790   24.8466 C   0  0  0  0  0  0
  -21.4242  -29.3048   22.3625 N   0  0  0  0  0  0
  -26.4289  -37.3753   23.9407 N   0  0  0  0  0  0
  -24.7109  -31.0372   22.0926 N   0  0  0  0  0  0
  -23.4207  -28.8113   23.3013 O   0  0  0  0  0  0
  -28.2864  -26.2273   20.1943 O   0  0  0  0  0  0
  -26.5652  -34.8910   22.4647 O   0  0  0  0  0  0
  -23.5525  -32.1336   23.7159 O   0  0  0  0  0  0
  -28.5720  -19.6269   20.1330 C   0  0  0  0  0  0
  -28.3578  -21.0739   20.0717 C   0  0  0  0  0  0
  -30.7837  -20.0008   20.8164 C   0  0  0  0  0  0
  -29.8256  -19.0047   20.4668 C   0  0  0  0  0  0
  -29.3557  -22.0732   20.3694 C   0  0  0  0  0  0
  -30.5843  -21.4310   20.7862 C   0  0  0  0  0  0
  -30.2913  -17.4812   20.4755 C   0  0  0  0  0  0
  -29.7553  -16.1803   20.5273 C   0  0  0  0  0  0
  -29.2719  -23.6805   20.1344 C   0  0  0  0  0  0
  -31.7863  -22.2553   21.2336 C   0  0  0  0  0  0
  -28.0130  -24.7043   20.2571 C   0  0  0  0  0  0
  -30.3087  -24.2598   19.7939 O   0  0  0  0  0  0
  -31.4734  -12.6582   19.2015 H   0  0  0  0  0  0
  -30.3918  -11.5737   20.0249 H   0  0  0  0  0  0
  -29.8294  -11.7259   17.5707 H   0  0  0  0  0  0
  -29.6293  -13.4555   17.7104 H   0  0  0  0  0  0
  -27.9287  -11.2758   18.9586 H   0  0  0  0  0  0
  -27.3922  -12.4699   17.8062 H   0  0  0  0  0  0
  -27.6019  -14.2518   19.4168 H   0  0  0  0  0  0
  -28.7304  -12.2763   21.4562 H   0  0  0  0  0  0
  -28.3806  -13.9614   21.7532 H   0  0  0  0  0  0
  -25.2769   -9.5690   22.4757 H   0  0  0  0  0  0
  -24.0008   -7.4639   22.7473 H   0  0  0  0  0  0
  -21.0847   -8.8775   19.8953 H   0  0  0  0  0  0
  -22.3701  -10.9673   19.6164 H   0  0  0  0  0  0
  -21.2010   -7.6148   23.9716 H   0  0  0  0  0  0
  -21.1483   -6.0523   25.9077 H   0  0  0  0  0  0
  -22.0597   -2.7609   23.2845 H   0  0  0  0  0  0
  -22.4086  -11.9867   22.4826 H   0  0  0  0  0  0
  -21.1074  -13.1215   22.2645 H   0  0  0  0  0  0
  -24.6499  -15.8490   20.5340 H   0  0  0  0  0  0
  -26.2668  -15.6368   20.0927 H   0  0  0  0  0  0
  -26.7250  -32.5335   23.1022 H   0  0  0  0  0  0
  -25.0075  -33.9640   25.0342 H   0  0  0  0  0  0
  -22.7411  -31.2932   21.3847 H   0  0  0  0  0  0
  -23.3757  -35.9594   23.3296 H   0  0  0  0  0  0
  -24.3576  -36.8903   22.2058 H   0  0  0  0  0  0
  -23.7243  -37.6459   23.6681 H   0  0  0  0  0  0
  -26.1435  -31.4911   20.6113 H   0  0  0  0  0  0
  -26.8663  -30.7846   22.0225 H   0  0  0  0  0  0
  -28.1312  -28.8442   21.2168 H   0  0  0  0  0  0
  -25.9223  -25.8615   19.0058 H   0  0  0  0  0  0
  -23.9741  -27.2981   18.9943 H   0  0  0  0  0  0
  -23.7984  -30.5732   19.3993 H   0  0  0  0  0  0
  -22.7795  -29.2390   19.8460 H   0  0  0  0  0  0
  -25.1309  -36.1878   25.0811 H   0  0  0  0  0  0
  -21.0002  -28.3301   24.1368 H   0  0  0  0  0  0
  -20.5684  -26.2327   23.3619 H   0  0  0  0  0  0
  -21.6652  -26.7436   22.1200 H   0  0  0  0  0  0
  -19.6921  -25.6289   21.1253 H   0  0  0  0  0  0
  -19.6694  -27.3183   20.6734 H   0  0  0  0  0  0
  -17.4209  -26.6674   21.4031 H   0  0  0  0  0  0
  -18.0343  -26.0078   22.9027 H   0  0  0  0  0  0
  -19.7949  -30.7289   24.2242 H   0  0  0  0  0  0
  -17.5024  -31.6269   24.5164 H   0  0  0  0  0  0
  -15.5361  -30.2981   23.7667 H   0  0  0  0  0  0
  -15.8686  -28.0815   22.7082 H   0  0  0  0  0  0
  -24.5892  -30.7098   25.7737 H   0  0  0  0  0  0
  -24.8907  -32.2926   26.4808 H   0  0  0  0  0  0
  -25.8006  -30.8940   27.0218 H   0  0  0  0  0  0
  -26.2990  -29.6700   24.1272 H   0  0  0  0  0  0
  -27.4008  -29.7264   25.4826 H   0  0  0  0  0  0
  -27.8891  -30.4221   23.9568 H   0  0  0  0  0  0
  -27.2648  -33.3644   26.2036 H   0  0  0  0  0  0
  -28.3887  -32.6870   25.0346 H   0  0  0  0  0  0
  -28.0698  -31.8484   26.5451 H   0  0  0  0  0  0
  -28.2590  -38.0090   24.7509 H   0  0  0  0  0  0
  -28.1075  -36.2619   24.6298 H   0  0  0  0  0  0
  -27.2292  -37.1444   25.8869 H   0  0  0  0  0  0
  -20.9446  -29.8763   21.6811 H   0  0  0  0  0  0
  -26.0159  -38.2823   24.1406 H   0  0  0  0  0  0
  -27.7490  -18.9828   19.8560 H   0  0  0  0  0  0
  -27.3886  -21.4192   19.7392 H   0  0  0  0  0  0
  -31.7595  -19.6422   21.1144 H   0  0  0  0  0  0
  -31.3681  -17.4447   20.3805 H   0  0  0  0  0  0
  -28.6849  -16.0907   20.6283 H   0  0  0  0  0  0
  -32.4982  -21.6559   21.8020 H   0  0  0  0  0  0
  -31.4848  -23.0785   21.8819 H   0  0  0  0  0  0
  -32.3168  -22.6620   20.3722 H   0  0  0  0  0  0
  -27.4957  -24.4879   21.1916 H   0  0  0  0  0  0
  -27.3314  -24.4247   19.4563 H   0  0  0  0  0  0
  1 25  1  0  0  0
  1 30  2  0  0  0
  1 78  1  0  0  0
  2  3  1  0  0  0
  2 25  1  0  0  0
  2 83  1  0  0  0
  2 84  1  0  0  0
  3  4  1  0  0  0
  3 85  1  0  0  0
  3 86  1  0  0  0
  4  5  1  0  0  0
  4 87  1  0  0  0
  4 88  1  0  0  0
  5  6  1  0  0  0
  5 26  1  0  0  0
  5 89  1  0  0  0
  6 25  1  0  0  0
  6 90  1  0  0  0
  6 91  1  0  0  0
  7  8  2  0  0  0
  7 26  1  0  0  0
  7 29  1  0  0  0
  8  9  1  0  0  0
  8 22  1  0  0  0
  9 10  1  0  0  0
  9 27  2  0  0  0
 10 11  2  0  0  0
 10 15  1  0  0  0
 11 12  1  0  0  0
 11 92  1  0  0  0
 12 13  2  0  0  0
 12 93  1  0  0  0
 13 14  1  0  0  0
 13 31  1  0  0  0
 14 15  2  0  0  0
 14 94  1  0  0  0
 15 95  1  0  0  0
 16 17  2  0  0  0
 16 21  1  0  0  0
 16 31  1  0  0  0
 17 18  1  0  0  0
 17 96  1  0  0  0
 18 19  2  0  0  0
 18 97  1  0  0  0
 19 20  1  0  0  0
 19 24  1  0  0  0
 20 21  2  0  0  0
 20 98  1  0  0  0
 21 23  1  0  0  0
 22 28  1  0  0  0
 22 32  2  0  0  0
 26 27  1  0  0  0
 28 99  1  0  0  0
 28100  1  0  0  0
 29101  1  0  0  0
 29102  1  0  0  0
 33 34  1  0  0  0
 33 66  1  0  0  0
 33 70  2  0  0  0
 34 36  1  0  0  0
 34 59  1  0  0  0
 34103  1  0  0  0
 35 44  2  0  0  0
 35 45  1  0  0  0
 35 68  1  0  0  0
 36 56  1  0  0  0
 36104  1  0  0  0
 37 39  1  0  0  0
 37 47  1  0  0  0
 37 66  1  0  0  0
 37105  1  0  0  0
 38 43  2  0  0  0
 38 46  1  0  0  0
 38 47  1  0  0  0
 39 64  1  0  0  0
 39 67  2  0  0  0
 40 52  1  0  0  0
 40 53  2  0  0  0
 40 58  1  0  0  0
 41106  1  0  0  0
 41107  1  0  0  0
 41108  1  0  0  0
 41 48  1  0  0  0
 42 43  1  0  0  0
 42 66  1  0  0  0
 42109  1  0  0  0
 42110  1  0  0  0
 43 44  1  0  0  0
 44111  1  0  0  0
 45 46  2  0  0  0
 45112  1  0  0  0
 46113  1  0  0  0
 47114  1  0  0  0
 47115  1  0  0  0
 48 56  1  0  0  0
 48 65  1  0  0  0
 48116  1  0  0  0
 49 50  1  0  0  0
 49 53  1  0  0  0
 49 64  1  0  0  0
 49117  1  0  0  0
 50 51  1  0  0  0
 50118  1  0  0  0
 50119  1  0  0  0
 51 52  1  0  0  0
 51120  1  0  0  0
 51121  1  0  0  0
 52122  1  0  0  0
 52123  1  0  0  0
 53 54  1  0  0  0
 54 55  2  0  0  0
 54124  1  0  0  0
 55 57  1  0  0  0
 55125  1  0  0  0
 56 69  2  0  0  0
 57 58  2  0  0  0
 57126  1  0  0  0
 58127  1  0  0  0
 59 60  1  0  0  0
 59 61  1  0  0  0
 59 62  1  0  0  0
 60128  1  0  0  0
 60129  1  0  0  0
 60130  1  0  0  0
 61131  1  0  0  0
 61132  1  0  0  0
 61133  1  0  0  0
 62134  1  0  0  0
 62135  1  0  0  0
 62136  1  0  0  0
 63 65  1  0  0  0
 63137  1  0  0  0
 63138  1  0  0  0
 63139  1  0  0  0
 64140  1  0  0  0
 65141  1  0  0  0
 68 81  1  0  0  0
 71 72  2  0  0  0
 71 74  1  0  0  0
 71142  1  0  0  0
 72 75  1  0  0  0
 72143  1  0  0  0
 73 74  2  0  0  0
 73 76  1  0  0  0
 73144  1  0  0  0
 74 77  1  0  0  0
 75 76  2  0  0  0
 75 79  1  0  0  0
 76 80  1  0  0  0
 77 78  2  0  0  0
 77145  1  0  0  0
 78146  1  0  0  0
 79 81  1  0  0  0
 79 82  2  0  0  0
 80147  1  0  0  0
 80148  1  0  0  0
 80149  1  0  0  0
 81150  1  0  0  0
 81151  1  0  0  0
M  ISO  4   1 100  68 101  78 100  81 101
M  END
> <chiral flag>
0

> <version>
0

> <s_m_source_file>
/data/baiqing/PycharmProjects/Reinvent-master-3.2/result/LINK_invent/BTK/process_docking_weight1_custom_product_contain_oxygen_bond_distance_aromatic_linkinvent_7_9_3/rearranged_h_0129.sdf

> <i_m_source_file_index>
64

> <r_mmod_Potential_Energy-OPLS-2005>
482.441436767578

> <r_mmod_Stretch_Energy-OPLS-2005>
202.858551025391

> <r_mmod_Bend_Energy-OPLS-2005>
235.537902832031

> <r_mmod_Torsional_Energy-OPLS-2005>
221.397354125977

> <r_mmod_Improper_Torsional_Energy-OPLS-2005>
5.31573152542114

> <r_mmod_Van_der_Waal_Energy-OPLS-2005>
143.680587768555

> <r_mmod_Electrostatic_Energy-OPLS-2005>
-262.150787353516

> <r_mmod_Solvation_Energy-OPLS-2005>
-212.884796142578

> <b_mmod_Minimization_Converged-OPLS-2005>
0

> <r_mmod_RMS_Derivative-OPLS-2005>
0.102922081947327

$$$$
64
                    3D
 Structure written by MMmdl.
160168  0  0  1  0            999 V2000
  -30.7197  -14.4352   20.5829 C   0  0  0  0  0  0
  -30.4242  -12.2910   19.4143 C   0  0  0  0  0  0
  -29.4914  -12.4983   18.2042 C   0  0  0  0  0  0
  -28.0146  -12.3615   18.6210 C   0  0  0  0  0  0
  -27.6668  -13.2000   19.8795 C   0  0  2  0  0  0
  -28.7098  -12.9735   20.9988 C   0  0  0  0  0  0
  -25.2650  -13.8163   20.5707 C   0  0  0  0  0  0
  -24.1895  -13.0449   20.9194 C   0  0  0  0  0  0
  -24.6430  -11.6903   20.8776 C   0  0  0  0  0  0
  -23.9085  -10.4280   21.0436 C   0  0  0  0  0  0
  -24.3631   -9.4183   21.9207 C   0  0  0  0  0  0
  -23.6299   -8.2222   22.0768 C   0  0  0  0  0  0
  -22.4277   -8.0281   21.3550 C   0  0  0  0  0  0
  -21.9919   -9.0261   20.4658 C   0  0  0  0  0  0
  -22.7265  -10.2133   20.3079 C   0  0  0  0  0  0
  -21.6848   -6.0743   22.5263 C   0  0  0  0  0  0
  -21.4017   -6.5646   23.8203 C   0  0  0  0  0  0
  -21.3661   -5.6802   24.9164 C   0  0  0  0  0  0
  -21.6047   -4.3061   24.7213 C   0  0  0  0  0  0
  -21.8831   -3.8152   23.4338 C   0  0  0  0  0  0
  -21.9192   -4.6973   22.3392 C   0  0  0  0  0  0
  -22.7912  -13.5235   21.1828 C   0  0  0  0  0  0
  -22.1667   -4.2167   21.0977 F   0  0  0  0  0  0
  -21.5620   -3.4540   25.7722 F   0  0  0  0  0  0
  -30.0408  -13.2684   20.4427 N   0  0  0  0  0  0
  -26.3074  -12.9314   20.3409 N   0  0  0  0  0  0
  -25.9353  -11.6480   20.5799 N   0  0  0  0  0  0
  -22.0574  -12.8225   22.0387 N   0  0  0  0  0  0
  -25.4402  -15.1888   20.4138 N   0  0  0  0  0  0
  -31.8422  -14.6230   20.1030 O   0  0  0  0  0  0
  -21.6638   -6.8889   21.4225 O   0  0  0  0  0  0
  -22.3576  -14.5522   20.6645 O   0  0  0  0  0  0
  -24.6112  -31.8701   23.2149 C   0  0  0  0  0  0
  -25.9014  -32.4829   23.8428 C   0  0  1  0  0  0
  -27.2303  -27.4467   20.0839 C   0  0  0  0  0  0
  -25.5877  -33.8632   24.2349 N   0  0  0  0  0  0
  -23.3972  -30.4971   21.5561 C   0  0  2  0  0  0
  -24.8366  -28.9606   20.1206 C   0  0  0  0  0  0
  -22.7374  -29.4677   22.5014 C   0  0  0  0  0  0
  -18.0271  -28.1358   22.8497 C   0  0  0  0  0  0
  -24.1483  -36.7317   23.2645 C   0  0  0  0  0  0
  -25.9269  -30.8366   21.3679 C   0  0  0  0  0  0
  -25.9978  -29.4741   20.7099 C   0  0  0  0  0  0
  -27.1943  -28.7249   20.6861 C   0  0  0  0  0  0
  -26.0433  -26.9362   19.5064 C   0  0  0  0  0  0
  -24.8528  -27.6889   19.5218 C   0  0  0  0  0  0
  -23.6026  -29.8318   20.1709 C   0  0  0  0  0  0
  -25.4106  -36.3120   24.0344 C   0  0  1  0  0  0
  -20.5847  -28.3672   23.1326 C   0  0  2  0  0  0
  -20.6773  -26.9404   22.5459 C   0  0  0  0  0  0
  -19.5766  -26.6333   21.5255 C   0  0  0  0  0  0
  -18.1933  -26.7906   22.1639 C   0  0  0  0  0  0
  -19.1514  -28.8837   23.2904 C   0  0  0  0  0  0
  -18.9433  -30.1437   23.8904 C   0  0  0  0  0  0
  -17.6437  -30.6589   24.0529 C   0  0  0  0  0  0
  -25.9025  -34.9485   23.5139 C   0  0  0  0  0  0
  -16.5350  -29.9067   23.6301 C   0  0  0  0  0  0
  -16.7264  -28.6474   23.0338 C   0  0  0  0  0  0
  -26.4455  -31.6608   25.0754 C   0  0  0  0  0  0
  -25.3739  -31.3706   26.1515 C   0  0  0  0  0  0
  -27.0280  -30.3049   24.6131 C   0  0  0  0  0  0
  -27.6032  -32.4340   25.7495 C   0  0  0  0  0  0
  -27.5578  -37.1816   24.8466 C   0  0  0  0  0  0
  -21.4105  -29.3022   22.3721 N   0  0  0  0  0  0
  -26.4292  -37.3802   23.9400 N   0  0  0  0  0  0
  -24.6643  -31.0810   22.1049 N   0  0  0  0  0  0
  -23.4146  -28.8241   23.3069 O   0  0  0  0  0  0
  -28.4372  -26.7771   20.0752 O   0  0  0  0  0  0
  -26.5604  -34.8932   22.4710 O   0  0  0  0  0  0
  -23.5309  -32.1443   23.7554 O   0  0  0  0  0  0
  -27.4253  -19.8865   21.6688 C   0  0  0  0  0  0
  -29.1676  -18.8647   20.3098 C   0  0  0  0  0  0
  -28.5585  -17.8648   22.4481 C   0  0  0  0  0  0
  -28.2085  -19.8869   20.4975 C   0  0  0  0  0  0
  -27.5914  -18.8751   22.6392 C   0  0  0  0  0  0
  -29.3656  -17.8637   21.2910 C   0  0  0  0  0  0
  -27.9835  -20.8888   19.4416 C   0  0  0  0  0  0
  -28.1710  -22.2226   19.5106 C   0  0  0  0  0  0
  -26.7242  -18.8789   23.8831 C   0  0  0  0  0  0
  -30.4823  -16.8342   21.1325 C   0  0  0  0  0  0
  -28.7103  -23.0196   20.6891 C   0  0  0  0  0  0
  -28.1236  -24.4458   20.8084 C   0  0  0  0  0  0
  -28.5234  -25.4086   19.6680 C   0  0  0  0  0  0
  -30.0329  -15.4407   21.1437 N   0  0  0  0  0  0
  -31.4663  -12.3953   19.1072 H   0  0  0  0  0  0
  -30.3313  -11.2780   19.8101 H   0  0  0  0  0  0
  -29.7249  -11.7750   17.4222 H   0  0  0  0  0  0
  -29.6612  -13.4840   17.7682 H   0  0  0  0  0  0
  -27.8236  -11.3052   18.8136 H   0  0  0  0  0  0
  -27.3615  -12.6407   17.7947 H   0  0  0  0  0  0
  -27.7166  -14.2490   19.5874 H   0  0  0  0  0  0
  -28.6885  -11.9387   21.3445 H   0  0  0  0  0  0
  -28.4762  -13.5779   21.8776 H   0  0  0  0  0  0
  -25.2796   -9.5633   22.4769 H   0  0  0  0  0  0
  -24.0017   -7.4607   22.7491 H   0  0  0  0  0  0
  -21.0846   -8.8800   19.8966 H   0  0  0  0  0  0
  -22.3756  -10.9681   19.6187 H   0  0  0  0  0  0
  -21.2021   -7.6162   23.9697 H   0  0  0  0  0  0
  -21.1474   -6.0543   25.9069 H   0  0  0  0  0  0
  -22.0609   -2.7616   23.2827 H   0  0  0  0  0  0
  -22.4208  -11.9868   22.4730 H   0  0  0  0  0  0
  -21.1201  -13.1250   22.2628 H   0  0  0  0  0  0
  -24.6814  -15.8484   20.5446 H   0  0  0  0  0  0
  -26.2955  -15.6291   20.0970 H   0  0  0  0  0  0
  -26.7078  -32.5533   23.1185 H   0  0  0  0  0  0
  -24.9991  -33.9811   25.0465 H   0  0  0  0  0  0
  -22.6873  -31.3149   21.4206 H   0  0  0  0  0  0
  -23.3739  -35.9652   23.3329 H   0  0  0  0  0  0
  -24.3574  -36.8911   22.2054 H   0  0  0  0  0  0
  -23.7240  -37.6533   23.6643 H   0  0  0  0  0  0
  -26.0475  -31.6103   20.6075 H   0  0  0  0  0  0
  -26.8109  -30.8777   21.9924 H   0  0  0  0  0  0
  -28.0944  -29.1256   21.1331 H   0  0  0  0  0  0
  -26.0108  -25.9657   19.0339 H   0  0  0  0  0  0
  -23.9543  -27.2845   19.0757 H   0  0  0  0  0  0
  -23.7176  -30.6112   19.4161 H   0  0  0  0  0  0
  -22.7227  -29.2592   19.8700 H   0  0  0  0  0  0
  -25.1282  -36.2001   25.0838 H   0  0  0  0  0  0
  -20.9914  -28.3292   24.1452 H   0  0  0  0  0  0
  -20.5699  -26.2244   23.3627 H   0  0  0  0  0  0
  -21.6640  -26.7471   22.1240 H   0  0  0  0  0  0
  -19.6992  -25.6242   21.1306 H   0  0  0  0  0  0
  -19.6720  -27.3112   20.6767 H   0  0  0  0  0  0
  -17.4209  -26.6650   21.4027 H   0  0  0  0  0  0
  -18.0312  -26.0051   22.9025 H   0  0  0  0  0  0
  -19.7891  -30.7271   24.2285 H   0  0  0  0  0  0
  -17.4976  -31.6277   24.5110 H   0  0  0  0  0  0
  -15.5346  -30.2963   23.7616 H   0  0  0  0  0  0
  -15.8663  -28.0800   22.7031 H   0  0  0  0  0  0
  -24.5895  -30.7065   25.7865 H   0  0  0  0  0  0
  -24.8942  -32.2855   26.5009 H   0  0  0  0  0  0
  -25.8109  -30.8852   27.0248 H   0  0  0  0  0  0
  -26.2819  -29.6823   24.1177 H   0  0  0  0  0  0
  -27.4030  -29.7280   25.4595 H   0  0  0  0  0  0
  -27.8668  -30.4366   23.9289 H   0  0  0  0  0  0
  -27.2641  -33.3619   26.2111 H   0  0  0  0  0  0
  -28.3800  -32.6942   25.0291 H   0  0  0  0  0  0
  -28.0742  -31.8453   26.5377 H   0  0  0  0  0  0
  -28.2616  -38.0096   24.7487 H   0  0  0  0  0  0
  -28.1054  -36.2624   24.6316 H   0  0  0  0  0  0
  -27.2292  -37.1497   25.8873 H   0  0  0  0  0  0
  -20.9260  -29.8682   21.6892 H   0  0  0  0  0  0
  -26.0190  -38.2879   24.1402 H   0  0  0  0  0  0
  -26.6787  -20.6574   21.8123 H   0  0  0  0  0  0
  -29.7685  -18.8688   19.4105 H   0  0  0  0  0  0
  -28.6995  -17.0989   23.1996 H   0  0  0  0  0  0
  -27.6046  -20.4871   18.5105 H   0  0  0  0  0  0
  -27.9450  -22.8009   18.6252 H   0  0  0  0  0  0
  -25.7638  -18.4054   23.6749 H   0  0  0  0  0  0
  -26.5320  -19.8983   24.2191 H   0  0  0  0  0  0
  -27.2023  -18.3378   24.7014 H   0  0  0  0  0  0
  -31.1943  -16.9683   21.9472 H   0  0  0  0  0  0
  -31.0350  -17.0445   20.2134 H   0  0  0  0  0  0
  -29.7942  -23.0834   20.5883 H   0  0  0  0  0  0
  -28.5311  -22.4738   21.6152 H   0  0  0  0  0  0
  -28.4884  -24.8707   21.7452 H   0  0  0  0  0  0
  -27.0383  -24.4035   20.9053 H   0  0  0  0  0  0
  -27.9785  -25.2066   18.7467 H   0  0  0  0  0  0
  -29.5708  -25.2425   19.4151 H   0  0  0  0  0  0
  -29.1069  -15.2467   21.4885 H   0  0  0  0  0  0
  1 25  1  0  0  0
  1 30  2  0  0  0
  1 84  1  0  0  0
  2  3  1  0  0  0
  2 25  1  0  0  0
  2 85  1  0  0  0
  2 86  1  0  0  0
  3  4  1  0  0  0
  3 87  1  0  0  0
  3 88  1  0  0  0
  4  5  1  0  0  0
  4 89  1  0  0  0
  4 90  1  0  0  0
  5  6  1  0  0  0
  5 26  1  0  0  0
  5 91  1  0  0  0
  6 25  1  0  0  0
  6 92  1  0  0  0
  6 93  1  0  0  0
  7  8  2  0  0  0
  7 26  1  0  0  0
  7 29  1  0  0  0
  8  9  1  0  0  0
  8 22  1  0  0  0
  9 10  1  0  0  0
  9 27  2  0  0  0
 10 11  2  0  0  0
 10 15  1  0  0  0
 11 12  1  0  0  0
 11 94  1  0  0  0
 12 13  2  0  0  0
 12 95  1  0  0  0
 13 14  1  0  0  0
 13 31  1  0  0  0
 14 15  2  0  0  0
 14 96  1  0  0  0
 15 97  1  0  0  0
 16 17  2  0  0  0
 16 21  1  0  0  0
 16 31  1  0  0  0
 17 18  1  0  0  0
 17 98  1  0  0  0
 18 19  2  0  0  0
 18 99  1  0  0  0
 19 20  1  0  0  0
 19 24  1  0  0  0
 20 21  2  0  0  0
 20100  1  0  0  0
 21 23  1  0  0  0
 22 28  1  0  0  0
 22 32  2  0  0  0
 26 27  1  0  0  0
 28101  1  0  0  0
 28102  1  0  0  0
 29103  1  0  0  0
 29104  1  0  0  0
 33 34  1  0  0  0
 33 66  1  0  0  0
 33 70  2  0  0  0
 34 36  1  0  0  0
 34 59  1  0  0  0
 34105  1  0  0  0
 35 44  2  0  0  0
 35 45  1  0  0  0
 35 68  1  0  0  0
 36 56  1  0  0  0
 36106  1  0  0  0
 37 39  1  0  0  0
 37 47  1  0  0  0
 37 66  1  0  0  0
 37107  1  0  0  0
 38 43  2  0  0  0
 38 46  1  0  0  0
 38 47  1  0  0  0
 39 64  1  0  0  0
 39 67  2  0  0  0
 40 52  1  0  0  0
 40 53  2  0  0  0
 40 58  1  0  0  0
 41108  1  0  0  0
 41109  1  0  0  0
 41110  1  0  0  0
 41 48  1  0  0  0
 42 43  1  0  0  0
 42 66  1  0  0  0
 42111  1  0  0  0
 42112  1  0  0  0
 43 44  1  0  0  0
 44113  1  0  0  0
 45 46  2  0  0  0
 45114  1  0  0  0
 46115  1  0  0  0
 47116  1  0  0  0
 47117  1  0  0  0
 48 56  1  0  0  0
 48 65  1  0  0  0
 48118  1  0  0  0
 49 50  1  0  0  0
 49 53  1  0  0  0
 49 64  1  0  0  0
 49119  1  0  0  0
 50 51  1  0  0  0
 50120  1  0  0  0
 50121  1  0  0  0
 51 52  1  0  0  0
 51122  1  0  0  0
 51123  1  0  0  0
 52124  1  0  0  0
 52125  1  0  0  0
 53 54  1  0  0  0
 54 55  2  0  0  0
 54126  1  0  0  0
 55 57  1  0  0  0
 55127  1  0  0  0
 56 69  2  0  0  0
 57 58  2  0  0  0
 57128  1  0  0  0
 58129  1  0  0  0
 59 60  1  0  0  0
 59 61  1  0  0  0
 59 62  1  0  0  0
 60130  1  0  0  0
 60131  1  0  0  0
 60132  1  0  0  0
 61133  1  0  0  0
 61134  1  0  0  0
 61135  1  0  0  0
 62136  1  0  0  0
 62137  1  0  0  0
 62138  1  0  0  0
 63 65  1  0  0  0
 63139  1  0  0  0
 63140  1  0  0  0
 63141  1  0  0  0
 64142  1  0  0  0
 65143  1  0  0  0
 68 83  1  0  0  0
 71 74  2  0  0  0
 71 75  1  0  0  0
 71144  1  0  0  0
 72 74  1  0  0  0
 72 76  2  0  0  0
 72145  1  0  0  0
 73 75  2  0  0  0
 73 76  1  0  0  0
 73146  1  0  0  0
 74 77  1  0  0  0
 75 79  1  0  0  0
 76 80  1  0  0  0
 77 78  2  0  0  0
 77147  1  0  0  0
 78 81  1  0  0  0
 78148  1  0  0  0
 79149  1  0  0  0
 79150  1  0  0  0
 79151  1  0  0  0
 80 84  1  0  0  0
 80152  1  0  0  0
 80153  1  0  0  0
 81 82  1  0  0  0
 81154  1  0  0  0
 81155  1  0  0  0
 82 83  1  0  0  0
 82156  1  0  0  0
 82157  1  0  0  0
 83158  1  0  0  0
 83159  1  0  0  0
 84160  1  0  0  0
M  ISO  4   1 100  68 101  83 101  84 100
M  END
> <chiral flag>
0

> <version>
0

> <s_m_source_file>
/data/baiqing/PycharmProjects/Reinvent-master-3.2/result/LINK_invent/BTK/process_docking_weight1_custom_product_contain_oxygen_bond_distance_aromatic_linkinvent_7_9_3/rearranged_h_0129.sdf

> <i_m_source_file_index>
65

> <r_mmod_Potential_Energy-OPLS-2005>
-91.7723770141602

> <r_mmod_Stretch_Energy-OPLS-2005>
33.2890472412109

> <r_mmod_Bend_Energy-OPLS-2005>
98.0957489013672

> <r_mmod_Torsional_Energy-OPLS-2005>
220.632263183594

> <r_mmod_Improper_Torsional_Energy-OPLS-2005>
3.8362774848938

> <r_mmod_Van_der_Waal_Energy-OPLS-2005>
148.322174072266

> <r_mmod_Electrostatic_Energy-OPLS-2005>
-411.976013183594

> <r_mmod_Solvation_Energy-OPLS-2005>
-194.868041992188

> <b_mmod_Minimization_Converged-OPLS-2005>
0

> <r_mmod_RMS_Derivative-OPLS-2005>
2.84631943702698

$$$$
65
                    3D
 Structure written by MMmdl.
156164  0  0  1  0            999 V2000
  -27.2857  -17.4476   20.8934 C   0  0  0  0  0  0
  -29.2808  -14.9553   19.8141 C   0  0  0  0  0  0
  -29.2795  -13.6120   18.7951 C   0  0  0  0  0  0
  -28.2313  -12.5626   19.1381 C   0  0  0  0  0  0
  -27.2844  -13.4360   19.9315 C   0  0  2  0  0  0
  -27.7835  -14.3309   21.1250 C   0  0  0  0  0  0
  -25.0069  -13.7984   20.5272 C   0  0  0  0  0  0
  -24.0181  -12.9933   20.9356 C   0  0  0  0  0  0
  -24.5431  -11.6634   20.8953 C   0  0  0  0  0  0
  -23.8551  -10.3983   21.0548 C   0  0  0  0  0  0
  -24.3325   -9.4010   21.9282 C   0  0  0  0  0  0
  -23.6127   -8.1998   22.0783 C   0  0  0  0  0  0
  -22.4129   -8.0019   21.3531 C   0  0  0  0  0  0
  -21.9642   -8.9911   20.4626 C   0  0  0  0  0  0
  -22.6835  -10.1818   20.3088 C   0  0  0  0  0  0
  -21.6777   -6.0578   22.5296 C   0  0  0  0  0  0
  -21.3949   -6.5550   23.8203 C   0  0  0  0  0  0
  -21.3643   -5.6748   24.9197 C   0  0  0  0  0  0
  -21.6053   -4.3008   24.7277 C   0  0  0  0  0  0
  -21.8836   -3.8052   23.4417 C   0  0  0  0  0  0
  -21.9162   -4.6826   22.3446 C   0  0  0  0  0  0
  -22.6386  -13.4687   21.2155 C   0  0  0  0  0  0
  -22.1656   -4.2025   21.1022 F   0  0  0  0  0  0
  -21.5640   -3.4522   25.7803 F   0  0  0  0  0  0
  -27.9250  -15.7833   20.5895 N   0  0  0  0  0  0
  -26.0551  -12.9456   20.3085 N   0  0  0  0  0  0
  -25.8299  -11.6519   20.5794 N   0  0  0  0  0  0
  -21.9307  -12.7765   22.0922 N   0  0  0  0  0  0
  -25.0877  -15.1754   20.3132 N   0  0  0  0  0  0
  -28.6374  -17.4887   20.7236 O   0  0  0  0  0  0
  -21.6530   -6.8635   21.4230 O   0  0  0  0  0  0
  -22.2141  -14.5048   20.7033 O   0  0  0  0  0  0
  -24.6570  -32.1147   22.9698 C   0  0  0  0  0  0
  -25.9386  -32.5645   23.7657 C   0  0  1  0  0  0
  -26.2857  -27.5312   21.2405 C   0  0  0  0  0  0
  -25.6241  -33.9128   24.2165 N   0  0  0  0  0  0
  -23.5205  -30.7687   21.0651 C   0  0  2  0  0  0
  -25.0489  -29.2632   19.7184 C   0  0  0  0  0  0
  -23.3770  -29.4936   21.8268 C   0  0  0  0  0  0
  -19.4527  -25.7090   23.4633 C   0  0  0  0  0  0
  -24.1491  -36.7635   23.2644 C   0  0  0  0  0  0
  -26.0377  -31.1496   21.0988 C   0  0  0  0  0  0
  -26.0911  -29.7226   20.5522 C   0  0  0  0  0  0
  -26.9155  -28.7785   21.1685 C   0  0  0  0  0  0
  -25.8021  -26.9973   20.0158 C   0  0  0  0  0  0
  -25.0230  -27.9135   19.2906 C   0  0  0  0  0  0
  -23.8341  -30.1838   19.6589 C   0  0  0  0  0  0
  -25.4107  -36.3456   24.0346 C   0  0  1  0  0  0
  -22.0033  -27.0920   22.5581 C   0  0  2  0  0  0
  -22.3325  -26.4653   21.0116 C   0  0  0  0  0  0
  -21.4002  -25.7157   19.8829 C   0  0  0  0  0  0
  -20.3115  -24.6752   20.4571 C   0  0  0  0  0  0
  -20.3813  -26.9279   23.8760 C   0  0  0  0  0  0
  -19.6526  -28.1182   24.7047 C   0  0  0  0  0  0
  -18.4342  -28.8875   24.3910 C   0  0  0  0  0  0
  -25.9136  -35.0003   23.5003 C   0  0  0  0  0  0
  -17.5449  -28.0289   23.7653 C   0  0  0  0  0  0
  -18.0154  -26.5959   23.5997 C   0  0  0  0  0  0
  -26.4339  -31.6961   25.0060 C   0  0  0  0  0  0
  -25.3518  -31.3837   26.0599 C   0  0  0  0  0  0
  -27.0590  -30.3646   24.5456 C   0  0  0  0  0  0
  -27.5781  -32.4499   25.7341 C   0  0  0  0  0  0
  -27.5629  -37.1981   24.8454 C   0  0  0  0  0  0
  -22.6214  -28.3549   21.6315 N   0  0  0  0  0  0
  -26.4276  -37.4128   23.9505 N   0  0  0  0  0  0
  -24.7270  -31.5386   21.6938 N   0  0  0  0  0  0
  -24.1661  -29.5665   22.6917 O   0  0  0  0  0  0
  -25.6446  -27.1032   22.4892 O   0  0  0  0  0  0
  -26.5560  -34.9545   22.4474 O   0  0  0  0  0  0
  -23.5683  -32.2570   23.5557 O   0  0  0  0  0  0
  -18.4525  -25.3492   21.4442 C   0  0  0  0  0  0
  -18.8915  -23.6970   21.9950 C   0  0  0  0  0  0
  -21.3853  -24.6532   22.3689 C   0  0  0  0  0  0
  -19.9213  -26.4775   21.5389 C   0  0  0  0  0  0
  -22.0690  -22.7559   21.9631 C   0  0  0  0  0  0
  -20.3551  -22.7088   22.0941 C   0  0  0  0  0  0
  -20.0138  -28.3778   21.9253 C   0  0  0  0  0  0
  -24.1431  -20.8186   21.5639 C   0  0  0  0  0  0
  -25.3879  -19.0832   21.2967 C   0  0  0  0  0  0
  -20.9093  -29.2586   22.9650 C   0  0  0  0  0  0
  -19.9282  -21.2574   22.1908 C   0  0  0  0  0  0
  -22.5196  -28.7168   24.1843 C   0  0  0  0  0  0
  -24.3825  -27.5933   23.7882 C   0  0  0  0  0  0
  -29.6921  -15.7386   19.1751 H   0  0  0  0  0  0
  -30.0932  -14.8474   20.5395 H   0  0  0  0  0  0
  -30.2719  -13.1624   18.7414 H   0  0  0  0  0  0
  -29.0707  -13.9715   17.7870 H   0  0  0  0  0  0
  -28.6405  -11.7705   19.7650 H   0  0  0  0  0  0
  -27.7647  -12.1178   18.2575 H   0  0  0  0  0  0
  -26.9815  -14.1148   19.1272 H   0  0  0  0  0  0
  -28.6123  -13.8968   21.6953 H   0  0  0  0  0  0
  -27.0443  -14.4194   21.9233 H   0  0  0  0  0  0
  -25.2416   -9.5640   22.4903 H   0  0  0  0  0  0
  -23.9867   -7.4400   22.7503 H   0  0  0  0  0  0
  -21.0579   -8.8325   19.8947 H   0  0  0  0  0  0
  -22.3208  -10.9356   19.6238 H   0  0  0  0  0  0
  -21.1930   -7.6063   23.9663 H   0  0  0  0  0  0
  -21.1457   -6.0499   25.9087 H   0  0  0  0  0  0
  -22.0635   -2.7518   23.2953 H   0  0  0  0  0  0
  -22.3013  -11.9440   22.5260 H   0  0  0  0  0  0
  -21.0013  -13.0838   22.3405 H   0  0  0  0  0  0
  -24.2400  -15.7321   20.2937 H   0  0  0  0  0  0
  -25.8384  -15.5548   19.7544 H   0  0  0  0  0  0
  -26.8031  -32.6640   23.1159 H   0  0  0  0  0  0
  -25.0343  -34.0034   25.0294 H   0  0  0  0  0  0
  -22.6084  -31.3638   21.0801 H   0  0  0  0  0  0
  -23.3758  -35.9962   23.3238 H   0  0  0  0  0  0
  -24.3620  -36.9343   22.2084 H   0  0  0  0  0  0
  -23.7241  -37.6814   23.6702 H   0  0  0  0  0  0
  -26.2432  -31.8327   20.2730 H   0  0  0  0  0  0
  -26.8971  -31.2378   21.7519 H   0  0  0  0  0  0
  -27.4718  -29.1211   22.0259 H   0  0  0  0  0  0
  -25.4848  -25.9664   19.9464 H   0  0  0  0  0  0
  -24.2740  -27.5572   18.5980 H   0  0  0  0  0  0
  -24.0637  -30.9958   18.9689 H   0  0  0  0  0  0
  -22.9785  -29.6596   19.2262 H   0  0  0  0  0  0
  -25.1283  -36.2198   25.0826 H   0  0  0  0  0  0
  -22.7054  -26.5224   23.0676 H   0  0  0  0  0  0
  -23.1277  -25.7432   21.2206 H   0  0  0  0  0  0
  -22.9841  -26.9087   20.2488 H   0  0  0  0  0  0
  -22.0412  -25.1849   19.1765 H   0  0  0  0  0  0
  -20.9118  -26.4637   19.2533 H   0  0  0  0  0  0
  -19.5737  -24.6427   19.6358 H   0  0  0  0  0  0
  -20.7796  -23.7401   20.1572 H   0  0  0  0  0  0
  -20.2701  -28.7315   25.3413 H   0  0  0  0  0  0
  -18.1744  -29.8563   24.7944 H   0  0  0  0  0  0
  -16.5101  -28.3066   23.6253 H   0  0  0  0  0  0
  -17.1443  -25.9893   23.3858 H   0  0  0  0  0  0
  -24.5385  -30.7957   25.6409 H   0  0  0  0  0  0
  -24.9268  -32.2969   26.4762 H   0  0  0  0  0  0
  -25.7645  -30.8059   26.8879 H   0  0  0  0  0  0
  -27.4058  -29.7693   25.3937 H   0  0  0  0  0  0
  -27.9242  -30.5429   23.9055 H   0  0  0  0  0  0
  -26.3584  -29.7577   23.9828 H   0  0  0  0  0  0
  -27.2323  -33.3793   26.1884 H   0  0  0  0  0  0
  -28.3865  -32.7108   25.0478 H   0  0  0  0  0  0
  -28.0124  -31.8519   26.5369 H   0  0  0  0  0  0
  -28.2556  -38.0373   24.7662 H   0  0  0  0  0  0
  -28.1209  -36.2929   24.5990 H   0  0  0  0  0  0
  -27.2421  -37.1328   25.8869 H   0  0  0  0  0  0
  -22.1193  -28.4083   20.7593 H   0  0  0  0  0  0
  -26.0178  -38.3183   24.1627 H   0  0  0  0  0  0
  -17.4353  -25.6823   21.2849 H   0  0  0  0  0  0
  -18.0013  -23.0931   22.1033 H   0  0  0  0  0  0
  -22.1056  -24.8104   23.1439 H   0  0  0  0  0  0
  -19.2790  -28.9402   21.3646 H   0  0  0  0  0  0
  -24.9295  -21.5316   21.3590 H   0  0  0  0  0  0
  -24.6260  -18.3354   21.4661 H   0  0  0  0  0  0
  -20.6780  -30.3130   23.0189 H   0  0  0  0  0  0
  -19.2920  -21.1008   23.0610 H   0  0  0  0  0  0
  -20.7803  -20.5804   22.2614 H   0  0  0  0  0  0
  -19.3625  -20.9780   21.3006 H   0  0  0  0  0  0
  -22.1861  -28.2297   25.0946 H   0  0  0  0  0  0
  -22.8084  -29.6744   24.6221 H   0  0  0  0  0  0
  -24.2777  -26.6433   24.3161 H   0  0  0  0  0  0
  -25.0543  -28.0728   24.5006 H   0  0  0  0  0  0
  1 25  1  0  0  0
  1 30  2  0  0  0
  1 79  1  0  0  0
  2  3  1  0  0  0
  2 25  1  0  0  0
  2 84  1  0  0  0
  2 85  1  0  0  0
  3  4  1  0  0  0
  3 86  1  0  0  0
  3 87  1  0  0  0
  4  5  1  0  0  0
  4 88  1  0  0  0
  4 89  1  0  0  0
  5  6  1  0  0  0
  5 26  1  0  0  0
  5 90  1  0  0  0
  6 25  1  0  0  0
  6 91  1  0  0  0
  6 92  1  0  0  0
  7  8  2  0  0  0
  7 26  1  0  0  0
  7 29  1  0  0  0
  8  9  1  0  0  0
  8 22  1  0  0  0
  9 10  1  0  0  0
  9 27  2  0  0  0
 10 11  2  0  0  0
 10 15  1  0  0  0
 11 12  1  0  0  0
 11 93  1  0  0  0
 12 13  2  0  0  0
 12 94  1  0  0  0
 13 14  1  0  0  0
 13 31  1  0  0  0
 14 15  2  0  0  0
 14 95  1  0  0  0
 15 96  1  0  0  0
 16 17  2  0  0  0
 16 21  1  0  0  0
 16 31  1  0  0  0
 17 18  1  0  0  0
 17 97  1  0  0  0
 18 19  2  0  0  0
 18 98  1  0  0  0
 19 20  1  0  0  0
 19 24  1  0  0  0
 20 21  2  0  0  0
 20 99  1  0  0  0
 21 23  1  0  0  0
 22 28  1  0  0  0
 22 32  2  0  0  0
 26 27  1  0  0  0
 28100  1  0  0  0
 28101  1  0  0  0
 29102  1  0  0  0
 29103  1  0  0  0
 33 34  1  0  0  0
 33 66  1  0  0  0
 33 70  2  0  0  0
 34 36  1  0  0  0
 34 59  1  0  0  0
 34104  1  0  0  0
 35 44  2  0  0  0
 35 45  1  0  0  0
 35 68  1  0  0  0
 36 56  1  0  0  0
 36105  1  0  0  0
 37 39  1  0  0  0
 37 47  1  0  0  0
 37 66  1  0  0  0
 37106  1  0  0  0
 38 43  2  0  0  0
 38 46  1  0  0  0
 38 47  1  0  0  0
 39 64  1  0  0  0
 39 67  2  0  0  0
 40 52  1  0  0  0
 40 53  2  0  0  0
 40 58  1  0  0  0
 41107  1  0  0  0
 41108  1  0  0  0
 41109  1  0  0  0
 41 48  1  0  0  0
 42 43  1  0  0  0
 42 66  1  0  0  0
 42110  1  0  0  0
 42111  1  0  0  0
 43 44  1  0  0  0
 44112  1  0  0  0
 45 46  2  0  0  0
 45113  1  0  0  0
 46114  1  0  0  0
 47115  1  0  0  0
 47116  1  0  0  0
 48 56  1  0  0  0
 48 65  1  0  0  0
 48117  1  0  0  0
 49 50  1  0  0  0
 49 53  1  0  0  0
 49 64  1  0  0  0
 49118  1  0  0  0
 50 51  1  0  0  0
 50119  1  0  0  0
 50120  1  0  0  0
 51 52  1  0  0  0
 51121  1  0  0  0
 51122  1  0  0  0
 52123  1  0  0  0
 52124  1  0  0  0
 53 54  1  0  0  0
 54 55  2  0  0  0
 54125  1  0  0  0
 55 57  1  0  0  0
 55126  1  0  0  0
 56 69  2  0  0  0
 57 58  2  0  0  0
 57127  1  0  0  0
 58128  1  0  0  0
 59 60  1  0  0  0
 59 61  1  0  0  0
 59 62  1  0  0  0
 60129  1  0  0  0
 60130  1  0  0  0
 60131  1  0  0  0
 61132  1  0  0  0
 61133  1  0  0  0
 61134  1  0  0  0
 62135  1  0  0  0
 62136  1  0  0  0
 62137  1  0  0  0
 63 65  1  0  0  0
 63138  1  0  0  0
 63139  1  0  0  0
 63140  1  0  0  0
 64141  1  0  0  0
 65142  1  0  0  0
 68 83  1  0  0  0
 71 72  2  0  0  0
 71 74  1  0  0  0
 71143  1  0  0  0
 72 76  1  0  0  0
 72144  1  0  0  0
 73 74  2  0  0  0
 73 75  1  0  0  0
 73145  1  0  0  0
 74 77  1  0  0  0
 75 76  2  0  0  0
 75 78  1  0  0  0
 76 81  1  0  0  0
 77 80  2  0  0  0
 77146  1  0  0  0
 78 79  2  0  0  0
 78147  1  0  0  0
 79148  1  0  0  0
 80 82  1  0  0  0
 80149  1  0  0  0
 81150  1  0  0  0
 81151  1  0  0  0
 81152  1  0  0  0
 82 83  1  0  0  0
 82153  1  0  0  0
 82154  1  0  0  0
 83155  1  0  0  0
 83156  1  0  0  0
M  ISO  4   1 100  68 101  79 100  83 101
M  END
> <chiral flag>
0

> <version>
0

> <s_m_source_file>
/data/baiqing/PycharmProjects/Reinvent-master-3.2/result/LINK_invent/BTK/process_docking_weight1_custom_product_contain_oxygen_bond_distance_aromatic_linkinvent_7_9_3/rearranged_h_0129.sdf

> <i_m_source_file_index>
66

> <r_mmod_Potential_Energy-OPLS-2005>
40895.8125

> <r_mmod_Stretch_Energy-OPLS-2005>
18270.060546875

> <r_mmod_Bend_Energy-OPLS-2005>
2685.6279296875

> <r_mmod_Torsional_Energy-OPLS-2005>
806.054260253906

> <r_mmod_Improper_Torsional_Energy-OPLS-2005>
87.2986373901367

> <r_mmod_Van_der_Waal_Energy-OPLS-2005>
4416.07421875

> <r_mmod_Electrostatic_Energy-OPLS-2005>
-320.570770263672

> <r_mmod_Solvation_Energy-OPLS-2005>
-175.084106445312

> <b_mmod_Minimization_Converged-OPLS-2005>
0

> <r_mmod_RMS_Derivative-OPLS-2005>
8.44067192077637

$$$$
66
                    3D
 Structure written by MMmdl.
162170  0  0  1  0            999 V2000
  -30.7231  -14.3981   20.6051 C   0  0  0  0  0  0
  -30.4154  -12.2683   19.4096 C   0  0  0  0  0  0
  -29.4894  -12.5125   18.2006 C   0  0  0  0  0  0
  -28.0084  -12.3824   18.6101 C   0  0  0  0  0  0
  -27.6675  -13.1996   19.8850 C   0  0  2  0  0  0
  -28.7053  -12.9342   20.9979 C   0  0  0  0  0  0
  -25.2622  -13.8161   20.5685 C   0  0  0  0  0  0
  -24.1845  -13.0433   20.9140 C   0  0  0  0  0  0
  -24.6389  -11.6904   20.8699 C   0  0  0  0  0  0
  -23.9050  -10.4290   21.0394 C   0  0  0  0  0  0
  -24.3610   -9.4211   21.9173 C   0  0  0  0  0  0
  -23.6291   -8.2242   22.0747 C   0  0  0  0  0  0
  -22.4270   -8.0272   21.3540 C   0  0  0  0  0  0
  -21.9904   -9.0242   20.4643 C   0  0  0  0  0  0
  -22.7225  -10.2126   20.3049 C   0  0  0  0  0  0
  -21.6851   -6.0725   22.5274 C   0  0  0  0  0  0
  -21.4018   -6.5635   23.8207 C   0  0  0  0  0  0
  -21.3661   -5.6793   24.9172 C   0  0  0  0  0  0
  -21.6042   -4.3054   24.7225 C   0  0  0  0  0  0
  -21.8820   -3.8142   23.4350 C   0  0  0  0  0  0
  -21.9196   -4.6953   22.3405 C   0  0  0  0  0  0
  -22.7876  -13.5243   21.1823 C   0  0  0  0  0  0
  -22.1660   -4.2135   21.0981 F   0  0  0  0  0  0
  -21.5631   -3.4541   25.7742 F   0  0  0  0  0  0
  -30.0438  -13.2289   20.4573 N   0  0  0  0  0  0
  -26.3050  -12.9311   20.3414 N   0  0  0  0  0  0
  -25.9313  -11.6470   20.5743 N   0  0  0  0  0  0
  -22.0534  -12.8213   22.0394 N   0  0  0  0  0  0
  -25.4389  -15.1867   20.4137 N   0  0  0  0  0  0
  -31.8350  -14.5888   20.0926 O   0  0  0  0  0  0
  -21.6633   -6.8863   21.4238 O   0  0  0  0  0  0
  -22.3551  -14.5543   20.6685 O   0  0  0  0  0  0
  -24.6080  -31.8747   23.2165 C   0  0  0  0  0  0
  -25.8968  -32.4881   23.8450 C   0  0  1  0  0  0
  -27.2270  -27.4723   20.1027 C   0  0  0  0  0  0
  -25.5840  -33.8682   24.2378 N   0  0  0  0  0  0
  -23.3945  -30.5012   21.5550 C   0  0  2  0  0  0
  -24.8404  -28.9731   20.1177 C   0  0  0  0  0  0
  -22.7373  -29.4711   22.5010 C   0  0  0  0  0  0
  -18.0273  -28.1351   22.8501 C   0  0  0  0  0  0
  -24.1482  -36.7329   23.2645 C   0  0  0  0  0  0
  -25.9189  -30.8537   21.3648 C   0  0  0  0  0  0
  -25.9976  -29.4910   20.7130 C   0  0  0  0  0  0
  -27.1945  -28.7458   20.7058 C   0  0  0  0  0  0
  -26.0599  -26.9710   19.4829 C   0  0  0  0  0  0
  -24.8636  -27.7106   19.5022 C   0  0  0  0  0  0
  -23.6013  -29.8371   20.1681 C   0  0  0  0  0  0
  -25.4100  -36.3152   24.0356 C   0  0  1  0  0  0
  -20.5852  -28.3678   23.1338 C   0  0  2  0  0  0
  -20.6811  -26.9438   22.5406 C   0  0  0  0  0  0
  -19.5787  -26.6411   21.5215 C   0  0  0  0  0  0
  -18.1965  -26.7892   22.1642 C   0  0  0  0  0  0
  -19.1506  -28.8840   23.2889 C   0  0  0  0  0  0
  -18.9430  -30.1473   23.8819 C   0  0  0  0  0  0
  -17.6430  -30.6583   24.0478 C   0  0  0  0  0  0
  -25.9019  -34.9519   23.5168 C   0  0  0  0  0  0
  -16.5328  -29.9054   23.6283 C   0  0  0  0  0  0
  -16.7254  -28.6467   23.0332 C   0  0  0  0  0  0
  -26.4437  -31.6624   25.0738 C   0  0  0  0  0  0
  -25.3738  -31.3662   26.1495 C   0  0  0  0  0  0
  -27.0257  -30.3085   24.6057 C   0  0  0  0  0  0
  -27.6038  -32.4324   25.7473 C   0  0  0  0  0  0
  -27.5585  -37.1813   24.8472 C   0  0  0  0  0  0
  -21.4093  -29.3097   22.3788 N   0  0  0  0  0  0
  -26.4308  -37.3808   23.9413 N   0  0  0  0  0  0
  -24.6583  -31.0902   22.1037 N   0  0  0  0  0  0
  -23.4180  -28.8166   23.2955 O   0  0  0  0  0  0
  -28.3887  -26.7430   20.1286 O   0  0  0  0  0  0
  -26.5600  -34.8946   22.4740 O   0  0  0  0  0  0
  -23.5271  -32.1458   23.7570 O   0  0  0  0  0  0
  -27.9070  -19.5142   23.2263 C   0  0  0  0  0  0
  -28.4786  -18.2647   22.9275 C   0  0  0  0  0  0
  -27.7828  -20.4881   22.2212 C   0  0  0  0  0  0
  -28.9500  -17.9769   21.6176 C   0  0  0  0  0  0
  -28.2457  -20.2278   20.9146 C   0  0  0  0  0  0
  -28.8400  -18.9755   20.6100 C   0  0  0  0  0  0
  -29.5630  -16.6898   21.2037 C   0  0  0  0  0  0
  -28.0664  -21.2345   19.8611 C   0  0  0  0  0  0
  -30.0002  -15.4307   21.3355 C   0  0  0  0  0  0
  -28.5469  -22.4877   19.8368 C   0  0  0  0  0  0
  -28.4900  -17.8329   18.3290 C   0  0  0  0  0  0
  -29.4040  -18.7122   19.2007 C   0  0  0  0  0  0
  -29.3956  -23.1698   20.8983 C   0  0  0  0  0  0
  -29.5548  -24.6764   20.6166 C   0  0  0  0  0  0
  -28.2289  -25.4396   20.6823 C   0  0  0  0  0  0
  -31.4612  -12.3527   19.1096 H   0  0  0  0  0  0
  -30.2957  -11.2497   19.7799 H   0  0  0  0  0  0
  -29.7216  -11.8071   17.4014 H   0  0  0  0  0  0
  -29.6707  -13.5081   17.7925 H   0  0  0  0  0  0
  -27.8058  -11.3255   18.7847 H   0  0  0  0  0  0
  -27.3605  -12.6832   17.7861 H   0  0  0  0  0  0
  -27.7271  -14.2538   19.6180 H   0  0  0  0  0  0
  -28.6621  -11.8871   21.3012 H   0  0  0  0  0  0
  -28.4686  -13.5031   21.8982 H   0  0  0  0  0  0
  -25.2761   -9.5674   22.4739 H   0  0  0  0  0  0
  -23.9994   -7.4634   22.7475 H   0  0  0  0  0  0
  -21.0828   -8.8763   19.8955 H   0  0  0  0  0  0
  -22.3687  -10.9658   19.6150 H   0  0  0  0  0  0
  -21.2009   -7.6142   23.9702 H   0  0  0  0  0  0
  -21.1486   -6.0526   25.9072 H   0  0  0  0  0  0
  -22.0601   -2.7602   23.2856 H   0  0  0  0  0  0
  -22.4169  -11.9868   22.4746 H   0  0  0  0  0  0
  -21.1159  -13.1238   22.2632 H   0  0  0  0  0  0
  -24.6892  -15.8553   20.5476 H   0  0  0  0  0  0
  -26.3175  -15.6230   20.1633 H   0  0  0  0  0  0
  -26.7046  -32.5635   23.1233 H   0  0  0  0  0  0
  -24.9992  -33.9884   25.0519 H   0  0  0  0  0  0
  -22.6825  -31.3178   21.4197 H   0  0  0  0  0  0
  -23.3758  -35.9647   23.3335 H   0  0  0  0  0  0
  -24.3577  -36.8915   22.2054 H   0  0  0  0  0  0
  -23.7209  -37.6531   23.6637 H   0  0  0  0  0  0
  -26.0238  -31.6227   20.5978 H   0  0  0  0  0  0
  -26.8081  -30.9113   21.9808 H   0  0  0  0  0  0
  -28.0842  -29.1326   21.1816 H   0  0  0  0  0  0
  -26.0659  -26.0164   18.9768 H   0  0  0  0  0  0
  -23.9751  -27.3108   19.0331 H   0  0  0  0  0  0
  -23.7036  -30.6128   19.4088 H   0  0  0  0  0  0
  -22.7263  -29.2561   19.8738 H   0  0  0  0  0  0
  -25.1269  -36.2061   25.0850 H   0  0  0  0  0  0
  -20.9930  -28.3234   24.1461 H   0  0  0  0  0  0
  -20.5811  -26.2302   23.3599 H   0  0  0  0  0  0
  -21.6675  -26.7546   22.1145 H   0  0  0  0  0  0
  -19.6978  -25.6365   21.1154 H   0  0  0  0  0  0
  -19.6723  -27.3254   20.6772 H   0  0  0  0  0  0
  -17.4238  -26.6627   21.4050 H   0  0  0  0  0  0
  -18.0396  -26.0009   22.9018 H   0  0  0  0  0  0
  -19.7897  -30.7371   24.2044 H   0  0  0  0  0  0
  -17.4982  -31.6293   24.5024 H   0  0  0  0  0  0
  -15.5337  -30.2966   23.7604 H   0  0  0  0  0  0
  -15.8658  -28.0766   22.7100 H   0  0  0  0  0  0
  -24.5921  -30.7008   25.7805 H   0  0  0  0  0  0
  -24.8919  -32.2782   26.5028 H   0  0  0  0  0  0
  -25.8125  -30.8765   27.0201 H   0  0  0  0  0  0
  -26.2765  -29.6853   24.1164 H   0  0  0  0  0  0
  -27.4095  -29.7311   25.4479 H   0  0  0  0  0  0
  -27.8571  -30.4424   23.9133 H   0  0  0  0  0  0
  -27.2686  -33.3622   26.2079 H   0  0  0  0  0  0
  -28.3805  -32.6890   25.0256 H   0  0  0  0  0  0
  -28.0742  -31.8430   26.5357 H   0  0  0  0  0  0
  -28.2615  -38.0096   24.7505 H   0  0  0  0  0  0
  -28.1066  -36.2633   24.6316 H   0  0  0  0  0  0
  -27.2313  -37.1472   25.8876 H   0  0  0  0  0  0
  -20.9188  -29.8868   21.7103 H   0  0  0  0  0  0
  -26.0230  -38.2906   24.1385 H   0  0  0  0  0  0
  -27.5515  -19.7217   24.2274 H   0  0  0  0  0  0
  -28.5535  -17.5329   23.7205 H   0  0  0  0  0  0
  -27.3220  -21.4394   22.4522 H   0  0  0  0  0  0
  -29.3896  -16.3687   22.2159 H   0  0  0  0  0  0
  -27.4688  -20.9092   19.0206 H   0  0  0  0  0  0
  -30.0520  -15.7690   20.3086 H   0  0  0  0  0  0
  -28.3166  -23.0784   18.9616 H   0  0  0  0  0  0
  -28.3173  -16.8554   18.7789 H   0  0  0  0  0  0
  -28.9394  -17.6574   17.3510 H   0  0  0  0  0  0
  -27.5180  -18.3000   18.1683 H   0  0  0  0  0  0
  -30.3908  -18.2521   19.2867 H   0  0  0  0  0  0
  -29.6130  -19.6435   18.6735 H   0  0  0  0  0  0
  -30.3765  -22.6911   20.9304 H   0  0  0  0  0  0
  -28.9499  -23.0156   21.8806 H   0  0  0  0  0  0
  -29.9838  -24.8117   19.6236 H   0  0  0  0  0  0
  -30.2579  -25.1196   21.3232 H   0  0  0  0  0  0
  -27.8971  -25.5168   21.7189 H   0  0  0  0  0  0
  -27.4654  -24.8781   20.1474 H   0  0  0  0  0  0
  1 25  1  0  0  0
  1 30  2  0  0  0
  1 79  1  0  0  0
  2  3  1  0  0  0
  2 25  1  0  0  0
  2 86  1  0  0  0
  2 87  1  0  0  0
  3  4  1  0  0  0
  3 88  1  0  0  0
  3 89  1  0  0  0
  4  5  1  0  0  0
  4 90  1  0  0  0
  4 91  1  0  0  0
  5  6  1  0  0  0
  5 26  1  0  0  0
  5 92  1  0  0  0
  6 25  1  0  0  0
  6 93  1  0  0  0
  6 94  1  0  0  0
  7  8  2  0  0  0
  7 26  1  0  0  0
  7 29  1  0  0  0
  8  9  1  0  0  0
  8 22  1  0  0  0
  9 10  1  0  0  0
  9 27  2  0  0  0
 10 11  2  0  0  0
 10 15  1  0  0  0
 11 12  1  0  0  0
 11 95  1  0  0  0
 12 13  2  0  0  0
 12 96  1  0  0  0
 13 14  1  0  0  0
 13 31  1  0  0  0
 14 15  2  0  0  0
 14 97  1  0  0  0
 15 98  1  0  0  0
 16 17  2  0  0  0
 16 21  1  0  0  0
 16 31  1  0  0  0
 17 18  1  0  0  0
 17 99  1  0  0  0
 18 19  2  0  0  0
 18100  1  0  0  0
 19 20  1  0  0  0
 19 24  1  0  0  0
 20 21  2  0  0  0
 20101  1  0  0  0
 21 23  1  0  0  0
 22 28  1  0  0  0
 22 32  2  0  0  0
 26 27  1  0  0  0
 28102  1  0  0  0
 28103  1  0  0  0
 29104  1  0  0  0
 29105  1  0  0  0
 33 34  1  0  0  0
 33 66  1  0  0  0
 33 70  2  0  0  0
 34 36  1  0  0  0
 34 59  1  0  0  0
 34106  1  0  0  0
 35 44  2  0  0  0
 35 45  1  0  0  0
 35 68  1  0  0  0
 36 56  1  0  0  0
 36107  1  0  0  0
 37 39  1  0  0  0
 37 47  1  0  0  0
 37 66  1  0  0  0
 37108  1  0  0  0
 38 43  2  0  0  0
 38 46  1  0  0  0
 38 47  1  0  0  0
 39 64  1  0  0  0
 39 67  2  0  0  0
 40 52  1  0  0  0
 40 53  2  0  0  0
 40 58  1  0  0  0
 41109  1  0  0  0
 41110  1  0  0  0
 41111  1  0  0  0
 41 48  1  0  0  0
 42 43  1  0  0  0
 42 66  1  0  0  0
 42112  1  0  0  0
 42113  1  0  0  0
 43 44  1  0  0  0
 44114  1  0  0  0
 45 46  2  0  0  0
 45115  1  0  0  0
 46116  1  0  0  0
 47117  1  0  0  0
 47118  1  0  0  0
 48 56  1  0  0  0
 48 65  1  0  0  0
 48119  1  0  0  0
 49 50  1  0  0  0
 49 53  1  0  0  0
 49 64  1  0  0  0
 49120  1  0  0  0
 50 51  1  0  0  0
 50121  1  0  0  0
 50122  1  0  0  0
 51 52  1  0  0  0
 51123  1  0  0  0
 51124  1  0  0  0
 52125  1  0  0  0
 52126  1  0  0  0
 53 54  1  0  0  0
 54 55  2  0  0  0
 54127  1  0  0  0
 55 57  1  0  0  0
 55128  1  0  0  0
 56 69  2  0  0  0
 57 58  2  0  0  0
 57129  1  0  0  0
 58130  1  0  0  0
 59 60  1  0  0  0
 59 61  1  0  0  0
 59 62  1  0  0  0
 60131  1  0  0  0
 60132  1  0  0  0
 60133  1  0  0  0
 61134  1  0  0  0
 61135  1  0  0  0
 61136  1  0  0  0
 62137  1  0  0  0
 62138  1  0  0  0
 62139  1  0  0  0
 63 65  1  0  0  0
 63140  1  0  0  0
 63141  1  0  0  0
 63142  1  0  0  0
 64143  1  0  0  0
 65144  1  0  0  0
 68 85  1  0  0  0
 71 72  2  0  0  0
 71 73  1  0  0  0
 71145  1  0  0  0
 72 74  1  0  0  0
 72146  1  0  0  0
 73 75  2  0  0  0
 73147  1  0  0  0
 74 76  2  0  0  0
 74 77  1  0  0  0
 75 76  1  0  0  0
 75 78  1  0  0  0
 76 82  1  0  0  0
 77 79  2  0  0  0
 77148  1  0  0  0
 78 80  2  0  0  0
 78149  1  0  0  0
 79150  1  0  0  0
 80 83  1  0  0  0
 80151  1  0  0  0
 81 82  1  0  0  0
 81152  1  0  0  0
 81153  1  0  0  0
 81154  1  0  0  0
 82155  1  0  0  0
 82156  1  0  0  0
 83 84  1  0  0  0
 83157  1  0  0  0
 83158  1  0  0  0
 84 85  1  0  0  0
 84159  1  0  0  0
 84160  1  0  0  0
 85161  1  0  0  0
 85162  1  0  0  0
M  ISO  4   1 100  68 101  79 100  85 101
M  END
> <chiral flag>
0

> <version>
0

> <s_m_source_file>
/data/baiqing/PycharmProjects/Reinvent-master-3.2/result/LINK_invent/BTK/process_docking_weight1_custom_product_contain_oxygen_bond_distance_aromatic_linkinvent_7_9_3/rearranged_h_0129.sdf

> <i_m_source_file_index>
67

> <r_mmod_Potential_Energy-OPLS-2005>
534.578918457031

> <r_mmod_Stretch_Energy-OPLS-2005>
34.1006851196289

> <r_mmod_Bend_Energy-OPLS-2005>
588.933166503906

> <r_mmod_Torsional_Energy-OPLS-2005>
238.854476928711

> <r_mmod_Improper_Torsional_Energy-OPLS-2005>
5.08383512496948

> <r_mmod_Van_der_Waal_Energy-OPLS-2005>
175.15234375

> <r_mmod_Electrostatic_Energy-OPLS-2005>
-336.130432128906

> <r_mmod_Solvation_Energy-OPLS-2005>
-180.673492431641

> <b_mmod_Minimization_Converged-OPLS-2005>
0

> <r_mmod_RMS_Derivative-OPLS-2005>
3.62103176116943

$$$$
67
                    3D
 Structure written by MMmdl.
155163  0  0  1  0            999 V2000
  -30.6500  -14.6842   20.5376 C   0  0  0  0  0  0
  -30.4356  -12.4283   19.4903 C   0  0  0  0  0  0
  -29.5235  -12.5318   18.2476 C   0  0  0  0  0  0
  -28.0448  -12.3593   18.6419 C   0  0  0  0  0  0
  -27.6528  -13.2338   19.8642 C   0  0  2  0  0  0
  -28.6883  -13.1140   21.0037 C   0  0  0  0  0  0
  -25.2555  -13.8214   20.5678 C   0  0  0  0  0  0
  -24.1825  -13.0466   20.9179 C   0  0  0  0  0  0
  -24.6413  -11.6937   20.8743 C   0  0  0  0  0  0
  -23.9096  -10.4311   21.0412 C   0  0  0  0  0  0
  -24.3642   -9.4228   21.9189 C   0  0  0  0  0  0
  -23.6296   -8.2278   22.0761 C   0  0  0  0  0  0
  -22.4276   -8.0324   21.3560 C   0  0  0  0  0  0
  -21.9930   -9.0311   20.4670 C   0  0  0  0  0  0
  -22.7271  -10.2179   20.3064 C   0  0  0  0  0  0
  -21.6854   -6.0763   22.5278 C   0  0  0  0  0  0
  -21.4024   -6.5635   23.8223 C   0  0  0  0  0  0
  -21.3655   -5.6768   24.9167 C   0  0  0  0  0  0
  -21.6051   -4.3036   24.7208 C   0  0  0  0  0  0
  -21.8811   -3.8148   23.4320 C   0  0  0  0  0  0
  -21.9197   -4.6990   22.3392 C   0  0  0  0  0  0
  -22.7828  -13.5265   21.1792 C   0  0  0  0  0  0
  -22.1653   -4.2181   21.0961 F   0  0  0  0  0  0
  -21.5660   -3.4508   25.7714 F   0  0  0  0  0  0
  -30.0073  -13.4668   20.4602 N   0  0  0  0  0  0
  -26.2993  -12.9413   20.3302 N   0  0  0  0  0  0
  -25.9349  -11.6552   20.5748 N   0  0  0  0  0  0
  -22.0413  -12.8354   22.0355 N   0  0  0  0  0  0
  -25.4268  -15.1950   20.4160 N   0  0  0  0  0  0
  -31.7771  -14.7969   20.0417 O   0  0  0  0  0  0
  -21.6649   -6.8914   21.4239 O   0  0  0  0  0  0
  -22.3505  -14.5518   20.6551 O   0  0  0  0  0  0
  -24.6299  -31.8569   23.2024 C   0  0  0  0  0  0
  -25.9147  -32.4741   23.8370 C   0  0  1  0  0  0
  -27.2251  -27.2857   20.1454 C   0  0  0  0  0  0
  -25.5954  -33.8547   24.2284 N   0  0  0  0  0  0
  -23.4241  -30.4804   21.5447 C   0  0  2  0  0  0
  -24.8754  -28.9328   20.1139 C   0  0  0  0  0  0
  -22.7484  -29.4620   22.4924 C   0  0  0  0  0  0
  -18.0299  -28.1401   22.8498 C   0  0  0  0  0  0
  -24.1495  -36.7285   23.2632 C   0  0  0  0  0  0
  -25.9674  -30.7775   21.3806 C   0  0  0  0  0  0
  -26.0431  -29.4018   20.7279 C   0  0  0  0  0  0
  -27.2183  -28.5895   20.7409 C   0  0  0  0  0  0
  -26.0424  -26.8924   19.4727 C   0  0  0  0  0  0
  -24.8795  -27.6838   19.4763 C   0  0  0  0  0  0
  -23.6436  -29.8127   20.1616 C   0  0  0  0  0  0
  -25.4106  -36.3051   24.0319 C   0  0  1  0  0  0
  -20.5910  -28.3715   23.1271 C   0  0  2  0  0  0
  -20.6811  -26.9434   22.5414 C   0  0  0  0  0  0
  -19.5765  -26.6400   21.5232 C   0  0  0  0  0  0
  -18.1945  -26.7948   22.1637 C   0  0  0  0  0  0
  -19.1562  -28.8880   23.2881 C   0  0  0  0  0  0
  -18.9460  -30.1492   23.8881 C   0  0  0  0  0  0
  -17.6453  -30.6604   24.0567 C   0  0  0  0  0  0
  -25.9057  -34.9424   23.5103 C   0  0  0  0  0  0
  -16.5350  -29.9088   23.6329 C   0  0  0  0  0  0
  -16.7285  -28.6510   23.0348 C   0  0  0  0  0  0
  -26.4536  -31.6556   25.0743 C   0  0  0  0  0  0
  -25.3734  -31.3704   26.1434 C   0  0  0  0  0  0
  -27.0386  -30.2987   24.6208 C   0  0  0  0  0  0
  -27.6119  -32.4261   25.7510 C   0  0  0  0  0  0
  -27.5569  -37.1780   24.8442 C   0  0  0  0  0  0
  -21.4204  -29.3045   22.3645 N   0  0  0  0  0  0
  -26.4267  -37.3747   23.9404 N   0  0  0  0  0  0
  -24.6930  -31.0558   22.0999 N   0  0  0  0  0  0
  -23.4191  -28.8178   23.3025 O   0  0  0  0  0  0
  -28.3189  -26.3999   20.2543 O   0  0  0  0  0  0
  -26.5613  -34.8880   22.4660 O   0  0  0  0  0  0
  -23.5463  -32.1383   23.7326 O   0  0  0  0  0  0
  -29.5062  -18.6166   22.6927 C   0  0  0  0  0  0
  -29.4069  -19.7148   20.5314 C   0  0  0  0  0  0
  -28.9748  -21.0149   22.5394 C   0  0  0  0  0  0
  -29.6536  -18.5061   21.2910 C   0  0  0  0  0  0
  -29.2049  -19.8532   23.3116 C   0  0  0  0  0  0
  -29.0523  -20.9868   21.1309 C   0  0  0  0  0  0
  -30.0905  -17.1628   20.6873 C   0  0  0  0  0  0
  -29.9712  -15.8695   21.1668 C   0  0  0  0  0  0
  -29.1414  -19.9452   24.8291 C   0  0  0  0  0  0
  -28.6311  -22.2699   20.3013 C   0  0  0  0  0  0
  -28.9449  -23.7845   20.7648 C   0  0  0  0  0  0
  -28.0959  -24.9381   20.0363 C   0  0  0  0  0  0
  -31.4814  -12.5324   19.2009 H   0  0  0  0  0  0
  -30.3592  -11.4345   19.9379 H   0  0  0  0  0  0
  -29.8126  -11.7833   17.5088 H   0  0  0  0  0  0
  -29.6653  -13.5018   17.7686 H   0  0  0  0  0  0
  -27.8881  -11.3047   18.8735 H   0  0  0  0  0  0
  -27.4032  -12.5854   17.7885 H   0  0  0  0  0  0
  -27.6678  -14.2694   19.5217 H   0  0  0  0  0  0
  -28.7045  -12.0930   21.3855 H   0  0  0  0  0  0
  -28.4085  -13.7366   21.8534 H   0  0  0  0  0  0
  -25.2804   -9.5722   22.4741 H   0  0  0  0  0  0
  -24.0051   -7.4659   22.7451 H   0  0  0  0  0  0
  -21.0882   -8.8811   19.8942 H   0  0  0  0  0  0
  -22.3731  -10.9724   19.6174 H   0  0  0  0  0  0
  -21.1982   -7.6138   23.9742 H   0  0  0  0  0  0
  -21.1496   -6.0486   25.9085 H   0  0  0  0  0  0
  -22.0593   -2.7619   23.2785 H   0  0  0  0  0  0
  -22.3983  -12.0130   22.4977 H   0  0  0  0  0  0
  -21.1003  -13.1418   22.2367 H   0  0  0  0  0  0
  -24.6687  -15.8547   20.5555 H   0  0  0  0  0  0
  -26.2959  -15.6410   20.1466 H   0  0  0  0  0  0
  -26.7204  -32.5405   23.1120 H   0  0  0  0  0  0
  -25.0080  -33.9695   25.0416 H   0  0  0  0  0  0
  -22.7183  -31.3012   21.3967 H   0  0  0  0  0  0
  -23.3750  -35.9625   23.3263 H   0  0  0  0  0  0
  -24.3619  -36.8950   22.2057 H   0  0  0  0  0  0
  -23.7278  -37.6483   23.6696 H   0  0  0  0  0  0
  -26.0968  -31.5324   20.6039 H   0  0  0  0  0  0
  -26.8497  -30.8356   22.0055 H   0  0  0  0  0  0
  -28.1022  -28.9359   21.2624 H   0  0  0  0  0  0
  -25.9852  -25.9473   18.9521 H   0  0  0  0  0  0
  -23.9846  -27.3164   18.9918 H   0  0  0  0  0  0
  -23.7650  -30.5868   19.4027 H   0  0  0  0  0  0
  -22.7627  -29.2412   19.8611 H   0  0  0  0  0  0
  -25.1306  -36.1873   25.0810 H   0  0  0  0  0  0
  -21.0004  -28.3298   24.1390 H   0  0  0  0  0  0
  -20.5784  -26.2294   23.3609 H   0  0  0  0  0  0
  -21.6656  -26.7498   22.1140 H   0  0  0  0  0  0
  -19.6927  -25.6310   21.1263 H   0  0  0  0  0  0
  -19.6726  -27.3214   20.6770 H   0  0  0  0  0  0
  -17.4227  -26.6735   21.4021 H   0  0  0  0  0  0
  -18.0307  -26.0095   22.9027 H   0  0  0  0  0  0
  -19.7930  -30.7358   24.2205 H   0  0  0  0  0  0
  -17.4988  -31.6278   24.5184 H   0  0  0  0  0  0
  -15.5346  -30.2985   23.7677 H   0  0  0  0  0  0
  -15.8677  -28.0847   22.7034 H   0  0  0  0  0  0
  -24.5912  -30.7073   25.7723 H   0  0  0  0  0  0
  -24.8911  -32.2865   26.4850 H   0  0  0  0  0  0
  -25.8002  -30.8861   27.0220 H   0  0  0  0  0  0
  -26.2984  -29.6710   24.1237 H   0  0  0  0  0  0
  -27.4101  -29.7278   25.4725 H   0  0  0  0  0  0
  -27.8836  -30.4307   23.9451 H   0  0  0  0  0  0
  -27.2800  -33.3559   26.2126 H   0  0  0  0  0  0
  -28.3922  -32.6792   25.0329 H   0  0  0  0  0  0
  -28.0790  -31.8337   26.5381 H   0  0  0  0  0  0
  -28.2546  -38.0114   24.7510 H   0  0  0  0  0  0
  -28.1118  -36.2647   24.6244 H   0  0  0  0  0  0
  -27.2285  -37.1354   25.8841 H   0  0  0  0  0  0
  -20.9384  -29.8697   21.6791 H   0  0  0  0  0  0
  -26.0144  -38.2814   24.1425 H   0  0  0  0  0  0
  -29.6753  -17.7508   23.3165 H   0  0  0  0  0  0
  -29.4774  -19.6639   19.4542 H   0  0  0  0  0  0
  -28.7129  -21.9342   23.0455 H   0  0  0  0  0  0
  -30.6397  -17.2788   19.7600 H   0  0  0  0  0  0
  -29.4074  -15.7121   22.0745 H   0  0  0  0  0  0
  -29.3332  -18.9843   25.3113 H   0  0  0  0  0  0
  -28.1616  -20.2908   25.1621 H   0  0  0  0  0  0
  -29.8911  -20.6464   25.2003 H   0  0  0  0  0  0
  -27.5457  -22.1917   20.2164 H   0  0  0  0  0  0
  -28.9977  -22.1448   19.2819 H   0  0  0  0  0  0
  -30.0095  -23.9802   20.6342 H   0  0  0  0  0  0
  -28.7598  -23.8828   21.8344 H   0  0  0  0  0  0
  -27.0657  -24.7012   20.3017 H   0  0  0  0  0  0
  -28.1739  -24.7742   18.9612 H   0  0  0  0  0  0
  1 25  1  0  0  0
  1 30  2  0  0  0
  1 78  1  0  0  0
  2  3  1  0  0  0
  2 25  1  0  0  0
  2 83  1  0  0  0
  2 84  1  0  0  0
  3  4  1  0  0  0
  3 85  1  0  0  0
  3 86  1  0  0  0
  4  5  1  0  0  0
  4 87  1  0  0  0
  4 88  1  0  0  0
  5  6  1  0  0  0
  5 26  1  0  0  0
  5 89  1  0  0  0
  6 25  1  0  0  0
  6 90  1  0  0  0
  6 91  1  0  0  0
  7  8  2  0  0  0
  7 26  1  0  0  0
  7 29  1  0  0  0
  8  9  1  0  0  0
  8 22  1  0  0  0
  9 10  1  0  0  0
  9 27  2  0  0  0
 10 11  2  0  0  0
 10 15  1  0  0  0
 11 12  1  0  0  0
 11 92  1  0  0  0
 12 13  2  0  0  0
 12 93  1  0  0  0
 13 14  1  0  0  0
 13 31  1  0  0  0
 14 15  2  0  0  0
 14 94  1  0  0  0
 15 95  1  0  0  0
 16 17  2  0  0  0
 16 21  1  0  0  0
 16 31  1  0  0  0
 17 18  1  0  0  0
 17 96  1  0  0  0
 18 19  2  0  0  0
 18 97  1  0  0  0
 19 20  1  0  0  0
 19 24  1  0  0  0
 20 21  2  0  0  0
 20 98  1  0  0  0
 21 23  1  0  0  0
 22 28  1  0  0  0
 22 32  2  0  0  0
 26 27  1  0  0  0
 28 99  1  0  0  0
 28100  1  0  0  0
 29101  1  0  0  0
 29102  1  0  0  0
 33 34  1  0  0  0
 33 66  1  0  0  0
 33 70  2  0  0  0
 34 36  1  0  0  0
 34 59  1  0  0  0
 34103  1  0  0  0
 35 44  2  0  0  0
 35 45  1  0  0  0
 35 68  1  0  0  0
 36 56  1  0  0  0
 36104  1  0  0  0
 37 39  1  0  0  0
 37 47  1  0  0  0
 37 66  1  0  0  0
 37105  1  0  0  0
 38 43  2  0  0  0
 38 46  1  0  0  0
 38 47  1  0  0  0
 39 64  1  0  0  0
 39 67  2  0  0  0
 40 52  1  0  0  0
 40 53  2  0  0  0
 40 58  1  0  0  0
 41106  1  0  0  0
 41107  1  0  0  0
 41108  1  0  0  0
 41 48  1  0  0  0
 42 43  1  0  0  0
 42 66  1  0  0  0
 42109  1  0  0  0
 42110  1  0  0  0
 43 44  1  0  0  0
 44111  1  0  0  0
 45 46  2  0  0  0
 45112  1  0  0  0
 46113  1  0  0  0
 47114  1  0  0  0
 47115  1  0  0  0
 48 56  1  0  0  0
 48 65  1  0  0  0
 48116  1  0  0  0
 49 50  1  0  0  0
 49 53  1  0  0  0
 49 64  1  0  0  0
 49117  1  0  0  0
 50 51  1  0  0  0
 50118  1  0  0  0
 50119  1  0  0  0
 51 52  1  0  0  0
 51120  1  0  0  0
 51121  1  0  0  0
 52122  1  0  0  0
 52123  1  0  0  0
 53 54  1  0  0  0
 54 55  2  0  0  0
 54124  1  0  0  0
 55 57  1  0  0  0
 55125  1  0  0  0
 56 69  2  0  0  0
 57 58  2  0  0  0
 57126  1  0  0  0
 58127  1  0  0  0
 59 60  1  0  0  0
 59 61  1  0  0  0
 59 62  1  0  0  0
 60128  1  0  0  0
 60129  1  0  0  0
 60130  1  0  0  0
 61131  1  0  0  0
 61132  1  0  0  0
 61133  1  0  0  0
 62134  1  0  0  0
 62135  1  0  0  0
 62136  1  0  0  0
 63 65  1  0  0  0
 63137  1  0  0  0
 63138  1  0  0  0
 63139  1  0  0  0
 64140  1  0  0  0
 65141  1  0  0  0
 68 82  1  0  0  0
 71 74  2  0  0  0
 71 75  1  0  0  0
 71142  1  0  0  0
 72 74  1  0  0  0
 72 76  2  0  0  0
 72143  1  0  0  0
 73 75  2  0  0  0
 73 76  1  0  0  0
 73144  1  0  0  0
 74 77  1  0  0  0
 75 79  1  0  0  0
 76 80  1  0  0  0
 77 78  2  0  0  0
 77145  1  0  0  0
 78146  1  0  0  0
 79147  1  0  0  0
 79148  1  0  0  0
 79149  1  0  0  0
 80 81  1  0  0  0
 80150  1  0  0  0
 80151  1  0  0  0
 81 82  1  0  0  0
 81152  1  0  0  0
 81153  1  0  0  0
 82154  1  0  0  0
 82155  1  0  0  0
M  ISO  4   1 100  68 101  78 100  82 101
M  END
> <chiral flag>
0

> <version>
0

> <s_m_source_file>
/data/baiqing/PycharmProjects/Reinvent-master-3.2/result/LINK_invent/BTK/process_docking_weight1_custom_product_contain_oxygen_bond_distance_aromatic_linkinvent_7_9_3/rearranged_h_0129.sdf

> <i_m_source_file_index>
68

> <r_mmod_Potential_Energy-OPLS-2005>
128.596740722656

> <r_mmod_Stretch_Energy-OPLS-2005>
103.473365783691

> <r_mmod_Bend_Energy-OPLS-2005>
149.711090087891

> <r_mmod_Torsional_Energy-OPLS-2005>
190.077835083008

> <r_mmod_Improper_Torsional_Energy-OPLS-2005>
3.44052672386169

> <r_mmod_Van_der_Waal_Energy-OPLS-2005>
143.842575073242

> <r_mmod_Electrostatic_Energy-OPLS-2005>
-336.85693359375

> <r_mmod_Solvation_Energy-OPLS-2005>
-191.578277587891

> <b_mmod_Minimization_Converged-OPLS-2005>
0

> <r_mmod_RMS_Derivative-OPLS-2005>
4.28816509246826

$$$$
68
                    3D
 Structure written by MMmdl.
160168  0  0  1  0            999 V2000
  -30.7655  -14.4063   20.5819 C   0  0  0  0  0  0
  -30.4010  -12.2624   19.4415 C   0  0  0  0  0  0
  -29.4974  -12.4958   18.2151 C   0  0  0  0  0  0
  -28.0139  -12.3781   18.6141 C   0  0  0  0  0  0
  -27.6618  -13.2132   19.8768 C   0  0  2  0  0  0
  -28.6967  -12.9906   21.0022 C   0  0  0  0  0  0
  -25.2586  -13.8180   20.5671 C   0  0  0  0  0  0
  -24.1836  -13.0449   20.9158 C   0  0  0  0  0  0
  -24.6401  -11.6916   20.8723 C   0  0  0  0  0  0
  -23.9075  -10.4295   21.0400 C   0  0  0  0  0  0
  -24.3629   -9.4209   21.9172 C   0  0  0  0  0  0
  -23.6312   -8.2241   22.0746 C   0  0  0  0  0  0
  -22.4292   -8.0281   21.3540 C   0  0  0  0  0  0
  -21.9921   -9.0254   20.4638 C   0  0  0  0  0  0
  -22.7252  -10.2132   20.3046 C   0  0  0  0  0  0
  -21.6855   -6.0740   22.5278 C   0  0  0  0  0  0
  -21.4010   -6.5645   23.8215 C   0  0  0  0  0  0
  -21.3655   -5.6793   24.9178 C   0  0  0  0  0  0
  -21.6047   -4.3052   24.7222 C   0  0  0  0  0  0
  -21.8823   -3.8151   23.4342 C   0  0  0  0  0  0
  -21.9183   -4.6967   22.3398 C   0  0  0  0  0  0
  -22.7848  -13.5234   21.1826 C   0  0  0  0  0  0
  -22.1656   -4.2151   21.0980 F   0  0  0  0  0  0
  -21.5637   -3.4536   25.7733 F   0  0  0  0  0  0
  -30.0376  -13.2620   20.4606 N   0  0  0  0  0  0
  -26.3024  -12.9360   20.3358 N   0  0  0  0  0  0
  -25.9324  -11.6509   20.5748 N   0  0  0  0  0  0
  -22.0490  -12.8230   22.0386 N   0  0  0  0  0  0
  -25.4340  -15.1897   20.4101 N   0  0  0  0  0  0
  -31.8854  -14.5075   20.0731 O   0  0  0  0  0  0
  -21.6648   -6.8887   21.4245 O   0  0  0  0  0  0
  -22.3525  -14.5533   20.6679 O   0  0  0  0  0  0
  -24.6064  -31.8722   23.2131 C   0  0  0  0  0  0
  -25.8993  -32.4844   23.8408 C   0  0  1  0  0  0
  -27.2510  -27.4874   20.1031 C   0  0  0  0  0  0
  -25.5880  -33.8643   24.2347 N   0  0  0  0  0  0
  -23.3919  -30.4931   21.5502 C   0  0  2  0  0  0
  -24.8434  -28.9634   20.1150 C   0  0  0  0  0  0
  -22.7362  -29.4673   22.5000 C   0  0  0  0  0  0
  -18.0261  -28.1365   22.8484 C   0  0  0  0  0  0
  -24.1485  -36.7328   23.2641 C   0  0  0  0  0  0
  -25.9111  -30.8572   21.3564 C   0  0  0  0  0  0
  -25.9935  -29.4927   20.7113 C   0  0  0  0  0  0
  -27.1971  -28.7645   20.7081 C   0  0  0  0  0  0
  -26.0896  -26.9672   19.4960 C   0  0  0  0  0  0
  -24.8834  -27.6959   19.5050 C   0  0  0  0  0  0
  -23.5992  -29.8202   20.1646 C   0  0  0  0  0  0
  -25.4106  -36.3131   24.0342 C   0  0  1  0  0  0
  -20.5843  -28.3649   23.1338 C   0  0  2  0  0  0
  -20.6749  -26.9385   22.5439 C   0  0  0  0  0  0
  -19.5747  -26.6375   21.5210 C   0  0  0  0  0  0
  -18.1915  -26.7923   22.1596 C   0  0  0  0  0  0
  -19.1507  -28.8815   23.2914 C   0  0  0  0  0  0
  -18.9445  -30.1423   23.8924 C   0  0  0  0  0  0
  -17.6450  -30.6581   24.0562 C   0  0  0  0  0  0
  -25.9028  -34.9494   23.5141 C   0  0  0  0  0  0
  -16.5339  -29.9082   23.6322 C   0  0  0  0  0  0
  -16.7255  -28.6498   23.0344 C   0  0  0  0  0  0
  -26.4450  -31.6602   25.0710 C   0  0  0  0  0  0
  -25.3739  -31.3687   26.1473 C   0  0  0  0  0  0
  -27.0297  -30.3062   24.6041 C   0  0  0  0  0  0
  -27.6027  -32.4315   25.7481 C   0  0  0  0  0  0
  -27.5587  -37.1821   24.8455 C   0  0  0  0  0  0
  -21.4095  -29.3023   22.3746 N   0  0  0  0  0  0
  -26.4295  -37.3810   23.9405 N   0  0  0  0  0  0
  -24.6537  -31.0875   22.0998 N   0  0  0  0  0  0
  -23.4167  -28.8230   23.3029 O   0  0  0  0  0  0
  -28.3891  -26.7178   20.0725 O   0  0  0  0  0  0
  -26.5582  -34.8938   22.4696 O   0  0  0  0  0  0
  -23.5276  -32.1442   23.7567 O   0  0  0  0  0  0
  -29.4902  -18.3209   22.5031 C   0  0  0  0  0  0
  -29.1957  -19.6265   22.9539 C   0  0  0  0  0  0
  -30.1762  -20.5354   20.9281 C   0  0  0  0  0  0
  -30.1572  -18.1168   21.2747 C   0  0  0  0  0  0
  -29.5494  -20.7487   22.1748 C   0  0  0  0  0  0
  -30.4676  -19.2416   20.4688 C   0  0  0  0  0  0
  -30.5479  -16.7771   20.8084 C   0  0  0  0  0  0
  -30.1332  -15.5587   21.2194 C   0  0  0  0  0  0
  -30.1871  -25.7311   21.3189 C   0  0  0  0  0  0
  -31.1220  -19.1091   19.0997 C   0  0  0  0  0  0
  -29.2498  -22.1602   22.6804 C   0  0  0  0  0  0
  -29.6402  -24.7063   22.3177 C   0  0  0  0  0  0
  -29.3525  -26.9834   21.0905 C   0  0  0  0  0  0
  -29.9313  -23.2726   21.8572 C   0  0  0  0  0  0
  -31.2487  -25.5463   20.7132 O   0  0  0  0  0  0
  -31.4540  -12.2990   19.1550 H   0  0  0  0  0  0
  -30.2491  -11.2564   19.8373 H   0  0  0  0  0  0
  -29.7341  -11.7739   17.4326 H   0  0  0  0  0  0
  -29.6935  -13.4827   17.7924 H   0  0  0  0  0  0
  -27.8047  -11.3236   18.7966 H   0  0  0  0  0  0
  -27.3763  -12.6740   17.7801 H   0  0  0  0  0  0
  -27.7105  -14.2630   19.5868 H   0  0  0  0  0  0
  -28.6537  -11.9592   21.3540 H   0  0  0  0  0  0
  -28.4539  -13.5923   21.8763 H   0  0  0  0  0  0
  -25.2783   -9.5685   22.4735 H   0  0  0  0  0  0
  -24.0028   -7.4628   22.7453 H   0  0  0  0  0  0
  -21.0858   -8.8777   19.8940 H   0  0  0  0  0  0
  -22.3729  -10.9668   19.6142 H   0  0  0  0  0  0
  -21.2009   -7.6146   23.9722 H   0  0  0  0  0  0
  -21.1474   -6.0517   25.9083 H   0  0  0  0  0  0
  -22.0603   -2.7614   23.2825 H   0  0  0  0  0  0
  -22.4120  -11.9903   22.4799 H   0  0  0  0  0  0
  -21.1098  -13.1237   22.2572 H   0  0  0  0  0  0
  -24.6795  -15.8561   20.5311 H   0  0  0  0  0  0
  -26.3051  -15.6241   20.1294 H   0  0  0  0  0  0
  -26.7071  -32.5595   23.1193 H   0  0  0  0  0  0
  -25.0047  -33.9816   25.0500 H   0  0  0  0  0  0
  -22.6774  -31.3072   21.4104 H   0  0  0  0  0  0
  -23.3746  -35.9663   23.3320 H   0  0  0  0  0  0
  -24.3579  -36.8919   22.2051 H   0  0  0  0  0  0
  -23.7240  -37.6541   23.6638 H   0  0  0  0  0  0
  -26.0109  -31.6232   20.5862 H   0  0  0  0  0  0
  -26.8023  -30.9181   21.9683 H   0  0  0  0  0  0
  -28.0731  -29.2029   21.1651 H   0  0  0  0  0  0
  -26.1209  -25.9940   19.0259 H   0  0  0  0  0  0
  -24.0001  -27.2801   19.0405 H   0  0  0  0  0  0
  -23.6991  -30.5927   19.4010 H   0  0  0  0  0  0
  -22.7271  -29.2320   19.8732 H   0  0  0  0  0  0
  -25.1283  -36.2001   25.0834 H   0  0  0  0  0  0
  -20.9937  -28.3213   24.1457 H   0  0  0  0  0  0
  -20.5623  -26.2258   23.3624 H   0  0  0  0  0  0
  -21.6628  -26.7420   22.1257 H   0  0  0  0  0  0
  -19.6915  -25.6287   21.1236 H   0  0  0  0  0  0
  -19.6718  -27.3182   20.6740 H   0  0  0  0  0  0
  -17.4209  -26.6693   21.3970 H   0  0  0  0  0  0
  -18.0289  -26.0045   22.8965 H   0  0  0  0  0  0
  -19.7928  -30.7212   24.2312 H   0  0  0  0  0  0
  -17.5019  -31.6267   24.5150 H   0  0  0  0  0  0
  -15.5343  -30.2994   23.7636 H   0  0  0  0  0  0
  -15.8657  -28.0831   22.7040 H   0  0  0  0  0  0
  -24.5919  -30.7019   25.7820 H   0  0  0  0  0  0
  -24.8917  -32.2839   26.4918 H   0  0  0  0  0  0
  -25.8110  -30.8874   27.0232 H   0  0  0  0  0  0
  -26.2846  -29.6824   24.1094 H   0  0  0  0  0  0
  -27.4101  -29.7279   25.4471 H   0  0  0  0  0  0
  -27.8647  -30.4417   23.9164 H   0  0  0  0  0  0
  -27.2639  -33.3594   26.2102 H   0  0  0  0  0  0
  -28.3820  -32.6913   25.0306 H   0  0  0  0  0  0
  -28.0714  -31.8413   26.5366 H   0  0  0  0  0  0
  -28.2608  -38.0116   24.7502 H   0  0  0  0  0  0
  -28.1073  -36.2646   24.6269 H   0  0  0  0  0  0
  -27.2316  -37.1463   25.8862 H   0  0  0  0  0  0
  -20.9234  -29.8751   21.6990 H   0  0  0  0  0  0
  -26.0190  -38.2891   24.1400 H   0  0  0  0  0  0
  -29.2278  -17.4799   23.1292 H   0  0  0  0  0  0
  -28.7087  -19.7616   23.9100 H   0  0  0  0  0  0
  -30.4625  -21.3588   20.2937 H   0  0  0  0  0  0
  -31.3043  -16.7989   20.0388 H   0  0  0  0  0  0
  -29.3858  -15.4630   21.9883 H   0  0  0  0  0  0
  -31.1060  -20.0520   18.5517 H   0  0  0  0  0  0
  -30.5995  -18.3753   18.4841 H   0  0  0  0  0  0
  -32.1638  -18.8040   19.2006 H   0  0  0  0  0  0
  -29.5603  -22.2334   23.7245 H   0  0  0  0  0  0
  -28.1684  -22.3028   22.6689 H   0  0  0  0  0  0
  -28.5635  -24.8544   22.4061 H   0  0  0  0  0  0
  -30.0736  -24.8969   23.2992 H   0  0  0  0  0  0
  -29.9955  -27.8136   20.7971 H   0  0  0  0  0  0
  -28.8715  -27.2404   22.0350 H   0  0  0  0  0  0
  -29.5939  -23.2018   20.8221 H   0  0  0  0  0  0
  -31.0115  -23.1110   21.8594 H   0  0  0  0  0  0
  1 25  1  0  0  0
  1 30  2  0  0  0
  1 78  1  0  0  0
  2  3  1  0  0  0
  2 25  1  0  0  0
  2 86  1  0  0  0
  2 87  1  0  0  0
  3  4  1  0  0  0
  3 88  1  0  0  0
  3 89  1  0  0  0
  4  5  1  0  0  0
  4 90  1  0  0  0
  4 91  1  0  0  0
  5  6  1  0  0  0
  5 26  1  0  0  0
  5 92  1  0  0  0
  6 25  1  0  0  0
  6 93  1  0  0  0
  6 94  1  0  0  0
  7  8  2  0  0  0
  7 26  1  0  0  0
  7 29  1  0  0  0
  8  9  1  0  0  0
  8 22  1  0  0  0
  9 10  1  0  0  0
  9 27  2  0  0  0
 10 11  2  0  0  0
 10 15  1  0  0  0
 11 12  1  0  0  0
 11 95  1  0  0  0
 12 13  2  0  0  0
 12 96  1  0  0  0
 13 14  1  0  0  0
 13 31  1  0  0  0
 14 15  2  0  0  0
 14 97  1  0  0  0
 15 98  1  0  0  0
 16 17  2  0  0  0
 16 21  1  0  0  0
 16 31  1  0  0  0
 17 18  1  0  0  0
 17 99  1  0  0  0
 18 19  2  0  0  0
 18100  1  0  0  0
 19 20  1  0  0  0
 19 24  1  0  0  0
 20 21  2  0  0  0
 20101  1  0  0  0
 21 23  1  0  0  0
 22 28  1  0  0  0
 22 32  2  0  0  0
 26 27  1  0  0  0
 28102  1  0  0  0
 28103  1  0  0  0
 29104  1  0  0  0
 29105  1  0  0  0
 33 34  1  0  0  0
 33 66  1  0  0  0
 33 70  2  0  0  0
 34 36  1  0  0  0
 34 59  1  0  0  0
 34106  1  0  0  0
 35 44  2  0  0  0
 35 45  1  0  0  0
 35 68  1  0  0  0
 36 56  1  0  0  0
 36107  1  0  0  0
 37 39  1  0  0  0
 37 47  1  0  0  0
 37 66  1  0  0  0
 37108  1  0  0  0
 38 43  2  0  0  0
 38 46  1  0  0  0
 38 47  1  0  0  0
 39 64  1  0  0  0
 39 67  2  0  0  0
 40 52  1  0  0  0
 40 53  2  0  0  0
 40 58  1  0  0  0
 41109  1  0  0  0
 41110  1  0  0  0
 41111  1  0  0  0
 41 48  1  0  0  0
 42 43  1  0  0  0
 42 66  1  0  0  0
 42112  1  0  0  0
 42113  1  0  0  0
 43 44  1  0  0  0
 44114  1  0  0  0
 45 46  2  0  0  0
 45115  1  0  0  0
 46116  1  0  0  0
 47117  1  0  0  0
 47118  1  0  0  0
 48 56  1  0  0  0
 48 65  1  0  0  0
 48119  1  0  0  0
 49 50  1  0  0  0
 49 53  1  0  0  0
 49 64  1  0  0  0
 49120  1  0  0  0
 50 51  1  0  0  0
 50121  1  0  0  0
 50122  1  0  0  0
 51 52  1  0  0  0
 51123  1  0  0  0
 51124  1  0  0  0
 52125  1  0  0  0
 52126  1  0  0  0
 53 54  1  0  0  0
 54 55  2  0  0  0
 54127  1  0  0  0
 55 57  1  0  0  0
 55128  1  0  0  0
 56 69  2  0  0  0
 57 58  2  0  0  0
 57129  1  0  0  0
 58130  1  0  0  0
 59 60  1  0  0  0
 59 61  1  0  0  0
 59 62  1  0  0  0
 60131  1  0  0  0
 60132  1  0  0  0
 60133  1  0  0  0
 61134  1  0  0  0
 61135  1  0  0  0
 61136  1  0  0  0
 62137  1  0  0  0
 62138  1  0  0  0
 62139  1  0  0  0
 63 65  1  0  0  0
 63140  1  0  0  0
 63141  1  0  0  0
 63142  1  0  0  0
 64143  1  0  0  0
 65144  1  0  0  0
 68 83  1  0  0  0
 71 72  2  0  0  0
 71 74  1  0  0  0
 71145  1  0  0  0
 72 75  1  0  0  0
 72146  1  0  0  0
 73 75  2  0  0  0
 73 76  1  0  0  0
 73147  1  0  0  0
 74 76  2  0  0  0
 74 77  1  0  0  0
 75 81  1  0  0  0
 76 80  1  0  0  0
 77 78  2  0  0  0
 77148  1  0  0  0
 78149  1  0  0  0
 79 82  1  0  0  0
 79 83  1  0  0  0
 79 85  2  0  0  0
 80150  1  0  0  0
 80151  1  0  0  0
 80152  1  0  0  0
 81 84  1  0  0  0
 81153  1  0  0  0
 81154  1  0  0  0
 82 84  1  0  0  0
 82155  1  0  0  0
 82156  1  0  0  0
 83157  1  0  0  0
 83158  1  0  0  0
 84159  1  0  0  0
 84160  1  0  0  0
M  ISO  4   1 100  68 101  78 100  83 101
M  END
> <chiral flag>
0

> <version>
0

> <s_m_source_file>
/data/baiqing/PycharmProjects/Reinvent-master-3.2/result/LINK_invent/BTK/process_docking_weight1_custom_product_contain_oxygen_bond_distance_aromatic_linkinvent_7_9_3/rearranged_h_0129.sdf

> <i_m_source_file_index>
69

> <r_mmod_Potential_Energy-OPLS-2005>
-20.2143745422363

> <r_mmod_Stretch_Energy-OPLS-2005>
33.1748046875

> <r_mmod_Bend_Energy-OPLS-2005>
99.4983520507812

> <r_mmod_Torsional_Energy-OPLS-2005>
193.843765258789

> <r_mmod_Improper_Torsional_Energy-OPLS-2005>
2.82695460319519

> <r_mmod_Van_der_Waal_Energy-OPLS-2005>
177.140029907227

> <r_mmod_Electrostatic_Energy-OPLS-2005>
-333.054351806641

> <r_mmod_Solvation_Energy-OPLS-2005>
-204.835586547852

> <b_mmod_Minimization_Converged-OPLS-2005>
0

> <r_mmod_RMS_Derivative-OPLS-2005>
1.67555403709412

$$$$
69
                    3D
 Structure written by MMmdl.
156164  0  0  1  0            999 V2000
  -30.5893  -14.7001   20.4653 C   0  0  0  0  0  0
  -30.4434  -12.4297   19.4462 C   0  0  0  0  0  0
  -29.5078  -12.5002   18.2193 C   0  0  0  0  0  0
  -28.0327  -12.3234   18.6390 C   0  0  0  0  0  0
  -27.6415  -13.2161   19.8462 C   0  0  2  0  0  0
  -28.6903  -13.1269   20.9750 C   0  0  0  0  0  0
  -25.2526  -13.8146   20.5694 C   0  0  0  0  0  0
  -24.1789  -13.0410   20.9192 C   0  0  0  0  0  0
  -24.6363  -11.6898   20.8742 C   0  0  0  0  0  0
  -23.9041  -10.4287   21.0409 C   0  0  0  0  0  0
  -24.3605   -9.4199   21.9182 C   0  0  0  0  0  0
  -23.6274   -8.2245   22.0763 C   0  0  0  0  0  0
  -22.4258   -8.0279   21.3552 C   0  0  0  0  0  0
  -21.9888   -9.0254   20.4659 C   0  0  0  0  0  0
  -22.7226  -10.2127   20.3059 C   0  0  0  0  0  0
  -21.6848   -6.0720   22.5279 C   0  0  0  0  0  0
  -21.4010   -6.5623   23.8205 C   0  0  0  0  0  0
  -21.3664   -5.6791   24.9171 C   0  0  0  0  0  0
  -21.6050   -4.3050   24.7233 C   0  0  0  0  0  0
  -21.8822   -3.8139   23.4349 C   0  0  0  0  0  0
  -21.9187   -4.6951   22.3402 C   0  0  0  0  0  0
  -22.7835  -13.5235   21.1874 C   0  0  0  0  0  0
  -22.1658   -4.2130   21.0984 F   0  0  0  0  0  0
  -21.5630   -3.4538   25.7739 F   0  0  0  0  0  0
  -29.9919  -13.4707   20.3878 N   0  0  0  0  0  0
  -26.2932  -12.9315   20.3273 N   0  0  0  0  0  0
  -25.9280  -11.6479   20.5742 N   0  0  0  0  0  0
  -22.0468  -12.8230   22.0432 N   0  0  0  0  0  0
  -25.4218  -15.1870   20.4146 N   0  0  0  0  0  0
  -31.7967  -14.8376   20.2503 O   0  0  0  0  0  0
  -21.6639   -6.8870   21.4241 O   0  0  0  0  0  0
  -22.3529  -14.5544   20.6728 O   0  0  0  0  0  0
  -24.6297  -31.8581   23.2000 C   0  0  0  0  0  0
  -25.9144  -32.4762   23.8337 C   0  0  1  0  0  0
  -27.2155  -27.2966   20.1200 C   0  0  0  0  0  0
  -25.5970  -33.8570   24.2268 N   0  0  0  0  0  0
  -23.4232  -30.4800   21.5452 C   0  0  2  0  0  0
  -24.8676  -28.9350   20.1087 C   0  0  0  0  0  0
  -22.7492  -29.4602   22.4942 C   0  0  0  0  0  0
  -18.0309  -28.1358   22.8460 C   0  0  0  0  0  0
  -24.1497  -36.7292   23.2635 C   0  0  0  0  0  0
  -25.9654  -30.7806   21.3741 C   0  0  0  0  0  0
  -26.0382  -29.4059   20.7168 C   0  0  0  0  0  0
  -27.2188  -28.6006   20.7105 C   0  0  0  0  0  0
  -26.0284  -26.8882   19.4755 C   0  0  0  0  0  0
  -24.8654  -27.6822   19.4754 C   0  0  0  0  0  0
  -23.6375  -29.8189   20.1586 C   0  0  0  0  0  0
  -25.4117  -36.3076   24.0320 C   0  0  1  0  0  0
  -20.5892  -28.3667   23.1272 C   0  0  2  0  0  0
  -20.6789  -26.9390   22.5401 C   0  0  0  0  0  0
  -19.5784  -26.6357   21.5198 C   0  0  0  0  0  0
  -18.1966  -26.7908   22.1607 C   0  0  0  0  0  0
  -19.1550  -28.8837   23.2867 C   0  0  0  0  0  0
  -18.9475  -30.1427   23.8901 C   0  0  0  0  0  0
  -17.6475  -30.6556   24.0550 C   0  0  0  0  0  0
  -25.9059  -34.9447   23.5087 C   0  0  0  0  0  0
  -16.5370  -29.9049   23.6314 C   0  0  0  0  0  0
  -16.7296  -28.6475   23.0332 C   0  0  0  0  0  0
  -26.4508  -31.6580   25.0721 C   0  0  0  0  0  0
  -25.3735  -31.3746   26.1439 C   0  0  0  0  0  0
  -27.0371  -30.3006   24.6205 C   0  0  0  0  0  0
  -27.6070  -32.4311   25.7506 C   0  0  0  0  0  0
  -27.5574  -37.1800   24.8463 C   0  0  0  0  0  0
  -21.4206  -29.3035   22.3685 N   0  0  0  0  0  0
  -26.4289  -37.3771   23.9409 N   0  0  0  0  0  0
  -24.6922  -31.0566   22.0970 N   0  0  0  0  0  0
  -23.4209  -28.8149   23.3025 O   0  0  0  0  0  0
  -28.3122  -26.4170   20.1407 O   0  0  0  0  0  0
  -26.5617  -34.8917   22.4649 O   0  0  0  0  0  0
  -23.5454  -32.1407   23.7309 O   0  0  0  0  0  0
  -29.4403  -19.6621   22.2528 C   0  0  0  0  0  0
  -29.7533  -17.2275   22.3715 C   0  0  0  0  0  0
  -29.6215  -18.3488   20.2115 C   0  0  0  0  0  0
  -29.5714  -18.4746   23.0054 C   0  0  0  0  0  0
  -29.4679  -19.6466   20.8395 C   0  0  0  0  0  0
  -29.7771  -17.1202   20.9646 C   0  0  0  0  0  0
  -29.4999  -18.5292   24.5187 C   0  0  0  0  0  0
  -29.3899  -21.0171   20.0436 C   0  0  0  0  0  0
  -28.7016  -22.3268   20.6865 C   0  0  0  0  0  0
  -28.8950  -23.7730   20.0039 C   0  0  0  0  0  0
  -28.0649  -25.0145   20.5922 C   0  0  0  0  0  0
  -29.7265  -15.7719   20.3951 N   0  0  0  0  0  0
  -31.4801  -12.5778   19.1393 H   0  0  0  0  0  0
  -30.4087  -11.4482   19.9201 H   0  0  0  0  0  0
  -29.7850  -11.7366   17.4906 H   0  0  0  0  0  0
  -29.6305  -13.4601   17.7129 H   0  0  0  0  0  0
  -27.8871  -11.2730   18.8951 H   0  0  0  0  0  0
  -27.3752  -12.5253   17.7916 H   0  0  0  0  0  0
  -27.6363  -14.2386   19.4688 H   0  0  0  0  0  0
  -28.7200  -12.1262   21.4080 H   0  0  0  0  0  0
  -28.4406  -13.8076   21.7922 H   0  0  0  0  0  0
  -25.2740   -9.5660   22.4761 H   0  0  0  0  0  0
  -23.9970   -7.4633   22.7465 H   0  0  0  0  0  0
  -21.0829   -8.8768   19.8958 H   0  0  0  0  0  0
  -22.3682  -10.9659   19.6169 H   0  0  0  0  0  0
  -21.1998   -7.6134   23.9697 H   0  0  0  0  0  0
  -21.1486   -6.0525   25.9070 H   0  0  0  0  0  0
  -22.0594   -2.7601   23.2854 H   0  0  0  0  0  0
  -22.4084  -11.9884   22.4804 H   0  0  0  0  0  0
  -21.1097  -13.1270   22.2656 H   0  0  0  0  0  0
  -24.6539  -15.8382   20.5342 H   0  0  0  0  0  0
  -26.2767  -15.6380   20.1194 H   0  0  0  0  0  0
  -26.7210  -32.5441   23.1081 H   0  0  0  0  0  0
  -25.0184  -33.9699   25.0455 H   0  0  0  0  0  0
  -22.7187  -31.3026   21.4045 H   0  0  0  0  0  0
  -23.3756  -35.9628   23.3304 H   0  0  0  0  0  0
  -24.3582  -36.8906   22.2046 H   0  0  0  0  0  0
  -23.7248  -37.6496   23.6652 H   0  0  0  0  0  0
  -26.1003  -31.5415   20.6040 H   0  0  0  0  0  0
  -26.8443  -30.8297   22.0056 H   0  0  0  0  0  0
  -28.1203  -28.9591   21.1888 H   0  0  0  0  0  0
  -25.9875  -25.9350   18.9668 H   0  0  0  0  0  0
  -23.9718  -27.3222   18.9821 H   0  0  0  0  0  0
  -23.7632  -30.5980   19.4059 H   0  0  0  0  0  0
  -22.7556  -29.2542   19.8530 H   0  0  0  0  0  0
  -25.1288  -36.1919   25.0806 H   0  0  0  0  0  0
  -20.9966  -28.3257   24.1390 H   0  0  0  0  0  0
  -20.5700  -26.2279   23.3593 H   0  0  0  0  0  0
  -21.6665  -26.7410   22.1206 H   0  0  0  0  0  0
  -19.6946  -25.6270   21.1208 H   0  0  0  0  0  0
  -19.6728  -27.3176   20.6737 H   0  0  0  0  0  0
  -17.4253  -26.6656   21.4001 H   0  0  0  0  0  0
  -18.0402  -26.0033   22.8998 H   0  0  0  0  0  0
  -19.7944  -30.7221   24.2315 H   0  0  0  0  0  0
  -17.5011  -31.6232   24.5145 H   0  0  0  0  0  0
  -15.5373  -30.2954   23.7604 H   0  0  0  0  0  0
  -15.8696  -28.0779   22.7048 H   0  0  0  0  0  0
  -24.5902  -30.7096   25.7773 H   0  0  0  0  0  0
  -24.8933  -32.2930   26.4828 H   0  0  0  0  0  0
  -25.8030  -30.8945   27.0242 H   0  0  0  0  0  0
  -26.2966  -29.6740   24.1215 H   0  0  0  0  0  0
  -27.4063  -29.7259   25.4713 H   0  0  0  0  0  0
  -27.8835  -30.4294   23.9455 H   0  0  0  0  0  0
  -27.2680  -33.3611   26.2078 H   0  0  0  0  0  0
  -28.3892  -32.6860   25.0347 H   0  0  0  0  0  0
  -28.0740  -31.8455   26.5426 H   0  0  0  0  0  0
  -28.2592  -38.0098   24.7496 H   0  0  0  0  0  0
  -28.1067  -36.2621   24.6302 H   0  0  0  0  0  0
  -27.2300  -37.1481   25.8870 H   0  0  0  0  0  0
  -20.9385  -29.8823   21.6946 H   0  0  0  0  0  0
  -26.0173  -38.2854   24.1393 H   0  0  0  0  0  0
  -29.3197  -20.5949   22.7830 H   0  0  0  0  0  0
  -29.8147  -16.3381   22.9837 H   0  0  0  0  0  0
  -29.6099  -18.2970   19.1311 H   0  0  0  0  0  0
  -29.1585  -19.5031   24.8720 H   0  0  0  0  0  0
  -30.4833  -18.3393   24.9484 H   0  0  0  0  0  0
  -28.8106  -17.7725   24.8975 H   0  0  0  0  0  0
  -28.9075  -20.8083   19.0882 H   0  0  0  0  0  0
  -30.4192  -21.2740   19.7905 H   0  0  0  0  0  0
  -29.0558  -22.4375   21.7092 H   0  0  0  0  0  0
  -27.6338  -22.1284   20.7765 H   0  0  0  0  0  0
  -28.6604  -23.6864   18.9430 H   0  0  0  0  0  0
  -29.9548  -24.0262   20.0468 H   0  0  0  0  0  0
  -28.2209  -25.0330   21.6714 H   0  0  0  0  0  0
  -27.0149  -24.7482   20.4857 H   0  0  0  0  0  0
  -28.7883  -15.4744   20.1822 H   0  0  0  0  0  0
  1 25  1  0  0  0
  1 30  2  0  0  0
  1 82  1  0  0  0
  2  3  1  0  0  0
  2 25  1  0  0  0
  2 83  1  0  0  0
  2 84  1  0  0  0
  3  4  1  0  0  0
  3 85  1  0  0  0
  3 86  1  0  0  0
  4  5  1  0  0  0
  4 87  1  0  0  0
  4 88  1  0  0  0
  5  6  1  0  0  0
  5 26  1  0  0  0
  5 89  1  0  0  0
  6 25  1  0  0  0
  6 90  1  0  0  0
  6 91  1  0  0  0
  7  8  2  0  0  0
  7 26  1  0  0  0
  7 29  1  0  0  0
  8  9  1  0  0  0
  8 22  1  0  0  0
  9 10  1  0  0  0
  9 27  2  0  0  0
 10 11  2  0  0  0
 10 15  1  0  0  0
 11 12  1  0  0  0
 11 92  1  0  0  0
 12 13  2  0  0  0
 12 93  1  0  0  0
 13 14  1  0  0  0
 13 31  1  0  0  0
 14 15  2  0  0  0
 14 94  1  0  0  0
 15 95  1  0  0  0
 16 17  2  0  0  0
 16 21  1  0  0  0
 16 31  1  0  0  0
 17 18  1  0  0  0
 17 96  1  0  0  0
 18 19  2  0  0  0
 18 97  1  0  0  0
 19 20  1  0  0  0
 19 24  1  0  0  0
 20 21  2  0  0  0
 20 98  1  0  0  0
 21 23  1  0  0  0
 22 28  1  0  0  0
 22 32  2  0  0  0
 26 27  1  0  0  0
 28 99  1  0  0  0
 28100  1  0  0  0
 29101  1  0  0  0
 29102  1  0  0  0
 33 34  1  0  0  0
 33 66  1  0  0  0
 33 70  2  0  0  0
 34 36  1  0  0  0
 34 59  1  0  0  0
 34103  1  0  0  0
 35 44  2  0  0  0
 35 45  1  0  0  0
 35 68  1  0  0  0
 36 56  1  0  0  0
 36104  1  0  0  0
 37 39  1  0  0  0
 37 47  1  0  0  0
 37 66  1  0  0  0
 37105  1  0  0  0
 38 43  2  0  0  0
 38 46  1  0  0  0
 38 47  1  0  0  0
 39 64  1  0  0  0
 39 67  2  0  0  0
 40 52  1  0  0  0
 40 53  2  0  0  0
 40 58  1  0  0  0
 41106  1  0  0  0
 41107  1  0  0  0
 41108  1  0  0  0
 41 48  1  0  0  0
 42 43  1  0  0  0
 42 66  1  0  0  0
 42109  1  0  0  0
 42110  1  0  0  0
 43 44  1  0  0  0
 44111  1  0  0  0
 45 46  2  0  0  0
 45112  1  0  0  0
 46113  1  0  0  0
 47114  1  0  0  0
 47115  1  0  0  0
 48 56  1  0  0  0
 48 65  1  0  0  0
 48116  1  0  0  0
 49 50  1  0  0  0
 49 53  1  0  0  0
 49 64  1  0  0  0
 49117  1  0  0  0
 50 51  1  0  0  0
 50118  1  0  0  0
 50119  1  0  0  0
 51 52  1  0  0  0
 51120  1  0  0  0
 51121  1  0  0  0
 52122  1  0  0  0
 52123  1  0  0  0
 53 54  1  0  0  0
 54 55  2  0  0  0
 54124  1  0  0  0
 55 57  1  0  0  0
 55125  1  0  0  0
 56 69  2  0  0  0
 57 58  2  0  0  0
 57126  1  0  0  0
 58127  1  0  0  0
 59 60  1  0  0  0
 59 61  1  0  0  0
 59 62  1  0  0  0
 60128  1  0  0  0
 60129  1  0  0  0
 60130  1  0  0  0
 61131  1  0  0  0
 61132  1  0  0  0
 61133  1  0  0  0
 62134  1  0  0  0
 62135  1  0  0  0
 62136  1  0  0  0
 63 65  1  0  0  0
 63137  1  0  0  0
 63138  1  0  0  0
 63139  1  0  0  0
 64140  1  0  0  0
 65141  1  0  0  0
 68 81  1  0  0  0
 71 74  2  0  0  0
 71 75  1  0  0  0
 71142  1  0  0  0
 72 74  1  0  0  0
 72 76  2  0  0  0
 72143  1  0  0  0
 73 75  2  0  0  0
 73 76  1  0  0  0
 73144  1  0  0  0
 74 77  1  0  0  0
 75 78  1  0  0  0
 76 82  1  0  0  0
 77145  1  0  0  0
 77146  1  0  0  0
 77147  1  0  0  0
 78 79  1  0  0  0
 78148  1  0  0  0
 78149  1  0  0  0
 79 80  1  0  0  0
 79150  1  0  0  0
 79151  1  0  0  0
 80 81  1  0  0  0
 80152  1  0  0  0
 80153  1  0  0  0
 81154  1  0  0  0
 81155  1  0  0  0
 82156  1  0  0  0
M  ISO  4   1 100  68 101  81 101  82 100
M  END
> <chiral flag>
0

> <version>
0

> <s_m_source_file>
/data/baiqing/PycharmProjects/Reinvent-master-3.2/result/LINK_invent/BTK/process_docking_weight1_custom_product_contain_oxygen_bond_distance_aromatic_linkinvent_7_9_3/rearranged_h_0129.sdf

> <i_m_source_file_index>
70

> <r_mmod_Potential_Energy-OPLS-2005>
162.11328125

> <r_mmod_Stretch_Energy-OPLS-2005>
96.6796875

> <r_mmod_Bend_Energy-OPLS-2005>
140.583374023438

> <r_mmod_Torsional_Energy-OPLS-2005>
265.481872558594

> <r_mmod_Improper_Torsional_Energy-OPLS-2005>
13.0813045501709

> <r_mmod_Van_der_Waal_Energy-OPLS-2005>
135.009994506836

> <r_mmod_Electrostatic_Energy-OPLS-2005>
-356.516662597656

> <r_mmod_Solvation_Energy-OPLS-2005>
-203.529724121094

> <b_mmod_Minimization_Converged-OPLS-2005>
0

> <r_mmod_RMS_Derivative-OPLS-2005>
2.74954319000244

$$$$
70
                    3D
 Structure written by MMmdl.
161169  0  0  1  0            999 V2000
  -30.6348  -14.5594   20.4751 C   0  0  0  0  0  0
  -30.4316  -12.3332   19.4423 C   0  0  0  0  0  0
  -29.5038  -12.4955   18.2167 C   0  0  0  0  0  0
  -28.0218  -12.3405   18.6203 C   0  0  0  0  0  0
  -27.6522  -13.1928   19.8625 C   0  0  2  0  0  0
  -28.6981  -13.0104   20.9874 C   0  0  0  0  0  0
  -25.2574  -13.8057   20.5720 C   0  0  0  0  0  0
  -24.1805  -13.0364   20.9193 C   0  0  0  0  0  0
  -24.6354  -11.6837   20.8739 C   0  0  0  0  0  0
  -23.9019  -10.4252   21.0421 C   0  0  0  0  0  0
  -24.3581   -9.4174   21.9194 C   0  0  0  0  0  0
  -23.6267   -8.2205   22.0758 C   0  0  0  0  0  0
  -22.4256   -8.0248   21.3540 C   0  0  0  0  0  0
  -21.9883   -9.0223   20.4645 C   0  0  0  0  0  0
  -22.7200  -10.2108   20.3059 C   0  0  0  0  0  0
  -21.6837   -6.0719   22.5284 C   0  0  0  0  0  0
  -21.4005   -6.5626   23.8215 C   0  0  0  0  0  0
  -21.3656   -5.6784   24.9177 C   0  0  0  0  0  0
  -21.6041   -4.3044   24.7237 C   0  0  0  0  0  0
  -21.8817   -3.8138   23.4358 C   0  0  0  0  0  0
  -21.9181   -4.6950   22.3409 C   0  0  0  0  0  0
  -22.7845  -13.5207   21.1861 C   0  0  0  0  0  0
  -22.1651   -4.2134   21.0988 F   0  0  0  0  0  0
  -21.5639   -3.4524   25.7750 F   0  0  0  0  0  0
  -30.0226  -13.3381   20.4376 N   0  0  0  0  0  0
  -26.2976  -12.9207   20.3312 N   0  0  0  0  0  0
  -25.9269  -11.6386   20.5735 N   0  0  0  0  0  0
  -22.0457  -12.8229   22.0423 N   0  0  0  0  0  0
  -25.4318  -15.1748   20.4246 N   0  0  0  0  0  0
  -31.8197  -14.6931   20.1549 O   0  0  0  0  0  0
  -21.6611   -6.8854   21.4246 O   0  0  0  0  0  0
  -22.3569  -14.5526   20.6705 O   0  0  0  0  0  0
  -24.6163  -31.8661   23.2078 C   0  0  0  0  0  0
  -25.9059  -32.4805   23.8382 C   0  0  1  0  0  0
  -27.2384  -27.4092   20.0846 C   0  0  0  0  0  0
  -25.5911  -33.8601   24.2312 N   0  0  0  0  0  0
  -23.4046  -30.4898   21.5496 C   0  0  2  0  0  0
  -24.8497  -28.9494   20.1162 C   0  0  0  0  0  0
  -22.7418  -29.4649   22.4984 C   0  0  0  0  0  0
  -18.0278  -28.1380   22.8490 C   0  0  0  0  0  0
  -24.1493  -36.7306   23.2637 C   0  0  0  0  0  0
  -25.9365  -30.8205   21.3666 C   0  0  0  0  0  0
  -26.0110  -29.4530   20.7125 C   0  0  0  0  0  0
  -27.2024  -28.6893   20.6944 C   0  0  0  0  0  0
  -26.0481  -26.9177   19.4984 C   0  0  0  0  0  0
  -24.8646  -27.6819   19.5096 C   0  0  0  0  0  0
  -23.6146  -29.8216   20.1644 C   0  0  0  0  0  0
  -25.4110  -36.3094   24.0335 C   0  0  1  0  0  0
  -20.5868  -28.3664   23.1329 C   0  0  2  0  0  0
  -20.6771  -26.9396   22.5438 C   0  0  0  0  0  0
  -19.5764  -26.6381   21.5215 C   0  0  0  0  0  0
  -18.1930  -26.7935   22.1602 C   0  0  0  0  0  0
  -19.1527  -28.8840   23.2906 C   0  0  0  0  0  0
  -18.9450  -30.1446   23.8917 C   0  0  0  0  0  0
  -17.6452  -30.6582   24.0570 C   0  0  0  0  0  0
  -25.9040  -34.9466   23.5121 C   0  0  0  0  0  0
  -16.5342  -29.9080   23.6326 C   0  0  0  0  0  0
  -16.7267  -28.6499   23.0340 C   0  0  0  0  0  0
  -26.4471  -31.6590   25.0724 C   0  0  0  0  0  0
  -25.3731  -31.3716   26.1471 C   0  0  0  0  0  0
  -27.0297  -30.3026   24.6121 C   0  0  0  0  0  0
  -27.6059  -32.4301   25.7478 C   0  0  0  0  0  0
  -27.5578  -37.1810   24.8462 C   0  0  0  0  0  0
  -21.4143  -29.3032   22.3728 N   0  0  0  0  0  0
  -26.4287  -37.3783   23.9409 N   0  0  0  0  0  0
  -24.6710  -31.0742   22.0990 N   0  0  0  0  0  0
  -23.4181  -28.8194   23.3033 O   0  0  0  0  0  0
  -28.4332  -26.7049   20.0983 O   0  0  0  0  0  0
  -26.5595  -34.8921   22.4677 O   0  0  0  0  0  0
  -23.5356  -32.1424   23.7475 O   0  0  0  0  0  0
  -27.8101  -17.9207   19.7798 C   0  0  0  0  0  0
  -29.4839  -19.4753   20.5776 C   0  0  0  0  0  0
  -29.1252  -18.1442   20.2370 C   0  0  0  0  0  0
  -26.8706  -18.9668   19.6692 C   0  0  0  0  0  0
  -27.2312  -20.2931   20.0324 C   0  0  0  0  0  0
  -28.5618  -20.5554   20.4683 C   0  0  0  0  0  0
  -30.0718  -16.9915   20.3234 C   0  0  0  0  0  0
  -29.7211  -15.7115   20.6229 C   0  0  0  0  0  0
  -28.5411  -24.2250   20.4121 C   0  0  0  0  0  0
  -25.4804  -18.6191   19.1514 C   0  0  0  0  0  0
  -25.7939  -21.9276   18.6380 C   0  0  0  0  0  0
  -26.1739  -21.4020   20.0341 C   0  0  0  0  0  0
  -28.5719  -25.4250   19.4326 C   0  0  0  0  0  0
  -29.0432  -22.8545   19.8830 C   0  0  0  0  0  0
  -28.1372  -24.3560   21.5742 O   0  0  0  0  0  0
  -28.9582  -21.8174   20.8831 O   0  0  0  0  0  0
  -31.4760  -12.4393   19.1452 H   0  0  0  0  0  0
  -30.3444  -11.3307   19.8620 H   0  0  0  0  0  0
  -29.7615  -11.7642   17.4499 H   0  0  0  0  0  0
  -29.6585  -13.4758   17.7639 H   0  0  0  0  0  0
  -27.8449  -11.2856   18.8302 H   0  0  0  0  0  0
  -27.3715  -12.5959   17.7838 H   0  0  0  0  0  0
  -27.6710  -14.2277   19.5255 H   0  0  0  0  0  0
  -28.6926  -11.9798   21.3454 H   0  0  0  0  0  0
  -28.4599  -13.6163   21.8633 H   0  0  0  0  0  0
  -25.2723   -9.5647   22.4774 H   0  0  0  0  0  0
  -23.9960   -7.4602   22.7491 H   0  0  0  0  0  0
  -21.0799   -8.8740   19.8971 H   0  0  0  0  0  0
  -22.3651  -10.9647   19.6169 H   0  0  0  0  0  0
  -21.1994   -7.6137   23.9710 H   0  0  0  0  0  0
  -21.1486   -6.0519   25.9079 H   0  0  0  0  0  0
  -22.0604   -2.7601   23.2862 H   0  0  0  0  0  0
  -22.4026  -11.9861   22.4799 H   0  0  0  0  0  0
  -21.1100  -13.1327   22.2648 H   0  0  0  0  0  0
  -24.6711  -15.8310   20.5609 H   0  0  0  0  0  0
  -26.2921  -15.6154   20.1343 H   0  0  0  0  0  0
  -26.7124  -32.5513   23.1138 H   0  0  0  0  0  0
  -25.0092  -33.9756   25.0479 H   0  0  0  0  0  0
  -22.6939  -31.3072   21.4108 H   0  0  0  0  0  0
  -23.3750  -35.9644   23.3294 H   0  0  0  0  0  0
  -24.3585  -36.8920   22.2050 H   0  0  0  0  0  0
  -23.7248  -37.6515   23.6646 H   0  0  0  0  0  0
  -26.0565  -31.5858   20.5989 H   0  0  0  0  0  0
  -26.8216  -30.8694   21.9889 H   0  0  0  0  0  0
  -28.1012  -29.0794   21.1531 H   0  0  0  0  0  0
  -25.9979  -25.9452   19.0335 H   0  0  0  0  0  0
  -23.9673  -27.2831   19.0549 H   0  0  0  0  0  0
  -23.7299  -30.5967   19.4065 H   0  0  0  0  0  0
  -22.7368  -29.2473   19.8633 H   0  0  0  0  0  0
  -25.1285  -36.1957   25.0826 H   0  0  0  0  0  0
  -20.9967  -28.3241   24.1447 H   0  0  0  0  0  0
  -20.5666  -26.2276   23.3631 H   0  0  0  0  0  0
  -21.6651  -26.7431   22.1249 H   0  0  0  0  0  0
  -19.6925  -25.6294   21.1238 H   0  0  0  0  0  0
  -19.6729  -27.3206   20.6758 H   0  0  0  0  0  0
  -17.4225  -26.6731   21.3962 H   0  0  0  0  0  0
  -18.0281  -26.0051   22.8962 H   0  0  0  0  0  0
  -19.7920  -30.7257   24.2302 H   0  0  0  0  0  0
  -17.4995  -31.6264   24.5162 H   0  0  0  0  0  0
  -15.5341  -30.2980   23.7631 H   0  0  0  0  0  0
  -15.8671  -28.0816   22.7039 H   0  0  0  0  0  0
  -24.5915  -30.7038   25.7816 H   0  0  0  0  0  0
  -24.8908  -32.2885   26.4884 H   0  0  0  0  0  0
  -25.8084  -30.8922   27.0249 H   0  0  0  0  0  0
  -26.2847  -29.6808   24.1140 H   0  0  0  0  0  0
  -27.4012  -29.7245   25.4587 H   0  0  0  0  0  0
  -27.8706  -30.4325   23.9304 H   0  0  0  0  0  0
  -27.2685  -33.3601   26.2066 H   0  0  0  0  0  0
  -28.3859  -32.6855   25.0292 H   0  0  0  0  0  0
  -28.0730  -31.8415   26.5382 H   0  0  0  0  0  0
  -28.2601  -38.0104   24.7507 H   0  0  0  0  0  0
  -28.1073  -36.2639   24.6289 H   0  0  0  0  0  0
  -27.2304  -37.1457   25.8867 H   0  0  0  0  0  0
  -20.9308  -29.8754   21.6947 H   0  0  0  0  0  0
  -26.0182  -38.2864   24.1406 H   0  0  0  0  0  0
  -27.5207  -16.9254   19.4761 H   0  0  0  0  0  0
  -30.4847  -19.6757   20.9330 H   0  0  0  0  0  0
  -31.0961  -17.2046   20.0474 H   0  0  0  0  0  0
  -28.7035  -15.5565   20.9381 H   0  0  0  0  0  0
  -25.3052  -17.5457   19.1714 H   0  0  0  0  0  0
  -25.3679  -18.9322   18.1138 H   0  0  0  0  0  0
  -24.6888  -19.0764   19.7424 H   0  0  0  0  0  0
  -25.0912  -22.7574   18.7226 H   0  0  0  0  0  0
  -25.3132  -21.1645   18.0292 H   0  0  0  0  0  0
  -26.6531  -22.2885   18.0761 H   0  0  0  0  0  0
  -26.4978  -22.2298   20.6617 H   0  0  0  0  0  0
  -25.2786  -21.0397   20.5396 H   0  0  0  0  0  0
  -27.8597  -25.2764   18.6246 H   0  0  0  0  0  0
  -29.5497  -25.4203   18.9517 H   0  0  0  0  0  0
  -30.0880  -22.9617   19.5912 H   0  0  0  0  0  0
  -28.5024  -22.5859   18.9799 H   0  0  0  0  0  0
  1 25  1  0  0  0
  1 30  2  0  0  0
  1 78  1  0  0  0
  2  3  1  0  0  0
  2 25  1  0  0  0
  2 87  1  0  0  0
  2 88  1  0  0  0
  3  4  1  0  0  0
  3 89  1  0  0  0
  3 90  1  0  0  0
  4  5  1  0  0  0
  4 91  1  0  0  0
  4 92  1  0  0  0
  5  6  1  0  0  0
  5 26  1  0  0  0
  5 93  1  0  0  0
  6 25  1  0  0  0
  6 94  1  0  0  0
  6 95  1  0  0  0
  7  8  2  0  0  0
  7 26  1  0  0  0
  7 29  1  0  0  0
  8  9  1  0  0  0
  8 22  1  0  0  0
  9 10  1  0  0  0
  9 27  2  0  0  0
 10 11  2  0  0  0
 10 15  1  0  0  0
 11 12  1  0  0  0
 11 96  1  0  0  0
 12 13  2  0  0  0
 12 97  1  0  0  0
 13 14  1  0  0  0
 13 31  1  0  0  0
 14 15  2  0  0  0
 14 98  1  0  0  0
 15 99  1  0  0  0
 16 17  2  0  0  0
 16 21  1  0  0  0
 16 31  1  0  0  0
 17 18  1  0  0  0
 17100  1  0  0  0
 18 19  2  0  0  0
 18101  1  0  0  0
 19 20  1  0  0  0
 19 24  1  0  0  0
 20 21  2  0  0  0
 20102  1  0  0  0
 21 23  1  0  0  0
 22 28  1  0  0  0
 22 32  2  0  0  0
 26 27  1  0  0  0
 28103  1  0  0  0
 28104  1  0  0  0
 29105  1  0  0  0
 29106  1  0  0  0
 33 34  1  0  0  0
 33 66  1  0  0  0
 33 70  2  0  0  0
 34 36  1  0  0  0
 34 59  1  0  0  0
 34107  1  0  0  0
 35 44  2  0  0  0
 35 45  1  0  0  0
 35 68  1  0  0  0
 36 56  1  0  0  0
 36108  1  0  0  0
 37 39  1  0  0  0
 37 47  1  0  0  0
 37 66  1  0  0  0
 37109  1  0  0  0
 38 43  2  0  0  0
 38 46  1  0  0  0
 38 47  1  0  0  0
 39 64  1  0  0  0
 39 67  2  0  0  0
 40 52  1  0  0  0
 40 53  2  0  0  0
 40 58  1  0  0  0
 41110  1  0  0  0
 41111  1  0  0  0
 41112  1  0  0  0
 41 48  1  0  0  0
 42 43  1  0  0  0
 42 66  1  0  0  0
 42113  1  0  0  0
 42114  1  0  0  0
 43 44  1  0  0  0
 44115  1  0  0  0
 45 46  2  0  0  0
 45116  1  0  0  0
 46117  1  0  0  0
 47118  1  0  0  0
 47119  1  0  0  0
 48 56  1  0  0  0
 48 65  1  0  0  0
 48120  1  0  0  0
 49 50  1  0  0  0
 49 53  1  0  0  0
 49 64  1  0  0  0
 49121  1  0  0  0
 50 51  1  0  0  0
 50122  1  0  0  0
 50123  1  0  0  0
 51 52  1  0  0  0
 51124  1  0  0  0
 51125  1  0  0  0
 52126  1  0  0  0
 52127  1  0  0  0
 53 54  1  0  0  0
 54 55  2  0  0  0
 54128  1  0  0  0
 55 57  1  0  0  0
 55129  1  0  0  0
 56 69  2  0  0  0
 57 58  2  0  0  0
 57130  1  0  0  0
 58131  1  0  0  0
 59 60  1  0  0  0
 59 61  1  0  0  0
 59 62  1  0  0  0
 60132  1  0  0  0
 60133  1  0  0  0
 60134  1  0  0  0
 61135  1  0  0  0
 61136  1  0  0  0
 61137  1  0  0  0
 62138  1  0  0  0
 62139  1  0  0  0
 62140  1  0  0  0
 63 65  1  0  0  0
 63141  1  0  0  0
 63142  1  0  0  0
 63143  1  0  0  0
 64144  1  0  0  0
 65145  1  0  0  0
 68 83  1  0  0  0
 71 73  2  0  0  0
 71 74  1  0  0  0
 71146  1  0  0  0
 72 73  1  0  0  0
 72 76  2  0  0  0
 72147  1  0  0  0
 73 77  1  0  0  0
 74 75  2  0  0  0
 74 80  1  0  0  0
 75 76  1  0  0  0
 75 82  1  0  0  0
 76 86  1  0  0  0
 77 78  2  0  0  0
 77148  1  0  0  0
 78149  1  0  0  0
 79 83  1  0  0  0
 79 84  1  0  0  0
 79 85  2  0  0  0
 80150  1  0  0  0
 80151  1  0  0  0
 80152  1  0  0  0
 81 82  1  0  0  0
 81153  1  0  0  0
 81154  1  0  0  0
 81155  1  0  0  0
 82156  1  0  0  0
 82157  1  0  0  0
 83158  1  0  0  0
 83159  1  0  0  0
 84 86  1  0  0  0
 84160  1  0  0  0
 84161  1  0  0  0
M  ISO  4   1 100  68 101  78 100  83 101
M  END
> <chiral flag>
0

> <version>
0

> <s_m_source_file>
/data/baiqing/PycharmProjects/Reinvent-master-3.2/result/LINK_invent/BTK/process_docking_weight1_custom_product_contain_oxygen_bond_distance_aromatic_linkinvent_7_9_3/rearranged_h_0129.sdf

> <i_m_source_file_index>
71

> <r_mmod_Potential_Energy-OPLS-2005>
39.8987197875977

> <r_mmod_Stretch_Energy-OPLS-2005>
48.2649345397949

> <r_mmod_Bend_Energy-OPLS-2005>
110.703605651855

> <r_mmod_Torsional_Energy-OPLS-2005>
219.169036865234

> <r_mmod_Improper_Torsional_Energy-OPLS-2005>
8.23822402954102

> <r_mmod_Van_der_Waal_Energy-OPLS-2005>
151.95866394043

> <r_mmod_Electrostatic_Energy-OPLS-2005>
-297.272644042969

> <r_mmod_Solvation_Energy-OPLS-2005>
-225.20654296875

> <b_mmod_Minimization_Converged-OPLS-2005>
0

> <r_mmod_RMS_Derivative-OPLS-2005>
1.80460798740387

$$$$
71
                    3D
 Structure written by MMmdl.
153161  0  0  1  0            999 V2000
  -30.7184  -14.4811   20.5091 C   0  0  0  0  0  0
  -30.4094  -12.2906   19.4418 C   0  0  0  0  0  0
  -29.4952  -12.4816   18.2138 C   0  0  0  0  0  0
  -28.0144  -12.3478   18.6223 C   0  0  0  0  0  0
  -27.6536  -13.2089   19.8630 C   0  0  2  0  0  0
  -28.6953  -13.0321   20.9908 C   0  0  0  0  0  0
  -25.2560  -13.8158   20.5664 C   0  0  0  0  0  0
  -24.1821  -13.0435   20.9182 C   0  0  0  0  0  0
  -24.6368  -11.6908   20.8731 C   0  0  0  0  0  0
  -23.9033  -10.4292   21.0399 C   0  0  0  0  0  0
  -24.3607   -9.4213   21.9180 C   0  0  0  0  0  0
  -23.6295   -8.2238   22.0745 C   0  0  0  0  0  0
  -22.4271   -8.0265   21.3542 C   0  0  0  0  0  0
  -21.9887   -9.0240   20.4646 C   0  0  0  0  0  0
  -22.7200  -10.2128   20.3055 C   0  0  0  0  0  0
  -21.6852   -6.0718   22.5280 C   0  0  0  0  0  0
  -21.4012   -6.5629   23.8215 C   0  0  0  0  0  0
  -21.3665   -5.6786   24.9184 C   0  0  0  0  0  0
  -21.6050   -4.3046   24.7236 C   0  0  0  0  0  0
  -21.8824   -3.8131   23.4353 C   0  0  0  0  0  0
  -21.9197   -4.6944   22.3409 C   0  0  0  0  0  0
  -22.7853  -13.5246   21.1860 C   0  0  0  0  0  0
  -22.1663   -4.2131   21.0988 F   0  0  0  0  0  0
  -21.5641   -3.4534   25.7748 F   0  0  0  0  0  0
  -30.0257  -13.3104   20.4332 N   0  0  0  0  0  0
  -26.2982  -12.9332   20.3315 N   0  0  0  0  0  0
  -25.9290  -11.6491   20.5746 N   0  0  0  0  0  0
  -22.0499  -12.8251   22.0428 N   0  0  0  0  0  0
  -25.4267  -15.1872   20.4041 N   0  0  0  0  0  0
  -31.8974  -14.5411   20.1488 O   0  0  0  0  0  0
  -21.6643   -6.8854   21.4232 O   0  0  0  0  0  0
  -22.3548  -14.5555   20.6700 O   0  0  0  0  0  0
  -24.6147  -31.8669   23.2098 C   0  0  0  0  0  0
  -25.9057  -32.4808   23.8361 C   0  0  1  0  0  0
  -27.2329  -27.4418   20.0946 C   0  0  0  0  0  0
  -25.5926  -33.8605   24.2309 N   0  0  0  0  0  0
  -23.3991  -30.4916   21.5532 C   0  0  2  0  0  0
  -24.8431  -28.9609   20.1125 C   0  0  0  0  0  0
  -22.7401  -29.4655   22.5014 C   0  0  0  0  0  0
  -18.0278  -28.1381   22.8510 C   0  0  0  0  0  0
  -24.1496  -36.7312   23.2637 C   0  0  0  0  0  0
  -25.9258  -30.8388   21.3563 C   0  0  0  0  0  0
  -26.0043  -29.4745   20.7026 C   0  0  0  0  0  0
  -27.2023  -28.7254   20.6852 C   0  0  0  0  0  0
  -26.0527  -26.9424   19.4950 C   0  0  0  0  0  0
  -24.8627  -27.6942   19.5042 C   0  0  0  0  0  0
  -23.6034  -29.8248   20.1670 C   0  0  0  0  0  0
  -25.4116  -36.3097   24.0331 C   0  0  1  0  0  0
  -20.5866  -28.3654   23.1354 C   0  0  2  0  0  0
  -20.6785  -26.9401   22.5440 C   0  0  0  0  0  0
  -19.5768  -26.6391   21.5239 C   0  0  0  0  0  0
  -18.1936  -26.7940   22.1625 C   0  0  0  0  0  0
  -19.1525  -28.8840   23.2925 C   0  0  0  0  0  0
  -18.9447  -30.1457   23.8917 C   0  0  0  0  0  0
  -17.6446  -30.6588   24.0580 C   0  0  0  0  0  0
  -25.9040  -34.9466   23.5114 C   0  0  0  0  0  0
  -16.5340  -29.9086   23.6339 C   0  0  0  0  0  0
  -16.7266  -28.6508   23.0352 C   0  0  0  0  0  0
  -26.4508  -31.6579   25.0672 C   0  0  0  0  0  0
  -25.3803  -31.3693   26.1448 C   0  0  0  0  0  0
  -27.0324  -30.3021   24.6023 C   0  0  0  0  0  0
  -27.6093  -32.4297   25.7418 C   0  0  0  0  0  0
  -27.5583  -37.1806   24.8467 C   0  0  0  0  0  0
  -21.4132  -29.3009   22.3751 N   0  0  0  0  0  0
  -26.4300  -37.3780   23.9404 N   0  0  0  0  0  0
  -24.6655  -31.0777   22.0997 N   0  0  0  0  0  0
  -23.4188  -28.8211   23.3055 O   0  0  0  0  0  0
  -28.4028  -26.7101   20.1163 O   0  0  0  0  0  0
  -26.5578  -34.8926   22.4659 O   0  0  0  0  0  0
  -23.5353  -32.1420   23.7522 O   0  0  0  0  0  0
  -28.6911  -18.5978   20.8815 C   0  0  0  0  0  0
  -30.9937  -19.3400   20.7149 C   0  0  0  0  0  0
  -28.2674  -19.9479   20.8457 C   0  0  0  0  0  0
  -30.5726  -20.6843   20.6917 C   0  0  0  0  0  0
  -30.0655  -18.2790   20.8007 C   0  0  0  0  0  0
  -29.2005  -21.0062   20.7586 C   0  0  0  0  0  0
  -30.5952  -16.8990   20.7221 C   0  0  0  0  0  0
  -29.9509  -15.7056   20.7785 C   0  0  0  0  0  0
  -29.5580  -24.6560   20.8017 C   0  0  0  0  0  0
  -29.3686  -23.2911   21.5036 C   0  0  0  0  0  0
  -28.2577  -25.2909   20.2744 C   0  0  0  0  0  0
  -28.7424  -22.3069   20.6697 O   0  0  0  0  0  0
  -31.4587  -12.3526   19.1448 H   0  0  0  0  0  0
  -30.2832  -11.2913   19.8608 H   0  0  0  0  0  0
  -29.7372  -11.7440   17.4475 H   0  0  0  0  0  0
  -29.6706  -13.4612   17.7659 H   0  0  0  0  0  0
  -27.8316  -11.2944   18.8380 H   0  0  0  0  0  0
  -27.3633  -12.6025   17.7853 H   0  0  0  0  0  0
  -27.6816  -14.2475   19.5352 H   0  0  0  0  0  0
  -28.6671  -12.0113   21.3744 H   0  0  0  0  0  0
  -28.4700  -13.6721   21.8451 H   0  0  0  0  0  0
  -25.2751   -9.5708   22.4756 H   0  0  0  0  0  0
  -24.0022   -7.4626   22.7454 H   0  0  0  0  0  0
  -21.0816   -8.8735   19.8966 H   0  0  0  0  0  0
  -22.3628  -10.9668   19.6173 H   0  0  0  0  0  0
  -21.1989   -7.6133   23.9715 H   0  0  0  0  0  0
  -21.1491   -6.0513   25.9089 H   0  0  0  0  0  0
  -22.0595   -2.7582   23.2863 H   0  0  0  0  0  0
  -22.4108  -11.9924   22.4858 H   0  0  0  0  0  0
  -21.1118  -13.1288   22.2633 H   0  0  0  0  0  0
  -24.6541  -15.8373   20.4979 H   0  0  0  0  0  0
  -26.2705  -15.6216   20.0523 H   0  0  0  0  0  0
  -26.7110  -32.5532   23.1107 H   0  0  0  0  0  0
  -25.0129  -33.9749   25.0494 H   0  0  0  0  0  0
  -22.6878  -31.3091   21.4194 H   0  0  0  0  0  0
  -23.3729  -35.9679   23.3354 H   0  0  0  0  0  0
  -24.3582  -36.8865   22.2040 H   0  0  0  0  0  0
  -23.7295  -37.6555   23.6613 H   0  0  0  0  0  0
  -26.0270  -31.6055   20.5867 H   0  0  0  0  0  0
  -26.8175  -30.8941   21.9686 H   0  0  0  0  0  0
  -28.0989  -29.1215   21.1420 H   0  0  0  0  0  0
  -26.0382  -25.9749   19.0143 H   0  0  0  0  0  0
  -23.9699  -27.2946   19.0430 H   0  0  0  0  0  0
  -23.7049  -30.6013   19.4080 H   0  0  0  0  0  0
  -22.7266  -29.2423   19.8760 H   0  0  0  0  0  0
  -25.1302  -36.1946   25.0826 H   0  0  0  0  0  0
  -20.9950  -28.3220   24.1480 H   0  0  0  0  0  0
  -20.5747  -26.2246   23.3613 H   0  0  0  0  0  0
  -21.6652  -26.7505   22.1199 H   0  0  0  0  0  0
  -19.6936  -25.6311   21.1252 H   0  0  0  0  0  0
  -19.6725  -27.3225   20.6799 H   0  0  0  0  0  0
  -17.4232  -26.6736   21.3992 H   0  0  0  0  0  0
  -18.0296  -26.0059   22.8992 H   0  0  0  0  0  0
  -19.7916  -30.7287   24.2277 H   0  0  0  0  0  0
  -17.4994  -31.6275   24.5170 H   0  0  0  0  0  0
  -15.5339  -30.2988   23.7659 H   0  0  0  0  0  0
  -15.8671  -28.0839   22.7038 H   0  0  0  0  0  0
  -24.5940  -30.7076   25.7798 H   0  0  0  0  0  0
  -24.9051  -32.2864   26.4934 H   0  0  0  0  0  0
  -25.8175  -30.8823   27.0174 H   0  0  0  0  0  0
  -26.2820  -29.6729   24.1214 H   0  0  0  0  0  0
  -27.4260  -29.7296   25.4432 H   0  0  0  0  0  0
  -27.8587  -30.4330   23.9031 H   0  0  0  0  0  0
  -27.2712  -33.3576   26.2040 H   0  0  0  0  0  0
  -28.3870  -32.6890   25.0220 H   0  0  0  0  0  0
  -28.0809  -31.8402   26.5291 H   0  0  0  0  0  0
  -28.2635  -38.0068   24.7470 H   0  0  0  0  0  0
  -28.1042  -36.2602   24.6343 H   0  0  0  0  0  0
  -27.2302  -37.1524   25.8871 H   0  0  0  0  0  0
  -20.9292  -29.8662   21.6916 H   0  0  0  0  0  0
  -26.0190  -38.2860   24.1391 H   0  0  0  0  0  0
  -27.9474  -17.8155   20.9361 H   0  0  0  0  0  0
  -32.0509  -19.1290   20.6337 H   0  0  0  0  0  0
  -27.2113  -20.1707   20.8775 H   0  0  0  0  0  0
  -31.3157  -21.4616   20.5842 H   0  0  0  0  0  0
  -31.6649  -16.8788   20.5595 H   0  0  0  0  0  0
  -28.8895  -15.6748   20.9671 H   0  0  0  0  0  0
  -30.2857  -24.5707   19.9949 H   0  0  0  0  0  0
  -30.0031  -25.3353   21.5307 H   0  0  0  0  0  0
  -28.7304  -23.4276   22.3766 H   0  0  0  0  0  0
  -30.3309  -22.9679   21.8990 H   0  0  0  0  0  0
  -27.4473  -25.0759   20.9740 H   0  0  0  0  0  0
  -27.9967  -24.8295   19.3215 H   0  0  0  0  0  0
  1 25  1  0  0  0
  1 30  2  0  0  0
  1 78  1  0  0  0
  2  3  1  0  0  0
  2 25  1  0  0  0
  2 83  1  0  0  0
  2 84  1  0  0  0
  3  4  1  0  0  0
  3 85  1  0  0  0
  3 86  1  0  0  0
  4  5  1  0  0  0
  4 87  1  0  0  0
  4 88  1  0  0  0
  5  6  1  0  0  0
  5 26  1  0  0  0
  5 89  1  0  0  0
  6 25  1  0  0  0
  6 90  1  0  0  0
  6 91  1  0  0  0
  7  8  2  0  0  0
  7 26  1  0  0  0
  7 29  1  0  0  0
  8  9  1  0  0  0
  8 22  1  0  0  0
  9 10  1  0  0  0
  9 27  2  0  0  0
 10 11  2  0  0  0
 10 15  1  0  0  0
 11 12  1  0  0  0
 11 92  1  0  0  0
 12 13  2  0  0  0
 12 93  1  0  0  0
 13 14  1  0  0  0
 13 31  1  0  0  0
 14 15  2  0  0  0
 14 94  1  0  0  0
 15 95  1  0  0  0
 16 17  2  0  0  0
 16 21  1  0  0  0
 16 31  1  0  0  0
 17 18  1  0  0  0
 17 96  1  0  0  0
 18 19  2  0  0  0
 18 97  1  0  0  0
 19 20  1  0  0  0
 19 24  1  0  0  0
 20 21  2  0  0  0
 20 98  1  0  0  0
 21 23  1  0  0  0
 22 28  1  0  0  0
 22 32  2  0  0  0
 26 27  1  0  0  0
 28 99  1  0  0  0
 28100  1  0  0  0
 29101  1  0  0  0
 29102  1  0  0  0
 33 34  1  0  0  0
 33 66  1  0  0  0
 33 70  2  0  0  0
 34 36  1  0  0  0
 34 59  1  0  0  0
 34103  1  0  0  0
 35 44  2  0  0  0
 35 45  1  0  0  0
 35 68  1  0  0  0
 36 56  1  0  0  0
 36104  1  0  0  0
 37 39  1  0  0  0
 37 47  1  0  0  0
 37 66  1  0  0  0
 37105  1  0  0  0
 38 43  2  0  0  0
 38 46  1  0  0  0
 38 47  1  0  0  0
 39 64  1  0  0  0
 39 67  2  0  0  0
 40 52  1  0  0  0
 40 53  2  0  0  0
 40 58  1  0  0  0
 41106  1  0  0  0
 41107  1  0  0  0
 41108  1  0  0  0
 41 48  1  0  0  0
 42 43  1  0  0  0
 42 66  1  0  0  0
 42109  1  0  0  0
 42110  1  0  0  0
 43 44  1  0  0  0
 44111  1  0  0  0
 45 46  2  0  0  0
 45112  1  0  0  0
 46113  1  0  0  0
 47114  1  0  0  0
 47115  1  0  0  0
 48 56  1  0  0  0
 48 65  1  0  0  0
 48116  1  0  0  0
 49 50  1  0  0  0
 49 53  1  0  0  0
 49 64  1  0  0  0
 49117  1  0  0  0
 50 51  1  0  0  0
 50118  1  0  0  0
 50119  1  0  0  0
 51 52  1  0  0  0
 51120  1  0  0  0
 51121  1  0  0  0
 52122  1  0  0  0
 52123  1  0  0  0
 53 54  1  0  0  0
 54 55  2  0  0  0
 54124  1  0  0  0
 55 57  1  0  0  0
 55125  1  0  0  0
 56 69  2  0  0  0
 57 58  2  0  0  0
 57126  1  0  0  0
 58127  1  0  0  0
 59 60  1  0  0  0
 59 61  1  0  0  0
 59 62  1  0  0  0
 60128  1  0  0  0
 60129  1  0  0  0
 60130  1  0  0  0
 61131  1  0  0  0
 61132  1  0  0  0
 61133  1  0  0  0
 62134  1  0  0  0
 62135  1  0  0  0
 62136  1  0  0  0
 63 65  1  0  0  0
 63137  1  0  0  0
 63138  1  0  0  0
 63139  1  0  0  0
 64140  1  0  0  0
 65141  1  0  0  0
 68 81  1  0  0  0
 71 73  2  0  0  0
 71 75  1  0  0  0
 71142  1  0  0  0
 72 74  1  0  0  0
 72 75  2  0  0  0
 72143  1  0  0  0
 73 76  1  0  0  0
 73144  1  0  0  0
 74 76  2  0  0  0
 74145  1  0  0  0
 75 77  1  0  0  0
 76 82  1  0  0  0
 77 78  2  0  0  0
 77146  1  0  0  0
 78147  1  0  0  0
 79 80  1  0  0  0
 79 81  1  0  0  0
 79148  1  0  0  0
 79149  1  0  0  0
 80 82  1  0  0  0
 80150  1  0  0  0
 80151  1  0  0  0
 81152  1  0  0  0
 81153  1  0  0  0
M  ISO  4   1 100  68 101  78 100  81 101
M  END
> <chiral flag>
0

> <version>
0

> <s_m_source_file>
/data/baiqing/PycharmProjects/Reinvent-master-3.2/result/LINK_invent/BTK/process_docking_weight1_custom_product_contain_oxygen_bond_distance_aromatic_linkinvent_7_9_3/rearranged_h_0129.sdf

> <i_m_source_file_index>
72

> <r_mmod_Potential_Energy-OPLS-2005>
-11.5927791595459

> <r_mmod_Stretch_Energy-OPLS-2005>
36.5487327575684

> <r_mmod_Bend_Energy-OPLS-2005>
101.432075500488

> <r_mmod_Torsional_Energy-OPLS-2005>
209.678497314453

> <r_mmod_Improper_Torsional_Energy-OPLS-2005>
6.48852396011353

> <r_mmod_Van_der_Waal_Energy-OPLS-2005>
162.611740112305

> <r_mmod_Electrostatic_Energy-OPLS-2005>
-350.659545898438

> <r_mmod_Solvation_Energy-OPLS-2005>
-196.605072021484

> <b_mmod_Minimization_Converged-OPLS-2005>
0

> <r_mmod_RMS_Derivative-OPLS-2005>
1.88642621040344

$$$$
72
                    3D
 Structure written by MMmdl.
159167  0  0  1  0            999 V2000
  -30.7067  -14.4865   20.5794 C   0  0  0  0  0  0
  -30.4228  -12.3170   19.4291 C   0  0  0  0  0  0
  -29.4962  -12.5090   18.2110 C   0  0  0  0  0  0
  -28.0179  -12.3663   18.6223 C   0  0  0  0  0  0
  -27.6603  -13.2082   19.8763 C   0  0  2  0  0  0
  -28.7031  -13.0005   20.9989 C   0  0  0  0  0  0
  -25.2521  -13.8048   20.5605 C   0  0  0  0  0  0
  -24.1805  -13.0355   20.9180 C   0  0  0  0  0  0
  -24.6395  -11.6846   20.8758 C   0  0  0  0  0  0
  -23.9062  -10.4249   21.0415 C   0  0  0  0  0  0
  -24.3612   -9.4169   21.9192 C   0  0  0  0  0  0
  -23.6279   -8.2214   22.0758 C   0  0  0  0  0  0
  -22.4261   -8.0264   21.3546 C   0  0  0  0  0  0
  -21.9897   -9.0239   20.4650 C   0  0  0  0  0  0
  -22.7237  -10.2110   20.3060 C   0  0  0  0  0  0
  -21.6844   -6.0725   22.5279 C   0  0  0  0  0  0
  -21.4008   -6.5631   23.8212 C   0  0  0  0  0  0
  -21.3653   -5.6786   24.9176 C   0  0  0  0  0  0
  -21.6042   -4.3049   24.7227 C   0  0  0  0  0  0
  -21.8822   -3.8140   23.4350 C   0  0  0  0  0  0
  -21.9190   -4.6955   22.3404 C   0  0  0  0  0  0
  -22.7835  -13.5183   21.1837 C   0  0  0  0  0  0
  -22.1662   -4.2143   21.0980 F   0  0  0  0  0  0
  -21.5627   -3.4533   25.7741 F   0  0  0  0  0  0
  -30.0345  -13.3077   20.4474 N   0  0  0  0  0  0
  -26.3015  -12.9283   20.3371 N   0  0  0  0  0  0
  -25.9334  -11.6444   20.5807 N   0  0  0  0  0  0
  -22.0470  -12.8207   22.0412 N   0  0  0  0  0  0
  -25.4091  -15.1705   20.3825 N   0  0  0  0  0  0
  -31.8270  -14.6543   20.0900 O   0  0  0  0  0  0
  -21.6624   -6.8865   21.4241 O   0  0  0  0  0  0
  -22.3536  -14.5498   20.6684 O   0  0  0  0  0  0
  -24.6136  -31.8679   23.2091 C   0  0  0  0  0  0
  -25.9028  -32.4824   23.8391 C   0  0  1  0  0  0
  -27.2428  -27.4432   20.1024 C   0  0  0  0  0  0
  -25.5884  -33.8622   24.2325 N   0  0  0  0  0  0
  -23.4026  -30.4886   21.5495 C   0  0  2  0  0  0
  -24.8528  -28.9509   20.1189 C   0  0  0  0  0  0
  -22.7408  -29.4651   22.4997 C   0  0  0  0  0  0
  -18.0270  -28.1376   22.8491 C   0  0  0  0  0  0
  -24.1484  -36.7319   23.2631 C   0  0  0  0  0  0
  -25.9295  -30.8369   21.3599 C   0  0  0  0  0  0
  -26.0115  -29.4697   20.7118 C   0  0  0  0  0  0
  -27.2123  -28.7240   20.6980 C   0  0  0  0  0  0
  -26.0702  -26.9323   19.5088 C   0  0  0  0  0  0
  -24.8761  -27.6802   19.5151 C   0  0  0  0  0  0
  -23.6125  -29.8157   20.1661 C   0  0  0  0  0  0
  -25.4099  -36.3113   24.0338 C   0  0  1  0  0  0
  -20.5859  -28.3660   23.1325 C   0  0  2  0  0  0
  -20.6761  -26.9397   22.5421 C   0  0  0  0  0  0
  -19.5742  -26.6386   21.5212 C   0  0  0  0  0  0
  -18.1919  -26.7923   22.1623 C   0  0  0  0  0  0
  -19.1518  -28.8834   23.2905 C   0  0  0  0  0  0
  -18.9448  -30.1441   23.8914 C   0  0  0  0  0  0
  -17.6452  -30.6582   24.0565 C   0  0  0  0  0  0
  -25.9031  -34.9478   23.5132 C   0  0  0  0  0  0
  -16.5343  -29.9087   23.6321 C   0  0  0  0  0  0
  -16.7259  -28.6503   23.0344 C   0  0  0  0  0  0
  -26.4461  -31.6600   25.0715 C   0  0  0  0  0  0
  -25.3734  -31.3708   26.1470 C   0  0  0  0  0  0
  -27.0287  -30.3045   24.6075 C   0  0  0  0  0  0
  -27.6043  -32.4315   25.7471 C   0  0  0  0  0  0
  -27.5594  -37.1788   24.8444 C   0  0  0  0  0  0
  -21.4135  -29.3028   22.3735 N   0  0  0  0  0  0
  -26.4279  -37.3805   23.9431 N   0  0  0  0  0  0
  -24.6668  -31.0785   22.0985 N   0  0  0  0  0  0
  -23.4179  -28.8197   23.3042 O   0  0  0  0  0  0
  -28.4027  -26.7044   20.0733 O   0  0  0  0  0  0
  -26.5601  -34.8932   22.4698 O   0  0  0  0  0  0
  -23.5330  -32.1423   23.7490 O   0  0  0  0  0  0
  -31.8450  -18.8170   21.2388 C   0  0  0  0  0  0
  -31.6010  -17.4288   21.1460 C   0  0  0  0  0  0
  -29.4813  -19.2101   21.5551 C   0  0  0  0  0  0
  -30.7845  -19.7235   21.4438 C   0  0  0  0  0  0
  -29.2199  -17.8231   21.4481 C   0  0  0  0  0  0
  -30.2866  -16.9000   21.2383 C   0  0  0  0  0  0
  -29.7789  -23.3798   21.1612 C   0  0  0  0  0  0
  -30.2375  -22.1755   20.7480 C   0  0  0  0  0  0
  -29.0571  -24.3287   20.2796 C   0  0  0  0  0  0
  -26.8915  -18.0132   20.4614 C   0  0  0  0  0  0
  -31.0471  -21.2202   21.6240 C   0  0  0  0  0  0
  -27.7629  -17.3988   21.5704 C   0  0  0  0  0  0
  -28.3914  -25.5558   20.9373 C   0  0  0  0  0  0
  -30.0123  -15.4866   21.1706 N   0  0  0  0  0  0
  -28.9668  -24.1691   19.0570 O   0  0  0  0  0  0
  -31.4675  -12.4112   19.1275 H   0  0  0  0  0  0
  -30.3226  -11.3082   19.8324 H   0  0  0  0  0  0
  -29.7392  -11.7824   17.4346 H   0  0  0  0  0  0
  -29.6630  -13.4938   17.7717 H   0  0  0  0  0  0
  -27.8310  -11.3103   18.8211 H   0  0  0  0  0  0
  -27.3675  -12.6373   17.7899 H   0  0  0  0  0  0
  -27.6995  -14.2556   19.5755 H   0  0  0  0  0  0
  -28.6841  -11.9666   21.3471 H   0  0  0  0  0  0
  -28.4593  -13.6032   21.8745 H   0  0  0  0  0  0
  -25.2757   -9.5639   22.4768 H   0  0  0  0  0  0
  -23.9979   -7.4600   22.7474 H   0  0  0  0  0  0
  -21.0826   -8.8768   19.8957 H   0  0  0  0  0  0
  -22.3704  -10.9655   19.6170 H   0  0  0  0  0  0
  -21.2002   -7.6140   23.9715 H   0  0  0  0  0  0
  -21.1469   -6.0516   25.9078 H   0  0  0  0  0  0
  -22.0608   -2.7602   23.2853 H   0  0  0  0  0  0
  -22.4068  -11.9866   22.4811 H   0  0  0  0  0  0
  -21.1097  -13.1259   22.2618 H   0  0  0  0  0  0
  -24.6265  -15.8088   20.4679 H   0  0  0  0  0  0
  -26.2429  -15.6116   20.0196 H   0  0  0  0  0  0
  -26.7105  -32.5546   23.1164 H   0  0  0  0  0  0
  -25.0031  -33.9784   25.0467 H   0  0  0  0  0  0
  -22.6905  -31.3042   21.4075 H   0  0  0  0  0  0
  -23.3753  -35.9643   23.3265 H   0  0  0  0  0  0
  -24.3596  -36.8961   22.2053 H   0  0  0  0  0  0
  -23.7221  -37.6510   23.6662 H   0  0  0  0  0  0
  -26.0364  -31.6011   20.5886 H   0  0  0  0  0  0
  -26.8189  -30.8960   21.9755 H   0  0  0  0  0  0
  -28.1100  -29.1239   21.1491 H   0  0  0  0  0  0
  -26.0841  -25.9585   19.0390 H   0  0  0  0  0  0
  -23.9855  -27.2740   19.0555 H   0  0  0  0  0  0
  -23.7190  -30.5876   19.4031 H   0  0  0  0  0  0
  -22.7379  -29.2321   19.8727 H   0  0  0  0  0  0
  -25.1265  -36.1970   25.0828 H   0  0  0  0  0  0
  -20.9948  -28.3224   24.1446 H   0  0  0  0  0  0
  -20.5661  -26.2265   23.3605 H   0  0  0  0  0  0
  -21.6634  -26.7442   22.1216 H   0  0  0  0  0  0
  -19.6905  -25.6302   21.1227 H   0  0  0  0  0  0
  -19.6682  -27.3207   20.6751 H   0  0  0  0  0  0
  -17.4190  -26.6669   21.4024 H   0  0  0  0  0  0
  -18.0322  -26.0062   22.9016 H   0  0  0  0  0  0
  -19.7925  -30.7250   24.2294 H   0  0  0  0  0  0
  -17.5008  -31.6263   24.5165 H   0  0  0  0  0  0
  -15.5345  -30.2996   23.7635 H   0  0  0  0  0  0
  -15.8658  -28.0829   22.7051 H   0  0  0  0  0  0
  -24.5902  -30.7056   25.7817 H   0  0  0  0  0  0
  -24.8929  -32.2865   26.4928 H   0  0  0  0  0  0
  -25.8092  -30.8874   27.0222 H   0  0  0  0  0  0
  -26.2826  -29.6816   24.1124 H   0  0  0  0  0  0
  -27.4062  -29.7268   25.4523 H   0  0  0  0  0  0
  -27.8658  -30.4372   23.9216 H   0  0  0  0  0  0
  -27.2662  -33.3591   26.2103 H   0  0  0  0  0  0
  -28.3821  -32.6914   25.0278 H   0  0  0  0  0  0
  -28.0751  -31.8409   26.5341 H   0  0  0  0  0  0
  -28.2546  -38.0151   24.7602 H   0  0  0  0  0  0
  -28.1156  -36.2694   24.6116 H   0  0  0  0  0  0
  -27.2338  -37.1252   25.8848 H   0  0  0  0  0  0
  -20.9299  -29.8751   21.6956 H   0  0  0  0  0  0
  -26.0165  -38.2867   24.1502 H   0  0  0  0  0  0
  -32.8624  -19.1777   21.1737 H   0  0  0  0  0  0
  -32.4567  -16.7829   21.0189 H   0  0  0  0  0  0
  -28.6658  -19.8962   21.7376 H   0  0  0  0  0  0
  -29.9467  -23.6943   22.1810 H   0  0  0  0  0  0
  -30.0696  -21.8560   19.7286 H   0  0  0  0  0  0
  -25.8397  -17.7748   20.6113 H   0  0  0  0  0  0
  -27.1875  -17.6456   19.4783 H   0  0  0  0  0  0
  -26.9576  -19.1006   20.4408 H   0  0  0  0  0  0
  -32.1005  -21.4135   21.4173 H   0  0  0  0  0  0
  -30.8966  -21.4744   22.6743 H   0  0  0  0  0  0
  -27.3963  -17.7308   22.5427 H   0  0  0  0  0  0
  -27.6529  -16.3162   21.5722 H   0  0  0  0  0  0
  -28.9197  -25.8068   21.8571 H   0  0  0  0  0  0
  -27.3750  -25.2804   21.2214 H   0  0  0  0  0  0
  -29.0964  -15.2079   21.4836 H   0  0  0  0  0  0
  1 25  1  0  0  0
  1 30  2  0  0  0
  1 84  1  0  0  0
  2  3  1  0  0  0
  2 25  1  0  0  0
  2 86  1  0  0  0
  2 87  1  0  0  0
  3  4  1  0  0  0
  3 88  1  0  0  0
  3 89  1  0  0  0
  4  5  1  0  0  0
  4 90  1  0  0  0
  4 91  1  0  0  0
  5  6  1  0  0  0
  5 26  1  0  0  0
  5 92  1  0  0  0
  6 25  1  0  0  0
  6 93  1  0  0  0
  6 94  1  0  0  0
  7  8  2  0  0  0
  7 26  1  0  0  0
  7 29  1  0  0  0
  8  9  1  0  0  0
  8 22  1  0  0  0
  9 10  1  0  0  0
  9 27  2  0  0  0
 10 11  2  0  0  0
 10 15  1  0  0  0
 11 12  1  0  0  0
 11 95  1  0  0  0
 12 13  2  0  0  0
 12 96  1  0  0  0
 13 14  1  0  0  0
 13 31  1  0  0  0
 14 15  2  0  0  0
 14 97  1  0  0  0
 15 98  1  0  0  0
 16 17  2  0  0  0
 16 21  1  0  0  0
 16 31  1  0  0  0
 17 18  1  0  0  0
 17 99  1  0  0  0
 18 19  2  0  0  0
 18100  1  0  0  0
 19 20  1  0  0  0
 19 24  1  0  0  0
 20 21  2  0  0  0
 20101  1  0  0  0
 21 23  1  0  0  0
 22 28  1  0  0  0
 22 32  2  0  0  0
 26 27  1  0  0  0
 28102  1  0  0  0
 28103  1  0  0  0
 29104  1  0  0  0
 29105  1  0  0  0
 33 34  1  0  0  0
 33 66  1  0  0  0
 33 70  2  0  0  0
 34 36  1  0  0  0
 34 59  1  0  0  0
 34106  1  0  0  0
 35 44  2  0  0  0
 35 45  1  0  0  0
 35 68  1  0  0  0
 36 56  1  0  0  0
 36107  1  0  0  0
 37 39  1  0  0  0
 37 47  1  0  0  0
 37 66  1  0  0  0
 37108  1  0  0  0
 38 43  2  0  0  0
 38 46  1  0  0  0
 38 47  1  0  0  0
 39 64  1  0  0  0
 39 67  2  0  0  0
 40 52  1  0  0  0
 40 53  2  0  0  0
 40 58  1  0  0  0
 41109  1  0  0  0
 41110  1  0  0  0
 41111  1  0  0  0
 41 48  1  0  0  0
 42 43  1  0  0  0
 42 66  1  0  0  0
 42112  1  0  0  0
 42113  1  0  0  0
 43 44  1  0  0  0
 44114  1  0  0  0
 45 46  2  0  0  0
 45115  1  0  0  0
 46116  1  0  0  0
 47117  1  0  0  0
 47118  1  0  0  0
 48 56  1  0  0  0
 48 65  1  0  0  0
 48119  1  0  0  0
 49 50  1  0  0  0
 49 53  1  0  0  0
 49 64  1  0  0  0
 49120  1  0  0  0
 50 51  1  0  0  0
 50121  1  0  0  0
 50122  1  0  0  0
 51 52  1  0  0  0
 51123  1  0  0  0
 51124  1  0  0  0
 52125  1  0  0  0
 52126  1  0  0  0
 53 54  1  0  0  0
 54 55  2  0  0  0
 54127  1  0  0  0
 55 57  1  0  0  0
 55128  1  0  0  0
 56 69  2  0  0  0
 57 58  2  0  0  0
 57129  1  0  0  0
 58130  1  0  0  0
 59 60  1  0  0  0
 59 61  1  0  0  0
 59 62  1  0  0  0
 60131  1  0  0  0
 60132  1  0  0  0
 60133  1  0  0  0
 61134  1  0  0  0
 61135  1  0  0  0
 61136  1  0  0  0
 62137  1  0  0  0
 62138  1  0  0  0
 62139  1  0  0  0
 63 65  1  0  0  0
 63140  1  0  0  0
 63141  1  0  0  0
 63142  1  0  0  0
 64143  1  0  0  0
 65144  1  0  0  0
 68 83  1  0  0  0
 71 72  2  0  0  0
 71 74  1  0  0  0
 71145  1  0  0  0
 72 76  1  0  0  0
 72146  1  0  0  0
 73 74  2  0  0  0
 73 75  1  0  0  0
 73147  1  0  0  0
 74 81  1  0  0  0
 75 76  2  0  0  0
 75 82  1  0  0  0
 76 84  1  0  0  0
 77 78  2  0  0  0
 77 79  1  0  0  0
 77148  1  0  0  0
 78 81  1  0  0  0
 78149  1  0  0  0
 79 83  1  0  0  0
 79 85  2  0  0  0
 80 82  1  0  0  0
 80150  1  0  0  0
 80151  1  0  0  0
 80152  1  0  0  0
 81153  1  0  0  0
 81154  1  0  0  0
 82155  1  0  0  0
 82156  1  0  0  0
 83157  1  0  0  0
 83158  1  0  0  0
 84159  1  0  0  0
M  ISO  4   1 100  68 101  83 101  84 100
M  END
> <chiral flag>
0

> <version>
0

> <s_m_source_file>
/data/baiqing/PycharmProjects/Reinvent-master-3.2/result/LINK_invent/BTK/process_docking_weight1_custom_product_contain_oxygen_bond_distance_aromatic_linkinvent_7_9_3/rearranged_h_0129.sdf

> <i_m_source_file_index>
73

> <r_mmod_Potential_Energy-OPLS-2005>
-40.963062286377

> <r_mmod_Stretch_Energy-OPLS-2005>
39.5288391113281

> <r_mmod_Bend_Energy-OPLS-2005>
96.5469818115234

> <r_mmod_Torsional_Energy-OPLS-2005>
238.819686889648

> <r_mmod_Improper_Torsional_Energy-OPLS-2005>
3.72120666503906

> <r_mmod_Van_der_Waal_Energy-OPLS-2005>
151.339111328125

> <r_mmod_Electrostatic_Energy-OPLS-2005>
-366.612640380859

> <r_mmod_Solvation_Energy-OPLS-2005>
-216.620147705078

> <b_mmod_Minimization_Converged-OPLS-2005>
0

> <r_mmod_RMS_Derivative-OPLS-2005>
0.433580696582794

$$$$
73
                    3D
 Structure written by MMmdl.
153161  0  0  1  0            999 V2000
  -30.5978  -14.7461   20.4987 C   0  0  0  0  0  0
  -30.4456  -12.4682   19.4650 C   0  0  0  0  0  0
  -29.5140  -12.5008   18.2339 C   0  0  0  0  0  0
  -28.0437  -12.3134   18.6572 C   0  0  0  0  0  0
  -27.6443  -13.2219   19.8493 C   0  0  2  0  0  0
  -28.6879  -13.1566   20.9842 C   0  0  0  0  0  0
  -25.2544  -13.8180   20.5688 C   0  0  0  0  0  0
  -24.1824  -13.0437   20.9214 C   0  0  0  0  0  0
  -24.6404  -11.6914   20.8761 C   0  0  0  0  0  0
  -23.9080  -10.4293   21.0423 C   0  0  0  0  0  0
  -24.3625   -9.4206   21.9201 C   0  0  0  0  0  0
  -23.6287   -8.2246   22.0764 C   0  0  0  0  0  0
  -22.4272   -8.0289   21.3547 C   0  0  0  0  0  0
  -21.9918   -9.0266   20.4652 C   0  0  0  0  0  0
  -22.7257  -10.2142   20.3066 C   0  0  0  0  0  0
  -21.6853   -6.0742   22.5274 C   0  0  0  0  0  0
  -21.4013   -6.5639   23.8208 C   0  0  0  0  0  0
  -21.3649   -5.6787   24.9167 C   0  0  0  0  0  0
  -21.6051   -4.3050   24.7218 C   0  0  0  0  0  0
  -21.8820   -3.8143   23.4337 C   0  0  0  0  0  0
  -21.9194   -4.6968   22.3395 C   0  0  0  0  0  0
  -22.7857  -13.5243   21.1857 C   0  0  0  0  0  0
  -22.1665   -4.2149   21.0972 F   0  0  0  0  0  0
  -21.5624   -3.4535   25.7734 F   0  0  0  0  0  0
  -29.9838  -13.5195   20.3982 N   0  0  0  0  0  0
  -26.2955  -12.9357   20.3268 N   0  0  0  0  0  0
  -25.9331  -11.6516   20.5766 N   0  0  0  0  0  0
  -22.0485  -12.8223   22.0392 N   0  0  0  0  0  0
  -25.4237  -15.1909   20.4082 N   0  0  0  0  0  0
  -31.7964  -14.8571   20.2188 O   0  0  0  0  0  0
  -21.6638   -6.8889   21.4238 O   0  0  0  0  0  0
  -22.3539  -14.5548   20.6709 O   0  0  0  0  0  0
  -24.6293  -31.8551   23.1976 C   0  0  0  0  0  0
  -25.9120  -32.4761   23.8326 C   0  0  1  0  0  0
  -27.2242  -27.2687   20.1354 C   0  0  0  0  0  0
  -25.5917  -33.8563   24.2261 N   0  0  0  0  0  0
  -23.4280  -30.4730   21.5426 C   0  0  2  0  0  0
  -24.8782  -28.9163   20.1137 C   0  0  0  0  0  0
  -22.7512  -29.4564   22.4924 C   0  0  0  0  0  0
  -18.0285  -28.1379   22.8455 C   0  0  0  0  0  0
  -24.1491  -36.7289   23.2641 C   0  0  0  0  0  0
  -25.9714  -30.7677   21.3795 C   0  0  0  0  0  0
  -26.0472  -29.3893   20.7239 C   0  0  0  0  0  0
  -27.2270  -28.5780   20.7198 C   0  0  0  0  0  0
  -26.0375  -26.8564   19.4982 C   0  0  0  0  0  0
  -24.8774  -27.6592   19.4869 C   0  0  0  0  0  0
  -23.6478  -29.8032   20.1591 C   0  0  0  0  0  0
  -25.4116  -36.3086   24.0326 C   0  0  1  0  0  0
  -20.5879  -28.3697   23.1261 C   0  0  2  0  0  0
  -20.6769  -26.9418   22.5390 C   0  0  0  0  0  0
  -19.5754  -26.6380   21.5183 C   0  0  0  0  0  0
  -18.1935  -26.7917   22.1594 C   0  0  0  0  0  0
  -19.1534  -28.8853   23.2848 C   0  0  0  0  0  0
  -18.9469  -30.1445   23.8876 C   0  0  0  0  0  0
  -17.6476  -30.6577   24.0546 C   0  0  0  0  0  0
  -25.9049  -34.9450   23.5105 C   0  0  0  0  0  0
  -16.5360  -29.9066   23.6329 C   0  0  0  0  0  0
  -16.7275  -28.6486   23.0336 C   0  0  0  0  0  0
  -26.4496  -31.6586   25.0717 C   0  0  0  0  0  0
  -25.3715  -31.3710   26.1437 C   0  0  0  0  0  0
  -27.0362  -30.3012   24.6189 C   0  0  0  0  0  0
  -27.6059  -32.4331   25.7477 C   0  0  0  0  0  0
  -27.5586  -37.1801   24.8464 C   0  0  0  0  0  0
  -21.4216  -29.3045   22.3680 N   0  0  0  0  0  0
  -26.4307  -37.3770   23.9402 N   0  0  0  0  0  0
  -24.6949  -31.0500   22.0968 N   0  0  0  0  0  0
  -23.4214  -28.8084   23.3004 O   0  0  0  0  0  0
  -28.3189  -26.3826   20.1349 O   0  0  0  0  0  0
  -26.5630  -34.8923   22.4679 O   0  0  0  0  0  0
  -23.5442  -32.1392   23.7264 O   0  0  0  0  0  0
  -31.1839  -18.7223   22.6590 C   0  0  0  0  0  0
  -30.9517  -17.4432   22.1269 C   0  0  0  0  0  0
  -29.4725  -18.4755   20.4990 C   0  0  0  0  0  0
  -29.7269  -19.8316   20.9901 C   0  0  0  0  0  0
  -30.6006  -19.8936   22.1212 C   0  0  0  0  0  0
  -30.0853  -17.2612   21.0352 C   0  0  0  0  0  0
  -29.1370  -21.1270   20.3374 C   0  0  0  0  0  0
  -28.9681  -22.4294   20.8114 C   0  0  0  0  0  0
  -28.5241  -23.6998   20.0481 C   0  0  0  0  0  0
  -30.9958  -21.1938   22.8078 C   0  0  0  0  0  0
  -28.1571  -25.0569   20.8216 C   0  0  0  0  0  0
  -29.7841  -15.8653   20.6282 N   0  0  0  0  0  0
  -28.4284  -23.6988   18.8170 O   0  0  0  0  0  0
  -31.4798  -12.6223   19.1535 H   0  0  0  0  0  0
  -30.4188  -11.4916   19.9513 H   0  0  0  0  0  0
  -29.8017  -11.7228   17.5254 H   0  0  0  0  0  0
  -29.6273  -13.4509   17.7098 H   0  0  0  0  0  0
  -27.9203  -11.2675   18.9406 H   0  0  0  0  0  0
  -27.3780  -12.4799   17.8095 H   0  0  0  0  0  0
  -27.6397  -14.2405   19.4612 H   0  0  0  0  0  0
  -28.7326  -12.1604   21.4275 H   0  0  0  0  0  0
  -28.4216  -13.8399   21.7920 H   0  0  0  0  0  0
  -25.2775   -9.5672   22.4773 H   0  0  0  0  0  0
  -23.9990   -7.4642   22.7496 H   0  0  0  0  0  0
  -21.0848   -8.8812   19.8956 H   0  0  0  0  0  0
  -22.3742  -10.9691   19.6169 H   0  0  0  0  0  0
  -21.2008   -7.6151   23.9710 H   0  0  0  0  0  0
  -21.1465   -6.0520   25.9073 H   0  0  0  0  0  0
  -22.0609   -2.7611   23.2841 H   0  0  0  0  0  0
  -22.4076  -11.9863   22.4758 H   0  0  0  0  0  0
  -21.1109  -13.1267   22.2603 H   0  0  0  0  0  0
  -24.6552  -15.8426   20.5242 H   0  0  0  0  0  0
  -26.2584  -15.6301   20.0413 H   0  0  0  0  0  0
  -26.7188  -32.5423   23.1069 H   0  0  0  0  0  0
  -25.0070  -33.9685   25.0412 H   0  0  0  0  0  0
  -22.7238  -31.2942   21.3963 H   0  0  0  0  0  0
  -23.3769  -35.9611   23.3301 H   0  0  0  0  0  0
  -24.3574  -36.8915   22.2057 H   0  0  0  0  0  0
  -23.7227  -37.6476   23.6669 H   0  0  0  0  0  0
  -26.1055  -31.5286   20.6095 H   0  0  0  0  0  0
  -26.8500  -30.8193   22.0112 H   0  0  0  0  0  0
  -28.1296  -28.9345   21.1967 H   0  0  0  0  0  0
  -26.0064  -25.8949   19.0047 H   0  0  0  0  0  0
  -23.9850  -27.2965   18.9932 H   0  0  0  0  0  0
  -23.7729  -30.5791   19.4034 H   0  0  0  0  0  0
  -22.7667  -29.2357   19.8549 H   0  0  0  0  0  0
  -25.1298  -36.1947   25.0819 H   0  0  0  0  0  0
  -20.9951  -28.3273   24.1382 H   0  0  0  0  0  0
  -20.5669  -26.2300   23.3592 H   0  0  0  0  0  0
  -21.6642  -26.7442   22.1184 H   0  0  0  0  0  0
  -19.6932  -25.6292   21.1208 H   0  0  0  0  0  0
  -19.6688  -27.3200   20.6727 H   0  0  0  0  0  0
  -17.4197  -26.6654   21.4002 H   0  0  0  0  0  0
  -18.0339  -26.0066   22.8999 H   0  0  0  0  0  0
  -19.7957  -30.7235   24.2246 H   0  0  0  0  0  0
  -17.5037  -31.6254   24.5166 H   0  0  0  0  0  0
  -15.5359  -30.2955   23.7670 H   0  0  0  0  0  0
  -15.8672  -28.0798   22.7052 H   0  0  0  0  0  0
  -24.5877  -30.7087   25.7733 H   0  0  0  0  0  0
  -24.8923  -32.2876   26.4891 H   0  0  0  0  0  0
  -25.8024  -30.8843   27.0194 H   0  0  0  0  0  0
  -26.2949  -29.6722   24.1249 H   0  0  0  0  0  0
  -27.4105  -29.7295   25.4688 H   0  0  0  0  0  0
  -27.8791  -30.4299   23.9396 H   0  0  0  0  0  0
  -27.2682  -33.3657   26.2001 H   0  0  0  0  0  0
  -28.3879  -32.6839   25.0299 H   0  0  0  0  0  0
  -28.0710  -31.8486   26.5421 H   0  0  0  0  0  0
  -28.2593  -38.0110   24.7519 H   0  0  0  0  0  0
  -28.1098  -36.2635   24.6295 H   0  0  0  0  0  0
  -27.2295  -37.1442   25.8865 H   0  0  0  0  0  0
  -20.9422  -29.8787   21.6895 H   0  0  0  0  0  0
  -26.0201  -38.2848   24.1411 H   0  0  0  0  0  0
  -31.8398  -18.7971   23.5153 H   0  0  0  0  0  0
  -31.4229  -16.5929   22.6020 H   0  0  0  0  0  0
  -28.7891  -18.3649   19.6696 H   0  0  0  0  0  0
  -28.8575  -20.9801   19.3041 H   0  0  0  0  0  0
  -29.1830  -22.6351   21.8429 H   0  0  0  0  0  0
  -31.2974  -21.9582   22.0927 H   0  0  0  0  0  0
  -31.8464  -21.0519   23.4746 H   0  0  0  0  0  0
  -30.1761  -21.5620   23.4259 H   0  0  0  0  0  0
  -28.7647  -25.0912   21.7262 H   0  0  0  0  0  0
  -27.1285  -24.9543   21.1664 H   0  0  0  0  0  0
  -28.8013  -15.6552   20.5487 H   0  0  0  0  0  0
  1 25  1  0  0  0
  1 30  2  0  0  0
  1 82  1  0  0  0
  2  3  1  0  0  0
  2 25  1  0  0  0
  2 84  1  0  0  0
  2 85  1  0  0  0
  3  4  1  0  0  0
  3 86  1  0  0  0
  3 87  1  0  0  0
  4  5  1  0  0  0
  4 88  1  0  0  0
  4 89  1  0  0  0
  5  6  1  0  0  0
  5 26  1  0  0  0
  5 90  1  0  0  0
  6 25  1  0  0  0
  6 91  1  0  0  0
  6 92  1  0  0  0
  7  8  2  0  0  0
  7 26  1  0  0  0
  7 29  1  0  0  0
  8  9  1  0  0  0
  8 22  1  0  0  0
  9 10  1  0  0  0
  9 27  2  0  0  0
 10 11  2  0  0  0
 10 15  1  0  0  0
 11 12  1  0  0  0
 11 93  1  0  0  0
 12 13  2  0  0  0
 12 94  1  0  0  0
 13 14  1  0  0  0
 13 31  1  0  0  0
 14 15  2  0  0  0
 14 95  1  0  0  0
 15 96  1  0  0  0
 16 17  2  0  0  0
 16 21  1  0  0  0
 16 31  1  0  0  0
 17 18  1  0  0  0
 17 97  1  0  0  0
 18 19  2  0  0  0
 18 98  1  0  0  0
 19 20  1  0  0  0
 19 24  1  0  0  0
 20 21  2  0  0  0
 20 99  1  0  0  0
 21 23  1  0  0  0
 22 28  1  0  0  0
 22 32  2  0  0  0
 26 27  1  0  0  0
 28100  1  0  0  0
 28101  1  0  0  0
 29102  1  0  0  0
 29103  1  0  0  0
 33 34  1  0  0  0
 33 66  1  0  0  0
 33 70  2  0  0  0
 34 36  1  0  0  0
 34 59  1  0  0  0
 34104  1  0  0  0
 35 44  2  0  0  0
 35 45  1  0  0  0
 35 68  1  0  0  0
 36 56  1  0  0  0
 36105  1  0  0  0
 37 39  1  0  0  0
 37 47  1  0  0  0
 37 66  1  0  0  0
 37106  1  0  0  0
 38 43  2  0  0  0
 38 46  1  0  0  0
 38 47  1  0  0  0
 39 64  1  0  0  0
 39 67  2  0  0  0
 40 52  1  0  0  0
 40 53  2  0  0  0
 40 58  1  0  0  0
 41107  1  0  0  0
 41108  1  0  0  0
 41109  1  0  0  0
 41 48  1  0  0  0
 42 43  1  0  0  0
 42 66  1  0  0  0
 42110  1  0  0  0
 42111  1  0  0  0
 43 44  1  0  0  0
 44112  1  0  0  0
 45 46  2  0  0  0
 45113  1  0  0  0
 46114  1  0  0  0
 47115  1  0  0  0
 47116  1  0  0  0
 48 56  1  0  0  0
 48 65  1  0  0  0
 48117  1  0  0  0
 49 50  1  0  0  0
 49 53  1  0  0  0
 49 64  1  0  0  0
 49118  1  0  0  0
 50 51  1  0  0  0
 50119  1  0  0  0
 50120  1  0  0  0
 51 52  1  0  0  0
 51121  1  0  0  0
 51122  1  0  0  0
 52123  1  0  0  0
 52124  1  0  0  0
 53 54  1  0  0  0
 54 55  2  0  0  0
 54125  1  0  0  0
 55 57  1  0  0  0
 55126  1  0  0  0
 56 69  2  0  0  0
 57 58  2  0  0  0
 57127  1  0  0  0
 58128  1  0  0  0
 59 60  1  0  0  0
 59 61  1  0  0  0
 59 62  1  0  0  0
 60129  1  0  0  0
 60130  1  0  0  0
 60131  1  0  0  0
 61132  1  0  0  0
 61133  1  0  0  0
 61134  1  0  0  0
 62135  1  0  0  0
 62136  1  0  0  0
 62137  1  0  0  0
 63 65  1  0  0  0
 63138  1  0  0  0
 63139  1  0  0  0
 63140  1  0  0  0
 64141  1  0  0  0
 65142  1  0  0  0
 68 81  1  0  0  0
 71 72  2  0  0  0
 71 75  1  0  0  0
 71143  1  0  0  0
 72 76  1  0  0  0
 72144  1  0  0  0
 73 74  1  0  0  0
 73 76  2  0  0  0
 73145  1  0  0  0
 74 75  2  0  0  0
 74 77  1  0  0  0
 75 80  1  0  0  0
 76 82  1  0  0  0
 77 78  2  0  0  0
 77146  1  0  0  0
 78 79  1  0  0  0
 78147  1  0  0  0
 79 81  1  0  0  0
 79 83  2  0  0  0
 80148  1  0  0  0
 80149  1  0  0  0
 80150  1  0  0  0
 81151  1  0  0  0
 81152  1  0  0  0
 82153  1  0  0  0
M  ISO  4   1 100  68 101  81 101  82 100
M  END
> <chiral flag>
0

> <version>
0

> <s_m_source_file>
/data/baiqing/PycharmProjects/Reinvent-master-3.2/result/LINK_invent/BTK/process_docking_weight1_custom_product_contain_oxygen_bond_distance_aromatic_linkinvent_7_9_3/rearranged_h_0129.sdf

> <i_m_source_file_index>
74

> <r_mmod_Potential_Energy-OPLS-2005>
189.086654663086

> <r_mmod_Stretch_Energy-OPLS-2005>
127.108901977539

> <r_mmod_Bend_Energy-OPLS-2005>
155.250228881836

> <r_mmod_Torsional_Energy-OPLS-2005>
257.496765136719

> <r_mmod_Improper_Torsional_Energy-OPLS-2005>
7.88858795166016

> <r_mmod_Van_der_Waal_Energy-OPLS-2005>
140.42399597168

> <r_mmod_Electrostatic_Energy-OPLS-2005>
-352.946014404297

> <r_mmod_Solvation_Energy-OPLS-2005>
-230.413726806641

> <b_mmod_Minimization_Converged-OPLS-2005>
0

> <r_mmod_RMS_Derivative-OPLS-2005>
2.37896847724915

$$$$
74
                    3D
 Structure written by MMmdl.
157165  0  0  1  0            999 V2000
  -30.5606  -14.7370   20.5959 C   0  0  0  0  0  0
  -30.4485  -12.4842   19.4820 C   0  0  0  0  0  0
  -29.5218  -12.5432   18.2413 C   0  0  0  0  0  0
  -28.0399  -12.3614   18.6319 C   0  0  0  0  0  0
  -27.6444  -13.2152   19.8627 C   0  0  2  0  0  0
  -28.6756  -13.0582   20.9973 C   0  0  0  0  0  0
  -25.2446  -13.8075   20.5520 C   0  0  0  0  0  0
  -24.1732  -13.0353   20.9243 C   0  0  0  0  0  0
  -24.6366  -11.6871   20.8851 C   0  0  0  0  0  0
  -23.9009  -10.4241   21.0455 C   0  0  0  0  0  0
  -24.3554   -9.4135   21.9210 C   0  0  0  0  0  0
  -23.6242   -8.2155   22.0753 C   0  0  0  0  0  0
  -22.4226   -8.0220   21.3503 C   0  0  0  0  0  0
  -21.9852   -9.0206   20.4593 C   0  0  0  0  0  0
  -22.7196  -10.2096   20.3046 C   0  0  0  0  0  0
  -21.6804   -6.0698   22.5280 C   0  0  0  0  0  0
  -21.3991   -6.5601   23.8217 C   0  0  0  0  0  0
  -21.3698   -5.6766   24.9179 C   0  0  0  0  0  0
  -21.6053   -4.3017   24.7218 C   0  0  0  0  0  0
  -21.8808   -3.8115   23.4344 C   0  0  0  0  0  0
  -21.9189   -4.6947   22.3396 C   0  0  0  0  0  0
  -22.7754  -13.5194   21.1906 C   0  0  0  0  0  0
  -22.1656   -4.2140   21.0967 F   0  0  0  0  0  0
  -21.5662   -3.4497   25.7726 F   0  0  0  0  0  0
  -29.9803  -13.4874   20.4694 N   0  0  0  0  0  0
  -26.2902  -12.9282   20.3243 N   0  0  0  0  0  0
  -25.9283  -11.6455   20.5797 N   0  0  0  0  0  0
  -22.0326  -12.8238   22.0480 N   0  0  0  0  0  0
  -25.4012  -15.1738   20.3563 N   0  0  0  0  0  0
  -31.6861  -14.9216   20.1197 O   0  0  0  0  0  0
  -21.6574   -6.8838   21.4218 O   0  0  0  0  0  0
  -22.3467  -14.5522   20.6804 O   0  0  0  0  0  0
  -24.6307  -31.8549   23.1973 C   0  0  0  0  0  0
  -25.9129  -32.4755   23.8312 C   0  0  1  0  0  0
  -27.2238  -27.2522   20.1547 C   0  0  0  0  0  0
  -25.5936  -33.8583   24.2247 N   0  0  0  0  0  0
  -23.4289  -30.4777   21.5397 C   0  0  2  0  0  0
  -24.8803  -28.9273   20.1076 C   0  0  0  0  0  0
  -22.7501  -29.4619   22.4905 C   0  0  0  0  0  0
  -18.0309  -28.1380   22.8493 C   0  0  0  0  0  0
  -24.1503  -36.7280   23.2646 C   0  0  0  0  0  0
  -25.9769  -30.7658   21.3841 C   0  0  0  0  0  0
  -26.0497  -29.3900   20.7241 C   0  0  0  0  0  0
  -27.2235  -28.5665   20.7380 C   0  0  0  0  0  0
  -26.0347  -26.8693   19.4878 C   0  0  0  0  0  0
  -24.8787  -27.6742   19.4757 C   0  0  0  0  0  0
  -23.6470  -29.8105   20.1566 C   0  0  0  0  0  0
  -25.4133  -36.3079   24.0331 C   0  0  1  0  0  0
  -20.5907  -28.3700   23.1261 C   0  0  2  0  0  0
  -20.6816  -26.9431   22.5386 C   0  0  0  0  0  0
  -19.5790  -26.6382   21.5212 C   0  0  0  0  0  0
  -18.1965  -26.7925   22.1625 C   0  0  0  0  0  0
  -19.1556  -28.8869   23.2860 C   0  0  0  0  0  0
  -18.9487  -30.1474   23.8876 C   0  0  0  0  0  0
  -17.6488  -30.6588   24.0571 C   0  0  0  0  0  0
  -25.9068  -34.9459   23.5093 C   0  0  0  0  0  0
  -16.5375  -29.9086   23.6346 C   0  0  0  0  0  0
  -16.7299  -28.6498   23.0373 C   0  0  0  0  0  0
  -26.4490  -31.6575   25.0712 C   0  0  0  0  0  0
  -25.3701  -31.3745   26.1412 C   0  0  0  0  0  0
  -27.0362  -30.2986   24.6233 C   0  0  0  0  0  0
  -27.6047  -32.4308   25.7486 C   0  0  0  0  0  0
  -27.5579  -37.1803   24.8480 C   0  0  0  0  0  0
  -21.4210  -29.3063   22.3656 N   0  0  0  0  0  0
  -26.4301  -37.3777   23.9415 N   0  0  0  0  0  0
  -24.6967  -31.0506   22.0954 N   0  0  0  0  0  0
  -23.4198  -28.8191   23.3024 O   0  0  0  0  0  0
  -28.2958  -26.3279   20.2303 O   0  0  0  0  0  0
  -26.5647  -34.8933   22.4664 O   0  0  0  0  0  0
  -23.5444  -32.1418   23.7224 O   0  0  0  0  0  0
  -26.3868  -19.2262   23.2277 C   0  0  0  0  0  0
  -27.3734  -20.0518   22.6752 C   0  0  0  0  0  0
  -27.4607  -17.3434   22.1822 C   0  0  0  0  0  0
  -28.5323  -18.1151   21.6376 C   0  0  0  0  0  0
  -26.3953  -17.8698   22.9258 C   0  0  0  0  0  0
  -28.4074  -19.5922   21.8016 C   0  0  0  0  0  0
  -29.5680  -17.1688   20.9620 C   0  0  0  0  0  0
  -29.7406  -15.8135   21.2719 C   0  0  0  0  0  0
  -28.9547  -23.6886   20.5634 C   0  0  0  0  0  0
  -25.2191  -17.0067   23.3445 C   0  0  0  0  0  0
  -29.2063  -20.8109   21.1318 C   0  0  0  0  0  0
  -28.4578  -22.2809   21.1487 C   0  0  0  0  0  0
  -27.9077  -24.9100   20.5743 C   0  0  0  0  0  0
  -30.0985  -23.8191   20.1201 O   0  0  0  0  0  0
  -31.4827  -12.6578   19.1828 H   0  0  0  0  0  0
  -30.4313  -11.4840   19.9130 H   0  0  0  0  0  0
  -29.8102  -11.7805   17.5175 H   0  0  0  0  0  0
  -29.6569  -13.5003   17.7352 H   0  0  0  0  0  0
  -27.8900  -11.3047   18.8582 H   0  0  0  0  0  0
  -27.3923  -12.5975   17.7861 H   0  0  0  0  0  0
  -27.6646  -14.2563   19.5444 H   0  0  0  0  0  0
  -28.7220  -12.0123   21.3131 H   0  0  0  0  0  0
  -28.3542  -13.6152   21.8757 H   0  0  0  0  0  0
  -25.2720   -9.5642   22.4741 H   0  0  0  0  0  0
  -23.9992   -7.4536   22.7495 H   0  0  0  0  0  0
  -21.0766   -8.8702   19.8884 H   0  0  0  0  0  0
  -22.3661  -10.9613   19.6130 H   0  0  0  0  0  0
  -21.1904   -7.6098   23.9704 H   0  0  0  0  0  0
  -21.1579   -6.0492   25.9096 H   0  0  0  0  0  0
  -22.0560   -2.7576   23.2827 H   0  0  0  0  0  0
  -22.3934  -12.0025   22.5111 H   0  0  0  0  0  0
  -21.0909  -13.1244   22.2564 H   0  0  0  0  0  0
  -24.5867  -15.7766   20.3204 H   0  0  0  0  0  0
  -26.2040  -15.5762   19.8900 H   0  0  0  0  0  0
  -26.7211  -32.5393   23.1069 H   0  0  0  0  0  0
  -25.0112  -33.9738   25.0398 H   0  0  0  0  0  0
  -22.7247  -31.2992   21.3924 H   0  0  0  0  0  0
  -23.3762  -35.9608   23.3335 H   0  0  0  0  0  0
  -24.3589  -36.8861   22.2046 H   0  0  0  0  0  0
  -23.7227  -37.6487   23.6643 H   0  0  0  0  0  0
  -26.1279  -31.5288   20.6177 H   0  0  0  0  0  0
  -26.8480  -30.8003   22.0266 H   0  0  0  0  0  0
  -28.1062  -28.9179   21.2538 H   0  0  0  0  0  0
  -25.9628  -25.9210   18.9756 H   0  0  0  0  0  0
  -23.9850  -27.3145   18.9837 H   0  0  0  0  0  0
  -23.7720  -30.5855   19.3988 H   0  0  0  0  0  0
  -22.7694  -29.2352   19.8532 H   0  0  0  0  0  0
  -25.1305  -36.1937   25.0816 H   0  0  0  0  0  0
  -20.9995  -28.3291   24.1380 H   0  0  0  0  0  0
  -20.5745  -26.2338   23.3591 H   0  0  0  0  0  0
  -21.6692  -26.7489   22.1171 H   0  0  0  0  0  0
  -19.6967  -25.6290   21.1262 H   0  0  0  0  0  0
  -19.6715  -27.3196   20.6742 H   0  0  0  0  0  0
  -17.4237  -26.6677   21.4016 H   0  0  0  0  0  0
  -18.0365  -26.0047   22.9006 H   0  0  0  0  0  0
  -19.7970  -30.7300   24.2205 H   0  0  0  0  0  0
  -17.5059  -31.6278   24.5171 H   0  0  0  0  0  0
  -15.5383  -30.2999   23.7690 H   0  0  0  0  0  0
  -15.8685  -28.0821   22.7098 H   0  0  0  0  0  0
  -24.5891  -30.7085   25.7727 H   0  0  0  0  0  0
  -24.8888  -32.2939   26.4769 H   0  0  0  0  0  0
  -25.7998  -30.8951   27.0217 H   0  0  0  0  0  0
  -26.2974  -29.6692   24.1269 H   0  0  0  0  0  0
  -27.4051  -29.7279   25.4760 H   0  0  0  0  0  0
  -27.8847  -30.4260   23.9515 H   0  0  0  0  0  0
  -27.2664  -33.3625   26.2042 H   0  0  0  0  0  0
  -28.3877  -32.6824   25.0320 H   0  0  0  0  0  0
  -28.0697  -31.8429   26.5407 H   0  0  0  0  0  0
  -28.2630  -38.0071   24.7511 H   0  0  0  0  0  0
  -28.1035  -36.2601   24.6335 H   0  0  0  0  0  0
  -27.2306  -37.1494   25.8886 H   0  0  0  0  0  0
  -20.9395  -29.8695   21.6790 H   0  0  0  0  0  0
  -26.0183  -38.2867   24.1349 H   0  0  0  0  0  0
  -25.5841  -19.6362   23.8316 H   0  0  0  0  0  0
  -27.2443  -21.0907   22.9216 H   0  0  0  0  0  0
  -27.3840  -16.2838   21.9989 H   0  0  0  0  0  0
  -30.1351  -17.5884   20.1433 H   0  0  0  0  0  0
  -29.2171  -15.4594   22.1441 H   0  0  0  0  0  0
  -25.4856  -15.9501   23.3752 H   0  0  0  0  0  0
  -24.4122  -17.1305   22.6177 H   0  0  0  0  0  0
  -24.8343  -17.2944   24.3248 H   0  0  0  0  0  0
  -29.4541  -20.5159   20.1117 H   0  0  0  0  0  0
  -30.1646  -20.9027   21.6475 H   0  0  0  0  0  0
  -27.4667  -22.1401   20.7173 H   0  0  0  0  0  0
  -28.3012  -22.5463   22.1919 H   0  0  0  0  0  0
  -27.4861  -24.9340   21.5785 H   0  0  0  0  0  0
  -27.1054  -24.5734   19.9219 H   0  0  0  0  0  0
  1 25  1  0  0  0
  1 30  2  0  0  0
  1 78  1  0  0  0
  2  3  1  0  0  0
  2 25  1  0  0  0
  2 85  1  0  0  0
  2 86  1  0  0  0
  3  4  1  0  0  0
  3 87  1  0  0  0
  3 88  1  0  0  0
  4  5  1  0  0  0
  4 89  1  0  0  0
  4 90  1  0  0  0
  5  6  1  0  0  0
  5 26  1  0  0  0
  5 91  1  0  0  0
  6 25  1  0  0  0
  6 92  1  0  0  0
  6 93  1  0  0  0
  7  8  2  0  0  0
  7 26  1  0  0  0
  7 29  1  0  0  0
  8  9  1  0  0  0
  8 22  1  0  0  0
  9 10  1  0  0  0
  9 27  2  0  0  0
 10 11  2  0  0  0
 10 15  1  0  0  0
 11 12  1  0  0  0
 11 94  1  0  0  0
 12 13  2  0  0  0
 12 95  1  0  0  0
 13 14  1  0  0  0
 13 31  1  0  0  0
 14 15  2  0  0  0
 14 96  1  0  0  0
 15 97  1  0  0  0
 16 17  2  0  0  0
 16 21  1  0  0  0
 16 31  1  0  0  0
 17 18  1  0  0  0
 17 98  1  0  0  0
 18 19  2  0  0  0
 18 99  1  0  0  0
 19 20  1  0  0  0
 19 24  1  0  0  0
 20 21  2  0  0  0
 20100  1  0  0  0
 21 23  1  0  0  0
 22 28  1  0  0  0
 22 32  2  0  0  0
 26 27  1  0  0  0
 28101  1  0  0  0
 28102  1  0  0  0
 29103  1  0  0  0
 29104  1  0  0  0
 33 34  1  0  0  0
 33 66  1  0  0  0
 33 70  2  0  0  0
 34 36  1  0  0  0
 34 59  1  0  0  0
 34105  1  0  0  0
 35 44  2  0  0  0
 35 45  1  0  0  0
 35 68  1  0  0  0
 36 56  1  0  0  0
 36106  1  0  0  0
 37 39  1  0  0  0
 37 47  1  0  0  0
 37 66  1  0  0  0
 37107  1  0  0  0
 38 43  2  0  0  0
 38 46  1  0  0  0
 38 47  1  0  0  0
 39 64  1  0  0  0
 39 67  2  0  0  0
 40 52  1  0  0  0
 40 53  2  0  0  0
 40 58  1  0  0  0
 41108  1  0  0  0
 41109  1  0  0  0
 41110  1  0  0  0
 41 48  1  0  0  0
 42 43  1  0  0  0
 42 66  1  0  0  0
 42111  1  0  0  0
 42112  1  0  0  0
 43 44  1  0  0  0
 44113  1  0  0  0
 45 46  2  0  0  0
 45114  1  0  0  0
 46115  1  0  0  0
 47116  1  0  0  0
 47117  1  0  0  0
 48 56  1  0  0  0
 48 65  1  0  0  0
 48118  1  0  0  0
 49 50  1  0  0  0
 49 53  1  0  0  0
 49 64  1  0  0  0
 49119  1  0  0  0
 50 51  1  0  0  0
 50120  1  0  0  0
 50121  1  0  0  0
 51 52  1  0  0  0
 51122  1  0  0  0
 51123  1  0  0  0
 52124  1  0  0  0
 52125  1  0  0  0
 53 54  1  0  0  0
 54 55  2  0  0  0
 54126  1  0  0  0
 55 57  1  0  0  0
 55127  1  0  0  0
 56 69  2  0  0  0
 57 58  2  0  0  0
 57128  1  0  0  0
 58129  1  0  0  0
 59 60  1  0  0  0
 59 61  1  0  0  0
 59 62  1  0  0  0
 60130  1  0  0  0
 60131  1  0  0  0
 60132  1  0  0  0
 61133  1  0  0  0
 61134  1  0  0  0
 61135  1  0  0  0
 62136  1  0  0  0
 62137  1  0  0  0
 62138  1  0  0  0
 63 65  1  0  0  0
 63139  1  0  0  0
 63140  1  0  0  0
 63141  1  0  0  0
 64142  1  0  0  0
 65143  1  0  0  0
 68 83  1  0  0  0
 71 72  2  0  0  0
 71 75  1  0  0  0
 71144  1  0  0  0
 72 76  1  0  0  0
 72145  1  0  0  0
 73 74  1  0  0  0
 73 75  2  0  0  0
 73146  1  0  0  0
 74 76  2  0  0  0
 74 77  1  0  0  0
 75 80  1  0  0  0
 76 81  1  0  0  0
 77 78  2  0  0  0
 77147  1  0  0  0
 78148  1  0  0  0
 79 82  1  0  0  0
 79 83  1  0  0  0
 79 84  2  0  0  0
 80149  1  0  0  0
 80150  1  0  0  0
 80151  1  0  0  0
 81 82  1  0  0  0
 81152  1  0  0  0
 81153  1  0  0  0
 82154  1  0  0  0
 82155  1  0  0  0
 83156  1  0  0  0
 83157  1  0  0  0
M  ISO  4   1 100  68 101  78 100  83 101
M  END
> <chiral flag>
0

> <version>
0

> <s_m_source_file>
/data/baiqing/PycharmProjects/Reinvent-master-3.2/result/LINK_invent/BTK/process_docking_weight1_custom_product_contain_oxygen_bond_distance_aromatic_linkinvent_7_9_3/rearranged_h_0129.sdf

> <i_m_source_file_index>
75

> <r_mmod_Potential_Energy-OPLS-2005>
289.835693359375

> <r_mmod_Stretch_Energy-OPLS-2005>
155.287307739258

> <r_mmod_Bend_Energy-OPLS-2005>
220.892761230469

> <r_mmod_Torsional_Energy-OPLS-2005>
211.474212646484

> <r_mmod_Improper_Torsional_Energy-OPLS-2005>
4.7345118522644

> <r_mmod_Van_der_Waal_Energy-OPLS-2005>
154.411361694336

> <r_mmod_Electrostatic_Energy-OPLS-2005>
-334.421325683594

> <r_mmod_Solvation_Energy-OPLS-2005>
-211.892364501953

> <b_mmod_Minimization_Converged-OPLS-2005>
0

> <r_mmod_RMS_Derivative-OPLS-2005>
6.4466700553894

$$$$
75
                    3D
 Structure written by MMmdl.
156164  0  0  1  0            999 V2000
  -30.6579  -14.7201   20.5066 C   0  0  0  0  0  0
  -30.4164  -12.4404   19.5025 C   0  0  0  0  0  0
  -29.5160  -12.5435   18.2537 C   0  0  0  0  0  0
  -28.0386  -12.3718   18.6493 C   0  0  0  0  0  0
  -27.6468  -13.2468   19.8687 C   0  0  2  0  0  0
  -28.6821  -13.1634   21.0120 C   0  0  0  0  0  0
  -25.2484  -13.8232   20.5743 C   0  0  0  0  0  0
  -24.1784  -13.0433   20.9204 C   0  0  0  0  0  0
  -24.6411  -11.6937   20.8735 C   0  0  0  0  0  0
  -23.9104  -10.4301   21.0403 C   0  0  0  0  0  0
  -24.3649   -9.4219   21.9182 C   0  0  0  0  0  0
  -23.6328   -8.2247   22.0754 C   0  0  0  0  0  0
  -22.4314   -8.0285   21.3541 C   0  0  0  0  0  0
  -21.9949   -9.0251   20.4641 C   0  0  0  0  0  0
  -22.7278  -10.2136   20.3063 C   0  0  0  0  0  0
  -21.6863   -6.0760   22.5291 C   0  0  0  0  0  0
  -21.4017   -6.5650   23.8228 C   0  0  0  0  0  0
  -21.3662   -5.6808   24.9190 C   0  0  0  0  0  0
  -21.6056   -4.3076   24.7231 C   0  0  0  0  0  0
  -21.8814   -3.8165   23.4353 C   0  0  0  0  0  0
  -21.9192   -4.6987   22.3422 C   0  0  0  0  0  0
  -22.7793  -13.5175   21.1878 C   0  0  0  0  0  0
  -22.1658   -4.2176   21.0991 F   0  0  0  0  0  0
  -21.5629   -3.4552   25.7741 F   0  0  0  0  0  0
  -29.9988  -13.5044   20.4567 N   0  0  0  0  0  0
  -26.2944  -12.9486   20.3352 N   0  0  0  0  0  0
  -25.9360  -11.6606   20.5770 N   0  0  0  0  0  0
  -22.0446  -12.8147   22.0447 N   0  0  0  0  0  0
  -25.4164  -15.1963   20.4226 N   0  0  0  0  0  0
  -31.7930  -14.7826   20.0238 O   0  0  0  0  0  0
  -21.6655   -6.8913   21.4258 O   0  0  0  0  0  0
  -22.3458  -14.5486   20.6753 O   0  0  0  0  0  0
  -24.6334  -31.8553   23.1997 C   0  0  0  0  0  0
  -25.9169  -32.4760   23.8350 C   0  0  1  0  0  0
  -27.2270  -27.2589   20.1200 C   0  0  0  0  0  0
  -25.5957  -33.8565   24.2257 N   0  0  0  0  0  0
  -23.4308  -30.4795   21.5422 C   0  0  2  0  0  0
  -24.8779  -28.9239   20.1143 C   0  0  0  0  0  0
  -22.7493  -29.4617   22.4908 C   0  0  0  0  0  0
  -18.0260  -28.1370   22.8452 C   0  0  0  0  0  0
  -24.1475  -36.7257   23.2638 C   0  0  0  0  0  0
  -25.9793  -30.7629   21.3880 C   0  0  0  0  0  0
  -26.0505  -29.3874   20.7225 C   0  0  0  0  0  0
  -27.2240  -28.5680   20.7157 C   0  0  0  0  0  0
  -26.0318  -26.8717   19.4705 C   0  0  0  0  0  0
  -24.8732  -27.6735   19.4809 C   0  0  0  0  0  0
  -23.6524  -29.8167   20.1585 C   0  0  0  0  0  0
  -25.4114  -36.3090   24.0330 C   0  0  1  0  0  0
  -20.5873  -28.3715   23.1223 C   0  0  2  0  0  0
  -20.6733  -26.9430   22.5376 C   0  0  0  0  0  0
  -19.5727  -26.6367   21.5156 C   0  0  0  0  0  0
  -18.1907  -26.7905   22.1570 C   0  0  0  0  0  0
  -19.1523  -28.8853   23.2825 C   0  0  0  0  0  0
  -18.9466  -30.1419   23.8891 C   0  0  0  0  0  0
  -17.6483  -30.6583   24.0543 C   0  0  0  0  0  0
  -25.9074  -34.9458   23.5107 C   0  0  0  0  0  0
  -16.5360  -29.9084   23.6330 C   0  0  0  0  0  0
  -16.7251  -28.6483   23.0385 C   0  0  0  0  0  0
  -26.4525  -31.6618   25.0761 C   0  0  0  0  0  0
  -25.3711  -31.3791   26.1447 C   0  0  0  0  0  0
  -27.0429  -30.3038   24.6341 C   0  0  0  0  0  0
  -27.6072  -32.4388   25.7527 C   0  0  0  0  0  0
  -27.5596  -37.1766   24.8448 C   0  0  0  0  0  0
  -21.4197  -29.3072   22.3625 N   0  0  0  0  0  0
  -26.4272  -37.3810   23.9451 N   0  0  0  0  0  0
  -24.6997  -31.0520   22.0987 N   0  0  0  0  0  0
  -23.4181  -28.8131   23.2998 O   0  0  0  0  0  0
  -28.3338  -26.3750   20.1943 O   0  0  0  0  0  0
  -26.5654  -34.8941   22.4683 O   0  0  0  0  0  0
  -23.5485  -32.1403   23.7292 O   0  0  0  0  0  0
  -30.3994  -18.8444   22.4528 C   0  0  0  0  0  0
  -30.5067  -20.1295   23.0095 C   0  0  0  0  0  0
  -29.5307  -19.8691   20.4417 C   0  0  0  0  0  0
  -29.9745  -18.6574   21.1263 C   0  0  0  0  0  0
  -30.1757  -21.3095   22.3018 C   0  0  0  0  0  0
  -29.5812  -21.2256   20.9955 C   0  0  0  0  0  0
  -30.1767  -17.2365   20.5413 C   0  0  0  0  0  0
  -30.0404  -15.9668   21.0985 C   0  0  0  0  0  0
  -32.0336  -23.0228   22.5009 C   0  0  0  0  0  0
  -30.6405  -22.5928   22.9947 C   0  0  0  0  0  0
  -28.2165  -24.9096   19.8435 C   0  0  0  0  0  0
  -28.9863  -23.7699   20.6945 C   0  0  0  0  0  0
  -29.1131  -22.3483   20.2222 O   0  0  0  0  0  0
  -31.4662  -12.5147   19.2140 H   0  0  0  0  0  0
  -30.3097  -11.4554   19.9589 H   0  0  0  0  0  0
  -29.7943  -11.7978   17.5080 H   0  0  0  0  0  0
  -29.6645  -13.5177   17.7860 H   0  0  0  0  0  0
  -27.8769  -11.3193   18.8796 H   0  0  0  0  0  0
  -27.3942  -12.6034   17.8012 H   0  0  0  0  0  0
  -27.6537  -14.2771   19.5145 H   0  0  0  0  0  0
  -28.6948  -12.1607   21.4405 H   0  0  0  0  0  0
  -28.4106  -13.8379   21.8238 H   0  0  0  0  0  0
  -25.2798   -9.5679   22.4751 H   0  0  0  0  0  0
  -24.0047   -7.4637   22.7471 H   0  0  0  0  0  0
  -21.0897   -8.8770   19.8940 H   0  0  0  0  0  0
  -22.3746  -10.9668   19.6175 H   0  0  0  0  0  0
  -21.2004   -7.6164   23.9737 H   0  0  0  0  0  0
  -21.1492   -6.0539   25.9092 H   0  0  0  0  0  0
  -22.0589   -2.7621   23.2853 H   0  0  0  0  0  0
  -22.4086  -11.9843   22.4872 H   0  0  0  0  0  0
  -21.1037  -13.1143   22.2631 H   0  0  0  0  0  0
  -24.6543  -15.8540   20.5469 H   0  0  0  0  0  0
  -26.2850  -15.6431   20.1537 H   0  0  0  0  0  0
  -26.7240  -32.5404   23.1087 H   0  0  0  0  0  0
  -25.0116  -33.9691   25.0417 H   0  0  0  0  0  0
  -22.7276  -31.3018   21.3959 H   0  0  0  0  0  0
  -23.3817  -35.9500   23.3223 H   0  0  0  0  0  0
  -24.3563  -36.8970   22.2062 H   0  0  0  0  0  0
  -23.7113  -37.6377   23.6728 H   0  0  0  0  0  0
  -26.1402  -31.5329   20.6317 H   0  0  0  0  0  0
  -26.8456  -30.7932   22.0392 H   0  0  0  0  0  0
  -28.1237  -28.9183   21.2023 H   0  0  0  0  0  0
  -25.9498  -25.9345   18.9445 H   0  0  0  0  0  0
  -23.9771  -27.3168   18.9911 H   0  0  0  0  0  0
  -23.7897  -30.5959   19.4061 H   0  0  0  0  0  0
  -22.7680  -29.2586   19.8466 H   0  0  0  0  0  0
  -25.1290  -36.1919   25.0817 H   0  0  0  0  0  0
  -20.9935  -28.3297   24.1353 H   0  0  0  0  0  0
  -20.5530  -26.2367   23.3598 H   0  0  0  0  0  0
  -21.6618  -26.7360   22.1263 H   0  0  0  0  0  0
  -19.6896  -25.6258   21.1238 H   0  0  0  0  0  0
  -19.6667  -27.3118   20.6639 H   0  0  0  0  0  0
  -17.4164  -26.6615   21.3986 H   0  0  0  0  0  0
  -18.0332  -26.0021   22.8951 H   0  0  0  0  0  0
  -19.7957  -30.7167   24.2324 H   0  0  0  0  0  0
  -17.5072  -31.6287   24.5107 H   0  0  0  0  0  0
  -15.5374  -30.3018   23.7663 H   0  0  0  0  0  0
  -15.8634  -28.0785   22.7204 H   0  0  0  0  0  0
  -24.5806  -30.7269   25.7718 H   0  0  0  0  0  0
  -24.8988  -32.2966   26.4961 H   0  0  0  0  0  0
  -25.7922  -30.8832   27.0192 H   0  0  0  0  0  0
  -26.3073  -29.6721   24.1337 H   0  0  0  0  0  0
  -27.4056  -29.7386   25.4939 H   0  0  0  0  0  0
  -27.8970  -30.4326   23.9684 H   0  0  0  0  0  0
  -27.2688  -33.3683   26.2129 H   0  0  0  0  0  0
  -28.3852  -32.6968   25.0328 H   0  0  0  0  0  0
  -28.0797  -31.8513   26.5409 H   0  0  0  0  0  0
  -28.2555  -38.0135   24.7694 H   0  0  0  0  0  0
  -28.1166  -36.2693   24.6054 H   0  0  0  0  0  0
  -27.2338  -37.1139   25.8846 H   0  0  0  0  0  0
  -20.9382  -29.8893   21.6914 H   0  0  0  0  0  0
  -26.0158  -38.2867   24.1547 H   0  0  0  0  0  0
  -30.7645  -18.0059   23.0294 H   0  0  0  0  0  0
  -30.9340  -20.2048   24.0008 H   0  0  0  0  0  0
  -29.1760  -19.7483   19.4273 H   0  0  0  0  0  0
  -30.6178  -17.2579   19.5554 H   0  0  0  0  0  0
  -29.5514  -15.8809   22.0579 H   0  0  0  0  0  0
  -32.3070  -24.0075   22.8829 H   0  0  0  0  0  0
  -32.0883  -23.0572   21.4118 H   0  0  0  0  0  0
  -32.7957  -22.3215   22.8424 H   0  0  0  0  0  0
  -30.7104  -22.4138   24.0688 H   0  0  0  0  0  0
  -29.9322  -23.4069   22.9632 H   0  0  0  0  0  0
  -27.1804  -24.5829   19.8824 H   0  0  0  0  0  0
  -28.5076  -24.8239   18.7958 H   0  0  0  0  0  0
  -28.4328  -23.7436   21.6308 H   0  0  0  0  0  0
  -29.9900  -24.1486   20.8854 H   0  0  0  0  0  0
  1 25  1  0  0  0
  1 30  2  0  0  0
  1 78  1  0  0  0
  2  3  1  0  0  0
  2 25  1  0  0  0
  2 84  1  0  0  0
  2 85  1  0  0  0
  3  4  1  0  0  0
  3 86  1  0  0  0
  3 87  1  0  0  0
  4  5  1  0  0  0
  4 88  1  0  0  0
  4 89  1  0  0  0
  5  6  1  0  0  0
  5 26  1  0  0  0
  5 90  1  0  0  0
  6 25  1  0  0  0
  6 91  1  0  0  0
  6 92  1  0  0  0
  7  8  2  0  0  0
  7 26  1  0  0  0
  7 29  1  0  0  0
  8  9  1  0  0  0
  8 22  1  0  0  0
  9 10  1  0  0  0
  9 27  2  0  0  0
 10 11  2  0  0  0
 10 15  1  0  0  0
 11 12  1  0  0  0
 11 93  1  0  0  0
 12 13  2  0  0  0
 12 94  1  0  0  0
 13 14  1  0  0  0
 13 31  1  0  0  0
 14 15  2  0  0  0
 14 95  1  0  0  0
 15 96  1  0  0  0
 16 17  2  0  0  0
 16 21  1  0  0  0
 16 31  1  0  0  0
 17 18  1  0  0  0
 17 97  1  0  0  0
 18 19  2  0  0  0
 18 98  1  0  0  0
 19 20  1  0  0  0
 19 24  1  0  0  0
 20 21  2  0  0  0
 20 99  1  0  0  0
 21 23  1  0  0  0
 22 28  1  0  0  0
 22 32  2  0  0  0
 26 27  1  0  0  0
 28100  1  0  0  0
 28101  1  0  0  0
 29102  1  0  0  0
 29103  1  0  0  0
 33 34  1  0  0  0
 33 66  1  0  0  0
 33 70  2  0  0  0
 34 36  1  0  0  0
 34 59  1  0  0  0
 34104  1  0  0  0
 35 44  2  0  0  0
 35 45  1  0  0  0
 35 68  1  0  0  0
 36 56  1  0  0  0
 36105  1  0  0  0
 37 39  1  0  0  0
 37 47  1  0  0  0
 37 66  1  0  0  0
 37106  1  0  0  0
 38 43  2  0  0  0
 38 46  1  0  0  0
 38 47  1  0  0  0
 39 64  1  0  0  0
 39 67  2  0  0  0
 40 52  1  0  0  0
 40 53  2  0  0  0
 40 58  1  0  0  0
 41107  1  0  0  0
 41108  1  0  0  0
 41109  1  0  0  0
 41 48  1  0  0  0
 42 43  1  0  0  0
 42 66  1  0  0  0
 42110  1  0  0  0
 42111  1  0  0  0
 43 44  1  0  0  0
 44112  1  0  0  0
 45 46  2  0  0  0
 45113  1  0  0  0
 46114  1  0  0  0
 47115  1  0  0  0
 47116  1  0  0  0
 48 56  1  0  0  0
 48 65  1  0  0  0
 48117  1  0  0  0
 49 50  1  0  0  0
 49 53  1  0  0  0
 49 64  1  0  0  0
 49118  1  0  0  0
 50 51  1  0  0  0
 50119  1  0  0  0
 50120  1  0  0  0
 51 52  1  0  0  0
 51121  1  0  0  0
 51122  1  0  0  0
 52123  1  0  0  0
 52124  1  0  0  0
 53 54  1  0  0  0
 54 55  2  0  0  0
 54125  1  0  0  0
 55 57  1  0  0  0
 55126  1  0  0  0
 56 69  2  0  0  0
 57 58  2  0  0  0
 57127  1  0  0  0
 58128  1  0  0  0
 59 60  1  0  0  0
 59 61  1  0  0  0
 59 62  1  0  0  0
 60129  1  0  0  0
 60130  1  0  0  0
 60131  1  0  0  0
 61132  1  0  0  0
 61133  1  0  0  0
 61134  1  0  0  0
 62135  1  0  0  0
 62136  1  0  0  0
 62137  1  0  0  0
 63 65  1  0  0  0
 63138  1  0  0  0
 63139  1  0  0  0
 63140  1  0  0  0
 64141  1  0  0  0
 65142  1  0  0  0
 68 81  1  0  0  0
 71 72  2  0  0  0
 71 74  1  0  0  0
 71143  1  0  0  0
 72 75  1  0  0  0
 72144  1  0  0  0
 73 74  2  0  0  0
 73 76  1  0  0  0
 73145  1  0  0  0
 74 77  1  0  0  0
 75 76  2  0  0  0
 75 80  1  0  0  0
 76 83  1  0  0  0
 77 78  2  0  0  0
 77146  1  0  0  0
 78147  1  0  0  0
 79 80  1  0  0  0
 79148  1  0  0  0
 79149  1  0  0  0
 79150  1  0  0  0
 80151  1  0  0  0
 80152  1  0  0  0
 81 82  1  0  0  0
 81153  1  0  0  0
 81154  1  0  0  0
 82 83  1  0  0  0
 82155  1  0  0  0
 82156  1  0  0  0
M  ISO  4   1 100  68 101  78 100  81 101
M  END
> <chiral flag>
0

> <version>
0

> <s_m_source_file>
/data/baiqing/PycharmProjects/Reinvent-master-3.2/result/LINK_invent/BTK/process_docking_weight1_custom_product_contain_oxygen_bond_distance_aromatic_linkinvent_7_9_3/rearranged_h_0129.sdf

> <i_m_source_file_index>
76

> <r_mmod_Potential_Energy-OPLS-2005>
258.313110351562

> <r_mmod_Stretch_Energy-OPLS-2005>
136.363693237305

> <r_mmod_Bend_Energy-OPLS-2005>
205.362564086914

> <r_mmod_Torsional_Energy-OPLS-2005>
213.122024536133

> <r_mmod_Improper_Torsional_Energy-OPLS-2005>
6.17028427124023

> <r_mmod_Van_der_Waal_Energy-OPLS-2005>
153.445068359375

> <r_mmod_Electrostatic_Energy-OPLS-2005>
-336.067321777344

> <r_mmod_Solvation_Energy-OPLS-2005>
-197.311859130859

> <b_mmod_Minimization_Converged-OPLS-2005>
0

> <r_mmod_RMS_Derivative-OPLS-2005>
3.77738785743713

$$$$
76
                    3D
 Structure written by MMmdl.
161169  0  0  1  0            999 V2000
  -30.7435  -14.4542   20.4457 C   0  0  0  0  0  0
  -30.3913  -12.2538   19.4504 C   0  0  0  0  0  0
  -29.4878  -12.4434   18.2142 C   0  0  0  0  0  0
  -28.0045  -12.3317   18.6187 C   0  0  0  0  0  0
  -27.6443  -13.2106   19.8474 C   0  0  2  0  0  0
  -28.6891  -13.0760   20.9789 C   0  0  0  0  0  0
  -25.2539  -13.8152   20.5716 C   0  0  0  0  0  0
  -24.1815  -13.0423   20.9220 C   0  0  0  0  0  0
  -24.6366  -11.6892   20.8747 C   0  0  0  0  0  0
  -23.9025  -10.4293   21.0401 C   0  0  0  0  0  0
  -24.3596   -9.4212   21.9179 C   0  0  0  0  0  0
  -23.6268   -8.2252   22.0761 C   0  0  0  0  0  0
  -22.4260   -8.0282   21.3533 C   0  0  0  0  0  0
  -21.9890   -9.0246   20.4646 C   0  0  0  0  0  0
  -22.7209  -10.2123   20.3032 C   0  0  0  0  0  0
  -21.6844   -6.0728   22.5262 C   0  0  0  0  0  0
  -21.4013   -6.5634   23.8191 C   0  0  0  0  0  0
  -21.3665   -5.6795   24.9156 C   0  0  0  0  0  0
  -21.6047   -4.3057   24.7229 C   0  0  0  0  0  0
  -21.8806   -3.8133   23.4363 C   0  0  0  0  0  0
  -21.9187   -4.6945   22.3414 C   0  0  0  0  0  0
  -22.7836  -13.5219   21.1887 C   0  0  0  0  0  0
  -22.1652   -4.2125   21.0992 F   0  0  0  0  0  0
  -21.5643   -3.4545   25.7757 F   0  0  0  0  0  0
  -30.0276  -13.2997   20.4160 N   0  0  0  0  0  0
  -26.2952  -12.9330   20.3289 N   0  0  0  0  0  0
  -25.9297  -11.6488   20.5774 N   0  0  0  0  0  0
  -22.0485  -12.8156   22.0412 N   0  0  0  0  0  0
  -25.4234  -15.1864   20.4130 N   0  0  0  0  0  0
  -31.9480  -14.4647   20.1787 O   0  0  0  0  0  0
  -21.6634   -6.8866   21.4221 O   0  0  0  0  0  0
  -22.3528  -14.5546   20.6777 O   0  0  0  0  0  0
  -24.6083  -31.8729   23.2146 C   0  0  0  0  0  0
  -25.8996  -32.4853   23.8427 C   0  0  1  0  0  0
  -27.2359  -27.4906   20.0916 C   0  0  0  0  0  0
  -25.5872  -33.8646   24.2370 N   0  0  0  0  0  0
  -23.3933  -30.4948   21.5543 C   0  0  2  0  0  0
  -24.8399  -28.9621   20.1236 C   0  0  0  0  0  0
  -22.7369  -29.4676   22.5031 C   0  0  0  0  0  0
  -18.0252  -28.1379   22.8493 C   0  0  0  0  0  0
  -24.1478  -36.7330   23.2639 C   0  0  0  0  0  0
  -25.9132  -30.8558   21.3560 C   0  0  0  0  0  0
  -25.9938  -29.4871   20.7204 C   0  0  0  0  0  0
  -27.1961  -28.7528   20.7128 C   0  0  0  0  0  0
  -26.0679  -26.9557   19.5117 C   0  0  0  0  0  0
  -24.8673  -27.6900   19.5235 C   0  0  0  0  0  0
  -23.5991  -29.8228   20.1695 C   0  0  0  0  0  0
  -25.4095  -36.3132   24.0350 C   0  0  1  0  0  0
  -20.5840  -28.3642   23.1344 C   0  0  2  0  0  0
  -20.6740  -26.9389   22.5425 C   0  0  0  0  0  0
  -19.5728  -26.6394   21.5210 C   0  0  0  0  0  0
  -18.1901  -26.7933   22.1616 C   0  0  0  0  0  0
  -19.1506  -28.8821   23.2919 C   0  0  0  0  0  0
  -18.9434  -30.1430   23.8929 C   0  0  0  0  0  0
  -17.6441  -30.6585   24.0567 C   0  0  0  0  0  0
  -25.9007  -34.9489   23.5155 C   0  0  0  0  0  0
  -16.5329  -29.9091   23.6324 C   0  0  0  0  0  0
  -16.7246  -28.6509   23.0338 C   0  0  0  0  0  0
  -26.4453  -31.6601   25.0713 C   0  0  0  0  0  0
  -25.3747  -31.3659   26.1475 C   0  0  0  0  0  0
  -27.0272  -30.3065   24.6010 C   0  0  0  0  0  0
  -27.6060  -32.4280   25.7462 C   0  0  0  0  0  0
  -27.5579  -37.1816   24.8466 C   0  0  0  0  0  0
  -21.4102  -29.3034   22.3776 N   0  0  0  0  0  0
  -26.4291  -37.3813   23.9411 N   0  0  0  0  0  0
  -24.6571  -31.0871   22.1024 N   0  0  0  0  0  0
  -23.4167  -28.8227   23.3054 O   0  0  0  0  0  0
  -28.4140  -26.8034   20.0051 O   0  0  0  0  0  0
  -26.5582  -34.8938   22.4722 O   0  0  0  0  0  0
  -23.5289  -32.1449   23.7571 O   0  0  0  0  0  0
  -28.3208  -19.7271   19.4204 C   0  0  0  0  0  0
  -28.7870  -18.4394   19.7489 C   0  0  0  0  0  0
  -30.5366  -20.6236   19.8268 C   0  0  0  0  0  0
  -29.2008  -20.8268   19.4215 C   0  0  0  0  0  0
  -30.1418  -18.2239   20.0814 C   0  0  0  0  0  0
  -31.0156  -19.3423   20.1717 C   0  0  0  0  0  0
  -28.7225  -22.1375   18.9491 C   0  0  0  0  0  0
  -30.6548  -16.8560   20.2599 C   0  0  0  0  0  0
  -29.5069  -23.1973   18.6697 C   0  0  0  0  0  0
  -29.9810  -15.7030   20.4757 C   0  0  0  0  0  0
  -28.9514  -24.4693   18.1962 C   0  0  0  0  0  0
  -32.7147  -18.6834   21.9991 C   0  0  0  0  0  0
  -32.4867  -19.2216   20.5757 C   0  0  0  0  0  0
  -29.8320  -25.7074   18.3747 C   0  0  0  0  0  0
  -29.0376  -26.9673   18.7340 C   0  0  0  0  0  0
  -27.8445  -24.5649   17.6568 O   0  0  0  0  0  0
  -31.4448  -12.2804   19.1644 H   0  0  0  0  0  0
  -30.2302  -11.2691   19.8920 H   0  0  0  0  0  0
  -29.7221  -11.6932   17.4565 H   0  0  0  0  0  0
  -29.6826  -13.4110   17.7528 H   0  0  0  0  0  0
  -27.8086  -11.2832   18.8470 H   0  0  0  0  0  0
  -27.3596  -12.5827   17.7747 H   0  0  0  0  0  0
  -27.6536  -14.2392   19.4910 H   0  0  0  0  0  0
  -28.6427  -12.0849   21.4309 H   0  0  0  0  0  0
  -28.4800  -13.7818   21.7852 H   0  0  0  0  0  0
  -25.2758   -9.5713   22.4713 H   0  0  0  0  0  0
  -23.9965   -7.4655   22.7495 H   0  0  0  0  0  0
  -21.0827   -8.8750   19.8964 H   0  0  0  0  0  0
  -22.3676  -10.9637   19.6095 H   0  0  0  0  0  0
  -21.1993   -7.6141   23.9679 H   0  0  0  0  0  0
  -21.1507   -6.0543   25.9061 H   0  0  0  0  0  0
  -22.0595   -2.7612   23.2844 H   0  0  0  0  0  0
  -22.4123  -11.9786   22.4723 H   0  0  0  0  0  0
  -21.1110  -13.1153   22.2674 H   0  0  0  0  0  0
  -24.6535  -15.8394   20.5245 H   0  0  0  0  0  0
  -26.2706  -15.6268   20.0779 H   0  0  0  0  0  0
  -26.7074  -32.5591   23.1212 H   0  0  0  0  0  0
  -25.0016  -33.9826   25.0509 H   0  0  0  0  0  0
  -22.6799  -31.3101   21.4148 H   0  0  0  0  0  0
  -23.3736  -35.9665   23.3314 H   0  0  0  0  0  0
  -24.3585  -36.8922   22.2049 H   0  0  0  0  0  0
  -23.7222  -37.6543   23.6634 H   0  0  0  0  0  0
  -25.9993  -31.6139   20.5763 H   0  0  0  0  0  0
  -26.8121  -30.9305   21.9555 H   0  0  0  0  0  0
  -28.0941  -29.1593   21.1575 H   0  0  0  0  0  0
  -26.0931  -25.9863   19.0356 H   0  0  0  0  0  0
  -23.9784  -27.2768   19.0662 H   0  0  0  0  0  0
  -23.7019  -30.5937   19.4055 H   0  0  0  0  0  0
  -22.7259  -29.2355   19.8789 H   0  0  0  0  0  0
  -25.1263  -36.2023   25.0847 H   0  0  0  0  0  0
  -20.9926  -28.3187   24.1466 H   0  0  0  0  0  0
  -20.5617  -26.2252   23.3598 H   0  0  0  0  0  0
  -21.6607  -26.7427   22.1221 H   0  0  0  0  0  0
  -19.6878  -25.6313   21.1214 H   0  0  0  0  0  0
  -19.6677  -27.3226   20.6758 H   0  0  0  0  0  0
  -17.4175  -26.6691   21.4007 H   0  0  0  0  0  0
  -18.0292  -26.0057   22.8995 H   0  0  0  0  0  0
  -19.7913  -30.7240   24.2307 H   0  0  0  0  0  0
  -17.4998  -31.6271   24.5162 H   0  0  0  0  0  0
  -15.5335  -30.3007   23.7630 H   0  0  0  0  0  0
  -15.8638  -28.0850   22.7028 H   0  0  0  0  0  0
  -24.5942  -30.6980   25.7812 H   0  0  0  0  0  0
  -24.8905  -32.2787   26.4950 H   0  0  0  0  0  0
  -25.8122  -30.8819   27.0218 H   0  0  0  0  0  0
  -26.2783  -29.6822   24.1116 H   0  0  0  0  0  0
  -27.4151  -29.7285   25.4413 H   0  0  0  0  0  0
  -27.8566  -30.4426   23.9064 H   0  0  0  0  0  0
  -27.2726  -33.3575   26.2084 H   0  0  0  0  0  0
  -28.3845  -32.6831   25.0263 H   0  0  0  0  0  0
  -28.0750  -31.8360   26.5330 H   0  0  0  0  0  0
  -28.2605  -38.0105   24.7512 H   0  0  0  0  0  0
  -28.1066  -36.2643   24.6287 H   0  0  0  0  0  0
  -27.2307  -37.1455   25.8873 H   0  0  0  0  0  0
  -20.9248  -29.8795   21.7043 H   0  0  0  0  0  0
  -26.0189  -38.2895   24.1430 H   0  0  0  0  0  0
  -27.2899  -19.8550   19.1254 H   0  0  0  0  0  0
  -28.0997  -17.6098   19.6823 H   0  0  0  0  0  0
  -31.2256  -21.4539   19.8599 H   0  0  0  0  0  0
  -27.6515  -22.2368   18.8291 H   0  0  0  0  0  0
  -31.7246  -16.7947   20.1325 H   0  0  0  0  0  0
  -30.5790  -23.1570   18.7773 H   0  0  0  0  0  0
  -28.9123  -15.7148   20.6172 H   0  0  0  0  0  0
  -33.7715  -18.7320   22.2621 H   0  0  0  0  0  0
  -32.4167  -17.6419   22.1052 H   0  0  0  0  0  0
  -32.1609  -19.2600   22.7400 H   0  0  0  0  0  0
  -32.9563  -20.2037   20.5141 H   0  0  0  0  0  0
  -33.0194  -18.6114   19.8457 H   0  0  0  0  0  0
  -30.3714  -25.8743   17.4419 H   0  0  0  0  0  0
  -30.5801  -25.5141   19.1433 H   0  0  0  0  0  0
  -28.3244  -27.1977   17.9388 H   0  0  0  0  0  0
  -29.7135  -27.8210   18.7935 H   0  0  0  0  0  0
  1 25  1  0  0  0
  1 30  2  0  0  0
  1 80  1  0  0  0
  2  3  1  0  0  0
  2 25  1  0  0  0
  2 87  1  0  0  0
  2 88  1  0  0  0
  3  4  1  0  0  0
  3 89  1  0  0  0
  3 90  1  0  0  0
  4  5  1  0  0  0
  4 91  1  0  0  0
  4 92  1  0  0  0
  5  6  1  0  0  0
  5 26  1  0  0  0
  5 93  1  0  0  0
  6 25  1  0  0  0
  6 94  1  0  0  0
  6 95  1  0  0  0
  7  8  2  0  0  0
  7 26  1  0  0  0
  7 29  1  0  0  0
  8  9  1  0  0  0
  8 22  1  0  0  0
  9 10  1  0  0  0
  9 27  2  0  0  0
 10 11  2  0  0  0
 10 15  1  0  0  0
 11 12  1  0  0  0
 11 96  1  0  0  0
 12 13  2  0  0  0
 12 97  1  0  0  0
 13 14  1  0  0  0
 13 31  1  0  0  0
 14 15  2  0  0  0
 14 98  1  0  0  0
 15 99  1  0  0  0
 16 17  2  0  0  0
 16 21  1  0  0  0
 16 31  1  0  0  0
 17 18  1  0  0  0
 17100  1  0  0  0
 18 19  2  0  0  0
 18101  1  0  0  0
 19 20  1  0  0  0
 19 24  1  0  0  0
 20 21  2  0  0  0
 20102  1  0  0  0
 21 23  1  0  0  0
 22 28  1  0  0  0
 22 32  2  0  0  0
 26 27  1  0  0  0
 28103  1  0  0  0
 28104  1  0  0  0
 29105  1  0  0  0
 29106  1  0  0  0
 33 34  1  0  0  0
 33 66  1  0  0  0
 33 70  2  0  0  0
 34 36  1  0  0  0
 34 59  1  0  0  0
 34107  1  0  0  0
 35 44  2  0  0  0
 35 45  1  0  0  0
 35 68  1  0  0  0
 36 56  1  0  0  0
 36108  1  0  0  0
 37 39  1  0  0  0
 37 47  1  0  0  0
 37 66  1  0  0  0
 37109  1  0  0  0
 38 43  2  0  0  0
 38 46  1  0  0  0
 38 47  1  0  0  0
 39 64  1  0  0  0
 39 67  2  0  0  0
 40 52  1  0  0  0
 40 53  2  0  0  0
 40 58  1  0  0  0
 41110  1  0  0  0
 41111  1  0  0  0
 41112  1  0  0  0
 41 48  1  0  0  0
 42 43  1  0  0  0
 42 66  1  0  0  0
 42113  1  0  0  0
 42114  1  0  0  0
 43 44  1  0  0  0
 44115  1  0  0  0
 45 46  2  0  0  0
 45116  1  0  0  0
 46117  1  0  0  0
 47118  1  0  0  0
 47119  1  0  0  0
 48 56  1  0  0  0
 48 65  1  0  0  0
 48120  1  0  0  0
 49 50  1  0  0  0
 49 53  1  0  0  0
 49 64  1  0  0  0
 49121  1  0  0  0
 50 51  1  0  0  0
 50122  1  0  0  0
 50123  1  0  0  0
 51 52  1  0  0  0
 51124  1  0  0  0
 51125  1  0  0  0
 52126  1  0  0  0
 52127  1  0  0  0
 53 54  1  0  0  0
 54 55  2  0  0  0
 54128  1  0  0  0
 55 57  1  0  0  0
 55129  1  0  0  0
 56 69  2  0  0  0
 57 58  2  0  0  0
 57130  1  0  0  0
 58131  1  0  0  0
 59 60  1  0  0  0
 59 61  1  0  0  0
 59 62  1  0  0  0
 60132  1  0  0  0
 60133  1  0  0  0
 60134  1  0  0  0
 61135  1  0  0  0
 61136  1  0  0  0
 61137  1  0  0  0
 62138  1  0  0  0
 62139  1  0  0  0
 62140  1  0  0  0
 63 65  1  0  0  0
 63141  1  0  0  0
 63142  1  0  0  0
 63143  1  0  0  0
 64144  1  0  0  0
 65145  1  0  0  0
 68 85  1  0  0  0
 71 72  2  0  0  0
 71 74  1  0  0  0
 71146  1  0  0  0
 72 75  1  0  0  0
 72147  1  0  0  0
 73 74  2  0  0  0
 73 76  1  0  0  0
 73148  1  0  0  0
 74 77  1  0  0  0
 75 76  2  0  0  0
 75 78  1  0  0  0
 76 83  1  0  0  0
 77 79  2  0  0  0
 77149  1  0  0  0
 78 80  2  0  0  0
 78150  1  0  0  0
 79 81  1  0  0  0
 79151  1  0  0  0
 80152  1  0  0  0
 81 84  1  0  0  0
 81 86  2  0  0  0
 82 83  1  0  0  0
 82153  1  0  0  0
 82154  1  0  0  0
 82155  1  0  0  0
 83156  1  0  0  0
 83157  1  0  0  0
 84 85  1  0  0  0
 84158  1  0  0  0
 84159  1  0  0  0
 85160  1  0  0  0
 85161  1  0  0  0
M  ISO  4   1 100  68 101  80 100  85 101
M  END
> <chiral flag>
0

> <version>
0

> <s_m_source_file>
/data/baiqing/PycharmProjects/Reinvent-master-3.2/result/LINK_invent/BTK/process_docking_weight1_custom_product_contain_oxygen_bond_distance_aromatic_linkinvent_7_9_3/rearranged_h_0129.sdf

> <i_m_source_file_index>
77

> <r_mmod_Potential_Energy-OPLS-2005>
-25.009256362915

> <r_mmod_Stretch_Energy-OPLS-2005>
32.0886039733887

> <r_mmod_Bend_Energy-OPLS-2005>
92.5957870483398

> <r_mmod_Torsional_Energy-OPLS-2005>
221.431045532227

> <r_mmod_Improper_Torsional_Energy-OPLS-2005>
8.92738819122314

> <r_mmod_Van_der_Waal_Energy-OPLS-2005>
169.706558227539

> <r_mmod_Electrostatic_Energy-OPLS-2005>
-370.167419433594

> <r_mmod_Solvation_Energy-OPLS-2005>
-204.180557250977

> <b_mmod_Minimization_Converged-OPLS-2005>
0

> <r_mmod_RMS_Derivative-OPLS-2005>
3.29269242286682

$$$$
77
                    3D
 Structure written by MMmdl.
158166  0  0  1  0            999 V2000
  -30.6099  -14.6980   20.4497 C   0  0  0  0  0  0
  -30.4259  -12.4192   19.4586 C   0  0  0  0  0  0
  -29.5055  -12.4865   18.2214 C   0  0  0  0  0  0
  -28.0306  -12.3175   18.6370 C   0  0  0  0  0  0
  -27.6385  -13.2202   19.8377 C   0  0  2  0  0  0
  -28.6810  -13.1460   20.9735 C   0  0  0  0  0  0
  -25.2491  -13.8125   20.5619 C   0  0  0  0  0  0
  -24.1784  -13.0383   20.9176 C   0  0  0  0  0  0
  -24.6370  -11.6871   20.8726 C   0  0  0  0  0  0
  -23.9057  -10.4257   21.0392 C   0  0  0  0  0  0
  -24.3624   -9.4195   21.9172 C   0  0  0  0  0  0
  -23.6288   -8.2243   22.0760 C   0  0  0  0  0  0
  -22.4271   -8.0272   21.3554 C   0  0  0  0  0  0
  -21.9911   -9.0237   20.4656 C   0  0  0  0  0  0
  -22.7232  -10.2105   20.3049 C   0  0  0  0  0  0
  -21.6853   -6.0733   22.5257 C   0  0  0  0  0  0
  -21.4020   -6.5637   23.8187 C   0  0  0  0  0  0
  -21.3653   -5.6795   24.9147 C   0  0  0  0  0  0
  -21.6047   -4.3059   24.7209 C   0  0  0  0  0  0
  -21.8814   -3.8148   23.4325 C   0  0  0  0  0  0
  -21.9202   -4.6966   22.3383 C   0  0  0  0  0  0
  -22.7822  -13.5193   21.1820 C   0  0  0  0  0  0
  -22.1665   -4.2155   21.0963 F   0  0  0  0  0  0
  -21.5629   -3.4536   25.7722 F   0  0  0  0  0  0
  -29.9811  -13.4803   20.3868 N   0  0  0  0  0  0
  -26.2907  -12.9317   20.3166 N   0  0  0  0  0  0
  -25.9299  -11.6479   20.5721 N   0  0  0  0  0  0
  -22.0508  -12.8187   22.0400 N   0  0  0  0  0  0
  -25.4151  -15.1823   20.3973 N   0  0  0  0  0  0
  -31.8035  -14.7815   20.1516 O   0  0  0  0  0  0
  -21.6633   -6.8870   21.4219 O   0  0  0  0  0  0
  -22.3530  -14.5519   20.6679 O   0  0  0  0  0  0
  -24.6298  -31.8537   23.1985 C   0  0  0  0  0  0
  -25.9151  -32.4720   23.8289 C   0  0  1  0  0  0
  -27.1956  -27.2605   20.1320 C   0  0  0  0  0  0
  -25.5982  -33.8525   24.2242 N   0  0  0  0  0  0
  -23.4238  -30.4798   21.5378 C   0  0  2  0  0  0
  -24.8624  -28.9240   20.1090 C   0  0  0  0  0  0
  -22.7472  -29.4605   22.4860 C   0  0  0  0  0  0
  -18.0283  -28.1382   22.8410 C   0  0  0  0  0  0
  -24.1526  -36.7290   23.2629 C   0  0  0  0  0  0
  -25.9719  -30.7559   21.3857 C   0  0  0  0  0  0
  -26.0324  -29.3863   20.7245 C   0  0  0  0  0  0
  -27.1972  -28.5605   20.7332 C   0  0  0  0  0  0
  -26.0022  -26.8615   19.4849 C   0  0  0  0  0  0
  -24.8500  -27.6683   19.4880 C   0  0  0  0  0  0
  -23.6376  -29.8119   20.1572 C   0  0  0  0  0  0
  -25.4149  -36.3044   24.0314 C   0  0  1  0  0  0
  -20.5902  -28.3666   23.1221 C   0  0  2  0  0  0
  -20.6796  -26.9372   22.5395 C   0  0  0  0  0  0
  -19.5771  -26.6361   21.5198 C   0  0  0  0  0  0
  -18.1935  -26.7921   22.1583 C   0  0  0  0  0  0
  -19.1563  -28.8820   23.2806 C   0  0  0  0  0  0
  -18.9492  -30.1416   23.8814 C   0  0  0  0  0  0
  -17.6512  -30.6557   24.0500 C   0  0  0  0  0  0
  -25.9107  -34.9405   23.5095 C   0  0  0  0  0  0
  -16.5373  -29.9052   23.6336 C   0  0  0  0  0  0
  -16.7293  -28.6501   23.0295 C   0  0  0  0  0  0
  -26.4519  -31.6539   25.0667 C   0  0  0  0  0  0
  -25.3737  -31.3729   26.1383 C   0  0  0  0  0  0
  -27.0408  -30.2955   24.6231 C   0  0  0  0  0  0
  -27.6039  -32.4311   25.7439 C   0  0  0  0  0  0
  -27.5593  -37.1791   24.8439 C   0  0  0  0  0  0
  -21.4170  -29.3049   22.3591 N   0  0  0  0  0  0
  -26.4305  -37.3761   23.9415 N   0  0  0  0  0  0
  -24.6924  -31.0512   22.0971 N   0  0  0  0  0  0
  -23.4145  -28.8104   23.2943 O   0  0  0  0  0  0
  -28.3102  -26.4034   20.2221 O   0  0  0  0  0  0
  -26.5659  -34.8874   22.4661 O   0  0  0  0  0  0
  -23.5446  -32.1385   23.7308 O   0  0  0  0  0  0
  -31.0368  -19.9924   20.8759 C   0  0  0  0  0  0
  -31.4885  -17.5956   21.0850 C   0  0  0  0  0  0
  -29.6787  -19.7661   20.5652 C   0  0  0  0  0  0
  -29.2512  -18.3693   20.4862 C   0  0  0  0  0  0
  -30.1734  -17.2571   20.6983 C   0  0  0  0  0  0
  -31.9151  -18.9301   21.1640 C   0  0  0  0  0  0
  -28.3853  -23.7783   20.6563 C   0  0  0  0  0  0
  -27.4531  -17.8702   18.7265 C   0  0  0  0  0  0
  -28.7459  -21.0422   20.3716 C   0  0  0  0  0  0
  -27.7810  -18.0437   20.2157 C   0  0  0  0  0  0
  -29.3448  -22.5355   20.3833 C   0  0  0  0  0  0
  -28.3373  -25.0173   19.6556 C   0  0  0  0  0  0
  -29.8134  -15.8236   20.5967 N   0  0  0  0  0  0
  -27.6451  -23.7533   21.6454 O   0  0  0  0  0  0
  -33.1846  -19.1981   21.5429 F   0  0  0  0  0  0
  -31.4661  -12.5383   19.1532 H   0  0  0  0  0  0
  -30.3611  -11.4423   19.9402 H   0  0  0  0  0  0
  -29.7852  -11.7164   17.5005 H   0  0  0  0  0  0
  -29.6308  -13.4428   17.7126 H   0  0  0  0  0  0
  -27.8852  -11.2701   18.9028 H   0  0  0  0  0  0
  -27.3741  -12.5023   17.7858 H   0  0  0  0  0  0
  -27.6327  -14.2400   19.4529 H   0  0  0  0  0  0
  -28.7073  -12.1491   21.4147 H   0  0  0  0  0  0
  -28.4203  -13.8334   21.7798 H   0  0  0  0  0  0
  -25.2772   -9.5663   22.4742 H   0  0  0  0  0  0
  -23.9988   -7.4635   22.7477 H   0  0  0  0  0  0
  -21.0858   -8.8742   19.8967 H   0  0  0  0  0  0
  -22.3684  -10.9645   19.6164 H   0  0  0  0  0  0
  -21.2015   -7.6151   23.9687 H   0  0  0  0  0  0
  -21.1480   -6.0530   25.9051 H   0  0  0  0  0  0
  -22.0616   -2.7618   23.2807 H   0  0  0  0  0  0
  -22.4172  -11.9850   22.4761 H   0  0  0  0  0  0
  -21.1130  -13.1184   22.2634 H   0  0  0  0  0  0
  -24.6256  -15.8147   20.4736 H   0  0  0  0  0  0
  -26.2257  -15.6133   19.9753 H   0  0  0  0  0  0
  -26.7130  -32.5304   23.0904 H   0  0  0  0  0  0
  -25.0084  -33.9626   25.0352 H   0  0  0  0  0  0
  -22.7253  -31.3032   21.3854 H   0  0  0  0  0  0
  -23.3769  -35.9640   23.3281 H   0  0  0  0  0  0
  -24.3629  -36.8977   22.2053 H   0  0  0  0  0  0
  -23.7309  -37.6480   23.6685 H   0  0  0  0  0  0
  -26.1428  -31.5127   20.6200 H   0  0  0  0  0  0
  -26.8442  -30.7840   22.0283 H   0  0  0  0  0  0
  -28.0892  -28.8979   21.2433 H   0  0  0  0  0  0
  -25.8901  -25.9088   18.9982 H   0  0  0  0  0  0
  -23.9474  -27.3036   19.0200 H   0  0  0  0  0  0
  -23.7525  -30.5785   19.3937 H   0  0  0  0  0  0
  -22.7591  -29.2405   19.8577 H   0  0  0  0  0  0
  -25.1342  -36.1861   25.0809 H   0  0  0  0  0  0
  -20.9990  -28.3290   24.1357 H   0  0  0  0  0  0
  -20.5740  -26.2272   23.3623 H   0  0  0  0  0  0
  -21.6642  -26.7423   22.1140 H   0  0  0  0  0  0
  -19.6951  -25.6302   21.1171 H   0  0  0  0  0  0
  -19.6725  -27.3177   20.6738 H   0  0  0  0  0  0
  -17.4244  -26.6615   21.3973 H   0  0  0  0  0  0
  -18.0266  -26.0141   22.9037 H   0  0  0  0  0  0
  -19.8003  -30.7225   24.2124 H   0  0  0  0  0  0
  -17.5094  -31.6212   24.5143 H   0  0  0  0  0  0
  -15.5379  -30.2900   23.7769 H   0  0  0  0  0  0
  -15.8691  -28.0802   22.7021 H   0  0  0  0  0  0
  -24.5871  -30.7144   25.7696 H   0  0  0  0  0  0
  -24.8936  -32.2906   26.4780 H   0  0  0  0  0  0
  -25.8009  -30.8863   27.0172 H   0  0  0  0  0  0
  -26.3002  -29.6628   24.1306 H   0  0  0  0  0  0
  -27.4125  -29.7297   25.4793 H   0  0  0  0  0  0
  -27.8868  -30.4226   23.9482 H   0  0  0  0  0  0
  -27.2609  -33.3621   26.1977 H   0  0  0  0  0  0
  -28.3821  -32.6919   25.0258 H   0  0  0  0  0  0
  -28.0730  -31.8486   26.5384 H   0  0  0  0  0  0
  -28.2542  -38.0129   24.7559 H   0  0  0  0  0  0
  -28.1160  -36.2690   24.6192 H   0  0  0  0  0  0
  -27.2316  -37.1339   25.8821 H   0  0  0  0  0  0
  -20.9359  -29.8819   21.6822 H   0  0  0  0  0  0
  -26.0174  -38.2835   24.1430 H   0  0  0  0  0  0
  -31.4419  -20.9890   20.9367 H   0  0  0  0  0  0
  -32.2103  -16.8353   21.3380 H   0  0  0  0  0  0
  -26.4068  -17.5902   18.5934 H   0  0  0  0  0  0
  -28.0611  -17.0958   18.2541 H   0  0  0  0  0  0
  -27.6126  -18.7989   18.1794 H   0  0  0  0  0  0
  -27.9601  -20.9947   21.1235 H   0  0  0  0  0  0
  -28.2722  -20.9347   19.3964 H   0  0  0  0  0  0
  -27.1411  -18.8147   20.6462 H   0  0  0  0  0  0
  -27.5078  -17.1345   20.7519 H   0  0  0  0  0  0
  -30.0837  -22.5724   21.1799 H   0  0  0  0  0  0
  -29.8939  -22.7269   19.4597 H   0  0  0  0  0  0
  -27.4873  -24.8119   19.0125 H   0  0  0  0  0  0
  -29.1983  -24.9559   18.9906 H   0  0  0  0  0  0
  -28.8266  -15.6236   20.5654 H   0  0  0  0  0  0
  1 25  1  0  0  0
  1 30  2  0  0  0
  1 83  1  0  0  0
  2  3  1  0  0  0
  2 25  1  0  0  0
  2 86  1  0  0  0
  2 87  1  0  0  0
  3  4  1  0  0  0
  3 88  1  0  0  0
  3 89  1  0  0  0
  4  5  1  0  0  0
  4 90  1  0  0  0
  4 91  1  0  0  0
  5  6  1  0  0  0
  5 26  1  0  0  0
  5 92  1  0  0  0
  6 25  1  0  0  0
  6 93  1  0  0  0
  6 94  1  0  0  0
  7  8  2  0  0  0
  7 26  1  0  0  0
  7 29  1  0  0  0
  8  9  1  0  0  0
  8 22  1  0  0  0
  9 10  1  0  0  0
  9 27  2  0  0  0
 10 11  2  0  0  0
 10 15  1  0  0  0
 11 12  1  0  0  0
 11 95  1  0  0  0
 12 13  2  0  0  0
 12 96  1  0  0  0
 13 14  1  0  0  0
 13 31  1  0  0  0
 14 15  2  0  0  0
 14 97  1  0  0  0
 15 98  1  0  0  0
 16 17  2  0  0  0
 16 21  1  0  0  0
 16 31  1  0  0  0
 17 18  1  0  0  0
 17 99  1  0  0  0
 18 19  2  0  0  0
 18100  1  0  0  0
 19 20  1  0  0  0
 19 24  1  0  0  0
 20 21  2  0  0  0
 20101  1  0  0  0
 21 23  1  0  0  0
 22 28  1  0  0  0
 22 32  2  0  0  0
 26 27  1  0  0  0
 28102  1  0  0  0
 28103  1  0  0  0
 29104  1  0  0  0
 29105  1  0  0  0
 33 34  1  0  0  0
 33 66  1  0  0  0
 33 70  2  0  0  0
 34 36  1  0  0  0
 34 59  1  0  0  0
 34106  1  0  0  0
 35 44  2  0  0  0
 35 45  1  0  0  0
 35 68  1  0  0  0
 36 56  1  0  0  0
 36107  1  0  0  0
 37 39  1  0  0  0
 37 47  1  0  0  0
 37 66  1  0  0  0
 37108  1  0  0  0
 38 43  2  0  0  0
 38 46  1  0  0  0
 38 47  1  0  0  0
 39 64  1  0  0  0
 39 67  2  0  0  0
 40 52  1  0  0  0
 40 53  2  0  0  0
 40 58  1  0  0  0
 41109  1  0  0  0
 41110  1  0  0  0
 41111  1  0  0  0
 41 48  1  0  0  0
 42 43  1  0  0  0
 42 66  1  0  0  0
 42112  1  0  0  0
 42113  1  0  0  0
 43 44  1  0  0  0
 44114  1  0  0  0
 45 46  2  0  0  0
 45115  1  0  0  0
 46116  1  0  0  0
 47117  1  0  0  0
 47118  1  0  0  0
 48 56  1  0  0  0
 48 65  1  0  0  0
 48119  1  0  0  0
 49 50  1  0  0  0
 49 53  1  0  0  0
 49 64  1  0  0  0
 49120  1  0  0  0
 50 51  1  0  0  0
 50121  1  0  0  0
 50122  1  0  0  0
 51 52  1  0  0  0
 51123  1  0  0  0
 51124  1  0  0  0
 52125  1  0  0  0
 52126  1  0  0  0
 53 54  1  0  0  0
 54 55  2  0  0  0
 54127  1  0  0  0
 55 57  1  0  0  0
 55128  1  0  0  0
 56 69  2  0  0  0
 57 58  2  0  0  0
 57129  1  0  0  0
 58130  1  0  0  0
 59 60  1  0  0  0
 59 61  1  0  0  0
 59 62  1  0  0  0
 60131  1  0  0  0
 60132  1  0  0  0
 60133  1  0  0  0
 61134  1  0  0  0
 61135  1  0  0  0
 61136  1  0  0  0
 62137  1  0  0  0
 62138  1  0  0  0
 62139  1  0  0  0
 63 65  1  0  0  0
 63140  1  0  0  0
 63141  1  0  0  0
 63142  1  0  0  0
 64143  1  0  0  0
 65144  1  0  0  0
 68 82  1  0  0  0
 71 73  2  0  0  0
 71 76  1  0  0  0
 71145  1  0  0  0
 72 75  1  0  0  0
 72 76  2  0  0  0
 72146  1  0  0  0
 73 74  1  0  0  0
 73 79  1  0  0  0
 74 75  2  0  0  0
 74 80  1  0  0  0
 75 83  1  0  0  0
 76 85  1  0  0  0
 77 81  1  0  0  0
 77 82  1  0  0  0
 77 84  2  0  0  0
 78 80  1  0  0  0
 78147  1  0  0  0
 78148  1  0  0  0
 78149  1  0  0  0
 79 81  1  0  0  0
 79150  1  0  0  0
 79151  1  0  0  0
 80152  1  0  0  0
 80153  1  0  0  0
 81154  1  0  0  0
 81155  1  0  0  0
 82156  1  0  0  0
 82157  1  0  0  0
 83158  1  0  0  0
M  ISO  4   1 100  68 101  82 101  83 100
M  END
> <chiral flag>
0

> <version>
0

> <s_m_source_file>
/data/baiqing/PycharmProjects/Reinvent-master-3.2/result/LINK_invent/BTK/process_docking_weight1_custom_product_contain_oxygen_bond_distance_aromatic_linkinvent_7_9_3/rearranged_h_0129.sdf

> <i_m_source_file_index>
78

> <r_mmod_Potential_Energy-OPLS-2005>
135.772445678711

> <r_mmod_Stretch_Energy-OPLS-2005>
109.266258239746

> <r_mmod_Bend_Energy-OPLS-2005>
154.272811889648

> <r_mmod_Torsional_Energy-OPLS-2005>
220.90510559082

> <r_mmod_Improper_Torsional_Energy-OPLS-2005>
6.86256885528564

> <r_mmod_Van_der_Waal_Energy-OPLS-2005>
141.177520751953

> <r_mmod_Electrostatic_Energy-OPLS-2005>
-353.770294189453

> <r_mmod_Solvation_Energy-OPLS-2005>
-220.288375854492

> <b_mmod_Minimization_Converged-OPLS-2005>
0

> <r_mmod_RMS_Derivative-OPLS-2005>
6.54725790023804

$$$$
78
                    3D
 Structure written by MMmdl.
159167  0  0  1  0            999 V2000
  -30.6826  -14.4318   20.5948 C   0  0  0  0  0  0
  -30.4325  -12.2884   19.4099 C   0  0  0  0  0  0
  -29.4970  -12.5121   18.2013 C   0  0  0  0  0  0
  -28.0139  -12.3745   18.6081 C   0  0  0  0  0  0
  -27.6666  -13.1938   19.8804 C   0  0  2  0  0  0
  -28.7037  -12.9120   20.9898 C   0  0  0  0  0  0
  -25.2615  -13.8144   20.5662 C   0  0  0  0  0  0
  -24.1847  -13.0447   20.9136 C   0  0  0  0  0  0
  -24.6384  -11.6908   20.8721 C   0  0  0  0  0  0
  -23.9053  -10.4301   21.0405 C   0  0  0  0  0  0
  -24.3611   -9.4212   21.9175 C   0  0  0  0  0  0
  -23.6283   -8.2256   22.0754 C   0  0  0  0  0  0
  -22.4262   -8.0294   21.3559 C   0  0  0  0  0  0
  -21.9901   -9.0261   20.4656 C   0  0  0  0  0  0
  -22.7231  -10.2134   20.3051 C   0  0  0  0  0  0
  -21.6847   -6.0743   22.5284 C   0  0  0  0  0  0
  -21.4018   -6.5644   23.8221 C   0  0  0  0  0  0
  -21.3654   -5.6791   24.9178 C   0  0  0  0  0  0
  -21.6032   -4.3054   24.7222 C   0  0  0  0  0  0
  -21.8822   -3.8151   23.4346 C   0  0  0  0  0  0
  -21.9190   -4.6970   22.3403 C   0  0  0  0  0  0
  -22.7873  -13.5248   21.1808 C   0  0  0  0  0  0
  -22.1656   -4.2165   21.0977 F   0  0  0  0  0  0
  -21.5622   -3.4531   25.7729 F   0  0  0  0  0  0
  -30.0403  -13.2393   20.4577 N   0  0  0  0  0  0
  -26.3042  -12.9291   20.3369 N   0  0  0  0  0  0
  -25.9302  -11.6467   20.5759 N   0  0  0  0  0  0
  -22.0509  -12.8265   22.0384 N   0  0  0  0  0  0
  -25.4367  -15.1867   20.4112 N   0  0  0  0  0  0
  -31.7970  -14.6523   20.1082 O   0  0  0  0  0  0
  -21.6636   -6.8887   21.4251 O   0  0  0  0  0  0
  -22.3573  -14.5563   20.6655 O   0  0  0  0  0  0
  -24.6105  -31.8710   23.2129 C   0  0  0  0  0  0
  -25.9006  -32.4840   23.8418 C   0  0  1  0  0  0
  -27.2337  -27.4630   20.0932 C   0  0  0  0  0  0
  -25.5875  -33.8637   24.2344 N   0  0  0  0  0  0
  -23.3979  -30.4949   21.5535 C   0  0  2  0  0  0
  -24.8448  -28.9617   20.1219 C   0  0  0  0  0  0
  -22.7397  -29.4671   22.5006 C   0  0  0  0  0  0
  -18.0308  -28.1346   22.8429 C   0  0  0  0  0  0
  -24.1480  -36.7309   23.2638 C   0  0  0  0  0  0
  -25.9239  -30.8419   21.3657 C   0  0  0  0  0  0
  -26.0026  -29.4760   20.7198 C   0  0  0  0  0  0
  -27.2018  -28.7311   20.7091 C   0  0  0  0  0  0
  -26.0657  -26.9628   19.4809 C   0  0  0  0  0  0
  -24.8677  -27.6989   19.5046 C   0  0  0  0  0  0
  -23.6062  -29.8266   20.1698 C   0  0  0  0  0  0
  -25.4103  -36.3122   24.0343 C   0  0  1  0  0  0
  -20.5867  -28.3658   23.1330 C   0  0  2  0  0  0
  -20.6802  -26.9383   22.5474 C   0  0  0  0  0  0
  -19.5869  -26.6365   21.5188 C   0  0  0  0  0  0
  -18.2001  -26.7920   22.1489 C   0  0  0  0  0  0
  -19.1529  -28.8818   23.2868 C   0  0  0  0  0  0
  -18.9436  -30.1424   23.8863 C   0  0  0  0  0  0
  -17.6426  -30.6541   24.0504 C   0  0  0  0  0  0
  -25.9028  -34.9485   23.5142 C   0  0  0  0  0  0
  -16.5333  -29.9023   23.6271 C   0  0  0  0  0  0
  -16.7293  -28.6455   23.0273 C   0  0  0  0  0  0
  -26.4453  -31.6605   25.0728 C   0  0  0  0  0  0
  -25.3733  -31.3692   26.1478 C   0  0  0  0  0  0
  -27.0288  -30.3057   24.6080 C   0  0  0  0  0  0
  -27.6024  -32.4333   25.7489 C   0  0  0  0  0  0
  -27.5580  -37.1818   24.8467 C   0  0  0  0  0  0
  -21.4132  -29.3032   22.3748 N   0  0  0  0  0  0
  -26.4293  -37.3809   23.9411 N   0  0  0  0  0  0
  -24.6620  -31.0835   22.1021 N   0  0  0  0  0  0
  -23.4187  -28.8227   23.3038 O   0  0  0  0  0  0
  -28.4027  -26.7461   20.0240 O   0  0  0  0  0  0
  -26.5598  -34.8923   22.4708 O   0  0  0  0  0  0
  -23.5302  -32.1443   23.7531 O   0  0  0  0  0  0
  -26.8794  -18.5408   22.3660 C   0  0  0  0  0  0
  -27.8401  -17.5550   22.0772 C   0  0  0  0  0  0
  -26.7189  -19.6516   21.5165 C   0  0  0  0  0  0
  -28.5158  -18.8090   20.1067 C   0  0  0  0  0  0
  -28.6545  -17.6664   20.9281 C   0  0  0  0  0  0
  -27.5520  -19.8087   20.3847 C   0  0  0  0  0  0
  -29.5827  -16.5934   20.5193 C   0  0  0  0  0  0
  -29.8648  -15.4681   21.2092 C   0  0  0  0  0  0
  -27.5615  -24.5491   20.7536 C   0  0  0  0  0  0
  -27.8237  -23.3904   20.1243 C   0  0  0  0  0  0
  -25.7017  -22.8117   18.9327 C   0  0  0  0  0  0
  -27.3935  -20.9662   19.3922 C   0  0  0  0  0  0
  -28.5492  -25.6834   20.9688 C   0  0  0  0  0  0
  -26.7807  -22.3037   19.9071 C   0  0  1  0  0  0
  -31.4755  -12.4023   19.1102 H   0  0  0  0  0  0
  -30.3444  -11.2670   19.7818 H   0  0  0  0  0  0
  -29.7360  -11.8070   17.4051 H   0  0  0  0  0  0
  -29.6672  -13.5065   17.7868 H   0  0  0  0  0  0
  -27.8133  -11.3158   18.7825 H   0  0  0  0  0  0
  -27.3682  -12.6724   17.7808 H   0  0  0  0  0  0
  -27.7285  -14.2494   19.6147 H   0  0  0  0  0  0
  -28.6764  -11.8562   21.2678 H   0  0  0  0  0  0
  -28.4508  -13.4416   21.9087 H   0  0  0  0  0  0
  -25.2760   -9.5683   22.4741 H   0  0  0  0  0  0
  -23.9986   -7.4653   22.7477 H   0  0  0  0  0  0
  -21.0836   -8.8781   19.8966 H   0  0  0  0  0  0
  -22.3699  -10.9667   19.6154 H   0  0  0  0  0  0
  -21.2023   -7.6153   23.9732 H   0  0  0  0  0  0
  -21.1465   -6.0517   25.9084 H   0  0  0  0  0  0
  -22.0606   -2.7616   23.2835 H   0  0  0  0  0  0
  -22.4109  -11.9913   22.4762 H   0  0  0  0  0  0
  -21.1138  -13.1325   22.2587 H   0  0  0  0  0  0
  -24.6816  -15.8485   20.5535 H   0  0  0  0  0  0
  -26.3128  -15.6342   20.1715 H   0  0  0  0  0  0
  -26.7076  -32.5566   23.1186 H   0  0  0  0  0  0
  -25.0012  -33.9816   25.0475 H   0  0  0  0  0  0
  -22.6869  -31.3114   21.4163 H   0  0  0  0  0  0
  -23.3749  -35.9639   23.3318 H   0  0  0  0  0  0
  -24.3571  -36.8904   22.2051 H   0  0  0  0  0  0
  -23.7230  -37.6518   23.6636 H   0  0  0  0  0  0
  -26.0303  -31.6041   20.5934 H   0  0  0  0  0  0
  -26.8147  -30.9016   21.9787 H   0  0  0  0  0  0
  -28.0997  -29.1261   21.1637 H   0  0  0  0  0  0
  -26.0856  -26.0066   18.9783 H   0  0  0  0  0  0
  -23.9791  -27.2992   19.0347 H   0  0  0  0  0  0
  -23.7113  -30.6019   19.4104 H   0  0  0  0  0  0
  -22.7313  -29.2445   19.8754 H   0  0  0  0  0  0
  -25.1279  -36.1999   25.0841 H   0  0  0  0  0  0
  -20.9950  -28.3274   24.1449 H   0  0  0  0  0  0
  -20.5622  -26.2270   23.3671 H   0  0  0  0  0  0
  -21.6713  -26.7437   22.1367 H   0  0  0  0  0  0
  -19.7058  -25.6278   21.1222 H   0  0  0  0  0  0
  -19.6911  -27.3190   20.6736 H   0  0  0  0  0  0
  -17.4388  -26.6729   21.3759 H   0  0  0  0  0  0
  -18.0293  -26.0004   22.8798 H   0  0  0  0  0  0
  -19.7905  -30.7249   24.2231 H   0  0  0  0  0  0
  -17.4978  -31.6241   24.5059 H   0  0  0  0  0  0
  -15.5319  -30.2899   23.7575 H   0  0  0  0  0  0
  -15.8734  -28.0752   22.6923 H   0  0  0  0  0  0
  -24.5903  -30.7046   25.7814 H   0  0  0  0  0  0
  -24.8928  -32.2841   26.4955 H   0  0  0  0  0  0
  -25.8087  -30.8836   27.0217 H   0  0  0  0  0  0
  -26.2827  -29.6839   24.1128 H   0  0  0  0  0  0
  -27.4071  -29.7269   25.4520 H   0  0  0  0  0  0
  -27.8636  -30.4398   23.9197 H   0  0  0  0  0  0
  -27.2632  -33.3612   26.2110 H   0  0  0  0  0  0
  -28.3811  -32.6936   25.0309 H   0  0  0  0  0  0
  -28.0722  -31.8440   26.5372 H   0  0  0  0  0  0
  -28.2607  -38.0104   24.7506 H   0  0  0  0  0  0
  -28.1066  -36.2642   24.6302 H   0  0  0  0  0  0
  -27.2293  -37.1469   25.8867 H   0  0  0  0  0  0
  -20.9272  -29.8742   21.6979 H   0  0  0  0  0  0
  -26.0184  -38.2886   24.1432 H   0  0  0  0  0  0
  -26.2401  -18.4269   23.2304 H   0  0  0  0  0  0
  -27.9016  -16.6945   22.7282 H   0  0  0  0  0  0
  -25.9346  -20.3542   21.7536 H   0  0  0  0  0  0
  -29.1314  -18.8997   19.2219 H   0  0  0  0  0  0
  -30.0322  -16.7183   19.5428 H   0  0  0  0  0  0
  -29.4732  -15.3103   22.2009 H   0  0  0  0  0  0
  -26.5662  -24.7275   21.1369 H   0  0  0  0  0  0
  -28.8172  -23.2120   19.7342 H   0  0  0  0  0  0
  -25.2224  -23.7207   19.2986 H   0  0  0  0  0  0
  -24.9139  -22.0704   18.7944 H   0  0  0  0  0  0
  -26.1253  -23.0327   17.9515 H   0  0  0  0  0  0
  -26.7598  -20.5647   18.5996 H   0  0  0  0  0  0
  -28.3493  -21.1510   18.9008 H   0  0  0  0  0  0
  -29.5626  -25.2916   20.8723 H   0  0  0  0  0  0
  -28.4558  -26.0631   21.9870 H   0  0  0  0  0  0
  -26.2782  -22.1755   20.8621 H   0  0  0  0  0  0
  1 25  1  0  0  0
  1 30  2  0  0  0
  1 78  1  0  0  0
  2  3  1  0  0  0
  2 25  1  0  0  0
  2 85  1  0  0  0
  2 86  1  0  0  0
  3  4  1  0  0  0
  3 87  1  0  0  0
  3 88  1  0  0  0
  4  5  1  0  0  0
  4 89  1  0  0  0
  4 90  1  0  0  0
  5  6  1  0  0  0
  5 26  1  0  0  0
  5 91  1  0  0  0
  6 25  1  0  0  0
  6 92  1  0  0  0
  6 93  1  0  0  0
  7  8  2  0  0  0
  7 26  1  0  0  0
  7 29  1  0  0  0
  8  9  1  0  0  0
  8 22  1  0  0  0
  9 10  1  0  0  0
  9 27  2  0  0  0
 10 11  2  0  0  0
 10 15  1  0  0  0
 11 12  1  0  0  0
 11 94  1  0  0  0
 12 13  2  0  0  0
 12 95  1  0  0  0
 13 14  1  0  0  0
 13 31  1  0  0  0
 14 15  2  0  0  0
 14 96  1  0  0  0
 15 97  1  0  0  0
 16 17  2  0  0  0
 16 21  1  0  0  0
 16 31  1  0  0  0
 17 18  1  0  0  0
 17 98  1  0  0  0
 18 19  2  0  0  0
 18 99  1  0  0  0
 19 20  1  0  0  0
 19 24  1  0  0  0
 20 21  2  0  0  0
 20100  1  0  0  0
 21 23  1  0  0  0
 22 28  1  0  0  0
 22 32  2  0  0  0
 26 27  1  0  0  0
 28101  1  0  0  0
 28102  1  0  0  0
 29103  1  0  0  0
 29104  1  0  0  0
 33 34  1  0  0  0
 33 66  1  0  0  0
 33 70  2  0  0  0
 34 36  1  0  0  0
 34 59  1  0  0  0
 34105  1  0  0  0
 35 44  2  0  0  0
 35 45  1  0  0  0
 35 68  1  0  0  0
 36 56  1  0  0  0
 36106  1  0  0  0
 37 39  1  0  0  0
 37 47  1  0  0  0
 37 66  1  0  0  0
 37107  1  0  0  0
 38 43  2  0  0  0
 38 46  1  0  0  0
 38 47  1  0  0  0
 39 64  1  0  0  0
 39 67  2  0  0  0
 40 52  1  0  0  0
 40 53  2  0  0  0
 40 58  1  0  0  0
 41108  1  0  0  0
 41109  1  0  0  0
 41110  1  0  0  0
 41 48  1  0  0  0
 42 43  1  0  0  0
 42 66  1  0  0  0
 42111  1  0  0  0
 42112  1  0  0  0
 43 44  1  0  0  0
 44113  1  0  0  0
 45 46  2  0  0  0
 45114  1  0  0  0
 46115  1  0  0  0
 47116  1  0  0  0
 47117  1  0  0  0
 48 56  1  0  0  0
 48 65  1  0  0  0
 48118  1  0  0  0
 49 50  1  0  0  0
 49 53  1  0  0  0
 49 64  1  0  0  0
 49119  1  0  0  0
 50 51  1  0  0  0
 50120  1  0  0  0
 50121  1  0  0  0
 51 52  1  0  0  0
 51122  1  0  0  0
 51123  1  0  0  0
 52124  1  0  0  0
 52125  1  0  0  0
 53 54  1  0  0  0
 54 55  2  0  0  0
 54126  1  0  0  0
 55 57  1  0  0  0
 55127  1  0  0  0
 56 69  2  0  0  0
 57 58  2  0  0  0
 57128  1  0  0  0
 58129  1  0  0  0
 59 60  1  0  0  0
 59 61  1  0  0  0
 59 62  1  0  0  0
 60130  1  0  0  0
 60131  1  0  0  0
 60132  1  0  0  0
 61133  1  0  0  0
 61134  1  0  0  0
 61135  1  0  0  0
 62136  1  0  0  0
 62137  1  0  0  0
 62138  1  0  0  0
 63 65  1  0  0  0
 63139  1  0  0  0
 63140  1  0  0  0
 63141  1  0  0  0
 64142  1  0  0  0
 65143  1  0  0  0
 68 83  1  0  0  0
 71 72  2  0  0  0
 71 73  1  0  0  0
 71144  1  0  0  0
 72 75  1  0  0  0
 72145  1  0  0  0
 73 76  2  0  0  0
 73146  1  0  0  0
 74 75  2  0  0  0
 74 76  1  0  0  0
 74147  1  0  0  0
 75 77  1  0  0  0
 76 82  1  0  0  0
 77 78  2  0  0  0
 77148  1  0  0  0
 78149  1  0  0  0
 79 80  2  0  0  0
 79 83  1  0  0  0
 79150  1  0  0  0
 80 84  1  0  0  0
 80151  1  0  0  0
 81152  1  0  0  0
 81153  1  0  0  0
 81154  1  0  0  0
 81 84  1  0  0  0
 82 84  1  0  0  0
 82155  1  0  0  0
 82156  1  0  0  0
 83157  1  0  0  0
 83158  1  0  0  0
 84159  1  0  0  0
M  ISO  4   1 100  68 101  78 100  83 101
M  END
> <chiral flag>
0

> <version>
0

> <s_m_source_file>
/data/baiqing/PycharmProjects/Reinvent-master-3.2/result/LINK_invent/BTK/process_docking_weight1_custom_product_contain_oxygen_bond_distance_aromatic_linkinvent_7_9_3/rearranged_h_0129.sdf

> <i_m_source_file_index>
79

> <r_mmod_Potential_Energy-OPLS-2005>
1.69569730758667

> <r_mmod_Stretch_Energy-OPLS-2005>
33.5759086608887

> <r_mmod_Bend_Energy-OPLS-2005>
92.263427734375

> <r_mmod_Torsional_Energy-OPLS-2005>
215.196044921875

> <r_mmod_Improper_Torsional_Energy-OPLS-2005>
4.58625984191895

> <r_mmod_Van_der_Waal_Energy-OPLS-2005>
156.382736206055

> <r_mmod_Electrostatic_Energy-OPLS-2005>
-329.819915771484

> <r_mmod_Solvation_Energy-OPLS-2005>
-179.384429931641

> <b_mmod_Minimization_Converged-OPLS-2005>
0

> <r_mmod_RMS_Derivative-OPLS-2005>
2.15007591247559

$$$$
79
                    3D
 Structure written by MMmdl.
155163  0  0  1  0            999 V2000
  -30.6899  -14.5801   20.4820 C   0  0  0  0  0  0
  -30.4201  -12.3477   19.4590 C   0  0  0  0  0  0
  -29.5032  -12.4894   18.2246 C   0  0  0  0  0  0
  -28.0239  -12.3418   18.6308 C   0  0  0  0  0  0
  -27.6503  -13.2192   19.8552 C   0  0  2  0  0  0
  -28.6933  -13.0896   20.9873 C   0  0  0  0  0  0
  -25.2559  -13.8184   20.5682 C   0  0  0  0  0  0
  -24.1829  -13.0447   20.9192 C   0  0  0  0  0  0
  -24.6399  -11.6919   20.8735 C   0  0  0  0  0  0
  -23.9065  -10.4304   21.0401 C   0  0  0  0  0  0
  -24.3621   -9.4223   21.9180 C   0  0  0  0  0  0
  -23.6302   -8.2256   22.0753 C   0  0  0  0  0  0
  -22.4280   -8.0292   21.3547 C   0  0  0  0  0  0
  -21.9911   -9.0262   20.4644 C   0  0  0  0  0  0
  -22.7235  -10.2146   20.3052 C   0  0  0  0  0  0
  -21.6858   -6.0747   22.5282 C   0  0  0  0  0  0
  -21.4016   -6.5648   23.8216 C   0  0  0  0  0  0
  -21.3657   -5.6798   24.9176 C   0  0  0  0  0  0
  -21.6042   -4.3060   24.7223 C   0  0  0  0  0  0
  -21.8820   -3.8156   23.4342 C   0  0  0  0  0  0
  -21.9196   -4.6976   22.3402 C   0  0  0  0  0  0
  -22.7852  -13.5243   21.1860 C   0  0  0  0  0  0
  -22.1666   -4.2163   21.0978 F   0  0  0  0  0  0
  -21.5627   -3.4539   25.7733 F   0  0  0  0  0  0
  -30.0182  -13.3881   20.4263 N   0  0  0  0  0  0
  -26.2979  -12.9369   20.3289 N   0  0  0  0  0  0
  -25.9325  -11.6522   20.5743 N   0  0  0  0  0  0
  -22.0496  -12.8228   22.0415 N   0  0  0  0  0  0
  -25.4275  -15.1902   20.4100 N   0  0  0  0  0  0
  -31.8762  -14.6390   20.1499 O   0  0  0  0  0  0
  -21.6644   -6.8888   21.4243 O   0  0  0  0  0  0
  -22.3532  -14.5551   20.6716 O   0  0  0  0  0  0
  -24.6235  -31.8653   23.2095 C   0  0  0  0  0  0
  -25.9100  -32.4807   23.8404 C   0  0  1  0  0  0
  -27.2102  -27.3546   20.0984 C   0  0  0  0  0  0
  -25.5937  -33.8610   24.2322 N   0  0  0  0  0  0
  -23.4135  -30.4959   21.5522 C   0  0  2  0  0  0
  -24.8551  -28.9671   20.1094 C   0  0  0  0  0  0
  -22.7465  -29.4672   22.4953 C   0  0  0  0  0  0
  -18.0309  -28.1369   22.8484 C   0  0  0  0  0  0
  -24.1488  -36.7307   23.2638 C   0  0  0  0  0  0
  -25.9554  -30.8053   21.3792 C   0  0  0  0  0  0
  -26.0261  -29.4394   20.7156 C   0  0  0  0  0  0
  -27.2074  -28.6432   20.7073 C   0  0  0  0  0  0
  -26.0160  -26.9457   19.4515 C   0  0  0  0  0  0
  -24.8499  -27.7225   19.4710 C   0  0  0  0  0  0
  -23.6237  -29.8430   20.1634 C   0  0  0  0  0  0
  -25.4110  -36.3100   24.0333 C   0  0  1  0  0  0
  -20.5901  -28.3691   23.1288 C   0  0  2  0  0  0
  -20.6806  -26.9426   22.5397 C   0  0  0  0  0  0
  -19.5784  -26.6403   21.5199 C   0  0  0  0  0  0
  -18.1969  -26.7913   22.1622 C   0  0  0  0  0  0
  -19.1552  -28.8845   23.2882 C   0  0  0  0  0  0
  -18.9467  -30.1446   23.8898 C   0  0  0  0  0  0
  -17.6465  -30.6571   24.0559 C   0  0  0  0  0  0
  -25.9046  -34.9468   23.5120 C   0  0  0  0  0  0
  -16.5367  -29.9063   23.6317 C   0  0  0  0  0  0
  -16.7295  -28.6480   23.0344 C   0  0  0  0  0  0
  -26.4494  -31.6597   25.0756 C   0  0  0  0  0  0
  -25.3738  -31.3721   26.1487 C   0  0  0  0  0  0
  -27.0330  -30.3024   24.6188 C   0  0  0  0  0  0
  -27.6060  -32.4326   25.7523 C   0  0  0  0  0  0
  -27.5578  -37.1813   24.8467 C   0  0  0  0  0  0
  -21.4181  -29.3067   22.3699 N   0  0  0  0  0  0
  -26.4294  -37.3786   23.9403 N   0  0  0  0  0  0
  -24.6828  -31.0705   22.1037 N   0  0  0  0  0  0
  -23.4211  -28.8193   23.2999 O   0  0  0  0  0  0
  -28.3142  -26.4920   20.1630 O   0  0  0  0  0  0
  -26.5607  -34.8926   22.4684 O   0  0  0  0  0  0
  -23.5405  -32.1443   23.7438 O   0  0  0  0  0  0
  -30.6936  -19.5778   20.6673 C   0  0  0  0  0  0
  -30.1642  -20.8961   20.5989 C   0  0  0  0  0  0
  -28.4764  -18.6487   20.5256 C   0  0  0  0  0  0
  -29.8675  -18.4241   20.6114 C   0  0  0  0  0  0
  -28.7737  -21.1155   20.4670 C   0  0  0  0  0  0
  -27.9361  -19.9604   20.4409 C   0  0  0  0  0  0
  -30.4793  -17.0502   20.5919 C   0  0  0  0  0  0
  -29.8957  -15.8167   20.6901 C   0  0  0  0  0  0
  -26.4280  -20.0976   20.2921 C   0  0  0  0  0  0
  -28.1345  -22.5278   20.3116 C   0  0  0  0  0  0
  -28.9407  -23.8804   20.3945 C   0  0  0  0  0  0
  -27.9946  -25.0690   19.9832 C   0  0  0  0  0  0
  -31.4672  -12.4266   19.1628 H   0  0  0  0  0  0
  -30.3143  -11.3575   19.9053 H   0  0  0  0  0  0
  -29.7601  -11.7389   17.4756 H   0  0  0  0  0  0
  -29.6628  -13.4607   17.7534 H   0  0  0  0  0  0
  -27.8517  -11.2898   18.8630 H   0  0  0  0  0  0
  -27.3741  -12.5750   17.7863 H   0  0  0  0  0  0
  -27.6644  -14.2505   19.5036 H   0  0  0  0  0  0
  -28.6851  -12.0795   21.3992 H   0  0  0  0  0  0
  -28.4533  -13.7509   21.8207 H   0  0  0  0  0  0
  -25.2768   -9.5708   22.4747 H   0  0  0  0  0  0
  -24.0022   -7.4647   22.7466 H   0  0  0  0  0  0
  -21.0847   -8.8774   19.8944 H   0  0  0  0  0  0
  -22.3690  -10.9685   19.6160 H   0  0  0  0  0  0
  -21.2006   -7.6153   23.9725 H   0  0  0  0  0  0
  -21.1473   -6.0523   25.9079 H   0  0  0  0  0  0
  -22.0598   -2.7618   23.2835 H   0  0  0  0  0  0
  -22.4117  -11.9890   22.4798 H   0  0  0  0  0  0
  -21.1110  -13.1244   22.2621 H   0  0  0  0  0  0
  -24.6616  -15.8460   20.5193 H   0  0  0  0  0  0
  -26.2798  -15.6263   20.0839 H   0  0  0  0  0  0
  -26.7172  -32.5479   23.1158 H   0  0  0  0  0  0
  -25.0086  -33.9769   25.0466 H   0  0  0  0  0  0
  -22.7047  -31.3155   21.4172 H   0  0  0  0  0  0
  -23.3745  -35.9647   23.3314 H   0  0  0  0  0  0
  -24.3579  -36.8910   22.2050 H   0  0  0  0  0  0
  -23.7246  -37.6520   23.6644 H   0  0  0  0  0  0
  -26.0873  -31.5722   20.6148 H   0  0  0  0  0  0
  -26.8368  -30.8464   22.0076 H   0  0  0  0  0  0
  -28.1019  -28.9966   21.2002 H   0  0  0  0  0  0
  -25.9332  -26.0064   18.9271 H   0  0  0  0  0  0
  -23.9550  -27.3570   18.9865 H   0  0  0  0  0  0
  -23.7413  -30.6251   19.4125 H   0  0  0  0  0  0
  -22.7429  -29.2743   19.8590 H   0  0  0  0  0  0
  -25.1285  -36.1966   25.0825 H   0  0  0  0  0  0
  -20.9994  -28.3254   24.1411 H   0  0  0  0  0  0
  -20.5724  -26.2303   23.3589 H   0  0  0  0  0  0
  -21.6676  -26.7475   22.1189 H   0  0  0  0  0  0
  -19.6970  -25.6327   21.1204 H   0  0  0  0  0  0
  -19.6705  -27.3240   20.6749 H   0  0  0  0  0  0
  -17.4234  -26.6640   21.4030 H   0  0  0  0  0  0
  -18.0405  -26.0047   22.9018 H   0  0  0  0  0  0
  -19.7937  -30.7266   24.2274 H   0  0  0  0  0  0
  -17.5012  -31.6249   24.5161 H   0  0  0  0  0  0
  -15.5366  -30.2964   23.7629 H   0  0  0  0  0  0
  -15.8700  -28.0801   22.7057 H   0  0  0  0  0  0
  -24.5913  -30.7068   25.7821 H   0  0  0  0  0  0
  -24.8934  -32.2883   26.4929 H   0  0  0  0  0  0
  -25.8077  -30.8891   27.0251 H   0  0  0  0  0  0
  -26.2900  -29.6787   24.1205 H   0  0  0  0  0  0
  -27.4029  -29.7260   25.4678 H   0  0  0  0  0  0
  -27.8772  -30.4319   23.9410 H   0  0  0  0  0  0
  -27.2671  -33.3617   26.2119 H   0  0  0  0  0  0
  -28.3863  -32.6901   25.0350 H   0  0  0  0  0  0
  -28.0740  -31.8443   26.5427 H   0  0  0  0  0  0
  -28.2607  -38.0100   24.7500 H   0  0  0  0  0  0
  -28.1063  -36.2631   24.6307 H   0  0  0  0  0  0
  -27.2300  -37.1485   25.8873 H   0  0  0  0  0  0
  -20.9340  -29.8813   21.6943 H   0  0  0  0  0  0
  -26.0181  -38.2866   24.1389 H   0  0  0  0  0  0
  -31.7653  -19.4566   20.7415 H   0  0  0  0  0  0
  -30.8427  -21.7374   20.6255 H   0  0  0  0  0  0
  -27.8100  -17.7989   20.4800 H   0  0  0  0  0  0
  -31.5482  -17.0720   20.4280 H   0  0  0  0  0  0
  -28.8363  -15.7575   20.8768 H   0  0  0  0  0  0
  -25.9405  -19.1239   20.2333 H   0  0  0  0  0  0
  -26.1749  -20.6406   19.3815 H   0  0  0  0  0  0
  -26.0005  -20.6266   21.1435 H   0  0  0  0  0  0
  -27.3384  -22.5897   21.0544 H   0  0  0  0  0  0
  -27.6300  -22.5149   19.3446 H   0  0  0  0  0  0
  -29.8031  -23.8523   19.7283 H   0  0  0  0  0  0
  -29.3198  -24.0253   21.4063 H   0  0  0  0  0  0
  -27.0693  -24.8787   20.5310 H   0  0  0  0  0  0
  -27.7740  -24.9214   18.9248 H   0  0  0  0  0  0
  1 25  1  0  0  0
  1 30  2  0  0  0
  1 78  1  0  0  0
  2  3  1  0  0  0
  2 25  1  0  0  0
  2 83  1  0  0  0
  2 84  1  0  0  0
  3  4  1  0  0  0
  3 85  1  0  0  0
  3 86  1  0  0  0
  4  5  1  0  0  0
  4 87  1  0  0  0
  4 88  1  0  0  0
  5  6  1  0  0  0
  5 26  1  0  0  0
  5 89  1  0  0  0
  6 25  1  0  0  0
  6 90  1  0  0  0
  6 91  1  0  0  0
  7  8  2  0  0  0
  7 26  1  0  0  0
  7 29  1  0  0  0
  8  9  1  0  0  0
  8 22  1  0  0  0
  9 10  1  0  0  0
  9 27  2  0  0  0
 10 11  2  0  0  0
 10 15  1  0  0  0
 11 12  1  0  0  0
 11 92  1  0  0  0
 12 13  2  0  0  0
 12 93  1  0  0  0
 13 14  1  0  0  0
 13 31  1  0  0  0
 14 15  2  0  0  0
 14 94  1  0  0  0
 15 95  1  0  0  0
 16 17  2  0  0  0
 16 21  1  0  0  0
 16 31  1  0  0  0
 17 18  1  0  0  0
 17 96  1  0  0  0
 18 19  2  0  0  0
 18 97  1  0  0  0
 19 20  1  0  0  0
 19 24  1  0  0  0
 20 21  2  0  0  0
 20 98  1  0  0  0
 21 23  1  0  0  0
 22 28  1  0  0  0
 22 32  2  0  0  0
 26 27  1  0  0  0
 28 99  1  0  0  0
 28100  1  0  0  0
 29101  1  0  0  0
 29102  1  0  0  0
 33 34  1  0  0  0
 33 66  1  0  0  0
 33 70  2  0  0  0
 34 36  1  0  0  0
 34 59  1  0  0  0
 34103  1  0  0  0
 35 44  2  0  0  0
 35 45  1  0  0  0
 35 68  1  0  0  0
 36 56  1  0  0  0
 36104  1  0  0  0
 37 39  1  0  0  0
 37 47  1  0  0  0
 37 66  1  0  0  0
 37105  1  0  0  0
 38 43  2  0  0  0
 38 46  1  0  0  0
 38 47  1  0  0  0
 39 64  1  0  0  0
 39 67  2  0  0  0
 40 52  1  0  0  0
 40 53  2  0  0  0
 40 58  1  0  0  0
 41106  1  0  0  0
 41107  1  0  0  0
 41108  1  0  0  0
 41 48  1  0  0  0
 42 43  1  0  0  0
 42 66  1  0  0  0
 42109  1  0  0  0
 42110  1  0  0  0
 43 44  1  0  0  0
 44111  1  0  0  0
 45 46  2  0  0  0
 45112  1  0  0  0
 46113  1  0  0  0
 47114  1  0  0  0
 47115  1  0  0  0
 48 56  1  0  0  0
 48 65  1  0  0  0
 48116  1  0  0  0
 49 50  1  0  0  0
 49 53  1  0  0  0
 49 64  1  0  0  0
 49117  1  0  0  0
 50 51  1  0  0  0
 50118  1  0  0  0
 50119  1  0  0  0
 51 52  1  0  0  0
 51120  1  0  0  0
 51121  1  0  0  0
 52122  1  0  0  0
 52123  1  0  0  0
 53 54  1  0  0  0
 54 55  2  0  0  0
 54124  1  0  0  0
 55 57  1  0  0  0
 55125  1  0  0  0
 56 69  2  0  0  0
 57 58  2  0  0  0
 57126  1  0  0  0
 58127  1  0  0  0
 59 60  1  0  0  0
 59 61  1  0  0  0
 59 62  1  0  0  0
 60128  1  0  0  0
 60129  1  0  0  0
 60130  1  0  0  0
 61131  1  0  0  0
 61132  1  0  0  0
 61133  1  0  0  0
 62134  1  0  0  0
 62135  1  0  0  0
 62136  1  0  0  0
 63 65  1  0  0  0
 63137  1  0  0  0
 63138  1  0  0  0
 63139  1  0  0  0
 64140  1  0  0  0
 65141  1  0  0  0
 68 82  1  0  0  0
 71 72  2  0  0  0
 71 74  1  0  0  0
 71142  1  0  0  0
 72 75  1  0  0  0
 72143  1  0  0  0
 73 74  2  0  0  0
 73 76  1  0  0  0
 73144  1  0  0  0
 74 77  1  0  0  0
 75 76  2  0  0  0
 75 80  1  0  0  0
 76 79  1  0  0  0
 77 78  2  0  0  0
 77145  1  0  0  0
 78146  1  0  0  0
 79147  1  0  0  0
 79148  1  0  0  0
 79149  1  0  0  0
 80 81  1  0  0  0
 80150  1  0  0  0
 80151  1  0  0  0
 81 82  1  0  0  0
 81152  1  0  0  0
 81153  1  0  0  0
 82154  1  0  0  0
 82155  1  0  0  0
M  ISO  4   1 100  68 101  78 100  82 101
M  END
> <chiral flag>
0

> <version>
0

> <s_m_source_file>
/data/baiqing/PycharmProjects/Reinvent-master-3.2/result/LINK_invent/BTK/process_docking_weight1_custom_product_contain_oxygen_bond_distance_aromatic_linkinvent_7_9_3/rearranged_h_0129.sdf

> <i_m_source_file_index>
80

> <r_mmod_Potential_Energy-OPLS-2005>
49.376838684082

> <r_mmod_Stretch_Energy-OPLS-2005>
60.0876159667969

> <r_mmod_Bend_Energy-OPLS-2005>
133.052154541016

> <r_mmod_Torsional_Energy-OPLS-2005>
182.946060180664

> <r_mmod_Improper_Torsional_Energy-OPLS-2005>
6.33643960952759

> <r_mmod_Van_der_Waal_Energy-OPLS-2005>
163.196655273438

> <r_mmod_Electrostatic_Energy-OPLS-2005>
-343.220031738281

> <r_mmod_Solvation_Energy-OPLS-2005>
-193.130340576172

> <b_mmod_Minimization_Converged-OPLS-2005>
0

> <r_mmod_RMS_Derivative-OPLS-2005>
0.869730591773987

$$$$
80
                    3D
 Structure written by MMmdl.
157165  0  0  1  0            999 V2000
  -30.6808  -14.5171   20.4799 C   0  0  0  0  0  0
  -30.4202  -12.2996   19.4266 C   0  0  0  0  0  0
  -29.4968  -12.4732   18.2032 C   0  0  0  0  0  0
  -28.0138  -12.3418   18.6087 C   0  0  0  0  0  0
  -27.6536  -13.2050   19.8479 C   0  0  2  0  0  0
  -28.7025  -13.0384   20.9727 C   0  0  0  0  0  0
  -25.2579  -13.8162   20.5662 C   0  0  0  0  0  0
  -24.1858  -13.0463   20.9233 C   0  0  0  0  0  0
  -24.6408  -11.6916   20.8754 C   0  0  0  0  0  0
  -23.9063  -10.4312   21.0393 C   0  0  0  0  0  0
  -24.3614   -9.4219   21.9153 C   0  0  0  0  0  0
  -23.6313   -8.2239   22.0722 C   0  0  0  0  0  0
  -22.4283   -8.0278   21.3527 C   0  0  0  0  0  0
  -21.9920   -9.0246   20.4613 C   0  0  0  0  0  0
  -22.7242  -10.2137   20.3036 C   0  0  0  0  0  0
  -21.6848   -6.0752   22.5291 C   0  0  0  0  0  0
  -21.4007   -6.5654   23.8228 C   0  0  0  0  0  0
  -21.3666   -5.6794   24.9183 C   0  0  0  0  0  0
  -21.6054   -4.3059   24.7225 C   0  0  0  0  0  0
  -21.8821   -3.8159   23.4348 C   0  0  0  0  0  0
  -21.9204   -4.6981   22.3411 C   0  0  0  0  0  0
  -22.7864  -13.5243   21.1866 C   0  0  0  0  0  0
  -22.1665   -4.2175   21.0977 F   0  0  0  0  0  0
  -21.5631   -3.4538   25.7731 F   0  0  0  0  0  0
  -30.0245  -13.3249   20.3997 N   0  0  0  0  0  0
  -26.2983  -12.9328   20.3223 N   0  0  0  0  0  0
  -25.9321  -11.6500   20.5723 N   0  0  0  0  0  0
  -22.0503  -12.8235   22.0404 N   0  0  0  0  0  0
  -25.4288  -15.1887   20.4014 N   0  0  0  0  0  0
  -31.8610  -14.6398   20.1476 O   0  0  0  0  0  0
  -21.6644   -6.8883   21.4239 O   0  0  0  0  0  0
  -22.3549  -14.5555   20.6705 O   0  0  0  0  0  0
  -24.6183  -31.8598   23.1946 C   0  0  0  0  0  0
  -25.9044  -32.4755   23.8271 C   0  0  1  0  0  0
  -27.2805  -27.4034   20.0901 C   0  0  0  0  0  0
  -25.5845  -33.8542   24.2232 N   0  0  0  0  0  0
  -23.4120  -30.4746   21.5342 C   0  0  2  0  0  0
  -24.8711  -28.9243   20.1110 C   0  0  0  0  0  0
  -22.7425  -29.4596   22.4895 C   0  0  0  0  0  0
  -18.0275  -28.1349   22.8470 C   0  0  0  0  0  0
  -24.1498  -36.7301   23.2654 C   0  0  0  0  0  0
  -25.9427  -30.8171   21.3459 C   0  0  0  0  0  0
  -26.0271  -29.4437   20.7029 C   0  0  0  0  0  0
  -27.2263  -28.6900   20.6878 C   0  0  0  0  0  0
  -26.0967  -26.8955   19.5075 C   0  0  0  0  0  0
  -24.9029  -27.6505   19.5118 C   0  0  0  0  0  0
  -23.6259  -29.7864   20.1566 C   0  0  0  0  0  0
  -25.4122  -36.3064   24.0356 C   0  0  1  0  0  0
  -20.5875  -28.3630   23.1281 C   0  0  2  0  0  0
  -20.6765  -26.9335   22.5426 C   0  0  0  0  0  0
  -19.5744  -26.6340   21.5221 C   0  0  0  0  0  0
  -18.1904  -26.7882   22.1617 C   0  0  0  0  0  0
  -19.1525  -28.8805   23.2868 C   0  0  0  0  0  0
  -18.9467  -30.1414   23.8855 C   0  0  0  0  0  0
  -17.6465  -30.6554   24.0533 C   0  0  0  0  0  0
  -25.9059  -34.9431   23.5129 C   0  0  0  0  0  0
  -16.5350  -29.9072   23.6322 C   0  0  0  0  0  0
  -16.7261  -28.6510   23.0317 C   0  0  0  0  0  0
  -26.4472  -31.6548   25.0593 C   0  0  0  0  0  0
  -25.3756  -31.3655   26.1357 C   0  0  0  0  0  0
  -27.0338  -30.3007   24.5956 C   0  0  0  0  0  0
  -27.6009  -32.4318   25.7335 C   0  0  0  0  0  0
  -27.5578  -37.1801   24.8465 C   0  0  0  0  0  0
  -21.4142  -29.3001   22.3674 N   0  0  0  0  0  0
  -26.4291  -37.3772   23.9430 N   0  0  0  0  0  0
  -24.6755  -31.0678   22.0840 N   0  0  0  0  0  0
  -23.4188  -28.8147   23.2948 O   0  0  0  0  0  0
  -28.4910  -26.7168   20.1152 O   0  0  0  0  0  0
  -26.5657  -34.8899   22.4705 O   0  0  0  0  0  0
  -23.5380  -32.1336   23.7360 O   0  0  0  0  0  0
  -30.7359  -19.7754   21.1183 C   0  0  0  0  0  0
  -29.2089  -17.9683   20.5739 C   0  0  0  0  0  0
  -31.4895  -17.4432   21.2145 C   0  0  0  0  0  0
  -29.4467  -19.3681   20.7188 C   0  0  0  0  0  0
  -31.7456  -18.8222   21.3790 C   0  0  0  0  0  0
  -30.2139  -16.9909   20.8089 C   0  0  0  0  0  0
  -28.3154  -20.3098   20.4523 C   0  0  0  0  0  0
  -28.1688  -21.6456   20.2237 C   0  0  0  0  0  0
  -33.1145  -19.2773   21.8429 C   0  0  0  0  0  0
  -29.1441  -22.8240   20.0715 C   0  0  0  0  0  0
  -28.5574  -24.2167   20.5162 C   0  0  0  0  0  0
  -28.7015  -25.4110   19.5168 C   0  0  0  0  0  0
  -29.8792  -15.5914   20.6836 N   0  0  0  0  0  0
  -31.4657  -12.3848   19.1271 H   0  0  0  0  0  0
  -30.3151  -11.3033   19.8635 H   0  0  0  0  0  0
  -29.7433  -11.7365   17.4374 H   0  0  0  0  0  0
  -29.6645  -13.4529   17.7540 H   0  0  0  0  0  0
  -27.8159  -11.2903   18.8186 H   0  0  0  0  0  0
  -27.3748  -12.6072   17.7646 H   0  0  0  0  0  0
  -27.6809  -14.2382   19.5005 H   0  0  0  0  0  0
  -28.6831  -12.0238   21.3757 H   0  0  0  0  0  0
  -28.4802  -13.7010   21.8100 H   0  0  0  0  0  0
  -25.2757   -9.5732   22.4720 H   0  0  0  0  0  0
  -24.0049   -7.4650   22.7453 H   0  0  0  0  0  0
  -21.0854   -8.8780   19.8916 H   0  0  0  0  0  0
  -22.3694  -10.9678   19.6150 H   0  0  0  0  0  0
  -21.1973   -7.6149   23.9752 H   0  0  0  0  0  0
  -21.1474   -6.0502   25.9095 H   0  0  0  0  0  0
  -22.0587   -2.7627   23.2840 H   0  0  0  0  0  0
  -22.4110  -11.9901   22.4804 H   0  0  0  0  0  0
  -21.1085  -13.1189   22.2543 H   0  0  0  0  0  0
  -24.6638  -15.8421   20.5318 H   0  0  0  0  0  0
  -26.2501  -15.6219   20.0018 H   0  0  0  0  0  0
  -26.7109  -32.5443   23.1025 H   0  0  0  0  0  0
  -24.9753  -33.9637   25.0210 H   0  0  0  0  0  0
  -22.7056  -31.2925   21.3820 H   0  0  0  0  0  0
  -23.3719  -35.9665   23.3302 H   0  0  0  0  0  0
  -24.3537  -36.8933   22.2055 H   0  0  0  0  0  0
  -23.7330  -37.6541   23.6678 H   0  0  0  0  0  0
  -26.0559  -31.5720   20.5651 H   0  0  0  0  0  0
  -26.8318  -30.8766   21.9628 H   0  0  0  0  0  0
  -28.1199  -29.0941   21.1439 H   0  0  0  0  0  0
  -26.0776  -25.9127   19.0585 H   0  0  0  0  0  0
  -24.0138  -27.2316   19.0619 H   0  0  0  0  0  0
  -23.7230  -30.5538   19.3865 H   0  0  0  0  0  0
  -22.7583  -29.1871   19.8690 H   0  0  0  0  0  0
  -25.1310  -36.1884   25.0857 H   0  0  0  0  0  0
  -20.9960  -28.3196   24.1410 H   0  0  0  0  0  0
  -20.5686  -26.2199   23.3616 H   0  0  0  0  0  0
  -21.6624  -26.7349   22.1192 H   0  0  0  0  0  0
  -19.6887  -25.6276   21.1199 H   0  0  0  0  0  0
  -19.6701  -27.3182   20.6776 H   0  0  0  0  0  0
  -17.4188  -26.6618   21.4001 H   0  0  0  0  0  0
  -18.0288  -26.0031   22.9021 H   0  0  0  0  0  0
  -19.7964  -30.7221   24.2190 H   0  0  0  0  0  0
  -17.5056  -31.6244   24.5119 H   0  0  0  0  0  0
  -15.5362  -30.2968   23.7704 H   0  0  0  0  0  0
  -15.8642  -28.0856   22.7004 H   0  0  0  0  0  0
  -24.5902  -30.7032   25.7724 H   0  0  0  0  0  0
  -24.8951  -32.2791   26.4843 H   0  0  0  0  0  0
  -25.8123  -30.8809   27.0091 H   0  0  0  0  0  0
  -26.2886  -29.6679   24.1131 H   0  0  0  0  0  0
  -27.4266  -29.7324   25.4390 H   0  0  0  0  0  0
  -27.8604  -30.4303   23.8956 H   0  0  0  0  0  0
  -27.2584  -33.3629   26.1859 H   0  0  0  0  0  0
  -28.3792  -32.6874   25.0146 H   0  0  0  0  0  0
  -28.0669  -31.8476   26.5271 H   0  0  0  0  0  0
  -28.2599  -38.0095   24.7495 H   0  0  0  0  0  0
  -28.1067  -36.2618   24.6296 H   0  0  0  0  0  0
  -27.2256  -37.1460   25.8856 H   0  0  0  0  0  0
  -20.9317  -29.8695   21.6857 H   0  0  0  0  0  0
  -26.0157  -38.2839   24.1448 H   0  0  0  0  0  0
  -30.9561  -20.8197   21.2691 H   0  0  0  0  0  0
  -28.2294  -17.6351   20.2687 H   0  0  0  0  0  0
  -32.2841  -16.7415   21.4230 H   0  0  0  0  0  0
  -27.3666  -19.7887   20.4531 H   0  0  0  0  0  0
  -27.1406  -21.9479   20.0815 H   0  0  0  0  0  0
  -33.0921  -20.3082   22.2022 H   0  0  0  0  0  0
  -33.8217  -19.2164   21.0157 H   0  0  0  0  0  0
  -33.4792  -18.6501   22.6571 H   0  0  0  0  0  0
  -30.0692  -22.6258   20.6058 H   0  0  0  0  0  0
  -29.4055  -22.8759   19.0140 H   0  0  0  0  0  0
  -29.0491  -24.4954   21.4495 H   0  0  0  0  0  0
  -27.4989  -24.1226   20.7558 H   0  0  0  0  0  0
  -29.7331  -25.4181   19.1575 H   0  0  0  0  0  0
  -28.1099  -25.2581   18.6161 H   0  0  0  0  0  0
  -28.8954  -15.3714   20.6940 H   0  0  0  0  0  0
  1 25  1  0  0  0
  1 30  2  0  0  0
  1 83  1  0  0  0
  2  3  1  0  0  0
  2 25  1  0  0  0
  2 84  1  0  0  0
  2 85  1  0  0  0
  3  4  1  0  0  0
  3 86  1  0  0  0
  3 87  1  0  0  0
  4  5  1  0  0  0
  4 88  1  0  0  0
  4 89  1  0  0  0
  5  6  1  0  0  0
  5 26  1  0  0  0
  5 90  1  0  0  0
  6 25  1  0  0  0
  6 91  1  0  0  0
  6 92  1  0  0  0
  7  8  2  0  0  0
  7 26  1  0  0  0
  7 29  1  0  0  0
  8  9  1  0  0  0
  8 22  1  0  0  0
  9 10  1  0  0  0
  9 27  2  0  0  0
 10 11  2  0  0  0
 10 15  1  0  0  0
 11 12  1  0  0  0
 11 93  1  0  0  0
 12 13  2  0  0  0
 12 94  1  0  0  0
 13 14  1  0  0  0
 13 31  1  0  0  0
 14 15  2  0  0  0
 14 95  1  0  0  0
 15 96  1  0  0  0
 16 17  2  0  0  0
 16 21  1  0  0  0
 16 31  1  0  0  0
 17 18  1  0  0  0
 17 97  1  0  0  0
 18 19  2  0  0  0
 18 98  1  0  0  0
 19 20  1  0  0  0
 19 24  1  0  0  0
 20 21  2  0  0  0
 20 99  1  0  0  0
 21 23  1  0  0  0
 22 28  1  0  0  0
 22 32  2  0  0  0
 26 27  1  0  0  0
 28100  1  0  0  0
 28101  1  0  0  0
 29102  1  0  0  0
 29103  1  0  0  0
 33 34  1  0  0  0
 33 66  1  0  0  0
 33 70  2  0  0  0
 34 36  1  0  0  0
 34 59  1  0  0  0
 34104  1  0  0  0
 35 44  2  0  0  0
 35 45  1  0  0  0
 35 68  1  0  0  0
 36 56  1  0  0  0
 36105  1  0  0  0
 37 39  1  0  0  0
 37 47  1  0  0  0
 37 66  1  0  0  0
 37106  1  0  0  0
 38 43  2  0  0  0
 38 46  1  0  0  0
 38 47  1  0  0  0
 39 64  1  0  0  0
 39 67  2  0  0  0
 40 52  1  0  0  0
 40 53  2  0  0  0
 40 58  1  0  0  0
 41107  1  0  0  0
 41108  1  0  0  0
 41109  1  0  0  0
 41 48  1  0  0  0
 42 43  1  0  0  0
 42 66  1  0  0  0
 42110  1  0  0  0
 42111  1  0  0  0
 43 44  1  0  0  0
 44112  1  0  0  0
 45 46  2  0  0  0
 45113  1  0  0  0
 46114  1  0  0  0
 47115  1  0  0  0
 47116  1  0  0  0
 48 56  1  0  0  0
 48 65  1  0  0  0
 48117  1  0  0  0
 49 50  1  0  0  0
 49 53  1  0  0  0
 49 64  1  0  0  0
 49118  1  0  0  0
 50 51  1  0  0  0
 50119  1  0  0  0
 50120  1  0  0  0
 51 52  1  0  0  0
 51121  1  0  0  0
 51122  1  0  0  0
 52123  1  0  0  0
 52124  1  0  0  0
 53 54  1  0  0  0
 54 55  2  0  0  0
 54125  1  0  0  0
 55 57  1  0  0  0
 55126  1  0  0  0
 56 69  2  0  0  0
 57 58  2  0  0  0
 57127  1  0  0  0
 58128  1  0  0  0
 59 60  1  0  0  0
 59 61  1  0  0  0
 59 62  1  0  0  0
 60129  1  0  0  0
 60130  1  0  0  0
 60131  1  0  0  0
 61132  1  0  0  0
 61133  1  0  0  0
 61134  1  0  0  0
 62135  1  0  0  0
 62136  1  0  0  0
 62137  1  0  0  0
 63 65  1  0  0  0
 63138  1  0  0  0
 63139  1  0  0  0
 63140  1  0  0  0
 64141  1  0  0  0
 65142  1  0  0  0
 68 82  1  0  0  0
 71 74  2  0  0  0
 71 75  1  0  0  0
 71143  1  0  0  0
 72 74  1  0  0  0
 72 76  2  0  0  0
 72144  1  0  0  0
 73 75  2  0  0  0
 73 76  1  0  0  0
 73145  1  0  0  0
 74 77  1  0  0  0
 75 79  1  0  0  0
 76 83  1  0  0  0
 77 78  2  0  0  0
 77146  1  0  0  0
 78 80  1  0  0  0
 78147  1  0  0  0
 79148  1  0  0  0
 79149  1  0  0  0
 79150  1  0  0  0
 80 81  1  0  0  0
 80151  1  0  0  0
 80152  1  0  0  0
 81 82  1  0  0  0
 81153  1  0  0  0
 81154  1  0  0  0
 82155  1  0  0  0
 82156  1  0  0  0
 83157  1  0  0  0
M  ISO  4   1 100  68 101  82 101  83 100
M  END
> <chiral flag>
0

> <version>
0

> <s_m_source_file>
/data/baiqing/PycharmProjects/Reinvent-master-3.2/result/LINK_invent/BTK/process_docking_weight1_custom_product_contain_oxygen_bond_distance_aromatic_linkinvent_7_9_3/rearranged_h_0129.sdf

> <i_m_source_file_index>
81

> <r_mmod_Potential_Energy-OPLS-2005>
45.8922233581543

> <r_mmod_Stretch_Energy-OPLS-2005>
49.5810089111328

> <r_mmod_Bend_Energy-OPLS-2005>
146.673873901367

> <r_mmod_Torsional_Energy-OPLS-2005>
220.816741943359

> <r_mmod_Improper_Torsional_Energy-OPLS-2005>
6.86763572692871

> <r_mmod_Van_der_Waal_Energy-OPLS-2005>
146.279846191406

> <r_mmod_Electrostatic_Energy-OPLS-2005>
-344.738891601562

> <r_mmod_Solvation_Energy-OPLS-2005>
-203.217987060547

> <b_mmod_Minimization_Converged-OPLS-2005>
0

> <r_mmod_RMS_Derivative-OPLS-2005>
4.87523412704468

$$$$
81
                    3D
 Structure written by MMmdl.
162170  0  0  1  0            999 V2000
  -30.6404  -14.5849   20.5238 C   0  0  0  0  0  0
  -30.4389  -12.3621   19.4427 C   0  0  0  0  0  0
  -29.5065  -12.5034   18.2189 C   0  0  0  0  0  0
  -28.0277  -12.3497   18.6291 C   0  0  0  0  0  0
  -27.6581  -13.2096   19.8669 C   0  0  2  0  0  0
  -28.7016  -13.0320   20.9936 C   0  0  0  0  0  0
  -25.2587  -13.8161   20.5672 C   0  0  0  0  0  0
  -24.1844  -13.0441   20.9190 C   0  0  0  0  0  0
  -24.6398  -11.6908   20.8745 C   0  0  0  0  0  0
  -23.9062  -10.4294   21.0410 C   0  0  0  0  0  0
  -24.3615   -9.4209   21.9187 C   0  0  0  0  0  0
  -23.6291   -8.2244   22.0753 C   0  0  0  0  0  0
  -22.4274   -8.0283   21.3544 C   0  0  0  0  0  0
  -21.9910   -9.0255   20.4646 C   0  0  0  0  0  0
  -22.7236  -10.2136   20.3056 C   0  0  0  0  0  0
  -21.6852   -6.0738   22.5281 C   0  0  0  0  0  0
  -21.4010   -6.5642   23.8215 C   0  0  0  0  0  0
  -21.3660   -5.6793   24.9178 C   0  0  0  0  0  0
  -21.6042   -4.3054   24.7228 C   0  0  0  0  0  0
  -21.8821   -3.8149   23.4347 C   0  0  0  0  0  0
  -21.9193   -4.6966   22.3404 C   0  0  0  0  0  0
  -22.7866  -13.5241   21.1849 C   0  0  0  0  0  0
  -22.1663   -4.2153   21.0981 F   0  0  0  0  0  0
  -21.5630   -3.4537   25.7738 F   0  0  0  0  0  0
  -30.0240  -13.3667   20.4386 N   0  0  0  0  0  0
  -26.3011  -12.9329   20.3321 N   0  0  0  0  0  0
  -25.9324  -11.6492   20.5754 N   0  0  0  0  0  0
  -22.0501  -12.8238   22.0403 N   0  0  0  0  0  0
  -25.4311  -15.1876   20.4053 N   0  0  0  0  0  0
  -31.7920  -14.7594   20.1141 O   0  0  0  0  0  0
  -21.6638   -6.8881   21.4241 O   0  0  0  0  0  0
  -22.3559  -14.5551   20.6699 O   0  0  0  0  0  0
  -24.6229  -31.8631   23.2054 C   0  0  0  0  0  0
  -25.9088  -32.4797   23.8374 C   0  0  1  0  0  0
  -27.2259  -27.3588   20.1026 C   0  0  0  0  0  0
  -25.5917  -33.8596   24.2305 N   0  0  0  0  0  0
  -23.4142  -30.4894   21.5466 C   0  0  2  0  0  0
  -24.8593  -28.9522   20.1115 C   0  0  0  0  0  0
  -22.7457  -29.4648   22.4933 C   0  0  0  0  0  0
  -18.0288  -28.1387   22.8488 C   0  0  0  0  0  0
  -24.1491  -36.7300   23.2639 C   0  0  0  0  0  0
  -25.9529  -30.8078   21.3695 C   0  0  0  0  0  0
  -26.0281  -29.4387   20.7104 C   0  0  0  0  0  0
  -27.2152  -28.6542   20.6956 C   0  0  0  0  0  0
  -26.0299  -26.9157   19.4884 C   0  0  0  0  0  0
  -24.8599  -27.6940   19.4940 C   0  0  0  0  0  0
  -23.6265  -29.8273   20.1606 C   0  0  0  0  0  0
  -25.4111  -36.3092   24.0336 C   0  0  1  0  0  0
  -20.5884  -28.3680   23.1285 C   0  0  2  0  0  0
  -20.6776  -26.9405   22.5404 C   0  0  0  0  0  0
  -19.5752  -26.6386   21.5204 C   0  0  0  0  0  0
  -18.1934  -26.7934   22.1618 C   0  0  0  0  0  0
  -19.1541  -28.8846   23.2891 C   0  0  0  0  0  0
  -18.9465  -30.1451   23.8903 C   0  0  0  0  0  0
  -17.6465  -30.6588   24.0565 C   0  0  0  0  0  0
  -25.9039  -34.9458   23.5116 C   0  0  0  0  0  0
  -16.5355  -29.9091   23.6325 C   0  0  0  0  0  0
  -16.7276  -28.6508   23.0346 C   0  0  0  0  0  0
  -26.4486  -31.6591   25.0724 C   0  0  0  0  0  0
  -25.3734  -31.3719   26.1460 C   0  0  0  0  0  0
  -27.0321  -30.3028   24.6137 C   0  0  0  0  0  0
  -27.6056  -32.4309   25.7495 C   0  0  0  0  0  0
  -27.5580  -37.1805   24.8465 C   0  0  0  0  0  0
  -21.4171  -29.3050   22.3687 N   0  0  0  0  0  0
  -26.4295  -37.3781   23.9408 N   0  0  0  0  0  0
  -24.6821  -31.0686   22.0978 N   0  0  0  0  0  0
  -23.4205  -28.8176   23.2983 O   0  0  0  0  0  0
  -28.3608  -26.5422   20.1314 O   0  0  0  0  0  0
  -26.5601  -34.8917   22.4679 O   0  0  0  0  0  0
  -23.5401  -32.1402   23.7409 O   0  0  0  0  0  0
  -31.0590  -19.1861   20.3285 C   0  0  0  0  0  0
  -31.0914  -17.7729   20.4674 C   0  0  0  0  0  0
  -28.7383  -17.8107   20.9505 C   0  0  0  0  0  0
  -29.8782  -19.9644   20.4833 C   0  0  0  0  0  0
  -28.6905  -19.2297   20.8021 C   0  0  0  0  0  0
  -29.9193  -17.0464   20.7787 C   0  0  0  0  0  0
  -26.5781  -20.0281   19.6422 C   0  0  0  0  0  0
  -30.2736  -24.6159   21.4878 C   0  0  0  0  0  0
  -30.0462  -21.5124   20.2387 C   0  0  0  0  0  0
  -27.3202  -19.8703   20.9750 C   0  0  0  0  0  0
  -28.9584  -22.6077   20.5680 C   0  0  0  0  0  0
  -28.1292  -25.0933   20.1846 C   0  0  0  0  0  0
  -29.3623  -24.1275   20.3502 C   0  0  1  0  0  0
  -29.8406  -15.6049   20.9452 N   0  0  0  0  0  0
  -31.4804  -12.4844   19.1405 H   0  0  0  0  0  0
  -30.3688  -11.3597   19.8678 H   0  0  0  0  0  0
  -29.7635  -11.7600   17.4629 H   0  0  0  0  0  0
  -29.6576  -13.4783   17.7520 H   0  0  0  0  0  0
  -27.8540  -11.2953   18.8474 H   0  0  0  0  0  0
  -27.3756  -12.5953   17.7902 H   0  0  0  0  0  0
  -27.6869  -14.2498   19.5415 H   0  0  0  0  0  0
  -28.7014  -12.0018   21.3526 H   0  0  0  0  0  0
  -28.4507  -13.6433   21.8617 H   0  0  0  0  0  0
  -25.2762   -9.5688   22.4761 H   0  0  0  0  0  0
  -24.0006   -7.4634   22.7469 H   0  0  0  0  0  0
  -21.0844   -8.8772   19.8949 H   0  0  0  0  0  0
  -22.3696  -10.9675   19.6166 H   0  0  0  0  0  0
  -21.1996   -7.6149   23.9722 H   0  0  0  0  0  0
  -21.1480   -6.0521   25.9083 H   0  0  0  0  0  0
  -22.0599   -2.7610   23.2845 H   0  0  0  0  0  0
  -22.4103  -11.9894   22.4793 H   0  0  0  0  0  0
  -21.1116  -13.1267   22.2596 H   0  0  0  0  0  0
  -24.6584  -15.8381   20.4965 H   0  0  0  0  0  0
  -26.2667  -15.6170   20.0299 H   0  0  0  0  0  0
  -26.7157  -32.5476   23.1128 H   0  0  0  0  0  0
  -25.0074  -33.9748   25.0458 H   0  0  0  0  0  0
  -22.7066  -31.3089   21.4064 H   0  0  0  0  0  0
  -23.3745  -35.9639   23.3304 H   0  0  0  0  0  0
  -24.3588  -36.8909   22.2052 H   0  0  0  0  0  0
  -23.7251  -37.6510   23.6650 H   0  0  0  0  0  0
  -26.0774  -31.5743   20.6034 H   0  0  0  0  0  0
  -26.8374  -30.8570   21.9934 H   0  0  0  0  0  0
  -28.1147  -29.0257   21.1661 H   0  0  0  0  0  0
  -25.9639  -25.9605   18.9918 H   0  0  0  0  0  0
  -23.9631  -27.3164   19.0217 H   0  0  0  0  0  0
  -23.7433  -30.6049   19.4047 H   0  0  0  0  0  0
  -22.7480  -29.2544   19.8577 H   0  0  0  0  0  0
  -25.1295  -36.1945   25.0829 H   0  0  0  0  0  0
  -20.9988  -28.3242   24.1400 H   0  0  0  0  0  0
  -20.5662  -26.2285   23.3598 H   0  0  0  0  0  0
  -21.6647  -26.7432   22.1200 H   0  0  0  0  0  0
  -19.6908  -25.6296   21.1233 H   0  0  0  0  0  0
  -19.6694  -27.3194   20.6732 H   0  0  0  0  0  0
  -17.4203  -26.6671   21.4028 H   0  0  0  0  0  0
  -18.0344  -26.0087   22.9022 H   0  0  0  0  0  0
  -19.7939  -30.7270   24.2274 H   0  0  0  0  0  0
  -17.5020  -31.6269   24.5168 H   0  0  0  0  0  0
  -15.5357  -30.2997   23.7649 H   0  0  0  0  0  0
  -15.8674  -28.0835   22.7049 H   0  0  0  0  0  0
  -24.5915  -30.7058   25.7795 H   0  0  0  0  0  0
  -24.8918  -32.2882   26.4884 H   0  0  0  0  0  0
  -25.8077  -30.8906   27.0231 H   0  0  0  0  0  0
  -26.2882  -29.6787   24.1173 H   0  0  0  0  0  0
  -27.4061  -29.7270   25.4610 H   0  0  0  0  0  0
  -27.8730  -30.4339   23.9323 H   0  0  0  0  0  0
  -27.2683  -33.3607   26.2086 H   0  0  0  0  0  0
  -28.3869  -32.6863   25.0324 H   0  0  0  0  0  0
  -28.0720  -31.8418   26.5402 H   0  0  0  0  0  0
  -28.2598  -38.0100   24.7505 H   0  0  0  0  0  0
  -28.1077  -36.2632   24.6301 H   0  0  0  0  0  0
  -27.2300  -37.1466   25.8869 H   0  0  0  0  0  0
  -20.9327  -29.8803   21.6938 H   0  0  0  0  0  0
  -26.0173  -38.2857   24.1405 H   0  0  0  0  0  0
  -31.9844  -19.6874   20.0804 H   0  0  0  0  0  0
  -32.0341  -17.2633   20.3304 H   0  0  0  0  0  0
  -27.8219  -17.2892   21.1901 H   0  0  0  0  0  0
  -25.6182  -20.5231   19.7908 H   0  0  0  0  0  0
  -26.3823  -19.0572   19.1862 H   0  0  0  0  0  0
  -27.1515  -20.6164   18.9266 H   0  0  0  0  0  0
  -31.1667  -23.9988   21.5835 H   0  0  0  0  0  0
  -29.7534  -24.6010   22.4460 H   0  0  0  0  0  0
  -30.6074  -25.6390   21.3099 H   0  0  0  0  0  0
  -30.3073  -21.6241   19.1855 H   0  0  0  0  0  0
  -30.9500  -21.7942   20.7791 H   0  0  0  0  0  0
  -27.3810  -20.8083   21.5143 H   0  0  0  0  0  0
  -26.7170  -19.2407   21.6307 H   0  0  0  0  0  0
  -28.6534  -22.5072   21.6088 H   0  0  0  0  0  0
  -28.0778  -22.4108   19.9594 H   0  0  0  0  0  0
  -27.4274  -24.8964   20.9968 H   0  0  0  0  0  0
  -27.6417  -24.7747   19.2638 H   0  0  0  0  0  0
  -29.9314  -24.1898   19.4216 H   0  0  0  0  0  0
  -28.9463  -15.2721   21.2706 H   0  0  0  0  0  0
  1 25  1  0  0  0
  1 30  2  0  0  0
  1 84  1  0  0  0
  2  3  1  0  0  0
  2 25  1  0  0  0
  2 85  1  0  0  0
  2 86  1  0  0  0
  3  4  1  0  0  0
  3 87  1  0  0  0
  3 88  1  0  0  0
  4  5  1  0  0  0
  4 89  1  0  0  0
  4 90  1  0  0  0
  5  6  1  0  0  0
  5 26  1  0  0  0
  5 91  1  0  0  0
  6 25  1  0  0  0
  6 92  1  0  0  0
  6 93  1  0  0  0
  7  8  2  0  0  0
  7 26  1  0  0  0
  7 29  1  0  0  0
  8  9  1  0  0  0
  8 22  1  0  0  0
  9 10  1  0  0  0
  9 27  2  0  0  0
 10 11  2  0  0  0
 10 15  1  0  0  0
 11 12  1  0  0  0
 11 94  1  0  0  0
 12 13  2  0  0  0
 12 95  1  0  0  0
 13 14  1  0  0  0
 13 31  1  0  0  0
 14 15  2  0  0  0
 14 96  1  0  0  0
 15 97  1  0  0  0
 16 17  2  0  0  0
 16 21  1  0  0  0
 16 31  1  0  0  0
 17 18  1  0  0  0
 17 98  1  0  0  0
 18 19  2  0  0  0
 18 99  1  0  0  0
 19 20  1  0  0  0
 19 24  1  0  0  0
 20 21  2  0  0  0
 20100  1  0  0  0
 21 23  1  0  0  0
 22 28  1  0  0  0
 22 32  2  0  0  0
 26 27  1  0  0  0
 28101  1  0  0  0
 28102  1  0  0  0
 29103  1  0  0  0
 29104  1  0  0  0
 33 34  1  0  0  0
 33 66  1  0  0  0
 33 70  2  0  0  0
 34 36  1  0  0  0
 34 59  1  0  0  0
 34105  1  0  0  0
 35 44  2  0  0  0
 35 45  1  0  0  0
 35 68  1  0  0  0
 36 56  1  0  0  0
 36106  1  0  0  0
 37 39  1  0  0  0
 37 47  1  0  0  0
 37 66  1  0  0  0
 37107  1  0  0  0
 38 43  2  0  0  0
 38 46  1  0  0  0
 38 47  1  0  0  0
 39 64  1  0  0  0
 39 67  2  0  0  0
 40 52  1  0  0  0
 40 53  2  0  0  0
 40 58  1  0  0  0
 41108  1  0  0  0
 41109  1  0  0  0
 41110  1  0  0  0
 41 48  1  0  0  0
 42 43  1  0  0  0
 42 66  1  0  0  0
 42111  1  0  0  0
 42112  1  0  0  0
 43 44  1  0  0  0
 44113  1  0  0  0
 45 46  2  0  0  0
 45114  1  0  0  0
 46115  1  0  0  0
 47116  1  0  0  0
 47117  1  0  0  0
 48 56  1  0  0  0
 48 65  1  0  0  0
 48118  1  0  0  0
 49 50  1  0  0  0
 49 53  1  0  0  0
 49 64  1  0  0  0
 49119  1  0  0  0
 50 51  1  0  0  0
 50120  1  0  0  0
 50121  1  0  0  0
 51 52  1  0  0  0
 51122  1  0  0  0
 51123  1  0  0  0
 52124  1  0  0  0
 52125  1  0  0  0
 53 54  1  0  0  0
 54 55  2  0  0  0
 54126  1  0  0  0
 55 57  1  0  0  0
 55127  1  0  0  0
 56 69  2  0  0  0
 57 58  2  0  0  0
 57128  1  0  0  0
 58129  1  0  0  0
 59 60  1  0  0  0
 59 61  1  0  0  0
 59 62  1  0  0  0
 60130  1  0  0  0
 60131  1  0  0  0
 60132  1  0  0  0
 61133  1  0  0  0
 61134  1  0  0  0
 61135  1  0  0  0
 62136  1  0  0  0
 62137  1  0  0  0
 62138  1  0  0  0
 63 65  1  0  0  0
 63139  1  0  0  0
 63140  1  0  0  0
 63141  1  0  0  0
 64142  1  0  0  0
 65143  1  0  0  0
 68 82  1  0  0  0
 71 72  2  0  0  0
 71 74  1  0  0  0
 71144  1  0  0  0
 72 76  1  0  0  0
 72145  1  0  0  0
 73 75  1  0  0  0
 73 76  2  0  0  0
 73146  1  0  0  0
 74 75  2  0  0  0
 74 79  1  0  0  0
 75 80  1  0  0  0
 76 84  1  0  0  0
 77 80  1  0  0  0
 77147  1  0  0  0
 77148  1  0  0  0
 77149  1  0  0  0
 78150  1  0  0  0
 78151  1  0  0  0
 78152  1  0  0  0
 78 83  1  0  0  0
 79 81  1  0  0  0
 79153  1  0  0  0
 79154  1  0  0  0
 80155  1  0  0  0
 80156  1  0  0  0
 81 83  1  0  0  0
 81157  1  0  0  0
 81158  1  0  0  0
 82 83  1  0  0  0
 82159  1  0  0  0
 82160  1  0  0  0
 83161  1  0  0  0
 84162  1  0  0  0
M  ISO  4   1 100  68 101  82 101  84 100
M  END
> <chiral flag>
0

> <version>
0

> <s_m_source_file>
/data/baiqing/PycharmProjects/Reinvent-master-3.2/result/LINK_invent/BTK/process_docking_weight1_custom_product_contain_oxygen_bond_distance_aromatic_linkinvent_7_9_3/rearranged_h_0129.sdf

> <i_m_source_file_index>
82

> <r_mmod_Potential_Energy-OPLS-2005>
46.632137298584

> <r_mmod_Stretch_Energy-OPLS-2005>
66.1251678466797

> <r_mmod_Bend_Energy-OPLS-2005>
146.916305541992

> <r_mmod_Torsional_Energy-OPLS-2005>
220.333999633789

> <r_mmod_Improper_Torsional_Energy-OPLS-2005>
4.23571729660034

> <r_mmod_Van_der_Waal_Energy-OPLS-2005>
149.124633789062

> <r_mmod_Electrostatic_Energy-OPLS-2005>
-376.441619873047

> <r_mmod_Solvation_Energy-OPLS-2005>
-195.79866027832

> <b_mmod_Minimization_Converged-OPLS-2005>
0

> <r_mmod_RMS_Derivative-OPLS-2005>
0.779637455940247

$$$$
82
                    3D
 Structure written by MMmdl.
151159  0  0  1  0            999 V2000
  -30.6656  -14.6236   20.4692 C   0  0  0  0  0  0
  -30.4158  -12.3707   19.4766 C   0  0  0  0  0  0
  -29.5063  -12.4967   18.2351 C   0  0  0  0  0  0
  -28.0265  -12.3479   18.6367 C   0  0  0  0  0  0
  -27.6471  -13.2286   19.8581 C   0  0  2  0  0  0
  -28.6855  -13.1122   20.9941 C   0  0  0  0  0  0
  -25.2527  -13.8203   20.5693 C   0  0  0  0  0  0
  -24.1807  -13.0449   20.9187 C   0  0  0  0  0  0
  -24.6391  -11.6924   20.8733 C   0  0  0  0  0  0
  -23.9069  -10.4299   21.0400 C   0  0  0  0  0  0
  -24.3621   -9.4214   21.9179 C   0  0  0  0  0  0
  -23.6296   -8.2249   22.0752 C   0  0  0  0  0  0
  -22.4278   -8.0284   21.3544 C   0  0  0  0  0  0
  -21.9912   -9.0257   20.4646 C   0  0  0  0  0  0
  -22.7240  -10.2137   20.3053 C   0  0  0  0  0  0
  -21.6856   -6.0737   22.5279 C   0  0  0  0  0  0
  -21.4016   -6.5641   23.8212 C   0  0  0  0  0  0
  -21.3660   -5.6793   24.9174 C   0  0  0  0  0  0
  -21.6044   -4.3056   24.7225 C   0  0  0  0  0  0
  -21.8819   -3.8147   23.4346 C   0  0  0  0  0  0
  -21.9194   -4.6964   22.3402 C   0  0  0  0  0  0
  -22.7829  -13.5230   21.1856 C   0  0  0  0  0  0
  -22.1661   -4.2150   21.0980 F   0  0  0  0  0  0
  -21.5628   -3.4539   25.7737 F   0  0  0  0  0  0
  -30.0061  -13.4213   20.4342 N   0  0  0  0  0  0
  -26.2956  -12.9408   20.3298 N   0  0  0  0  0  0
  -25.9322  -11.6549   20.5745 N   0  0  0  0  0  0
  -22.0481  -12.8217   22.0417 N   0  0  0  0  0  0
  -25.4243  -15.1925   20.4141 N   0  0  0  0  0  0
  -31.8419  -14.6804   20.0989 O   0  0  0  0  0  0
  -21.6643   -6.8880   21.4241 O   0  0  0  0  0  0
  -22.3507  -14.5535   20.6707 O   0  0  0  0  0  0
  -24.6228  -31.8605   23.2026 C   0  0  0  0  0  0
  -25.9087  -32.4780   23.8348 C   0  0  1  0  0  0
  -27.2266  -27.3398   20.1096 C   0  0  0  0  0  0
  -25.5912  -33.8581   24.2278 N   0  0  0  0  0  0
  -23.4149  -30.4829   21.5444 C   0  0  2  0  0  0
  -24.8602  -28.9364   20.1089 C   0  0  0  0  0  0
  -22.7453  -29.4624   22.4945 C   0  0  0  0  0  0
  -18.0280  -28.1382   22.8489 C   0  0  0  0  0  0
  -24.1489  -36.7297   23.2640 C   0  0  0  0  0  0
  -25.9519  -30.7967   21.3693 C   0  0  0  0  0  0
  -26.0243  -29.4245   20.7133 C   0  0  0  0  0  0
  -27.2060  -28.6337   20.7090 C   0  0  0  0  0  0
  -26.0376  -26.8878   19.4948 C   0  0  0  0  0  0
  -24.8669  -27.6726   19.4946 C   0  0  0  0  0  0
  -23.6271  -29.8145   20.1594 C   0  0  0  0  0  0
  -25.4113  -36.3086   24.0330 C   0  0  1  0  0  0
  -20.5877  -28.3680   23.1295 C   0  0  2  0  0  0
  -20.6769  -26.9406   22.5416 C   0  0  0  0  0  0
  -19.5747  -26.6384   21.5214 C   0  0  0  0  0  0
  -18.1926  -26.7927   22.1624 C   0  0  0  0  0  0
  -19.1532  -28.8848   23.2888 C   0  0  0  0  0  0
  -18.9457  -30.1451   23.8903 C   0  0  0  0  0  0
  -17.6458  -30.6586   24.0564 C   0  0  0  0  0  0
  -25.9047  -34.9454   23.5106 C   0  0  0  0  0  0
  -16.5349  -29.9086   23.6328 C   0  0  0  0  0  0
  -16.7268  -28.6503   23.0350 C   0  0  0  0  0  0
  -26.4486  -31.6588   25.0713 C   0  0  0  0  0  0
  -25.3730  -31.3719   26.1449 C   0  0  0  0  0  0
  -27.0327  -30.3017   24.6151 C   0  0  0  0  0  0
  -27.6049  -32.4322   25.7480 C   0  0  0  0  0  0
  -27.5580  -37.1803   24.8465 C   0  0  0  0  0  0
  -21.4170  -29.3034   22.3690 N   0  0  0  0  0  0
  -26.4294  -37.3778   23.9407 N   0  0  0  0  0  0
  -24.6818  -31.0634   22.0962 N   0  0  0  0  0  0
  -23.4189  -28.8172   23.3022 O   0  0  0  0  0  0
  -28.3766  -26.5504   20.1805 O   0  0  0  0  0  0
  -26.5619  -34.8920   22.4675 O   0  0  0  0  0  0
  -23.5400  -32.1394   23.7373 O   0  0  0  0  0  0
  -29.1440  -19.1093   21.3324 C   0  0  0  0  0  0
  -30.1295  -19.3519   19.1558 C   0  0  0  0  0  0
  -28.9465  -20.5282   21.3876 C   0  0  0  0  0  0
  -29.9196  -20.7554   19.1998 C   0  0  0  0  0  0
  -29.8018  -18.4906   20.2348 C   0  0  0  0  0  0
  -29.3654  -21.3919   20.3352 C   0  0  0  0  0  0
  -30.2367  -17.0385   20.1322 C   0  0  0  0  0  0
  -29.9108  -15.8738   20.7844 C   0  0  0  0  0  0
  -28.2917  -23.9533   20.2999 C   0  0  0  0  0  0
  -29.4882  -22.9527   20.4783 C   0  0  0  0  0  0
  -28.5192  -25.2717   19.4665 C   0  0  0  0  0  0
  -27.1923  -23.7137   20.8098 O   0  0  0  0  0  0
  -31.4642  -12.4467   19.1840 H   0  0  0  0  0  0
  -30.3103  -11.3845   19.9313 H   0  0  0  0  0  0
  -29.7706  -11.7405   17.4949 H   0  0  0  0  0  0
  -29.6645  -13.4643   17.7561 H   0  0  0  0  0  0
  -27.8554  -11.2967   18.8714 H   0  0  0  0  0  0
  -27.3791  -12.5781   17.7897 H   0  0  0  0  0  0
  -27.6609  -14.2611   19.5080 H   0  0  0  0  0  0
  -28.6850  -12.1047   21.4124 H   0  0  0  0  0  0
  -28.4341  -13.7765   21.8209 H   0  0  0  0  0  0
  -25.2766   -9.5692   22.4752 H   0  0  0  0  0  0
  -24.0007   -7.4642   22.7472 H   0  0  0  0  0  0
  -21.0843   -8.8775   19.8953 H   0  0  0  0  0  0
  -22.3695  -10.9674   19.6162 H   0  0  0  0  0  0
  -21.2010   -7.6149   23.9716 H   0  0  0  0  0  0
  -21.1482   -6.0523   25.9077 H   0  0  0  0  0  0
  -22.0597   -2.7610   23.2846 H   0  0  0  0  0  0
  -22.4104  -11.9880   22.4802 H   0  0  0  0  0  0
  -21.1099  -13.1238   22.2630 H   0  0  0  0  0  0
  -24.6632  -15.8520   20.5339 H   0  0  0  0  0  0
  -26.2869  -15.6328   20.1180 H   0  0  0  0  0  0
  -26.7152  -32.5454   23.1095 H   0  0  0  0  0  0
  -25.0055  -33.9728   25.0420 H   0  0  0  0  0  0
  -22.7076  -31.3025   21.4018 H   0  0  0  0  0  0
  -23.3748  -35.9633   23.3307 H   0  0  0  0  0  0
  -24.3580  -36.8914   22.2053 H   0  0  0  0  0  0
  -23.7246  -37.6503   23.6658 H   0  0  0  0  0  0
  -26.0793  -31.5601   20.6006 H   0  0  0  0  0  0
  -26.8342  -30.8465   21.9959 H   0  0  0  0  0  0
  -28.1011  -29.0038   21.1892 H   0  0  0  0  0  0
  -25.9789  -25.9117   19.0377 H   0  0  0  0  0  0
  -23.9695  -27.2890   19.0287 H   0  0  0  0  0  0
  -23.7430  -30.5897   19.4010 H   0  0  0  0  0  0
  -22.7476  -29.2415   19.8602 H   0  0  0  0  0  0
  -25.1295  -36.1940   25.0823 H   0  0  0  0  0  0
  -20.9970  -28.3253   24.1416 H   0  0  0  0  0  0
  -20.5668  -26.2288   23.3612 H   0  0  0  0  0  0
  -21.6639  -26.7438   22.1211 H   0  0  0  0  0  0
  -19.6909  -25.6296   21.1240 H   0  0  0  0  0  0
  -19.6688  -27.3197   20.6747 H   0  0  0  0  0  0
  -17.4197  -26.6676   21.4024 H   0  0  0  0  0  0
  -18.0325  -26.0067   22.9018 H   0  0  0  0  0  0
  -19.7933  -30.7265   24.2275 H   0  0  0  0  0  0
  -17.5013  -31.6267   24.5164 H   0  0  0  0  0  0
  -15.5349  -30.2990   23.7649 H   0  0  0  0  0  0
  -15.8668  -28.0824   22.7061 H   0  0  0  0  0  0
  -24.5904  -30.7066   25.7782 H   0  0  0  0  0  0
  -24.8922  -32.2882   26.4883 H   0  0  0  0  0  0
  -25.8065  -30.8893   27.0217 H   0  0  0  0  0  0
  -26.2891  -29.6767   24.1190 H   0  0  0  0  0  0
  -27.4051  -29.7272   25.4643 H   0  0  0  0  0  0
  -27.8748  -30.4312   23.9348 H   0  0  0  0  0  0
  -27.2660  -33.3617   26.2067 H   0  0  0  0  0  0
  -28.3852  -32.6892   25.0303 H   0  0  0  0  0  0
  -28.0726  -31.8443   26.5388 H   0  0  0  0  0  0
  -28.2602  -38.0096   24.7506 H   0  0  0  0  0  0
  -28.1072  -36.2628   24.6297 H   0  0  0  0  0  0
  -27.2298  -37.1460   25.8868 H   0  0  0  0  0  0
  -20.9342  -29.8752   21.6900 H   0  0  0  0  0  0
  -26.0177  -38.2856   24.1403 H   0  0  0  0  0  0
  -28.8569  -18.5071   22.1831 H   0  0  0  0  0  0
  -30.6150  -18.9405   18.2814 H   0  0  0  0  0  0
  -28.5302  -20.9590   22.2881 H   0  0  0  0  0  0
  -30.2718  -21.3548   18.3713 H   0  0  0  0  0  0
  -31.0114  -16.9249   19.3849 H   0  0  0  0  0  0
  -29.1361  -15.8750   21.5355 H   0  0  0  0  0  0
  -30.2730  -23.2755   19.7945 H   0  0  0  0  0  0
  -29.8922  -23.1447   21.4720 H   0  0  0  0  0  0
  -27.8974  -25.2447   18.5732 H   0  0  0  0  0  0
  -29.5423  -25.2422   19.0927 H   0  0  0  0  0  0
  1 25  1  0  0  0
  1 30  2  0  0  0
  1 78  1  0  0  0
  2  3  1  0  0  0
  2 25  1  0  0  0
  2 83  1  0  0  0
  2 84  1  0  0  0
  3  4  1  0  0  0
  3 85  1  0  0  0
  3 86  1  0  0  0
  4  5  1  0  0  0
  4 87  1  0  0  0
  4 88  1  0  0  0
  5  6  1  0  0  0
  5 26  1  0  0  0
  5 89  1  0  0  0
  6 25  1  0  0  0
  6 90  1  0  0  0
  6 91  1  0  0  0
  7  8  2  0  0  0
  7 26  1  0  0  0
  7 29  1  0  0  0
  8  9  1  0  0  0
  8 22  1  0  0  0
  9 10  1  0  0  0
  9 27  2  0  0  0
 10 11  2  0  0  0
 10 15  1  0  0  0
 11 12  1  0  0  0
 11 92  1  0  0  0
 12 13  2  0  0  0
 12 93  1  0  0  0
 13 14  1  0  0  0
 13 31  1  0  0  0
 14 15  2  0  0  0
 14 94  1  0  0  0
 15 95  1  0  0  0
 16 17  2  0  0  0
 16 21  1  0  0  0
 16 31  1  0  0  0
 17 18  1  0  0  0
 17 96  1  0  0  0
 18 19  2  0  0  0
 18 97  1  0  0  0
 19 20  1  0  0  0
 19 24  1  0  0  0
 20 21  2  0  0  0
 20 98  1  0  0  0
 21 23  1  0  0  0
 22 28  1  0  0  0
 22 32  2  0  0  0
 26 27  1  0  0  0
 28 99  1  0  0  0
 28100  1  0  0  0
 29101  1  0  0  0
 29102  1  0  0  0
 33 34  1  0  0  0
 33 66  1  0  0  0
 33 70  2  0  0  0
 34 36  1  0  0  0
 34 59  1  0  0  0
 34103  1  0  0  0
 35 44  2  0  0  0
 35 45  1  0  0  0
 35 68  1  0  0  0
 36 56  1  0  0  0
 36104  1  0  0  0
 37 39  1  0  0  0
 37 47  1  0  0  0
 37 66  1  0  0  0
 37105  1  0  0  0
 38 43  2  0  0  0
 38 46  1  0  0  0
 38 47  1  0  0  0
 39 64  1  0  0  0
 39 67  2  0  0  0
 40 52  1  0  0  0
 40 53  2  0  0  0
 40 58  1  0  0  0
 41106  1  0  0  0
 41107  1  0  0  0
 41108  1  0  0  0
 41 48  1  0  0  0
 42 43  1  0  0  0
 42 66  1  0  0  0
 42109  1  0  0  0
 42110  1  0  0  0
 43 44  1  0  0  0
 44111  1  0  0  0
 45 46  2  0  0  0
 45112  1  0  0  0
 46113  1  0  0  0
 47114  1  0  0  0
 47115  1  0  0  0
 48 56  1  0  0  0
 48 65  1  0  0  0
 48116  1  0  0  0
 49 50  1  0  0  0
 49 53  1  0  0  0
 49 64  1  0  0  0
 49117  1  0  0  0
 50 51  1  0  0  0
 50118  1  0  0  0
 50119  1  0  0  0
 51 52  1  0  0  0
 51120  1  0  0  0
 51121  1  0  0  0
 52122  1  0  0  0
 52123  1  0  0  0
 53 54  1  0  0  0
 54 55  2  0  0  0
 54124  1  0  0  0
 55 57  1  0  0  0
 55125  1  0  0  0
 56 69  2  0  0  0
 57 58  2  0  0  0
 57126  1  0  0  0
 58127  1  0  0  0
 59 60  1  0  0  0
 59 61  1  0  0  0
 59 62  1  0  0  0
 60128  1  0  0  0
 60129  1  0  0  0
 60130  1  0  0  0
 61131  1  0  0  0
 61132  1  0  0  0
 61133  1  0  0  0
 62134  1  0  0  0
 62135  1  0  0  0
 62136  1  0  0  0
 63 65  1  0  0  0
 63137  1  0  0  0
 63138  1  0  0  0
 63139  1  0  0  0
 64140  1  0  0  0
 65141  1  0  0  0
 68 81  1  0  0  0
 71 73  2  0  0  0
 71 75  1  0  0  0
 71142  1  0  0  0
 72 74  1  0  0  0
 72 75  2  0  0  0
 72143  1  0  0  0
 73 76  1  0  0  0
 73144  1  0  0  0
 74 76  2  0  0  0
 74145  1  0  0  0
 75 77  1  0  0  0
 76 80  1  0  0  0
 77 78  2  0  0  0
 77146  1  0  0  0
 78147  1  0  0  0
 79 80  1  0  0  0
 79 81  1  0  0  0
 79 82  2  0  0  0
 80148  1  0  0  0
 80149  1  0  0  0
 81150  1  0  0  0
 81151  1  0  0  0
M  ISO  4   1 100  68 101  78 100  81 101
M  END
> <chiral flag>
0

> <version>
0

> <s_m_source_file>
/data/baiqing/PycharmProjects/Reinvent-master-3.2/result/LINK_invent/BTK/process_docking_weight1_custom_product_contain_oxygen_bond_distance_aromatic_linkinvent_7_9_3/rearranged_h_0129.sdf

> <i_m_source_file_index>
83

> <r_mmod_Potential_Energy-OPLS-2005>
110.914978027344

> <r_mmod_Stretch_Energy-OPLS-2005>
70.5323867797852

> <r_mmod_Bend_Energy-OPLS-2005>
155.36393737793

> <r_mmod_Torsional_Energy-OPLS-2005>
203.817642211914

> <r_mmod_Improper_Torsional_Energy-OPLS-2005>
5.61722326278687

> <r_mmod_Van_der_Waal_Energy-OPLS-2005>
142.127059936523

> <r_mmod_Electrostatic_Energy-OPLS-2005>
-294.626342773438

> <r_mmod_Solvation_Energy-OPLS-2005>
-214.423080444336

> <b_mmod_Minimization_Converged-OPLS-2005>
0

> <r_mmod_RMS_Derivative-OPLS-2005>
0.0581215284764767

$$$$
83
                    3D
 Structure written by MMmdl.
156164  0  0  1  0            999 V2000
  -30.5953  -14.7449   20.4986 C   0  0  0  0  0  0
  -30.4425  -12.4580   19.4775 C   0  0  0  0  0  0
  -29.5174  -12.5351   18.2407 C   0  0  0  0  0  0
  -28.0389  -12.3547   18.6410 C   0  0  0  0  0  0
  -27.6484  -13.2306   19.8616 C   0  0  2  0  0  0
  -28.6904  -13.0970   20.9910 C   0  0  0  0  0  0
  -25.2527  -13.8197   20.5695 C   0  0  0  0  0  0
  -24.1803  -13.0447   20.9196 C   0  0  0  0  0  0
  -24.6380  -11.6924   20.8718 C   0  0  0  0  0  0
  -23.9053  -10.4302   21.0376 C   0  0  0  0  0  0
  -24.3605   -9.4229   21.9164 C   0  0  0  0  0  0
  -23.6296   -8.2252   22.0740 C   0  0  0  0  0  0
  -22.4269   -8.0270   21.3538 C   0  0  0  0  0  0
  -21.9900   -9.0243   20.4637 C   0  0  0  0  0  0
  -22.7214  -10.2133   20.3036 C   0  0  0  0  0  0
  -21.6853   -6.0733   22.5283 C   0  0  0  0  0  0
  -21.4019   -6.5642   23.8219 C   0  0  0  0  0  0
  -21.3670   -5.6791   24.9179 C   0  0  0  0  0  0
  -21.6037   -4.3050   24.7225 C   0  0  0  0  0  0
  -21.8818   -3.8143   23.4340 C   0  0  0  0  0  0
  -21.9199   -4.6966   22.3404 C   0  0  0  0  0  0
  -22.7817  -13.5216   21.1894 C   0  0  0  0  0  0
  -22.1663   -4.2163   21.0974 F   0  0  0  0  0  0
  -21.5635   -3.4528   25.7733 F   0  0  0  0  0  0
  -29.9966  -13.4975   20.4389 N   0  0  0  0  0  0
  -26.2959  -12.9408   20.3289 N   0  0  0  0  0  0
  -25.9316  -11.6548   20.5718 N   0  0  0  0  0  0
  -22.0450  -12.8207   22.0442 N   0  0  0  0  0  0
  -25.4239  -15.1925   20.4123 N   0  0  0  0  0  0
  -31.7337  -14.8764   20.0373 O   0  0  0  0  0  0
  -21.6639   -6.8867   21.4239 O   0  0  0  0  0  0
  -22.3482  -14.5517   20.6746 O   0  0  0  0  0  0
  -24.6327  -31.8545   23.1969 C   0  0  0  0  0  0
  -25.9141  -32.4741   23.8318 C   0  0  1  0  0  0
  -27.2171  -27.2470   20.1502 C   0  0  0  0  0  0
  -25.5932  -33.8549   24.2250 N   0  0  0  0  0  0
  -23.4279  -30.4764   21.5407 C   0  0  2  0  0  0
  -24.8751  -28.9182   20.1134 C   0  0  0  0  0  0
  -22.7497  -29.4606   22.4914 C   0  0  0  0  0  0
  -18.0294  -28.1404   22.8496 C   0  0  0  0  0  0
  -24.1479  -36.7291   23.2638 C   0  0  0  0  0  0
  -25.9731  -30.7664   21.3731 C   0  0  0  0  0  0
  -26.0474  -29.3851   20.7237 C   0  0  0  0  0  0
  -27.2227  -28.5642   20.7266 C   0  0  0  0  0  0
  -26.0243  -26.8506   19.5067 C   0  0  0  0  0  0
  -24.8696  -27.6591   19.4928 C   0  0  0  0  0  0
  -23.6451  -29.8075   20.1581 C   0  0  0  0  0  0
  -25.4105  -36.3063   24.0323 C   0  0  1  0  0  0
  -20.5899  -28.3716   23.1284 C   0  0  2  0  0  0
  -20.6789  -26.9436   22.5428 C   0  0  0  0  0  0
  -19.5756  -26.6397   21.5238 C   0  0  0  0  0  0
  -18.1931  -26.7945   22.1645 C   0  0  0  0  0  0
  -19.1548  -28.8875   23.2883 C   0  0  0  0  0  0
  -18.9470  -30.1480   23.8893 C   0  0  0  0  0  0
  -17.6467  -30.6601   24.0571 C   0  0  0  0  0  0
  -25.9059  -34.9432   23.5097 C   0  0  0  0  0  0
  -16.5359  -29.9099   23.6333 C   0  0  0  0  0  0
  -16.7280  -28.6521   23.0344 C   0  0  0  0  0  0
  -26.4498  -31.6565   25.0705 C   0  0  0  0  0  0
  -25.3701  -31.3751   26.1410 C   0  0  0  0  0  0
  -27.0336  -30.2961   24.6207 C   0  0  0  0  0  0
  -27.6034  -32.4313   25.7495 C   0  0  0  0  0  0
  -27.5578  -37.1793   24.8463 C   0  0  0  0  0  0
  -21.4205  -29.3049   22.3657 N   0  0  0  0  0  0
  -26.4273  -37.3770   23.9417 N   0  0  0  0  0  0
  -24.6976  -31.0510   22.0938 N   0  0  0  0  0  0
  -23.4189  -28.8159   23.3031 O   0  0  0  0  0  0
  -28.3068  -26.3421   20.1783 O   0  0  0  0  0  0
  -26.5645  -34.8909   22.4676 O   0  0  0  0  0  0
  -23.5475  -32.1384   23.7263 O   0  0  0  0  0  0
  -28.5952  -20.3368   23.1689 C   0  0  0  0  0  0
  -28.4390  -19.6218   24.3596 C   0  0  0  0  0  0
  -29.3211  -17.6982   23.2441 C   0  0  0  0  0  0
  -29.1089  -19.8054   21.9432 C   0  0  0  0  0  0
  -29.4574  -18.3478   21.9796 C   0  0  0  0  0  0
  -28.8251  -18.2901   24.4066 C   0  0  0  0  0  0
  -29.2524  -20.9592   20.8939 C   0  0  0  0  0  0
  -30.0364  -17.2852   20.9979 C   0  0  0  0  0  0
  -29.8358  -15.9001   21.1112 C   0  0  0  0  0  0
  -28.7071  -22.2531   20.9741 C   0  0  0  0  0  0
  -28.7362  -17.4968   25.6962 C   0  0  0  0  0  0
  -28.9030  -23.6152   20.1633 C   0  0  0  0  0  0
  -28.0719  -24.9301   20.6648 C   0  0  0  0  0  0
  -31.4848  -12.5855   19.1807 H   0  0  0  0  0  0
  -30.3920  -11.4663   19.9304 H   0  0  0  0  0  0
  -29.8003  -11.7821   17.5044 H   0  0  0  0  0  0
  -29.6475  -13.5027   17.7539 H   0  0  0  0  0  0
  -27.8847  -11.3008   18.8764 H   0  0  0  0  0  0
  -27.3891  -12.5755   17.7938 H   0  0  0  0  0  0
  -27.6624  -14.2668   19.5210 H   0  0  0  0  0  0
  -28.7265  -12.0646   21.3413 H   0  0  0  0  0  0
  -28.3992  -13.6709   21.8686 H   0  0  0  0  0  0
  -25.2738   -9.5745   22.4750 H   0  0  0  0  0  0
  -24.0037   -7.4640   22.7445 H   0  0  0  0  0  0
  -21.0843   -8.8721   19.8930 H   0  0  0  0  0  0
  -22.3634  -10.9662   19.6152 H   0  0  0  0  0  0
  -21.1998   -7.6148   23.9740 H   0  0  0  0  0  0
  -21.1504   -6.0506   25.9090 H   0  0  0  0  0  0
  -22.0589   -2.7611   23.2829 H   0  0  0  0  0  0
  -22.4029  -11.9860   22.4867 H   0  0  0  0  0  0
  -21.1060  -13.1240   22.2608 H   0  0  0  0  0  0
  -24.6631  -15.8527   20.5295 H   0  0  0  0  0  0
  -26.2878  -15.6362   20.1261 H   0  0  0  0  0  0
  -26.7206  -32.5376   23.1059 H   0  0  0  0  0  0
  -24.9985  -33.9683   25.0324 H   0  0  0  0  0  0
  -22.7237  -31.2979   21.3946 H   0  0  0  0  0  0
  -23.3728  -35.9638   23.3284 H   0  0  0  0  0  0
  -24.3574  -36.8936   22.2061 H   0  0  0  0  0  0
  -23.7240  -37.6485   23.6681 H   0  0  0  0  0  0
  -26.1023  -31.5211   20.5956 H   0  0  0  0  0  0
  -26.8543  -30.8256   22.0004 H   0  0  0  0  0  0
  -28.1189  -28.9192   21.2143 H   0  0  0  0  0  0
  -25.9695  -25.8864   19.0207 H   0  0  0  0  0  0
  -23.9728  -27.2973   19.0087 H   0  0  0  0  0  0
  -23.7680  -30.5824   19.4012 H   0  0  0  0  0  0
  -22.7601  -29.2441   19.8553 H   0  0  0  0  0  0
  -25.1283  -36.1901   25.0814 H   0  0  0  0  0  0
  -21.0003  -28.3303   24.1400 H   0  0  0  0  0  0
  -20.5728  -26.2324   23.3631 H   0  0  0  0  0  0
  -21.6646  -26.7477   22.1195 H   0  0  0  0  0  0
  -19.6925  -25.6306   21.1266 H   0  0  0  0  0  0
  -19.6691  -27.3209   20.6764 H   0  0  0  0  0  0
  -17.4213  -26.6705   21.4033 H   0  0  0  0  0  0
  -18.0315  -26.0086   22.9039 H   0  0  0  0  0  0
  -19.7941  -30.7311   24.2242 H   0  0  0  0  0  0
  -17.5013  -31.6271   24.5189 H   0  0  0  0  0  0
  -15.5359  -30.3004   23.7651 H   0  0  0  0  0  0
  -15.8677  -28.0847   22.7047 H   0  0  0  0  0  0
  -24.5859  -30.7118   25.7738 H   0  0  0  0  0  0
  -24.8906  -32.2942   26.4790 H   0  0  0  0  0  0
  -25.7987  -30.8946   27.0211 H   0  0  0  0  0  0
  -26.2933  -29.6702   24.1199 H   0  0  0  0  0  0
  -27.3958  -29.7225   25.4751 H   0  0  0  0  0  0
  -27.8837  -30.4193   23.9487 H   0  0  0  0  0  0
  -27.2608  -33.3600   26.2066 H   0  0  0  0  0  0
  -28.3853  -32.6894   25.0343 H   0  0  0  0  0  0
  -28.0680  -31.8438   26.5419 H   0  0  0  0  0  0
  -28.2574  -38.0106   24.7506 H   0  0  0  0  0  0
  -28.1089  -36.2638   24.6271 H   0  0  0  0  0  0
  -27.2309  -37.1419   25.8866 H   0  0  0  0  0  0
  -20.9399  -29.8731   21.6820 H   0  0  0  0  0  0
  -26.0146  -38.2838   24.1419 H   0  0  0  0  0  0
  -28.3435  -21.3709   23.3035 H   0  0  0  0  0  0
  -28.0680  -20.1211   25.2457 H   0  0  0  0  0  0
  -29.6636  -16.6874   23.4029 H   0  0  0  0  0  0
  -29.9072  -20.7371   20.0629 H   0  0  0  0  0  0
  -30.7335  -17.6547   20.2588 H   0  0  0  0  0  0
  -29.0624  -15.6044   21.7971 H   0  0  0  0  0  0
  -28.0004  -22.4604   21.7568 H   0  0  0  0  0  0
  -29.0560  -18.1003   26.5446 H   0  0  0  0  0  0
  -29.3698  -16.6088   25.6693 H   0  0  0  0  0  0
  -27.7111  -17.1728   25.8742 H   0  0  0  0  0  0
  -28.6857  -23.4307   19.1125 H   0  0  0  0  0  0
  -29.9660  -23.8542   20.2041 H   0  0  0  0  0  0
  -28.2249  -24.9944   21.7434 H   0  0  0  0  0  0
  -27.0157  -24.6806   20.5715 H   0  0  0  0  0  0
  1 25  1  0  0  0
  1 30  2  0  0  0
  1 79  1  0  0  0
  2  3  1  0  0  0
  2 25  1  0  0  0
  2 84  1  0  0  0
  2 85  1  0  0  0
  3  4  1  0  0  0
  3 86  1  0  0  0
  3 87  1  0  0  0
  4  5  1  0  0  0
  4 88  1  0  0  0
  4 89  1  0  0  0
  5  6  1  0  0  0
  5 26  1  0  0  0
  5 90  1  0  0  0
  6 25  1  0  0  0
  6 91  1  0  0  0
  6 92  1  0  0  0
  7  8  2  0  0  0
  7 26  1  0  0  0
  7 29  1  0  0  0
  8  9  1  0  0  0
  8 22  1  0  0  0
  9 10  1  0  0  0
  9 27  2  0  0  0
 10 11  2  0  0  0
 10 15  1  0  0  0
 11 12  1  0  0  0
 11 93  1  0  0  0
 12 13  2  0  0  0
 12 94  1  0  0  0
 13 14  1  0  0  0
 13 31  1  0  0  0
 14 15  2  0  0  0
 14 95  1  0  0  0
 15 96  1  0  0  0
 16 17  2  0  0  0
 16 21  1  0  0  0
 16 31  1  0  0  0
 17 18  1  0  0  0
 17 97  1  0  0  0
 18 19  2  0  0  0
 18 98  1  0  0  0
 19 20  1  0  0  0
 19 24  1  0  0  0
 20 21  2  0  0  0
 20 99  1  0  0  0
 21 23  1  0  0  0
 22 28  1  0  0  0
 22 32  2  0  0  0
 26 27  1  0  0  0
 28100  1  0  0  0
 28101  1  0  0  0
 29102  1  0  0  0
 29103  1  0  0  0
 33 34  1  0  0  0
 33 66  1  0  0  0
 33 70  2  0  0  0
 34 36  1  0  0  0
 34 59  1  0  0  0
 34104  1  0  0  0
 35 44  2  0  0  0
 35 45  1  0  0  0
 35 68  1  0  0  0
 36 56  1  0  0  0
 36105  1  0  0  0
 37 39  1  0  0  0
 37 47  1  0  0  0
 37 66  1  0  0  0
 37106  1  0  0  0
 38 43  2  0  0  0
 38 46  1  0  0  0
 38 47  1  0  0  0
 39 64  1  0  0  0
 39 67  2  0  0  0
 40 52  1  0  0  0
 40 53  2  0  0  0
 40 58  1  0  0  0
 41107  1  0  0  0
 41108  1  0  0  0
 41109  1  0  0  0
 41 48  1  0  0  0
 42 43  1  0  0  0
 42 66  1  0  0  0
 42110  1  0  0  0
 42111  1  0  0  0
 43 44  1  0  0  0
 44112  1  0  0  0
 45 46  2  0  0  0
 45113  1  0  0  0
 46114  1  0  0  0
 47115  1  0  0  0
 47116  1  0  0  0
 48 56  1  0  0  0
 48 65  1  0  0  0
 48117  1  0  0  0
 49 50  1  0  0  0
 49 53  1  0  0  0
 49 64  1  0  0  0
 49118  1  0  0  0
 50 51  1  0  0  0
 50119  1  0  0  0
 50120  1  0  0  0
 51 52  1  0  0  0
 51121  1  0  0  0
 51122  1  0  0  0
 52123  1  0  0  0
 52124  1  0  0  0
 53 54  1  0  0  0
 54 55  2  0  0  0
 54125  1  0  0  0
 55 57  1  0  0  0
 55126  1  0  0  0
 56 69  2  0  0  0
 57 58  2  0  0  0
 57127  1  0  0  0
 58128  1  0  0  0
 59 60  1  0  0  0
 59 61  1  0  0  0
 59 62  1  0  0  0
 60129  1  0  0  0
 60130  1  0  0  0
 60131  1  0  0  0
 61132  1  0  0  0
 61133  1  0  0  0
 61134  1  0  0  0
 62135  1  0  0  0
 62136  1  0  0  0
 62137  1  0  0  0
 63 65  1  0  0  0
 63138  1  0  0  0
 63139  1  0  0  0
 63140  1  0  0  0
 64141  1  0  0  0
 65142  1  0  0  0
 68 83  1  0  0  0
 71 72  2  0  0  0
 71 74  1  0  0  0
 71143  1  0  0  0
 72 76  1  0  0  0
 72144  1  0  0  0
 73 75  1  0  0  0
 73 76  2  0  0  0
 73145  1  0  0  0
 74 75  2  0  0  0
 74 77  1  0  0  0
 75 78  1  0  0  0
 76 81  1  0  0  0
 77 80  2  0  0  0
 77146  1  0  0  0
 78 79  2  0  0  0
 78147  1  0  0  0
 79148  1  0  0  0
 80 82  1  0  0  0
 80149  1  0  0  0
 81150  1  0  0  0
 81151  1  0  0  0
 81152  1  0  0  0
 82 83  1  0  0  0
 82153  1  0  0  0
 82154  1  0  0  0
 83155  1  0  0  0
 83156  1  0  0  0
M  ISO  4   1 100  68 101  79 100  83 101
M  END
> <chiral flag>
0

> <version>
0

> <s_m_source_file>
/data/baiqing/PycharmProjects/Reinvent-master-3.2/result/LINK_invent/BTK/process_docking_weight1_custom_product_contain_oxygen_bond_distance_aromatic_linkinvent_7_9_3/rearranged_h_0129.sdf

> <i_m_source_file_index>
84

> <r_mmod_Potential_Energy-OPLS-2005>
360.210052490234

> <r_mmod_Stretch_Energy-OPLS-2005>
161.256744384766

> <r_mmod_Bend_Energy-OPLS-2005>
232.465911865234

> <r_mmod_Torsional_Energy-OPLS-2005>
221.954574584961

> <r_mmod_Improper_Torsional_Energy-OPLS-2005>
5.79768943786621

> <r_mmod_Van_der_Waal_Energy-OPLS-2005>
169.818130493164

> <r_mmod_Electrostatic_Energy-OPLS-2005>
-325.489593505859

> <r_mmod_Solvation_Energy-OPLS-2005>
-190.373809814453

> <b_mmod_Minimization_Converged-OPLS-2005>
0

> <r_mmod_RMS_Derivative-OPLS-2005>
2.39067029953003

$$$$
84
                    3D
 Structure written by MMmdl.
163172  0  0  1  0            999 V2000
  -30.6514  -14.5876   20.4488 C   0  0  0  0  0  0
  -30.4336  -12.3419   19.4600 C   0  0  0  0  0  0
  -29.5081  -12.4670   18.2298 C   0  0  0  0  0  0
  -28.0316  -12.3039   18.6439 C   0  0  0  0  0  0
  -27.6509  -13.1939   19.8540 C   0  0  2  0  0  0
  -28.6950  -13.0679   20.9881 C   0  0  0  0  0  0
  -25.2559  -13.8111   20.5698 C   0  0  0  0  0  0
  -24.1812  -13.0404   20.9163 C   0  0  0  0  0  0
  -24.6369  -11.6870   20.8728 C   0  0  0  0  0  0
  -23.9045  -10.4270   21.0415 C   0  0  0  0  0  0
  -24.3600   -9.4188   21.9191 C   0  0  0  0  0  0
  -23.6274   -8.2228   22.0752 C   0  0  0  0  0  0
  -22.4257   -8.0270   21.3538 C   0  0  0  0  0  0
  -21.9893   -9.0243   20.4633 C   0  0  0  0  0  0
  -22.7227  -10.2115   20.3047 C   0  0  0  0  0  0
  -21.6843   -6.0736   22.5279 C   0  0  0  0  0  0
  -21.4023   -6.5638   23.8215 C   0  0  0  0  0  0
  -21.3647   -5.6781   24.9168 C   0  0  0  0  0  0
  -21.6036   -4.3046   24.7224 C   0  0  0  0  0  0
  -21.8823   -3.8147   23.4343 C   0  0  0  0  0  0
  -21.9197   -4.6968   22.3401 C   0  0  0  0  0  0
  -22.7841  -13.5200   21.1851 C   0  0  0  0  0  0
  -22.1662   -4.2154   21.0978 F   0  0  0  0  0  0
  -21.5613   -3.4523   25.7732 F   0  0  0  0  0  0
  -30.0226  -13.3729   20.4298 N   0  0  0  0  0  0
  -26.2964  -12.9259   20.3272 N   0  0  0  0  0  0
  -25.9274  -11.6438   20.5734 N   0  0  0  0  0  0
  -22.0498  -12.8183   22.0403 N   0  0  0  0  0  0
  -25.4273  -15.1843   20.4256 N   0  0  0  0  0  0
  -31.8486  -14.6887   20.1658 O   0  0  0  0  0  0
  -21.6613   -6.8874   21.4241 O   0  0  0  0  0  0
  -22.3531  -14.5519   20.6712 O   0  0  0  0  0  0
  -24.6198  -31.8670   23.2128 C   0  0  0  0  0  0
  -25.9081  -32.4819   23.8418 C   0  0  1  0  0  0
  -27.2205  -27.3793   20.1071 C   0  0  0  0  0  0
  -25.5920  -33.8621   24.2349 N   0  0  0  0  0  0
  -23.4096  -30.4952   21.5543 C   0  0  2  0  0  0
  -24.8566  -28.9608   20.1216 C   0  0  0  0  0  0
  -22.7413  -29.4680   22.4974 C   0  0  0  0  0  0
  -18.0278  -28.1379   22.8486 C   0  0  0  0  0  0
  -24.1494  -36.7315   23.2636 C   0  0  0  0  0  0
  -25.9463  -30.8096   21.3820 C   0  0  0  0  0  0
  -26.0194  -29.4367   20.7407 C   0  0  0  0  0  0
  -27.2021  -28.6465   20.7514 C   0  0  0  0  0  0
  -26.0464  -26.9597   19.4457 C   0  0  0  0  0  0
  -24.8653  -27.7171   19.4776 C   0  0  0  0  0  0
  -23.6240  -29.8361   20.1689 C   0  0  0  0  0  0
  -25.4113  -36.3117   24.0337 C   0  0  1  0  0  0
  -20.5874  -28.3713   23.1323 C   0  0  2  0  0  0
  -20.6767  -26.9428   22.5468 C   0  0  0  0  0  0
  -19.5793  -26.6452   21.5198 C   0  0  0  0  0  0
  -18.1949  -26.7957   22.1553 C   0  0  0  0  0  0
  -19.1524  -28.8849   23.2907 C   0  0  0  0  0  0
  -18.9453  -30.1443   23.8928 C   0  0  0  0  0  0
  -17.6456  -30.6563   24.0590 C   0  0  0  0  0  0
  -25.9033  -34.9475   23.5132 C   0  0  0  0  0  0
  -16.5341  -29.9072   23.6328 C   0  0  0  0  0  0
  -16.7259  -28.6491   23.0336 C   0  0  0  0  0  0
  -26.4494  -31.6576   25.0740 C   0  0  0  0  0  0
  -25.3760  -31.3650   26.1475 C   0  0  0  0  0  0
  -27.0328  -30.3018   24.6112 C   0  0  0  0  0  0
  -27.6061  -32.4300   25.7511 C   0  0  0  0  0  0
  -27.5579  -37.1825   24.8472 C   0  0  0  0  0  0
  -21.4127  -29.3084   22.3717 N   0  0  0  0  0  0
  -26.4301  -37.3801   23.9406 N   0  0  0  0  0  0
  -24.6771  -31.0725   22.1078 N   0  0  0  0  0  0
  -23.4167  -28.8183   23.3007 O   0  0  0  0  0  0
  -28.3333  -26.5469   20.0493 O   0  0  0  0  0  0
  -26.5582  -34.8916   22.4689 O   0  0  0  0  0  0
  -23.5372  -32.1433   23.7478 O   0  0  0  0  0  0
  -27.3602  -20.3285   19.8276 C   0  0  0  0  0  0
  -27.1676  -19.1337   19.1192 C   0  0  0  0  0  0
  -29.4671  -19.4799   20.6651 C   0  0  0  0  0  0
  -29.2444  -18.2153   20.0297 C   0  0  0  0  0  0
  -28.5506  -20.5769   20.5433 C   0  0  0  0  0  0
  -28.1164  -18.1001   19.1706 C   0  0  0  0  0  0
  -28.9953  -24.3450   21.2587 C   0  0  0  0  0  0
  -28.2976  -23.3179   20.7192 C   0  0  0  0  0  0
  -30.1615  -17.0413   20.2157 C   0  0  0  0  0  0
  -29.7598  -15.7687   20.5050 C   0  0  0  0  0  0
  -30.1141  -23.7958   22.1197 C   0  0  0  0  0  0
  -30.1485  -22.2755   21.8081 C   0  0  0  0  0  0
  -28.7417  -21.9442   21.2826 C   0  0  2  0  0  0
  -27.8951  -16.9195   18.2331 C   0  0  0  0  0  0
  -27.0962  -23.4715   19.8222 C   0  0  0  0  0  0
  -28.7250  -25.8874   21.2779 C   0  0  0  0  0  0
  -31.4787  -12.4434   19.1584 H   0  0  0  0  0  0
  -30.3462  -11.3510   19.9068 H   0  0  0  0  0  0
  -29.7700  -11.7119   17.4864 H   0  0  0  0  0  0
  -29.6563  -13.4368   17.7497 H   0  0  0  0  0  0
  -27.8817  -11.2553   18.9050 H   0  0  0  0  0  0
  -27.3727  -12.4987   17.7964 H   0  0  0  0  0  0
  -27.6594  -14.2130   19.4800 H   0  0  0  0  0  0
  -28.6882  -12.0578   21.4010 H   0  0  0  0  0  0
  -28.4502  -13.7264   21.8238 H   0  0  0  0  0  0
  -25.2757   -9.5643   22.4761 H   0  0  0  0  0  0
  -23.9980   -7.4609   22.7452 H   0  0  0  0  0  0
  -21.0840   -8.8757   19.8924 H   0  0  0  0  0  0
  -22.3713  -10.9649   19.6141 H   0  0  0  0  0  0
  -21.2026   -7.6145   23.9722 H   0  0  0  0  0  0
  -21.1456   -6.0505   25.9065 H   0  0  0  0  0  0
  -22.0622   -2.7608   23.2837 H   0  0  0  0  0  0
  -22.4136  -11.9837   22.4758 H   0  0  0  0  0  0
  -21.1112  -13.1189   22.2633 H   0  0  0  0  0  0
  -24.6624  -15.8375   20.5582 H   0  0  0  0  0  0
  -26.2922  -15.6375   20.1651 H   0  0  0  0  0  0
  -26.7133  -32.5525   23.1156 H   0  0  0  0  0  0
  -25.0092  -33.9774   25.0507 H   0  0  0  0  0  0
  -22.7004  -31.3134   21.4164 H   0  0  0  0  0  0
  -23.3740  -35.9665   23.3345 H   0  0  0  0  0  0
  -24.3567  -36.8885   22.2040 H   0  0  0  0  0  0
  -23.7258  -37.6546   23.6614 H   0  0  0  0  0  0
  -26.0624  -31.5652   20.6036 H   0  0  0  0  0  0
  -26.8345  -30.8712   21.9975 H   0  0  0  0  0  0
  -28.0942  -29.0035   21.2474 H   0  0  0  0  0  0
  -26.0111  -26.0497   18.8742 H   0  0  0  0  0  0
  -23.9772  -27.3539   18.9795 H   0  0  0  0  0  0
  -23.7397  -30.6159   19.4141 H   0  0  0  0  0  0
  -22.7471  -29.2625   19.8649 H   0  0  0  0  0  0
  -25.1294  -36.1996   25.0831 H   0  0  0  0  0  0
  -20.9990  -28.3310   24.1440 H   0  0  0  0  0  0
  -20.5570  -26.2348   23.3684 H   0  0  0  0  0  0
  -21.6670  -26.7475   22.1301 H   0  0  0  0  0  0
  -19.6974  -25.6412   21.1119 H   0  0  0  0  0  0
  -19.6778  -27.3352   20.6806 H   0  0  0  0  0  0
  -17.4271  -26.6831   21.3899 H   0  0  0  0  0  0
  -18.0286  -26.0015   22.8855 H   0  0  0  0  0  0
  -19.7922  -30.7233   24.2348 H   0  0  0  0  0  0
  -17.5013  -31.6217   24.5242 H   0  0  0  0  0  0
  -15.5339  -30.2980   23.7647 H   0  0  0  0  0  0
  -15.8648  -28.0815   22.7041 H   0  0  0  0  0  0
  -24.5935  -30.7000   25.7798 H   0  0  0  0  0  0
  -24.8939  -32.2799   26.4949 H   0  0  0  0  0  0
  -25.8111  -30.8800   27.0225 H   0  0  0  0  0  0
  -26.2875  -29.6790   24.1139 H   0  0  0  0  0  0
  -27.4081  -29.7230   25.4566 H   0  0  0  0  0  0
  -27.8735  -30.4349   23.9288 H   0  0  0  0  0  0
  -27.2665  -33.3565   26.2148 H   0  0  0  0  0  0
  -28.3839  -32.6912   25.0327 H   0  0  0  0  0  0
  -28.0768  -31.8395   26.5381 H   0  0  0  0  0  0
  -28.2640  -38.0087   24.7486 H   0  0  0  0  0  0
  -28.1040  -36.2614   24.6355 H   0  0  0  0  0  0
  -27.2285  -37.1553   25.8876 H   0  0  0  0  0  0
  -20.9293  -29.8782   21.6921 H   0  0  0  0  0  0
  -26.0195  -38.2892   24.1371 H   0  0  0  0  0  0
  -26.5560  -21.0429   19.7979 H   0  0  0  0  0  0
  -26.2727  -19.0156   18.5228 H   0  0  0  0  0  0
  -30.3509  -19.5974   21.2783 H   0  0  0  0  0  0
  -31.2083  -17.2301   20.0220 H   0  0  0  0  0  0
  -28.7140  -15.6442   20.7287 H   0  0  0  0  0  0
  -29.8711  -23.9752   23.1684 H   0  0  0  0  0  0
  -31.0699  -24.2760   21.9031 H   0  0  0  0  0  0
  -30.4452  -21.6662   22.6642 H   0  0  0  0  0  0
  -30.8681  -22.0938   21.0099 H   0  0  0  0  0  0
  -28.1055  -21.8248   22.1627 H   0  0  0  0  0  0
  -27.5377  -17.2778   17.2674 H   0  0  0  0  0  0
  -27.1357  -16.2468   18.6217 H   0  0  0  0  0  0
  -28.8032  -16.3543   18.0284 H   0  0  0  0  0  0
  -27.0758  -24.4802   19.4510 H   0  0  0  0  0  0
  -26.1685  -23.2646   20.3564 H   0  0  0  0  0  0
  -27.1780  -22.8488   18.9343 H   0  0  0  0  0  0
  -29.6535  -26.3733   21.5807 H   0  0  0  0  0  0
  -28.0158  -26.0942   22.0800 H   0  0  0  0  0  0
  1 25  1  0  0  0
  1 30  2  0  0  0
  1 80  1  0  0  0
  2  3  1  0  0  0
  2 25  1  0  0  0
  2 87  1  0  0  0
  2 88  1  0  0  0
  3  4  1  0  0  0
  3 89  1  0  0  0
  3 90  1  0  0  0
  4  5  1  0  0  0
  4 91  1  0  0  0
  4 92  1  0  0  0
  5  6  1  0  0  0
  5 26  1  0  0  0
  5 93  1  0  0  0
  6 25  1  0  0  0
  6 94  1  0  0  0
  6 95  1  0  0  0
  7  8  2  0  0  0
  7 26  1  0  0  0
  7 29  1  0  0  0
  8  9  1  0  0  0
  8 22  1  0  0  0
  9 10  1  0  0  0
  9 27  2  0  0  0
 10 11  2  0  0  0
 10 15  1  0  0  0
 11 12  1  0  0  0
 11 96  1  0  0  0
 12 13  2  0  0  0
 12 97  1  0  0  0
 13 14  1  0  0  0
 13 31  1  0  0  0
 14 15  2  0  0  0
 14 98  1  0  0  0
 15 99  1  0  0  0
 16 17  2  0  0  0
 16 21  1  0  0  0
 16 31  1  0  0  0
 17 18  1  0  0  0
 17100  1  0  0  0
 18 19  2  0  0  0
 18101  1  0  0  0
 19 20  1  0  0  0
 19 24  1  0  0  0
 20 21  2  0  0  0
 20102  1  0  0  0
 21 23  1  0  0  0
 22 28  1  0  0  0
 22 32  2  0  0  0
 26 27  1  0  0  0
 28103  1  0  0  0
 28104  1  0  0  0
 29105  1  0  0  0
 29106  1  0  0  0
 33 34  1  0  0  0
 33 66  1  0  0  0
 33 70  2  0  0  0
 34 36  1  0  0  0
 34 59  1  0  0  0
 34107  1  0  0  0
 35 44  2  0  0  0
 35 45  1  0  0  0
 35 68  1  0  0  0
 36 56  1  0  0  0
 36108  1  0  0  0
 37 39  1  0  0  0
 37 47  1  0  0  0
 37 66  1  0  0  0
 37109  1  0  0  0
 38 43  2  0  0  0
 38 46  1  0  0  0
 38 47  1  0  0  0
 39 64  1  0  0  0
 39 67  2  0  0  0
 40 52  1  0  0  0
 40 53  2  0  0  0
 40 58  1  0  0  0
 41110  1  0  0  0
 41111  1  0  0  0
 41112  1  0  0  0
 41 48  1  0  0  0
 42 43  1  0  0  0
 42 66  1  0  0  0
 42113  1  0  0  0
 42114  1  0  0  0
 43 44  1  0  0  0
 44115  1  0  0  0
 45 46  2  0  0  0
 45116  1  0  0  0
 46117  1  0  0  0
 47118  1  0  0  0
 47119  1  0  0  0
 48 56  1  0  0  0
 48 65  1  0  0  0
 48120  1  0  0  0
 49 50  1  0  0  0
 49 53  1  0  0  0
 49 64  1  0  0  0
 49121  1  0  0  0
 50 51  1  0  0  0
 50122  1  0  0  0
 50123  1  0  0  0
 51 52  1  0  0  0
 51124  1  0  0  0
 51125  1  0  0  0
 52126  1  0  0  0
 52127  1  0  0  0
 53 54  1  0  0  0
 54 55  2  0  0  0
 54128  1  0  0  0
 55 57  1  0  0  0
 55129  1  0  0  0
 56 69  2  0  0  0
 57 58  2  0  0  0
 57130  1  0  0  0
 58131  1  0  0  0
 59 60  1  0  0  0
 59 61  1  0  0  0
 59 62  1  0  0  0
 60132  1  0  0  0
 60133  1  0  0  0
 60134  1  0  0  0
 61135  1  0  0  0
 61136  1  0  0  0
 61137  1  0  0  0
 62138  1  0  0  0
 62139  1  0  0  0
 62140  1  0  0  0
 63 65  1  0  0  0
 63141  1  0  0  0
 63142  1  0  0  0
 63143  1  0  0  0
 64144  1  0  0  0
 65145  1  0  0  0
 68 86  1  0  0  0
 71 72  2  0  0  0
 71 75  1  0  0  0
 71146  1  0  0  0
 72 76  1  0  0  0
 72147  1  0  0  0
 73 74  1  0  0  0
 73 75  2  0  0  0
 73148  1  0  0  0
 74 76  2  0  0  0
 74 79  1  0  0  0
 75 83  1  0  0  0
 76 84  1  0  0  0
 77 78  2  0  0  0
 77 81  1  0  0  0
 77 86  1  0  0  0
 78 83  1  0  0  0
 78 85  1  0  0  0
 79 80  2  0  0  0
 79149  1  0  0  0
 80150  1  0  0  0
 81 82  1  0  0  0
 81151  1  0  0  0
 81152  1  0  0  0
 82 83  1  0  0  0
 82153  1  0  0  0
 82154  1  0  0  0
 83155  1  0  0  0
 84156  1  0  0  0
 84157  1  0  0  0
 84158  1  0  0  0
 85159  1  0  0  0
 85160  1  0  0  0
 85161  1  0  0  0
 86162  1  0  0  0
 86163  1  0  0  0
M  ISO  4   1 100  68 101  80 100  86 101
M  END
> <chiral flag>
0

> <version>
0

> <s_m_source_file>
/data/baiqing/PycharmProjects/Reinvent-master-3.2/result/LINK_invent/BTK/process_docking_weight1_custom_product_contain_oxygen_bond_distance_aromatic_linkinvent_7_9_3/rearranged_h_0129.sdf

> <i_m_source_file_index>
85

> <r_mmod_Potential_Energy-OPLS-2005>
183.133728027344

> <r_mmod_Stretch_Energy-OPLS-2005>
58.4295768737793

> <r_mmod_Bend_Energy-OPLS-2005>
183.970413208008

> <r_mmod_Torsional_Energy-OPLS-2005>
259.731262207031

> <r_mmod_Improper_Torsional_Energy-OPLS-2005>
9.66106605529785

> <r_mmod_Van_der_Waal_Energy-OPLS-2005>
152.856796264648

> <r_mmod_Electrostatic_Energy-OPLS-2005>
-334.688262939453

> <r_mmod_Solvation_Energy-OPLS-2005>
-182.138458251953

> <b_mmod_Minimization_Converged-OPLS-2005>
0

> <r_mmod_RMS_Derivative-OPLS-2005>
2.82325458526611

$$$$
85
                    3D
 Structure written by MMmdl.
158166  0  0  1  0            999 V2000
  -30.7134  -14.6077   20.5708 C   0  0  0  0  0  0
  -30.4306  -12.3945   19.4616 C   0  0  0  0  0  0
  -29.5131  -12.5252   18.2279 C   0  0  0  0  0  0
  -28.0337  -12.3658   18.6313 C   0  0  0  0  0  0
  -27.6584  -13.2232   19.8686 C   0  0  2  0  0  0
  -28.7011  -13.0690   20.9996 C   0  0  0  0  0  0
  -25.2576  -13.8176   20.5687 C   0  0  0  0  0  0
  -24.1841  -13.0435   20.9142 C   0  0  0  0  0  0
  -24.6395  -11.6906   20.8686 C   0  0  0  0  0  0
  -23.9049  -10.4289   21.0358 C   0  0  0  0  0  0
  -24.3610   -9.4212   21.9144 C   0  0  0  0  0  0
  -23.6267   -8.2262   22.0749 C   0  0  0  0  0  0
  -22.4249   -8.0292   21.3543 C   0  0  0  0  0  0
  -21.9879   -9.0253   20.4643 C   0  0  0  0  0  0
  -22.7213  -10.2129   20.3016 C   0  0  0  0  0  0
  -21.6865   -6.0719   22.5261 C   0  0  0  0  0  0
  -21.4028   -6.5620   23.8198 C   0  0  0  0  0  0
  -21.3657   -5.6776   24.9161 C   0  0  0  0  0  0
  -21.6057   -4.3037   24.7225 C   0  0  0  0  0  0
  -21.8815   -3.8131   23.4341 C   0  0  0  0  0  0
  -21.9196   -4.6942   22.3400 C   0  0  0  0  0  0
  -22.7858  -13.5227   21.1803 C   0  0  0  0  0  0
  -22.1656   -4.2123   21.0970 F   0  0  0  0  0  0
  -21.5635   -3.4522   25.7737 F   0  0  0  0  0  0
  -30.0291  -13.4151   20.4575 N   0  0  0  0  0  0
  -26.3012  -12.9371   20.3316 N   0  0  0  0  0  0
  -25.9331  -11.6513   20.5697 N   0  0  0  0  0  0
  -22.0495  -12.8257   22.0384 N   0  0  0  0  0  0
  -25.4284  -15.1910   20.4178 N   0  0  0  0  0  0
  -31.7799  -14.7849   19.9730 O   0  0  0  0  0  0
  -21.6627   -6.8873   21.4235 O   0  0  0  0  0  0
  -22.3532  -14.5511   20.6611 O   0  0  0  0  0  0
  -24.6267  -31.8630   23.2045 C   0  0  0  0  0  0
  -25.9133  -32.4791   23.8373 C   0  0  1  0  0  0
  -27.2016  -27.3115   20.1200 C   0  0  0  0  0  0
  -25.5931  -33.8596   24.2259 N   0  0  0  0  0  0
  -23.4176  -30.4864   21.5518 C   0  0  2  0  0  0
  -24.8569  -28.9443   20.1109 C   0  0  0  0  0  0
  -22.7474  -29.4605   22.4964 C   0  0  0  0  0  0
  -18.0285  -28.1375   22.8477 C   0  0  0  0  0  0
  -24.1486  -36.7286   23.2636 C   0  0  0  0  0  0
  -25.9618  -30.7878   21.3793 C   0  0  0  0  0  0
  -26.0288  -29.4172   20.7143 C   0  0  0  0  0  0
  -27.2090  -28.6155   20.7019 C   0  0  0  0  0  0
  -26.0096  -26.8937   19.4863 C   0  0  0  0  0  0
  -24.8488  -27.6886   19.4846 C   0  0  0  0  0  0
  -23.6294  -29.8301   20.1631 C   0  0  0  0  0  0
  -25.4119  -36.3086   24.0323 C   0  0  1  0  0  0
  -20.5886  -28.3629   23.1283 C   0  0  2  0  0  0
  -20.6742  -26.9355   22.5415 C   0  0  0  0  0  0
  -19.5733  -26.6400   21.5197 C   0  0  0  0  0  0
  -18.1930  -26.7911   22.1651 C   0  0  0  0  0  0
  -19.1541  -28.8825   23.2878 C   0  0  0  0  0  0
  -18.9471  -30.1433   23.8922 C   0  0  0  0  0  0
  -17.6474  -30.6575   24.0588 C   0  0  0  0  0  0
  -25.9048  -34.9462   23.5075 C   0  0  0  0  0  0
  -16.5370  -29.9078   23.6304 C   0  0  0  0  0  0
  -16.7281  -28.6500   23.0354 C   0  0  0  0  0  0
  -26.4508  -31.6639   25.0760 C   0  0  0  0  0  0
  -25.3705  -31.3807   26.1446 C   0  0  0  0  0  0
  -27.0367  -30.3066   24.6267 C   0  0  0  0  0  0
  -27.6062  -32.4400   25.7519 C   0  0  0  0  0  0
  -27.5592  -37.1800   24.8452 C   0  0  0  0  0  0
  -21.4188  -29.2985   22.3681 N   0  0  0  0  0  0
  -26.4295  -37.3795   23.9406 N   0  0  0  0  0  0
  -24.6882  -31.0613   22.1019 N   0  0  0  0  0  0
  -23.4220  -28.8170   23.3040 O   0  0  0  0  0  0
  -28.3095  -26.4517   20.1401 O   0  0  0  0  0  0
  -26.5608  -34.8929   22.4643 O   0  0  0  0  0  0
  -23.5425  -32.1421   23.7378 O   0  0  0  0  0  0
  -30.5231  -17.7226   19.9041 C   0  0  0  0  0  0
  -30.4084  -19.0890   19.5088 C   0  0  0  0  0  0
  -29.2007  -19.5715   21.5050 C   0  0  0  0  0  0
  -29.9968  -17.2075   21.1265 C   0  0  0  0  0  0
  -29.3059  -18.2028   21.9274 C   0  0  0  0  0  0
  -29.7496  -20.0587   20.3002 C   0  0  0  0  0  0
  -30.2123  -15.7139   21.5635 C   0  0  0  0  0  0
  -27.8138  -18.9206   23.9761 C   0  0  0  0  0  0
  -28.6665  -17.8434   23.2803 C   0  0  0  0  0  0
  -29.0682  -23.9185   19.9928 C   0  0  0  0  0  0
  -28.0914  -25.0428   20.5569 C   0  0  0  0  0  0
  -29.0171  -22.4571   20.6373 C   0  0  0  0  0  0
  -30.0790  -15.3583   22.7731 N   0  0  0  0  0  0
  -29.6867  -21.4021   19.8676 O   0  0  0  0  0  0
  -31.4747  -12.4937   19.1632 H   0  0  0  0  0  0
  -30.3440  -11.3967   19.8937 H   0  0  0  0  0  0
  -29.7804  -11.7802   17.4761 H   0  0  0  0  0  0
  -29.6663  -13.4999   17.7615 H   0  0  0  0  0  0
  -27.8630  -11.3107   18.8417 H   0  0  0  0  0  0
  -27.3831  -12.6139   17.7906 H   0  0  0  0  0  0
  -27.6831  -14.2609   19.5379 H   0  0  0  0  0  0
  -28.7090  -12.0448   21.3749 H   0  0  0  0  0  0
  -28.4089  -13.6831   21.8478 H   0  0  0  0  0  0
  -25.2769   -9.5693   22.4703 H   0  0  0  0  0  0
  -23.9977   -7.4657   22.7476 H   0  0  0  0  0  0
  -21.0808   -8.8764   19.8955 H   0  0  0  0  0  0
  -22.3661  -10.9654   19.6115 H   0  0  0  0  0  0
  -21.2023   -7.6123   23.9697 H   0  0  0  0  0  0
  -21.1483   -6.0501   25.9064 H   0  0  0  0  0  0
  -22.0596   -2.7584   23.2844 H   0  0  0  0  0  0
  -22.4133  -11.9951   22.4819 H   0  0  0  0  0  0
  -21.1100  -13.1295   22.2545 H   0  0  0  0  0  0
  -24.6692  -15.8496   20.5459 H   0  0  0  0  0  0
  -26.2918  -15.6341   20.1299 H   0  0  0  0  0  0
  -26.7200  -32.5457   23.1115 H   0  0  0  0  0  0
  -25.0139  -33.9744   25.0444 H   0  0  0  0  0  0
  -22.7083  -31.3063   21.4172 H   0  0  0  0  0  0
  -23.3786  -35.9591   23.3283 H   0  0  0  0  0  0
  -24.3543  -36.8908   22.2049 H   0  0  0  0  0  0
  -23.7195  -37.6465   23.6661 H   0  0  0  0  0  0
  -26.0995  -31.5625   20.6223 H   0  0  0  0  0  0
  -26.8378  -30.8239   22.0144 H   0  0  0  0  0  0
  -28.1138  -28.9780   21.1663 H   0  0  0  0  0  0
  -25.9559  -25.9393   18.9840 H   0  0  0  0  0  0
  -23.9488  -27.3278   19.0059 H   0  0  0  0  0  0
  -23.7556  -30.6145   19.4158 H   0  0  0  0  0  0
  -22.7446  -29.2695   19.8533 H   0  0  0  0  0  0
  -25.1314  -36.1942   25.0822 H   0  0  0  0  0  0
  -20.9973  -28.3224   24.1405 H   0  0  0  0  0  0
  -20.5559  -26.2232   23.3603 H   0  0  0  0  0  0
  -21.6631  -26.7340   22.1257 H   0  0  0  0  0  0
  -19.6652  -27.3275   20.6769 H   0  0  0  0  0  0
  -19.6883  -25.6345   21.1151 H   0  0  0  0  0  0
  -17.4185  -26.6577   21.4074 H   0  0  0  0  0  0
  -18.0357  -26.0076   22.9089 H   0  0  0  0  0  0
  -19.7953  -30.7210   24.2370 H   0  0  0  0  0  0
  -17.5022  -31.6248   24.5215 H   0  0  0  0  0  0
  -15.5377  -30.3003   23.7601 H   0  0  0  0  0  0
  -15.8670  -28.0826   22.7079 H   0  0  0  0  0  0
  -24.5854  -30.7197   25.7737 H   0  0  0  0  0  0
  -24.8930  -32.2985   26.4883 H   0  0  0  0  0  0
  -25.7965  -30.8937   27.0211 H   0  0  0  0  0  0
  -26.2964  -29.6804   24.1264 H   0  0  0  0  0  0
  -27.3998  -29.7352   25.4811 H   0  0  0  0  0  0
  -27.8857  -30.4343   23.9550 H   0  0  0  0  0  0
  -27.2675  -33.3710   26.2092 H   0  0  0  0  0  0
  -28.3876  -32.6954   25.0347 H   0  0  0  0  0  0
  -28.0736  -31.8533   26.5427 H   0  0  0  0  0  0
  -28.2614  -38.0109   24.7564 H   0  0  0  0  0  0
  -28.1091  -36.2642   24.6229 H   0  0  0  0  0  0
  -27.2282  -37.1377   25.8845 H   0  0  0  0  0  0
  -20.9360  -29.8676   21.6879 H   0  0  0  0  0  0
  -26.0174  -38.2856   24.1477 H   0  0  0  0  0  0
  -31.0614  -17.0698   19.2318 H   0  0  0  0  0  0
  -30.8568  -19.3947   18.5735 H   0  0  0  0  0  0
  -28.6873  -20.2917   22.1184 H   0  0  0  0  0  0
  -27.4005  -18.5366   24.9095 H   0  0  0  0  0  0
  -26.9791  -19.2371   23.3499 H   0  0  0  0  0  0
  -28.4078  -19.7989   24.2341 H   0  0  0  0  0  0
  -29.4631  -17.5808   23.9768 H   0  0  0  0  0  0
  -28.0363  -16.9628   23.1447 H   0  0  0  0  0  0
  -30.0910  -24.2852   20.0710 H   0  0  0  0  0  0
  -28.8682  -23.8270   18.9259 H   0  0  0  0  0  0
  -27.0785  -24.7043   20.3337 H   0  0  0  0  0  0
  -28.1379  -25.0294   21.6471 H   0  0  0  0  0  0
  -27.9781  -22.1653   20.7953 H   0  0  0  0  0  0
  -29.4725  -22.4999   21.6270 H   0  0  0  0  0  0
  -29.8211  -16.1517   23.3435 H   0  0  0  0  0  0
  1 25  1  0  0  0
  1 30  2  0  0  0
  1 77  1  0  0  0
  2  3  1  0  0  0
  2 25  1  0  0  0
  2 85  1  0  0  0
  2 86  1  0  0  0
  3  4  1  0  0  0
  3 87  1  0  0  0
  3 88  1  0  0  0
  4  5  1  0  0  0
  4 89  1  0  0  0
  4 90  1  0  0  0
  5  6  1  0  0  0
  5 26  1  0  0  0
  5 91  1  0  0  0
  6 25  1  0  0  0
  6 92  1  0  0  0
  6 93  1  0  0  0
  7  8  2  0  0  0
  7 26  1  0  0  0
  7 29  1  0  0  0
  8  9  1  0  0  0
  8 22  1  0  0  0
  9 10  1  0  0  0
  9 27  2  0  0  0
 10 11  2  0  0  0
 10 15  1  0  0  0
 11 12  1  0  0  0
 11 94  1  0  0  0
 12 13  2  0  0  0
 12 95  1  0  0  0
 13 14  1  0  0  0
 13 31  1  0  0  0
 14 15  2  0  0  0
 14 96  1  0  0  0
 15 97  1  0  0  0
 16 17  2  0  0  0
 16 21  1  0  0  0
 16 31  1  0  0  0
 17 18  1  0  0  0
 17 98  1  0  0  0
 18 19  2  0  0  0
 18 99  1  0  0  0
 19 20  1  0  0  0
 19 24  1  0  0  0
 20 21  2  0  0  0
 20100  1  0  0  0
 21 23  1  0  0  0
 22 28  1  0  0  0
 22 32  2  0  0  0
 26 27  1  0  0  0
 28101  1  0  0  0
 28102  1  0  0  0
 29103  1  0  0  0
 29104  1  0  0  0
 33 34  1  0  0  0
 33 66  1  0  0  0
 33 70  2  0  0  0
 34 36  1  0  0  0
 34 59  1  0  0  0
 34105  1  0  0  0
 35 44  2  0  0  0
 35 45  1  0  0  0
 35 68  1  0  0  0
 36 56  1  0  0  0
 36106  1  0  0  0
 37 39  1  0  0  0
 37 47  1  0  0  0
 37 66  1  0  0  0
 37107  1  0  0  0
 38 43  2  0  0  0
 38 46  1  0  0  0
 38 47  1  0  0  0
 39 64  1  0  0  0
 39 67  2  0  0  0
 40 52  1  0  0  0
 40 53  2  0  0  0
 40 58  1  0  0  0
 41108  1  0  0  0
 41109  1  0  0  0
 41110  1  0  0  0
 41 48  1  0  0  0
 42 43  1  0  0  0
 42 66  1  0  0  0
 42111  1  0  0  0
 42112  1  0  0  0
 43 44  1  0  0  0
 44113  1  0  0  0
 45 46  2  0  0  0
 45114  1  0  0  0
 46115  1  0  0  0
 47116  1  0  0  0
 47117  1  0  0  0
 48 56  1  0  0  0
 48 65  1  0  0  0
 48118  1  0  0  0
 49 50  1  0  0  0
 49 53  1  0  0  0
 49 64  1  0  0  0
 49119  1  0  0  0
 50 51  1  0  0  0
 50120  1  0  0  0
 50121  1  0  0  0
 51 52  1  0  0  0
 51122  1  0  0  0
 51123  1  0  0  0
 52124  1  0  0  0
 52125  1  0  0  0
 53 54  1  0  0  0
 54 55  2  0  0  0
 54126  1  0  0  0
 55 57  1  0  0  0
 55127  1  0  0  0
 56 69  2  0  0  0
 57 58  2  0  0  0
 57128  1  0  0  0
 58129  1  0  0  0
 59 60  1  0  0  0
 59 61  1  0  0  0
 59 62  1  0  0  0
 60130  1  0  0  0
 60131  1  0  0  0
 60132  1  0  0  0
 61133  1  0  0  0
 61134  1  0  0  0
 61135  1  0  0  0
 62136  1  0  0  0
 62137  1  0  0  0
 62138  1  0  0  0
 63 65  1  0  0  0
 63139  1  0  0  0
 63140  1  0  0  0
 63141  1  0  0  0
 64142  1  0  0  0
 65143  1  0  0  0
 68 81  1  0  0  0
 71 72  2  0  0  0
 71 74  1  0  0  0
 71144  1  0  0  0
 72 76  1  0  0  0
 72145  1  0  0  0
 73 75  1  0  0  0
 73 76  2  0  0  0
 73146  1  0  0  0
 74 75  2  0  0  0
 74 77  1  0  0  0
 75 79  1  0  0  0
 76 84  1  0  0  0
 77 83  2  0  0  0
 78 79  1  0  0  0
 78147  1  0  0  0
 78148  1  0  0  0
 78149  1  0  0  0
 79150  1  0  0  0
 79151  1  0  0  0
 80 81  1  0  0  0
 80 82  1  0  0  0
 80152  1  0  0  0
 80153  1  0  0  0
 81154  1  0  0  0
 81155  1  0  0  0
 82 84  1  0  0  0
 82156  1  0  0  0
 82157  1  0  0  0
 83158  1  0  0  0
M  ISO  4   1 100  68 101  77 100  81 101
M  END
> <chiral flag>
0

> <version>
0

> <s_m_source_file>
/data/baiqing/PycharmProjects/Reinvent-master-3.2/result/LINK_invent/BTK/process_docking_weight1_custom_product_contain_oxygen_bond_distance_aromatic_linkinvent_7_9_3/rearranged_h_0129.sdf

> <i_m_source_file_index>
86

> <r_mmod_Potential_Energy-OPLS-2005>
260.099304199219

> <r_mmod_Stretch_Energy-OPLS-2005>
100.369361877441

> <r_mmod_Bend_Energy-OPLS-2005>
155.285247802734

> <r_mmod_Torsional_Energy-OPLS-2005>
210.513366699219

> <r_mmod_Improper_Torsional_Energy-OPLS-2005>
3.17126369476318

> <r_mmod_Van_der_Waal_Energy-OPLS-2005>
163.563827514648

> <r_mmod_Electrostatic_Energy-OPLS-2005>
-222.549789428711

> <r_mmod_Solvation_Energy-OPLS-2005>
-195.521011352539

> <b_mmod_Minimization_Converged-OPLS-2005>
0

> <r_mmod_RMS_Derivative-OPLS-2005>
3.92130279541016

$$$$
86
                    3D
 Structure written by MMmdl.
158166  0  0  1  0            999 V2000
  -28.2678  -16.9624   21.0948 C   0  0  0  0  0  0
  -29.7719  -14.4232   19.9292 C   0  0  0  0  0  0
  -29.4574  -13.3246   18.7455 C   0  0  0  0  0  0
  -28.2366  -12.4593   19.0391 C   0  0  0  0  0  0
  -27.3938  -13.3832   19.9033 C   0  0  2  0  0  0
  -28.0351  -14.0267   21.1630 C   0  0  0  0  0  0
  -25.0983  -13.8142   20.5501 C   0  0  0  0  0  0
  -24.0768  -13.0165   20.9281 C   0  0  0  0  0  0
  -24.5745  -11.6756   20.8772 C   0  0  0  0  0  0
  -23.8732  -10.4114   21.0457 C   0  0  0  0  0  0
  -24.3441   -9.4100   21.9209 C   0  0  0  0  0  0
  -23.6194   -8.2103   22.0753 C   0  0  0  0  0  0
  -22.4178   -8.0125   21.3536 C   0  0  0  0  0  0
  -21.9735   -9.0041   20.4630 C   0  0  0  0  0  0
  -22.6974  -10.1939   20.3053 C   0  0  0  0  0  0
  -21.6807   -6.0649   22.5298 C   0  0  0  0  0  0
  -21.3978   -6.5587   23.8219 C   0  0  0  0  0  0
  -21.3650   -5.6760   24.9194 C   0  0  0  0  0  0
  -21.6048   -4.3022   24.7258 C   0  0  0  0  0  0
  -21.8824   -3.8092   23.4386 C   0  0  0  0  0  0
  -21.9178   -4.6890   22.3432 C   0  0  0  0  0  0
  -22.6932  -13.4923   21.2083 C   0  0  0  0  0  0
  -22.1654   -4.2080   21.1009 F   0  0  0  0  0  0
  -21.5638   -3.4519   25.7780 F   0  0  0  0  0  0
  -28.5854  -15.3472   20.7231 N   0  0  0  0  0  0
  -26.1251  -12.9447   20.2870 N   0  0  0  0  0  0
  -25.8586  -11.6518   20.5501 N   0  0  0  0  0  0
  -21.9751  -12.7939   22.0749 N   0  0  0  0  0  0
  -25.2437  -15.1951   20.3934 N   0  0  0  0  0  0
  -29.5735  -17.0147   20.8711 O   0  0  0  0  0  0
  -21.6565   -6.8735   21.4239 O   0  0  0  0  0  0
  -22.2688  -14.5280   20.6970 O   0  0  0  0  0  0
  -24.8087  -31.9170   23.2788 C   0  0  0  0  0  0
  -26.0282  -32.5511   23.9404 C   0  0  1  0  0  0
  -25.9118  -27.4408   20.3013 C   0  0  0  0  0  0
  -25.6514  -33.9137   24.3011 N   0  0  0  0  0  0
  -24.0527  -30.2661   21.7491 C   0  0  2  0  0  0
  -25.3377  -29.7499   19.6035 C   0  0  0  0  0  0
  -24.2695  -28.7438   22.6225 C   0  0  0  0  0  0
  -18.4895  -26.9724   23.0991 C   0  0  0  0  0  0
  -24.1493  -36.7463   23.2529 C   0  0  0  0  0  0
  -26.3733  -30.8689   21.5848 C   0  0  0  0  0  0
  -26.3097  -29.7130   20.5945 C   0  0  0  0  0  0
  -26.7604  -28.4342   20.8847 C   0  0  0  0  0  0
  -26.0150  -27.5006   18.9368 C   0  0  0  0  0  0
  -25.3221  -28.7059   18.6059 C   0  0  0  0  0  0
  -24.2132  -30.5779   20.1333 C   0  0  0  0  0  0
  -25.4073  -36.3379   24.0337 C   0  0  1  0  0  0
  -21.8335  -26.8640   21.9164 C   0  0  2  0  0  0
  -21.4573  -25.4160   20.6375 C   0  0  0  0  0  0
  -19.5372  -24.6119   20.8819 C   0  0  0  0  0  0
  -18.3482  -25.3778   22.2988 C   0  0  0  0  0  0
  -19.9165  -27.6096   23.2255 C   0  0  0  0  0  0
  -19.5462  -28.9918   23.8651 C   0  0  0  0  0  0
  -18.3057  -29.7554   23.9666 C   0  0  0  0  0  0
  -25.9085  -34.9752   23.5312 C   0  0  0  0  0  0
  -17.1140  -29.1642   23.5534 C   0  0  0  0  0  0
  -17.2443  -27.7961   23.1731 C   0  0  0  0  0  0
  -26.5155  -31.7085   25.1731 C   0  0  0  0  0  0
  -25.3980  -31.3875   26.1927 C   0  0  0  0  0  0
  -27.1857  -30.3737   24.7590 C   0  0  0  0  0  0
  -27.6258  -32.5017   25.8868 C   0  0  0  0  0  0
  -27.5581  -37.1948   24.8455 C   0  0  0  0  0  0
  -23.5693  -27.4148   22.4087 N   0  0  0  0  0  0
  -26.4291  -37.4008   23.9410 N   0  0  0  0  0  0
  -25.0722  -31.0849   22.2608 N   0  0  0  0  0  0
  -24.4278  -28.8740   23.8110 O   0  0  0  0  0  0
  -24.4118  -27.4756   20.2654 O   0  0  0  0  0  0
  -26.5375  -34.9009   22.4715 O   0  0  0  0  0  0
  -23.6676  -32.1472   23.7228 O   0  0  0  0  0  0
  -23.6492  -23.7190   23.2419 C   0  0  0  0  0  0
  -21.2857  -23.4063   22.5621 C   0  0  0  0  0  0
  -24.0893  -22.0380   22.5765 C   0  0  0  0  0  0
  -22.3296  -25.0509   23.5435 C   0  0  0  0  0  0
  -22.5001  -22.2696   22.4302 C   0  0  0  0  0  0
  -20.8777  -24.9803   22.8270 C   0  0  0  0  0  0
  -25.7149  -20.1632   22.0501 C   0  0  0  0  0  0
  -26.6694  -18.5088   21.5875 C   0  0  0  0  0  0
  -21.8939  -20.9210   22.0855 C   0  0  0  0  0  0
  -19.7505  -26.8284   21.0661 C   0  0  0  0  0  0
  -22.1358  -27.0437   24.1874 C   0  0  0  0  0  0
  -21.8590  -28.9759   22.6119 C   0  0  0  0  0  0
  -22.7793  -28.5192   20.5221 C   0  0  0  0  0  0
  -30.4311  -15.1528   19.4542 H   0  0  0  0  0  0
  -30.4388  -13.9720   20.6689 H   0  0  0  0  0  0
  -30.3345  -12.7098   18.5456 H   0  0  0  0  0  0
  -29.2682  -13.8777   17.8247 H   0  0  0  0  0  0
  -28.5190  -11.5708   19.6028 H   0  0  0  0  0  0
  -27.7255  -12.1431   18.1300 H   0  0  0  0  0  0
  -27.1722  -14.1831   19.1910 H   0  0  0  0  0  0
  -28.7045  -13.3536   21.7053 H   0  0  0  0  0  0
  -27.2946  -14.2856   21.9223 H   0  0  0  0  0  0
  -25.2570   -9.5662   22.4787 H   0  0  0  0  0  0
  -23.9932   -7.4498   22.7463 H   0  0  0  0  0  0
  -21.0667   -8.8494   19.8946 H   0  0  0  0  0  0
  -22.3386  -10.9471   19.6175 H   0  0  0  0  0  0
  -21.1954   -7.6094   23.9701 H   0  0  0  0  0  0
  -21.1479   -6.0499   25.9095 H   0  0  0  0  0  0
  -22.0618   -2.7553   23.2909 H   0  0  0  0  0  0
  -22.3435  -11.9602   22.5079 H   0  0  0  0  0  0
  -21.0414  -13.0979   22.3118 H   0  0  0  0  0  0
  -24.4307  -15.8002   20.4329 H   0  0  0  0  0  0
  -26.0144  -15.5956   19.8762 H   0  0  0  0  0  0
  -26.8756  -32.6212   23.2592 H   0  0  0  0  0  0
  -25.0908  -34.0363   25.1315 H   0  0  0  0  0  0
  -23.1290  -30.8135   21.8869 H   0  0  0  0  0  0
  -23.3771  -35.9781   23.3230 H   0  0  0  0  0  0
  -24.3642  -36.8970   22.1937 H   0  0  0  0  0  0
  -23.7200  -37.6700   23.6426 H   0  0  0  0  0  0
  -26.6449  -31.7765   21.0416 H   0  0  0  0  0  0
  -27.1980  -30.6755   22.2584 H   0  0  0  0  0  0
  -27.3549  -28.2252   21.7631 H   0  0  0  0  0  0
  -25.7633  -26.6518   18.3151 H   0  0  0  0  0  0
  -24.6231  -28.7175   17.7808 H   0  0  0  0  0  0
  -24.5525  -31.6107   20.0160 H   0  0  0  0  0  0
  -23.3702  -30.7542   19.4726 H   0  0  0  0  0  0
  -25.1171  -36.2362   25.0816 H   0  0  0  0  0  0
  -22.7137  -26.2315   21.8232 H   0  0  0  0  0  0
  -22.2263  -24.6386   20.6525 H   0  0  0  0  0  0
  -21.6035  -25.7413   19.6043 H   0  0  0  0  0  0
  -19.4744  -23.5273   20.8050 H   0  0  0  0  0  0
  -19.0143  -24.7962   19.9382 H   0  0  0  0  0  0
  -17.3379  -25.3363   21.8927 H   0  0  0  0  0  0
  -18.3043  -24.6516   23.1106 H   0  0  0  0  0  0
  -20.3392  -29.5895   24.2796 H   0  0  0  0  0  0
  -18.3165  -30.7610   24.3659 H   0  0  0  0  0  0
  -16.1637  -29.6782   23.5767 H   0  0  0  0  0  0
  -16.3279  -27.2968   22.8873 H   0  0  0  0  0  0
  -24.6559  -30.6966   25.7936 H   0  0  0  0  0  0
  -24.8725  -32.2887   26.5087 H   0  0  0  0  0  0
  -25.8034  -30.9230   27.0923 H   0  0  0  0  0  0
  -26.5727  -29.7283   24.1497 H   0  0  0  0  0  0
  -27.4551  -29.7880   25.6386 H   0  0  0  0  0  0
  -28.1196  -30.5462   24.2228 H   0  0  0  0  0  0
  -27.2502  -33.4228   26.3340 H   0  0  0  0  0  0
  -28.4294  -32.7784   25.2033 H   0  0  0  0  0  0
  -28.0765  -31.9272   26.6976 H   0  0  0  0  0  0
  -28.2604  -38.0248   24.7560 H   0  0  0  0  0  0
  -28.1090  -36.2794   24.6237 H   0  0  0  0  0  0
  -27.2290  -37.1536   25.8852 H   0  0  0  0  0  0
  -23.9846  -26.7055   22.9946 H   0  0  0  0  0  0
  -26.0229  -38.3102   24.1444 H   0  0  0  0  0  0
  -24.5689  -24.1181   23.6437 H   0  0  0  0  0  0
  -20.3689  -22.8584   22.4346 H   0  0  0  0  0  0
  -24.8292  -19.5466   21.9849 H   0  0  0  0  0  0
  -25.8258  -17.8425   21.4727 H   0  0  0  0  0  0
  -20.9845  -21.0108   21.4938 H   0  0  0  0  0  0
  -21.6539  -20.3871   23.0065 H   0  0  0  0  0  0
  -22.5856  -20.3010   21.5172 H   0  0  0  0  0  0
  -18.6877  -26.9728   20.8148 H   0  0  0  0  0  0
  -19.8691  -26.7750   19.9707 H   0  0  0  0  0  0
  -20.0328  -27.8880   20.9917 H   0  0  0  0  0  0
  -23.0144  -27.2089   24.8140 H   0  0  0  0  0  0
  -21.4004  -27.0520   24.9936 H   0  0  0  0  0  0
  -22.0826  -29.8654   23.2033 H   0  0  0  0  0  0
  -20.9610  -29.3661   22.1314 H   0  0  0  0  0  0
  -22.4033  -29.1782   19.7591 H   0  0  0  0  0  0
  -22.1387  -27.8635   19.9333 H   0  0  0  0  0  0
  1 25  1  0  0  0
  1 30  2  0  0  0
  1 78  1  0  0  0
  2  3  1  0  0  0
  2 25  1  0  0  0
  2 84  1  0  0  0
  2 85  1  0  0  0
  3  4  1  0  0  0
  3 86  1  0  0  0
  3 87  1  0  0  0
  4  5  1  0  0  0
  4 88  1  0  0  0
  4 89  1  0  0  0
  5  6  1  0  0  0
  5 26  1  0  0  0
  5 90  1  0  0  0
  6 25  1  0  0  0
  6 91  1  0  0  0
  6 92  1  0  0  0
  7  8  2  0  0  0
  7 26  1  0  0  0
  7 29  1  0  0  0
  8  9  1  0  0  0
  8 22  1  0  0  0
  9 10  1  0  0  0
  9 27  2  0  0  0
 10 11  2  0  0  0
 10 15  1  0  0  0
 11 12  1  0  0  0
 11 93  1  0  0  0
 12 13  2  0  0  0
 12 94  1  0  0  0
 13 14  1  0  0  0
 13 31  1  0  0  0
 14 15  2  0  0  0
 14 95  1  0  0  0
 15 96  1  0  0  0
 16 17  2  0  0  0
 16 21  1  0  0  0
 16 31  1  0  0  0
 17 18  1  0  0  0
 17 97  1  0  0  0
 18 19  2  0  0  0
 18 98  1  0  0  0
 19 20  1  0  0  0
 19 24  1  0  0  0
 20 21  2  0  0  0
 20 99  1  0  0  0
 21 23  1  0  0  0
 22 28  1  0  0  0
 22 32  2  0  0  0
 26 27  1  0  0  0
 28100  1  0  0  0
 28101  1  0  0  0
 29102  1  0  0  0
 29103  1  0  0  0
 33 34  1  0  0  0
 33 66  1  0  0  0
 33 70  2  0  0  0
 34 36  1  0  0  0
 34 59  1  0  0  0
 34104  1  0  0  0
 35 44  2  0  0  0
 35 45  1  0  0  0
 35 68  1  0  0  0
 36 56  1  0  0  0
 36105  1  0  0  0
 37 39  1  0  0  0
 37 47  1  0  0  0
 37 66  1  0  0  0
 37106  1  0  0  0
 38 43  2  0  0  0
 38 46  1  0  0  0
 38 47  1  0  0  0
 39 64  1  0  0  0
 39 67  2  0  0  0
 40 52  1  0  0  0
 40 53  2  0  0  0
 40 58  1  0  0  0
 41107  1  0  0  0
 41108  1  0  0  0
 41109  1  0  0  0
 41 48  1  0  0  0
 42 43  1  0  0  0
 42 66  1  0  0  0
 42110  1  0  0  0
 42111  1  0  0  0
 43 44  1  0  0  0
 44112  1  0  0  0
 45 46  2  0  0  0
 45113  1  0  0  0
 46114  1  0  0  0
 47115  1  0  0  0
 47116  1  0  0  0
 48 56  1  0  0  0
 48 65  1  0  0  0
 48117  1  0  0  0
 49 50  1  0  0  0
 49 53  1  0  0  0
 49 64  1  0  0  0
 49118  1  0  0  0
 50 51  1  0  0  0
 50119  1  0  0  0
 50120  1  0  0  0
 51 52  1  0  0  0
 51121  1  0  0  0
 51122  1  0  0  0
 52123  1  0  0  0
 52124  1  0  0  0
 53 54  1  0  0  0
 54 55  2  0  0  0
 54125  1  0  0  0
 55 57  1  0  0  0
 55126  1  0  0  0
 56 69  2  0  0  0
 57 58  2  0  0  0
 57127  1  0  0  0
 58128  1  0  0  0
 59 60  1  0  0  0
 59 61  1  0  0  0
 59 62  1  0  0  0
 60129  1  0  0  0
 60130  1  0  0  0
 60131  1  0  0  0
 61132  1  0  0  0
 61133  1  0  0  0
 61134  1  0  0  0
 62135  1  0  0  0
 62136  1  0  0  0
 62137  1  0  0  0
 63 65  1  0  0  0
 63138  1  0  0  0
 63139  1  0  0  0
 63140  1  0  0  0
 64141  1  0  0  0
 65142  1  0  0  0
 68 83  1  0  0  0
 71 73  2  0  0  0
 71 74  1  0  0  0
 71143  1  0  0  0
 72 75  2  0  0  0
 72 76  1  0  0  0
 72144  1  0  0  0
 73 75  1  0  0  0
 73 77  1  0  0  0
 74 76  2  0  0  0
 74 81  1  0  0  0
 75 79  1  0  0  0
 76 80  1  0  0  0
 77 78  2  0  0  0
 77145  1  0  0  0
 78146  1  0  0  0
 79147  1  0  0  0
 79148  1  0  0  0
 79149  1  0  0  0
 80150  1  0  0  0
 80151  1  0  0  0
 80152  1  0  0  0
 81 82  1  0  0  0
 81153  1  0  0  0
 81154  1  0  0  0
 82 83  1  0  0  0
 82155  1  0  0  0
 82156  1  0  0  0
 83157  1  0  0  0
 83158  1  0  0  0
M  ISO  4   1 100  68 101  78 100  83 101
M  END
> <chiral flag>
0

> <version>
0

> <s_m_source_file>
/data/baiqing/PycharmProjects/Reinvent-master-3.2/result/LINK_invent/BTK/process_docking_weight1_custom_product_contain_oxygen_bond_distance_aromatic_linkinvent_7_9_3/rearranged_h_0129.sdf

> <i_m_source_file_index>
87

> <r_mmod_Potential_Energy-OPLS-2005>
30295.689453125

> <r_mmod_Stretch_Energy-OPLS-2005>
12921.44921875

> <r_mmod_Bend_Energy-OPLS-2005>
2828.60473632812

> <r_mmod_Torsional_Energy-OPLS-2005>
717.872314453125

> <r_mmod_Improper_Torsional_Energy-OPLS-2005>
126.119422912598

> <r_mmod_Van_der_Waal_Energy-OPLS-2005>
3839.94091796875

> <r_mmod_Electrostatic_Energy-OPLS-2005>
-351.623168945312

> <r_mmod_Solvation_Energy-OPLS-2005>
-174.707580566406

> <b_mmod_Minimization_Converged-OPLS-2005>
0

> <r_mmod_RMS_Derivative-OPLS-2005>
4.68866443634033

$$$$
