0
                    3D
 Structure written by MMmdl.
157165  0  0  1  0            999 V2000
  -30.6443  -14.5358   20.5337 C   0  0  0  0  0  0
  -30.4277  -12.3268   19.4517 C   0  0  0  0  0  0
  -29.5064  -12.4992   18.2237 C   0  0  0  0  0  0
  -28.0239  -12.3583   18.6259 C   0  0  0  0  0  0
  -27.6582  -13.2050   19.8745 C   0  0  2  0  0  0
  -28.6953  -13.0121   21.0058 C   0  0  0  0  0  0
  -25.2606  -13.8167   20.5701 C   0  0  0  0  0  0
  -24.1864  -13.0449   20.9198 C   0  0  0  0  0  0
  -24.6405  -11.6895   20.8741 C   0  0  0  0  0  0
  -23.9075  -10.4298   21.0422 C   0  0  0  0  0  0
  -24.3627   -9.4211   21.9197 C   0  0  0  0  0  0
  -23.6308   -8.2251   22.0763 C   0  0  0  0  0  0
  -22.4289   -8.0297   21.3548 C   0  0  0  0  0  0
  -21.9929   -9.0269   20.4644 C   0  0  0  0  0  0
  -22.7261  -10.2151   20.3059 C   0  0  0  0  0  0
  -21.6839   -6.0756   22.5287 C   0  0  0  0  0  0
  -21.4009   -6.5651   23.8223 C   0  0  0  0  0  0
  -21.3658   -5.6799   24.9186 C   0  0  0  0  0  0
  -21.6033   -4.3064   24.7220 C   0  0  0  0  0  0
  -21.8825   -3.8164   23.4337 C   0  0  0  0  0  0
  -21.9196   -4.6987   22.3401 C   0  0  0  0  0  0
  -22.7883  -13.5249   21.1839 C   0  0  0  0  0  0
  -22.1661   -4.2174   21.0976 F   0  0  0  0  0  0
  -21.5629   -3.4545   25.7731 F   0  0  0  0  0  0
  -30.0229  -13.3253   20.4580 N   0  0  0  0  0  0
  -26.3011  -12.9311   20.3352 N   0  0  0  0  0  0
  -25.9320  -11.6474   20.5754 N   0  0  0  0  0  0
  -22.0502  -12.8231   22.0380 N   0  0  0  0  0  0
  -25.4369  -15.1892   20.4150 N   0  0  0  0  0  0
  -31.7939  -14.7110   20.1174 O   0  0  0  0  0  0
  -21.6635   -6.8903   21.4254 O   0  0  0  0  0  0
  -22.3583  -14.5559   20.6694 O   0  0  0  0  0  0
  -24.6209  -31.8627   23.2019 C   0  0  0  0  0  0
  -25.9080  -32.4798   23.8355 C   0  0  1  0  0  0
  -27.2300  -27.3654   20.1205 C   0  0  0  0  0  0
  -25.5915  -33.8590   24.2279 N   0  0  0  0  0  0
  -23.4138  -30.4793   21.5464 C   0  0  2  0  0  0
  -24.8594  -28.9311   20.1169 C   0  0  0  0  0  0
  -22.7478  -29.4596   22.4998 C   0  0  0  0  0  0
  -18.0289  -28.1352   22.8501 C   0  0  0  0  0  0
  -24.1496  -36.7296   23.2642 C   0  0  0  0  0  0
  -25.9445  -30.8129   21.3589 C   0  0  0  0  0  0
  -26.0216  -29.4364   20.7124 C   0  0  0  0  0  0
  -27.2128  -28.6618   20.7037 C   0  0  0  0  0  0
  -26.0499  -26.8897   19.5141 C   0  0  0  0  0  0
  -24.8698  -27.6634   19.5076 C   0  0  0  0  0  0
  -23.6228  -29.8053   20.1640 C   0  0  0  0  0  0
  -25.4129  -36.3089   24.0314 C   0  0  1  0  0  0
  -20.5883  -28.3642   23.1334 C   0  0  2  0  0  0
  -20.6786  -26.9380   22.5433 C   0  0  0  0  0  0
  -19.5761  -26.6382   21.5200 C   0  0  0  0  0  0
  -18.1933  -26.7908   22.1614 C   0  0  0  0  0  0
  -19.1540  -28.8820   23.2902 C   0  0  0  0  0  0
  -18.9464  -30.1428   23.8909 C   0  0  0  0  0  0
  -17.6462  -30.6580   24.0548 C   0  0  0  0  0  0
  -25.9038  -34.9458   23.5096 C   0  0  0  0  0  0
  -16.5349  -29.9068   23.6325 C   0  0  0  0  0  0
  -16.7274  -28.6469   23.0362 C   0  0  0  0  0  0
  -26.4487  -31.6602   25.0714 C   0  0  0  0  0  0
  -25.3711  -31.3713   26.1441 C   0  0  0  0  0  0
  -27.0339  -30.3063   24.6043 C   0  0  0  0  0  0
  -27.6068  -32.4338   25.7457 C   0  0  0  0  0  0
  -27.5580  -37.1797   24.8460 C   0  0  0  0  0  0
  -21.4184  -29.3002   22.3749 N   0  0  0  0  0  0
  -26.4307  -37.3775   23.9378 N   0  0  0  0  0  0
  -24.6793  -31.0664   22.0944 N   0  0  0  0  0  0
  -23.4222  -28.8159   23.3087 O   0  0  0  0  0  0
  -28.3948  -26.6070   20.0889 O   0  0  0  0  0  0
  -26.5631  -34.8937   22.4668 O   0  0  0  0  0  0
  -23.5402  -32.1424   23.7384 O   0  0  0  0  0  0
  -28.3572  -18.0320   21.9507 C   0  0  0  0  0  0
  -29.2200  -18.0885   20.8834 C   0  0  0  0  0  0
  -28.5925  -20.3303   21.0312 C   0  0  0  0  0  0
  -29.4117  -16.8001   18.7531 C   0  0  0  0  0  0
  -29.5527  -22.0701   18.5479 C   0  0  0  0  0  0
  -28.3346  -24.0594   19.5851 C   0  0  0  0  0  0
  -28.3946  -25.2432   20.6184 C   0  0  0  0  0  0
  -29.9483  -16.9293   20.1907 C   0  0  2  0  0  0
  -29.1341  -22.7171   19.8800 C   0  0  1  0  0  0
  -29.3704  -19.4215   20.4128 N   0  0  0  0  0  0
  -28.4593  -21.7095   20.7334 N   0  0  0  0  0  0
  -29.8352  -15.5881   20.8204 N   0  0  0  0  0  0
  -27.6675  -19.5982   22.3391 S   0  0  0  0  0  0
  -31.4744  -12.4315   19.1587 H   0  0  0  0  0  0
  -30.3347  -11.3210   19.8635 H   0  0  0  0  0  0
  -29.7572  -11.7621   17.4597 H   0  0  0  0  0  0
  -29.6730  -13.4775   17.7699 H   0  0  0  0  0  0
  -27.8335  -11.3019   18.8228 H   0  0  0  0  0  0
  -27.3816  -12.6298   17.7873 H   0  0  0  0  0  0
  -27.6942  -14.2474   19.5585 H   0  0  0  0  0  0
  -28.6804  -11.9826   21.3678 H   0  0  0  0  0  0
  -28.4553  -13.6338   21.8698 H   0  0  0  0  0  0
  -25.2769   -9.5673   22.4769 H   0  0  0  0  0  0
  -24.0005   -7.4637   22.7471 H   0  0  0  0  0  0
  -21.0873   -8.8801   19.8927 H   0  0  0  0  0  0
  -22.3751  -10.9693   19.6168 H   0  0  0  0  0  0
  -21.1998   -7.6156   23.9738 H   0  0  0  0  0  0
  -21.1470   -6.0522   25.9085 H   0  0  0  0  0  0
  -22.0604   -2.7625   23.2830 H   0  0  0  0  0  0
  -22.4111  -11.9885   22.4742 H   0  0  0  0  0  0
  -21.1115  -13.1257   22.2530 H   0  0  0  0  0  0
  -24.6752  -15.8462   20.5320 H   0  0  0  0  0  0
  -26.2900  -15.6273   20.0932 H   0  0  0  0  0  0
  -26.7158  -32.5528   23.1126 H   0  0  0  0  0  0
  -25.0041  -33.9725   25.0414 H   0  0  0  0  0  0
  -22.7050  -31.2956   21.4023 H   0  0  0  0  0  0
  -23.3750  -35.9638   23.3309 H   0  0  0  0  0  0
  -24.3566  -36.8942   22.2056 H   0  0  0  0  0  0
  -23.7271  -37.6490   23.6694 H   0  0  0  0  0  0
  -26.0472  -31.5743   20.5861 H   0  0  0  0  0  0
  -26.8334  -30.8804   21.9724 H   0  0  0  0  0  0
  -28.1175  -29.0426   21.1550 H   0  0  0  0  0  0
  -26.0469  -25.9236   19.0292 H   0  0  0  0  0  0
  -23.9783  -27.2769   19.0320 H   0  0  0  0  0  0
  -23.7243  -30.5759   19.3971 H   0  0  0  0  0  0
  -22.7483  -29.2185   19.8786 H   0  0  0  0  0  0
  -25.1301  -36.1924   25.0803 H   0  0  0  0  0  0
  -20.9955  -28.3239   24.1451 H   0  0  0  0  0  0
  -20.5716  -26.2241   23.3628 H   0  0  0  0  0  0
  -21.6665  -26.7459   22.1188 H   0  0  0  0  0  0
  -19.6931  -25.6278   21.1246 H   0  0  0  0  0  0
  -19.6706  -27.3229   20.6742 H   0  0  0  0  0  0
  -17.4210  -26.6682   21.4000 H   0  0  0  0  0  0
  -18.0273  -26.0033   22.8987 H   0  0  0  0  0  0
  -19.7946  -30.7216   24.2322 H   0  0  0  0  0  0
  -17.5016  -31.6275   24.5138 H   0  0  0  0  0  0
  -15.5345  -30.2962   23.7648 H   0  0  0  0  0  0
  -15.8665  -28.0789   22.7072 H   0  0  0  0  0  0
  -24.5931  -30.7003   25.7760 H   0  0  0  0  0  0
  -24.8808  -32.2846   26.4835 H   0  0  0  0  0  0
  -25.8035  -30.8949   27.0247 H   0  0  0  0  0  0
  -26.2861  -29.6781   24.1173 H   0  0  0  0  0  0
  -27.4242  -29.7341   25.4462 H   0  0  0  0  0  0
  -27.8644  -30.4413   23.9106 H   0  0  0  0  0  0
  -27.2740  -33.3734   26.1884 H   0  0  0  0  0  0
  -28.3932  -32.6723   25.0277 H   0  0  0  0  0  0
  -28.0616  -31.8501   26.5467 H   0  0  0  0  0  0
  -28.2596  -38.0100   24.7512 H   0  0  0  0  0  0
  -28.1087  -36.2622   24.6302 H   0  0  0  0  0  0
  -27.2272  -37.1465   25.8860 H   0  0  0  0  0  0
  -20.9377  -29.8721   21.6941 H   0  0  0  0  0  0
  -26.0200  -38.2842   24.1406 H   0  0  0  0  0  0
  -28.0575  -17.1622   22.5217 H   0  0  0  0  0  0
  -29.4910  -17.7422   18.2126 H   0  0  0  0  0  0
  -28.3595  -16.5134   18.7529 H   0  0  0  0  0  0
  -29.9660  -16.0529   18.1828 H   0  0  0  0  0  0
  -30.0893  -22.7737   17.9103 H   0  0  0  0  0  0
  -28.6850  -21.7130   17.9909 H   0  0  0  0  0  0
  -30.2281  -21.2271   18.6946 H   0  0  0  0  0  0
  -28.7612  -24.4778   18.6718 H   0  0  0  0  0  0
  -27.3005  -23.8347   19.3175 H   0  0  0  0  0  0
  -29.3542  -25.1595   21.1305 H   0  0  0  0  0  0
  -27.6397  -25.1180   21.3966 H   0  0  0  0  0  0
  -31.0101  -17.1805   20.1396 H   0  0  0  0  0  0
  -30.0526  -22.9941   20.4010 H   0  0  0  0  0  0
  -27.7993  -22.1390   21.3760 H   0  0  0  0  0  0
  -28.9344  -15.3527   21.2054 H   0  0  0  0  0  0
  1 25  1  0  0  0
  1 30  2  0  0  0
  1 82  1  0  0  0
  2  3  1  0  0  0
  2 25  1  0  0  0
  2 84  1  0  0  0
  2 85  1  0  0  0
  3  4  1  0  0  0
  3 86  1  0  0  0
  3 87  1  0  0  0
  4  5  1  0  0  0
  4 88  1  0  0  0
  4 89  1  0  0  0
  5  6  1  0  0  0
  5 26  1  0  0  0
  5 90  1  0  0  0
  6 25  1  0  0  0
  6 91  1  0  0  0
  6 92  1  0  0  0
  7  8  2  0  0  0
  7 26  1  0  0  0
  7 29  1  0  0  0
  8  9  1  0  0  0
  8 22  1  0  0  0
  9 10  1  0  0  0
  9 27  2  0  0  0
 10 11  2  0  0  0
 10 15  1  0  0  0
 11 12  1  0  0  0
 11 93  1  0  0  0
 12 13  2  0  0  0
 12 94  1  0  0  0
 13 14  1  0  0  0
 13 31  1  0  0  0
 14 15  2  0  0  0
 14 95  1  0  0  0
 15 96  1  0  0  0
 16 17  2  0  0  0
 16 21  1  0  0  0
 16 31  1  0  0  0
 17 18  1  0  0  0
 17 97  1  0  0  0
 18 19  2  0  0  0
 18 98  1  0  0  0
 19 20  1  0  0  0
 19 24  1  0  0  0
 20 21  2  0  0  0
 20 99  1  0  0  0
 21 23  1  0  0  0
 22 28  1  0  0  0
 22 32  2  0  0  0
 26 27  1  0  0  0
 28100  1  0  0  0
 28101  1  0  0  0
 29102  1  0  0  0
 29103  1  0  0  0
 33 34  1  0  0  0
 33 66  1  0  0  0
 33 70  2  0  0  0
 34 36  1  0  0  0
 34 59  1  0  0  0
 34104  1  0  0  0
 35 44  2  0  0  0
 35 45  1  0  0  0
 35 68  1  0  0  0
 36 56  1  0  0  0
 36105  1  0  0  0
 37 39  1  0  0  0
 37 47  1  0  0  0
 37 66  1  0  0  0
 37106  1  0  0  0
 38 43  2  0  0  0
 38 46  1  0  0  0
 38 47  1  0  0  0
 39 64  1  0  0  0
 39 67  2  0  0  0
 40 52  1  0  0  0
 40 53  2  0  0  0
 40 58  1  0  0  0
 41107  1  0  0  0
 41108  1  0  0  0
 41109  1  0  0  0
 41 48  1  0  0  0
 42 43  1  0  0  0
 42 66  1  0  0  0
 42110  1  0  0  0
 42111  1  0  0  0
 43 44  1  0  0  0
 44112  1  0  0  0
 45 46  2  0  0  0
 45113  1  0  0  0
 46114  1  0  0  0
 47115  1  0  0  0
 47116  1  0  0  0
 48 56  1  0  0  0
 48 65  1  0  0  0
 48117  1  0  0  0
 49 50  1  0  0  0
 49 53  1  0  0  0
 49 64  1  0  0  0
 49118  1  0  0  0
 50 51  1  0  0  0
 50119  1  0  0  0
 50120  1  0  0  0
 51 52  1  0  0  0
 51121  1  0  0  0
 51122  1  0  0  0
 52123  1  0  0  0
 52124  1  0  0  0
 53 54  1  0  0  0
 54 55  2  0  0  0
 54125  1  0  0  0
 55 57  1  0  0  0
 55126  1  0  0  0
 56 69  2  0  0  0
 57 58  2  0  0  0
 57127  1  0  0  0
 58128  1  0  0  0
 59 60  1  0  0  0
 59 61  1  0  0  0
 59 62  1  0  0  0
 60129  1  0  0  0
 60130  1  0  0  0
 60131  1  0  0  0
 61132  1  0  0  0
 61133  1  0  0  0
 61134  1  0  0  0
 62135  1  0  0  0
 62136  1  0  0  0
 62137  1  0  0  0
 63 65  1  0  0  0
 63138  1  0  0  0
 63139  1  0  0  0
 63140  1  0  0  0
 64141  1  0  0  0
 65142  1  0  0  0
 68 77  1  0  0  0
 71 72  2  0  0  0
 71 83  1  0  0  0
 71143  1  0  0  0
 72 78  1  0  0  0
 72 80  1  0  0  0
 73 80  2  0  0  0
 73 81  1  0  0  0
 73 83  1  0  0  0
 74144  1  0  0  0
 74145  1  0  0  0
 74146  1  0  0  0
 74 78  1  0  0  0
 75147  1  0  0  0
 75148  1  0  0  0
 75149  1  0  0  0
 75 79  1  0  0  0
 76 77  1  0  0  0
 76 79  1  0  0  0
 76150  1  0  0  0
 76151  1  0  0  0
 77152  1  0  0  0
 77153  1  0  0  0
 78 82  1  0  0  0
 78154  1  0  0  0
 79 81  1  0  0  0
 79155  1  0  0  0
 81156  1  0  0  0
 82157  1  0  0  0
M  ISO  4   1 100  68 101  77 101  82 100
M  END
> <chiral flag>
0

> <version>
0

> <s_m_source_file>
/data/baiqing/PycharmProjects/Reinvent-master-3.2/result/LINK_invent/BTK/process_docking_weight1_custom_product_contain_oxygen_bond_distance_aromatic_linkinvent_7_9_3/rearranged_h_0191.sdf

> <i_m_source_file_index>
1

> <r_mmod_Potential_Energy-OPLS-2005>
-192.153686523438

> <r_mmod_Stretch_Energy-OPLS-2005>
53.7810401916504

> <r_mmod_Bend_Energy-OPLS-2005>
120.809539794922

> <r_mmod_Torsional_Energy-OPLS-2005>
220.528961181641

> <r_mmod_Improper_Torsional_Energy-OPLS-2005>
8.64345455169678

> <r_mmod_Van_der_Waal_Energy-OPLS-2005>
115.596710205078

> <r_mmod_Electrostatic_Energy-OPLS-2005>
-509.538543701172

> <r_mmod_Solvation_Energy-OPLS-2005>
-225.181762695312

> <b_mmod_Minimization_Converged-OPLS-2005>
0

> <r_mmod_RMS_Derivative-OPLS-2005>
4.34696960449219

$$$$
1
                    3D
 Structure written by MMmdl.
165173  0  0  1  0            999 V2000
  -30.7212  -14.4061   20.6584 C   0  0  0  0  0  0
  -30.4279  -12.3009   19.3876 C   0  0  0  0  0  0
  -29.4842  -12.5291   18.1907 C   0  0  0  0  0  0
  -28.0075  -12.3906   18.6112 C   0  0  0  0  0  0
  -27.6703  -13.2018   19.8897 C   0  0  2  0  0  0
  -28.7164  -12.9280   20.9932 C   0  0  0  0  0  0
  -25.2619  -13.8155   20.5726 C   0  0  0  0  0  0
  -24.1858  -13.0431   20.9179 C   0  0  0  0  0  0
  -24.6421  -11.6894   20.8767 C   0  0  0  0  0  0
  -23.9077  -10.4281   21.0430 C   0  0  0  0  0  0
  -24.3621   -9.4186   21.9207 C   0  0  0  0  0  0
  -23.6279   -8.2233   22.0776 C   0  0  0  0  0  0
  -22.4271   -8.0281   21.3546 C   0  0  0  0  0  0
  -21.9925   -9.0259   20.4643 C   0  0  0  0  0  0
  -22.7258  -10.2133   20.3062 C   0  0  0  0  0  0
  -21.6842   -6.0747   22.5285 C   0  0  0  0  0  0
  -21.4017   -6.5655   23.8221 C   0  0  0  0  0  0
  -21.3652   -5.6813   24.9184 C   0  0  0  0  0  0
  -21.6039   -4.3074   24.7234 C   0  0  0  0  0  0
  -21.8822   -3.8163   23.4354 C   0  0  0  0  0  0
  -21.9187   -4.6975   22.3404 C   0  0  0  0  0  0
  -22.7871  -13.5214   21.1836 C   0  0  0  0  0  0
  -22.1663   -4.2163   21.0981 F   0  0  0  0  0  0
  -21.5604   -3.4548   25.7745 F   0  0  0  0  0  0
  -30.0476  -13.2446   20.4483 N   0  0  0  0  0  0
  -26.3080  -12.9325   20.3478 N   0  0  0  0  0  0
  -25.9345  -11.6484   20.5837 N   0  0  0  0  0  0
  -22.0530  -12.8189   22.0383 N   0  0  0  0  0  0
  -25.4326  -15.1882   20.4135 N   0  0  0  0  0  0
  -31.7865  -14.6533   20.0861 O   0  0  0  0  0  0
  -21.6617   -6.8890   21.4243 O   0  0  0  0  0  0
  -22.3554  -14.5520   20.6688 O   0  0  0  0  0  0
  -24.6117  -31.8703   23.2122 C   0  0  0  0  0  0
  -25.9014  -32.4843   23.8409 C   0  0  1  0  0  0
  -27.2348  -27.4482   20.0882 C   0  0  0  0  0  0
  -25.5884  -33.8643   24.2340 N   0  0  0  0  0  0
  -23.3981  -30.4933   21.5550 C   0  0  2  0  0  0
  -24.8418  -28.9604   20.1175 C   0  0  0  0  0  0
  -22.7395  -29.4667   22.5034 C   0  0  0  0  0  0
  -18.0268  -28.1389   22.8502 C   0  0  0  0  0  0
  -24.1487  -36.7321   23.2639 C   0  0  0  0  0  0
  -25.9247  -30.8400   21.3621 C   0  0  0  0  0  0
  -26.0009  -29.4740   20.7112 C   0  0  0  0  0  0
  -27.1971  -28.7244   20.6931 C   0  0  0  0  0  0
  -26.0521  -26.9426   19.4965 C   0  0  0  0  0  0
  -24.8616  -27.6936   19.5089 C   0  0  0  0  0  0
  -23.6037  -29.8260   20.1690 C   0  0  0  0  0  0
  -25.4118  -36.3128   24.0335 C   0  0  1  0  0  0
  -20.5848  -28.3662   23.1348 C   0  0  2  0  0  0
  -20.6757  -26.9405   22.5428 C   0  0  0  0  0  0
  -19.5737  -26.6392   21.5217 C   0  0  0  0  0  0
  -18.1914  -26.7937   22.1629 C   0  0  0  0  0  0
  -19.1514  -28.8846   23.2920 C   0  0  0  0  0  0
  -18.9444  -30.1460   23.8916 C   0  0  0  0  0  0
  -17.6447  -30.6604   24.0572 C   0  0  0  0  0  0
  -25.9038  -34.9489   23.5135 C   0  0  0  0  0  0
  -16.5338  -29.9101   23.6336 C   0  0  0  0  0  0
  -16.7258  -28.6522   23.0346 C   0  0  0  0  0  0
  -26.4436  -31.6607   25.0724 C   0  0  0  0  0  0
  -25.3699  -31.3650   26.1457 C   0  0  0  0  0  0
  -27.0296  -30.3084   24.6053 C   0  0  0  0  0  0
  -27.6011  -32.4313   25.7500 C   0  0  0  0  0  0
  -27.5592  -37.1826   24.8472 C   0  0  0  0  0  0
  -21.4127  -29.3029   22.3763 N   0  0  0  0  0  0
  -26.4312  -37.3809   23.9405 N   0  0  0  0  0  0
  -24.6634  -31.0807   22.1028 N   0  0  0  0  0  0
  -23.4170  -28.8213   23.3078 O   0  0  0  0  0  0
  -28.4299  -26.7581   20.0992 O   0  0  0  0  0  0
  -26.5608  -34.8927   22.4701 O   0  0  0  0  0  0
  -23.5315  -32.1448   23.7523 O   0  0  0  0  0  0
  -31.4289  -21.0031   20.3808 C   0  0  0  0  0  0
  -30.0949  -21.1635   19.8974 C   0  0  0  0  0  0
  -29.6339  -19.8757   19.7997 C   0  0  0  0  0  0
  -28.3023  -19.3668   19.3453 C   0  0  0  0  0  0
  -32.0930  -16.9073   22.2752 C   0  0  0  0  0  0
  -29.7627  -17.7163   22.6021 C   0  0  0  0  0  0
  -30.0922  -15.4629   21.6002 C   0  0  0  0  0  0
  -30.6979  -17.5647   20.2244 C   0  0  0  0  0  0
  -30.1087  -23.4961   19.0876 C   0  0  0  0  0  0
  -28.4380  -25.3899   19.6854 C   0  0  0  0  0  0
  -29.8463  -24.7952   19.8806 C   0  0  1  0  0  0
  -30.6782  -16.9119   21.6475 C   0  0  0  0  0  0
  -31.7717  -19.7330   20.5258 N   0  0  0  0  0  0
  -30.6664  -19.0311   20.1880 N   0  0  0  0  0  0
  -29.3568  -22.3361   19.5744 N   0  0  0  0  0  0
  -30.0904  -24.5870   21.1773 F   0  0  0  0  0  0
  -31.4661  -12.4204   19.0738 H   0  0  0  0  0  0
  -30.3432  -11.2767   19.7534 H   0  0  0  0  0  0
  -29.7100  -11.8230   17.3911 H   0  0  0  0  0  0
  -29.6558  -13.5260   17.7799 H   0  0  0  0  0  0
  -27.8059  -11.3328   18.7816 H   0  0  0  0  0  0
  -27.3544  -12.6949   17.7915 H   0  0  0  0  0  0
  -27.7281  -14.2574   19.6259 H   0  0  0  0  0  0
  -28.6859  -11.8765   21.2842 H   0  0  0  0  0  0
  -28.4782  -13.4741   21.9048 H   0  0  0  0  0  0
  -25.2778   -9.5636   22.4780 H   0  0  0  0  0  0
  -23.9974   -7.4623   22.7502 H   0  0  0  0  0  0
  -21.0870   -8.8783   19.8922 H   0  0  0  0  0  0
  -22.3744  -10.9686   19.6164 H   0  0  0  0  0  0
  -21.2034   -7.6172   23.9720 H   0  0  0  0  0  0
  -21.1462   -6.0554   25.9085 H   0  0  0  0  0  0
  -22.0602   -2.7626   23.2860 H   0  0  0  0  0  0
  -22.4175  -11.9831   22.4725 H   0  0  0  0  0  0
  -21.1148  -13.1193   22.2614 H   0  0  0  0  0  0
  -24.6629  -15.8421   20.5103 H   0  0  0  0  0  0
  -26.2907  -15.6325   20.1136 H   0  0  0  0  0  0
  -26.7088  -32.5567   23.1182 H   0  0  0  0  0  0
  -25.0003  -33.9814   25.0462 H   0  0  0  0  0  0
  -22.6854  -31.3098   21.4191 H   0  0  0  0  0  0
  -23.3758  -35.9643   23.3307 H   0  0  0  0  0  0
  -24.3557  -36.8945   22.2049 H   0  0  0  0  0  0
  -23.7222  -37.6516   23.6662 H   0  0  0  0  0  0
  -26.0268  -31.6052   20.5908 H   0  0  0  0  0  0
  -26.8173  -30.8982   21.9735 H   0  0  0  0  0  0
  -28.0952  -29.1197   21.1464 H   0  0  0  0  0  0
  -26.0250  -25.9757   19.0169 H   0  0  0  0  0  0
  -23.9686  -27.2936   19.0480 H   0  0  0  0  0  0
  -23.7112  -30.6019   19.4105 H   0  0  0  0  0  0
  -22.7263  -29.2471   19.8745 H   0  0  0  0  0  0
  -25.1290  -36.2000   25.0828 H   0  0  0  0  0  0
  -20.9936  -28.3211   24.1470 H   0  0  0  0  0  0
  -20.5689  -26.2248   23.3591 H   0  0  0  0  0  0
  -21.6630  -26.7465   22.1216 H   0  0  0  0  0  0
  -19.6898  -25.6307   21.1237 H   0  0  0  0  0  0
  -19.6687  -27.3207   20.6752 H   0  0  0  0  0  0
  -17.4182  -26.6697   21.4028 H   0  0  0  0  0  0
  -18.0312  -26.0083   22.9031 H   0  0  0  0  0  0
  -19.7913  -30.7276   24.2290 H   0  0  0  0  0  0
  -17.4996  -31.6282   24.5181 H   0  0  0  0  0  0
  -15.5337  -30.3007   23.7657 H   0  0  0  0  0  0
  -15.8656  -28.0857   22.7033 H   0  0  0  0  0  0
  -24.5896  -30.6988   25.7758 H   0  0  0  0  0  0
  -24.8846  -32.2770   26.4942 H   0  0  0  0  0  0
  -25.8046  -30.8779   27.0194 H   0  0  0  0  0  0
  -26.2849  -29.6841   24.1103 H   0  0  0  0  0  0
  -27.4118  -29.7306   25.4477 H   0  0  0  0  0  0
  -27.8643  -30.4471   23.9177 H   0  0  0  0  0  0
  -27.2647  -33.3608   26.2111 H   0  0  0  0  0  0
  -28.3809  -32.6881   25.0315 H   0  0  0  0  0  0
  -28.0690  -31.8405   26.5390 H   0  0  0  0  0  0
  -28.2606  -38.0132   24.7547 H   0  0  0  0  0  0
  -28.1097  -36.2661   24.6290 H   0  0  0  0  0  0
  -27.2292  -37.1461   25.8871 H   0  0  0  0  0  0
  -20.9277  -29.8730   21.6975 H   0  0  0  0  0  0
  -26.0202  -38.2888   24.1415 H   0  0  0  0  0  0
  -32.1584  -21.7650   20.6164 H   0  0  0  0  0  0
  -27.5767  -20.1750   19.2600 H   0  0  0  0  0  0
  -27.8974  -18.6385   20.0461 H   0  0  0  0  0  0
  -28.3859  -18.8920   18.3684 H   0  0  0  0  0  0
  -32.0993  -16.4049   23.2426 H   0  0  0  0  0  0
  -32.4589  -17.9195   22.4421 H   0  0  0  0  0  0
  -32.8264  -16.4068   21.6452 H   0  0  0  0  0  0
  -29.6679  -17.2263   23.5724 H   0  0  0  0  0  0
  -28.7578  -17.8239   22.1909 H   0  0  0  0  0  0
  -30.1489  -18.7188   22.7924 H   0  0  0  0  0  0
  -29.0426  -15.5583   21.3216 H   0  0  0  0  0  0
  -30.1035  -15.0395   22.6065 H   0  0  0  0  0  0
  -29.8443  -17.2043   19.6497 H   0  0  0  0  0  0
  -31.5722  -17.2342   19.6614 H   0  0  0  0  0  0
  -31.1798  -23.2932   19.0921 H   0  0  0  0  0  0
  -29.8516  -23.6622   18.0401 H   0  0  0  0  0  0
  -27.7079  -24.8045   20.2489 H   0  0  0  0  0  0
  -28.1706  -25.3341   18.6290 H   0  0  0  0  0  0
  -30.5753  -25.5378   19.5514 H   0  0  0  0  0  0
  -28.4246  -22.2235   19.1876 H   0  0  0  0  0  0
  1 25  1  0  0  0
  1 30  2  0  0  0
  1 77  1  0  0  0
  2  3  1  0  0  0
  2 25  1  0  0  0
  2 87  1  0  0  0
  2 88  1  0  0  0
  3  4  1  0  0  0
  3 89  1  0  0  0
  3 90  1  0  0  0
  4  5  1  0  0  0
  4 91  1  0  0  0
  4 92  1  0  0  0
  5  6  1  0  0  0
  5 26  1  0  0  0
  5 93  1  0  0  0
  6 25  1  0  0  0
  6 94  1  0  0  0
  6 95  1  0  0  0
  7  8  2  0  0  0
  7 26  1  0  0  0
  7 29  1  0  0  0
  8  9  1  0  0  0
  8 22  1  0  0  0
  9 10  1  0  0  0
  9 27  2  0  0  0
 10 11  2  0  0  0
 10 15  1  0  0  0
 11 12  1  0  0  0
 11 96  1  0  0  0
 12 13  2  0  0  0
 12 97  1  0  0  0
 13 14  1  0  0  0
 13 31  1  0  0  0
 14 15  2  0  0  0
 14 98  1  0  0  0
 15 99  1  0  0  0
 16 17  2  0  0  0
 16 21  1  0  0  0
 16 31  1  0  0  0
 17 18  1  0  0  0
 17100  1  0  0  0
 18 19  2  0  0  0
 18101  1  0  0  0
 19 20  1  0  0  0
 19 24  1  0  0  0
 20 21  2  0  0  0
 20102  1  0  0  0
 21 23  1  0  0  0
 22 28  1  0  0  0
 22 32  2  0  0  0
 26 27  1  0  0  0
 28103  1  0  0  0
 28104  1  0  0  0
 29105  1  0  0  0
 29106  1  0  0  0
 33 34  1  0  0  0
 33 66  1  0  0  0
 33 70  2  0  0  0
 34 36  1  0  0  0
 34 59  1  0  0  0
 34107  1  0  0  0
 35 44  2  0  0  0
 35 45  1  0  0  0
 35 68  1  0  0  0
 36 56  1  0  0  0
 36108  1  0  0  0
 37 39  1  0  0  0
 37 47  1  0  0  0
 37 66  1  0  0  0
 37109  1  0  0  0
 38 43  2  0  0  0
 38 46  1  0  0  0
 38 47  1  0  0  0
 39 64  1  0  0  0
 39 67  2  0  0  0
 40 52  1  0  0  0
 40 53  2  0  0  0
 40 58  1  0  0  0
 41110  1  0  0  0
 41111  1  0  0  0
 41112  1  0  0  0
 41 48  1  0  0  0
 42 43  1  0  0  0
 42 66  1  0  0  0
 42113  1  0  0  0
 42114  1  0  0  0
 43 44  1  0  0  0
 44115  1  0  0  0
 45 46  2  0  0  0
 45116  1  0  0  0
 46117  1  0  0  0
 47118  1  0  0  0
 47119  1  0  0  0
 48 56  1  0  0  0
 48 65  1  0  0  0
 48120  1  0  0  0
 49 50  1  0  0  0
 49 53  1  0  0  0
 49 64  1  0  0  0
 49121  1  0  0  0
 50 51  1  0  0  0
 50122  1  0  0  0
 50123  1  0  0  0
 51 52  1  0  0  0
 51124  1  0  0  0
 51125  1  0  0  0
 52126  1  0  0  0
 52127  1  0  0  0
 53 54  1  0  0  0
 54 55  2  0  0  0
 54128  1  0  0  0
 55 57  1  0  0  0
 55129  1  0  0  0
 56 69  2  0  0  0
 57 58  2  0  0  0
 57130  1  0  0  0
 58131  1  0  0  0
 59 60  1  0  0  0
 59 61  1  0  0  0
 59 62  1  0  0  0
 60132  1  0  0  0
 60133  1  0  0  0
 60134  1  0  0  0
 61135  1  0  0  0
 61136  1  0  0  0
 61137  1  0  0  0
 62138  1  0  0  0
 62139  1  0  0  0
 62140  1  0  0  0
 63 65  1  0  0  0
 63141  1  0  0  0
 63142  1  0  0  0
 63143  1  0  0  0
 64144  1  0  0  0
 65145  1  0  0  0
 68 80  1  0  0  0
 71 72  1  0  0  0
 71 83  2  0  0  0
 71146  1  0  0  0
 72 73  2  0  0  0
 72 85  1  0  0  0
 73 74  1  0  0  0
 73 84  1  0  0  0
 74147  1  0  0  0
 74148  1  0  0  0
 74149  1  0  0  0
 75150  1  0  0  0
 75151  1  0  0  0
 75152  1  0  0  0
 75 82  1  0  0  0
 76 82  1  0  0  0
 76153  1  0  0  0
 76154  1  0  0  0
 76155  1  0  0  0
 77 82  1  0  0  0
 77156  1  0  0  0
 77157  1  0  0  0
 78 82  1  0  0  0
 78 84  1  0  0  0
 78158  1  0  0  0
 78159  1  0  0  0
 79 81  1  0  0  0
 79 85  1  0  0  0
 79160  1  0  0  0
 79161  1  0  0  0
 80 81  1  0  0  0
 80162  1  0  0  0
 80163  1  0  0  0
 81 86  1  0  0  0
 81164  1  0  0  0
 83 84  1  0  0  0
 85165  1  0  0  0
M  ISO  4   1 100  68 101  77 100  80 101
M  END
> <chiral flag>
0

> <version>
0

> <s_m_source_file>
/data/baiqing/PycharmProjects/Reinvent-master-3.2/result/LINK_invent/BTK/process_docking_weight1_custom_product_contain_oxygen_bond_distance_aromatic_linkinvent_7_9_3/rearranged_h_0191.sdf

> <i_m_source_file_index>
2

> <r_mmod_Potential_Energy-OPLS-2005>
33.4469718933105

> <r_mmod_Stretch_Energy-OPLS-2005>
36.8334197998047

> <r_mmod_Bend_Energy-OPLS-2005>
108.070442199707

> <r_mmod_Torsional_Energy-OPLS-2005>
171.486709594727

> <r_mmod_Improper_Torsional_Energy-OPLS-2005>
4.52939510345459

> <r_mmod_Van_der_Waal_Energy-OPLS-2005>
133.659408569336

> <r_mmod_Electrostatic_Energy-OPLS-2005>
-210.66423034668

> <r_mmod_Solvation_Energy-OPLS-2005>
-218.917022705078

> <b_mmod_Minimization_Converged-OPLS-2005>
0

> <r_mmod_RMS_Derivative-OPLS-2005>
2.24889469146729

$$$$
2
                    3D
 Structure written by MMmdl.
167175  0  0  1  0            999 V2000
  -30.6135  -14.5646   20.5696 C   0  0  0  0  0  0
  -30.4427  -12.3624   19.4269 C   0  0  0  0  0  0
  -29.5054  -12.5185   18.2092 C   0  0  0  0  0  0
  -28.0243  -12.3616   18.6160 C   0  0  0  0  0  0
  -27.6569  -13.2015   19.8701 C   0  0  2  0  0  0
  -28.6997  -12.9839   20.9911 C   0  0  0  0  0  0
  -25.2574  -13.8133   20.5644 C   0  0  0  0  0  0
  -24.1834  -13.0430   20.9189 C   0  0  0  0  0  0
  -24.6373  -11.6888   20.8727 C   0  0  0  0  0  0
  -23.9033  -10.4293   21.0399 C   0  0  0  0  0  0
  -24.3595   -9.4219   21.9168 C   0  0  0  0  0  0
  -23.6294   -8.2247   22.0749 C   0  0  0  0  0  0
  -22.4282   -8.0261   21.3539 C   0  0  0  0  0  0
  -21.9897   -9.0235   20.4643 C   0  0  0  0  0  0
  -22.7211  -10.2124   20.3052 C   0  0  0  0  0  0
  -21.6856   -6.0724   22.5276 C   0  0  0  0  0  0
  -21.4000   -6.5619   23.8207 C   0  0  0  0  0  0
  -21.3669   -5.6779   24.9174 C   0  0  0  0  0  0
  -21.6051   -4.3047   24.7221 C   0  0  0  0  0  0
  -21.8819   -3.8131   23.4345 C   0  0  0  0  0  0
  -21.9187   -4.6952   22.3396 C   0  0  0  0  0  0
  -22.7868  -13.5243   21.1859 C   0  0  0  0  0  0
  -22.1660   -4.2141   21.0988 F   0  0  0  0  0  0
  -21.5652   -3.4526   25.7735 F   0  0  0  0  0  0
  -30.0199  -13.3428   20.4417 N   0  0  0  0  0  0
  -26.2986  -12.9275   20.3317 N   0  0  0  0  0  0
  -25.9289  -11.6446   20.5730 N   0  0  0  0  0  0
  -22.0489  -12.8244   22.0408 N   0  0  0  0  0  0
  -25.4306  -15.1841   20.3999 N   0  0  0  0  0  0
  -31.7566  -14.7838   20.1447 O   0  0  0  0  0  0
  -21.6641   -6.8868   21.4242 O   0  0  0  0  0  0
  -22.3570  -14.5543   20.6700 O   0  0  0  0  0  0
  -24.6239  -31.8681   23.2058 C   0  0  0  0  0  0
  -25.9103  -32.4820   23.8392 C   0  0  1  0  0  0
  -27.2172  -27.3668   20.0932 C   0  0  0  0  0  0
  -25.5947  -33.8626   24.2343 N   0  0  0  0  0  0
  -23.4123  -30.4942   21.5502 C   0  0  2  0  0  0
  -24.8535  -28.9603   20.1069 C   0  0  0  0  0  0
  -22.7473  -29.4676   22.4966 C   0  0  0  0  0  0
  -18.0304  -28.1378   22.8531 C   0  0  0  0  0  0
  -24.1473  -36.7280   23.2640 C   0  0  0  0  0  0
  -25.9485  -30.8099   21.3702 C   0  0  0  0  0  0
  -26.0198  -29.4420   20.7118 C   0  0  0  0  0  0
  -27.2014  -28.6530   20.7055 C   0  0  0  0  0  0
  -26.0244  -26.9302   19.4635 C   0  0  0  0  0  0
  -24.8544  -27.7068   19.4798 C   0  0  0  0  0  0
  -23.6216  -29.8349   20.1615 C   0  0  0  0  0  0
  -25.4102  -36.3118   24.0357 C   0  0  1  0  0  0
  -20.5905  -28.3684   23.1302 C   0  0  2  0  0  0
  -20.6780  -26.9408   22.5425 C   0  0  0  0  0  0
  -19.5741  -26.6392   21.5237 C   0  0  0  0  0  0
  -18.1931  -26.7930   22.1646 C   0  0  0  0  0  0
  -19.1559  -28.8848   23.2911 C   0  0  0  0  0  0
  -18.9485  -30.1457   23.8915 C   0  0  0  0  0  0
  -17.6484  -30.6578   24.0579 C   0  0  0  0  0  0
  -25.9056  -34.9493   23.5146 C   0  0  0  0  0  0
  -16.5371  -29.9098   23.6319 C   0  0  0  0  0  0
  -16.7295  -28.6505   23.0363 C   0  0  0  0  0  0
  -26.4501  -31.6599   25.0738 C   0  0  0  0  0  0
  -25.3759  -31.3743   26.1488 C   0  0  0  0  0  0
  -27.0351  -30.3044   24.6120 C   0  0  0  0  0  0
  -27.6071  -32.4324   25.7498 C   0  0  0  0  0  0
  -27.5567  -37.1803   24.8484 C   0  0  0  0  0  0
  -21.4190  -29.3066   22.3708 N   0  0  0  0  0  0
  -26.4273  -37.3817   23.9445 N   0  0  0  0  0  0
  -24.6811  -31.0736   22.0987 N   0  0  0  0  0  0
  -23.4235  -28.8231   23.3026 O   0  0  0  0  0  0
  -28.3544  -26.5586   20.1337 O   0  0  0  0  0  0
  -26.5594  -34.8960   22.4690 O   0  0  0  0  0  0
  -23.5418  -32.1477   23.7398 O   0  0  0  0  0  0
  -29.7249  -18.2368   23.1762 C   0  0  0  0  0  0
  -29.9318  -16.8378   21.4520 C   0  0  0  0  0  0
  -29.7911  -19.0623   21.1212 C   0  0  0  0  0  0
  -30.9447  -18.4324   25.3821 C   0  0  0  0  0  0
  -28.9211  -22.3506   18.3847 C   0  0  0  0  0  0
  -31.4530  -21.8807   20.3486 C   0  0  0  0  0  0
  -29.3057  -24.1409   20.2084 C   0  0  0  0  0  0
  -28.1760  -25.1471   19.8048 C   0  0  0  0  0  0
  -29.5810  -18.4760   24.6779 C   0  0  1  0  0  0
  -29.0092  -22.6168   19.9015 C   0  0  2  0  0  0
  -29.9655  -21.5804   20.6085 C   0  0  1  0  0  0
  -29.8176  -16.9758   22.7680 N   0  0  0  0  0  0
  -29.7321  -19.3307   22.4143 N   0  0  0  0  0  0
  -29.8753  -17.8494   20.5647 N   0  0  0  0  0  0
  -29.7702  -15.5312   21.0200 N   0  0  0  0  0  0
  -29.6757  -20.1615   20.2729 N   0  0  0  0  0  0
  -28.9362  -19.7805   24.8516 N   0  3  0  0  0  0
  -31.4809  -12.5073   19.1223 H   0  0  0  0  0  0
  -30.3830  -11.3508   19.8297 H   0  0  0  0  0  0
  -29.7627  -11.7853   17.4425 H   0  0  0  0  0  0
  -29.6582  -13.4987   17.7560 H   0  0  0  0  0  0
  -27.8473  -11.3058   18.8127 H   0  0  0  0  0  0
  -27.3741  -12.6242   17.7813 H   0  0  0  0  0  0
  -27.6920  -14.2476   19.5669 H   0  0  0  0  0  0
  -28.7053  -11.9395   21.3075 H   0  0  0  0  0  0
  -28.4427  -13.5512   21.8861 H   0  0  0  0  0  0
  -25.2745   -9.5692   22.4756 H   0  0  0  0  0  0
  -23.9996   -7.4633   22.7466 H   0  0  0  0  0  0
  -21.0830   -8.8729   19.8965 H   0  0  0  0  0  0
  -22.3640  -10.9651   19.6161 H   0  0  0  0  0  0
  -21.1975   -7.6128   23.9697 H   0  0  0  0  0  0
  -21.1510   -6.0519   25.9077 H   0  0  0  0  0  0
  -22.0593   -2.7596   23.2842 H   0  0  0  0  0  0
  -22.4070  -11.9884   22.4797 H   0  0  0  0  0  0
  -21.1101  -13.1282   22.2607 H   0  0  0  0  0  0
  -24.6459  -15.8247   20.4682 H   0  0  0  0  0  0
  -26.2451  -15.6066   19.9753 H   0  0  0  0  0  0
  -26.7171  -32.5532   23.1160 H   0  0  0  0  0  0
  -25.0192  -33.9793   25.0547 H   0  0  0  0  0  0
  -22.7039  -31.3162   21.4147 H   0  0  0  0  0  0
  -23.3758  -35.9585   23.3334 H   0  0  0  0  0  0
  -24.3573  -36.8862   22.2051 H   0  0  0  0  0  0
  -23.7227  -37.6496   23.6619 H   0  0  0  0  0  0
  -26.0772  -31.5759   20.6043 H   0  0  0  0  0  0
  -26.8319  -30.8586   21.9960 H   0  0  0  0  0  0
  -28.0962  -29.0156   21.1950 H   0  0  0  0  0  0
  -25.9576  -25.9797   18.9534 H   0  0  0  0  0  0
  -23.9584  -27.3338   19.0024 H   0  0  0  0  0  0
  -23.7407  -30.6174   19.4113 H   0  0  0  0  0  0
  -22.7422  -29.2657   19.8508 H   0  0  0  0  0  0
  -25.1280  -36.1969   25.0847 H   0  0  0  0  0  0
  -20.9995  -28.3231   24.1423 H   0  0  0  0  0  0
  -20.5711  -26.2291   23.3641 H   0  0  0  0  0  0
  -21.6645  -26.7468   22.1199 H   0  0  0  0  0  0
  -19.6899  -25.6326   21.1243 H   0  0  0  0  0  0
  -19.6632  -27.3223   20.6791 H   0  0  0  0  0  0
  -17.4211  -26.6741   21.4026 H   0  0  0  0  0  0
  -18.0270  -26.0054   22.9013 H   0  0  0  0  0  0
  -19.7964  -30.7276   24.2243 H   0  0  0  0  0  0
  -17.5051  -31.6250   24.5203 H   0  0  0  0  0  0
  -15.5378  -30.3011   23.7616 H   0  0  0  0  0  0
  -15.8701  -28.0823   22.7054 H   0  0  0  0  0  0
  -24.5895  -30.7126   25.7819 H   0  0  0  0  0  0
  -24.8986  -32.2911   26.4931 H   0  0  0  0  0  0
  -25.8102  -30.8914   27.0249 H   0  0  0  0  0  0
  -26.2905  -29.6810   24.1134 H   0  0  0  0  0  0
  -27.4110  -29.7274   25.4584 H   0  0  0  0  0  0
  -27.8754  -30.4397   23.9311 H   0  0  0  0  0  0
  -27.2669  -33.3612   26.2092 H   0  0  0  0  0  0
  -28.3839  -32.6903   25.0282 H   0  0  0  0  0  0
  -28.0765  -31.8451   26.5403 H   0  0  0  0  0  0
  -28.2618  -38.0063   24.7505 H   0  0  0  0  0  0
  -28.1032  -36.2613   24.6314 H   0  0  0  0  0  0
  -27.2299  -37.1445   25.8889 H   0  0  0  0  0  0
  -20.9353  -29.8814   21.6942 H   0  0  0  0  0  0
  -26.0170  -38.2905   24.1401 H   0  0  0  0  0  0
  -31.4003  -17.4488   25.2676 H   0  0  0  0  0  0
  -30.8486  -18.6241   26.4510 H   0  0  0  0  0  0
  -31.6339  -19.1696   24.9687 H   0  0  0  0  0  0
  -28.5794  -21.3379   18.1748 H   0  0  0  0  0  0
  -29.8871  -22.4869   17.8958 H   0  0  0  0  0  0
  -28.2021  -23.0080   17.9000 H   0  0  0  0  0  0
  -31.6940  -21.8478   19.2865 H   0  0  0  0  0  0
  -32.0965  -21.1624   20.8583 H   0  0  0  0  0  0
  -31.7318  -22.8667   20.7177 H   0  0  0  0  0  0
  -29.4753  -24.2462   21.2792 H   0  0  0  0  0  0
  -30.2376  -24.4370   19.7238 H   0  0  0  0  0  0
  -27.2670  -24.7837   20.2843 H   0  0  0  0  0  0
  -28.0160  -25.0827   18.7292 H   0  0  0  0  0  0
  -28.9311  -17.7143   25.1133 H   0  0  0  0  0  0
  -28.0153  -22.4227   20.3078 H   0  0  0  0  0  0
  -29.8062  -21.7142   21.6791 H   0  0  0  0  0  0
  -28.8918  -15.1324   21.3032 H   0  0  0  0  0  0
  -29.6841  -19.9259   19.2886 H   0  0  0  0  0  0
  -29.2047  -20.2448   23.9925 H   0  0  0  0  0  0
  -29.2576  -20.2736   25.6600 H   0  0  0  0  0  0
  -27.9394  -19.6802   24.8501 H   0  0  0  0  0  0
  1 25  1  0  0  0
  1 30  2  0  0  0
  1 85  1  0  0  0
  2  3  1  0  0  0
  2 25  1  0  0  0
  2 88  1  0  0  0
  2 89  1  0  0  0
  3  4  1  0  0  0
  3 90  1  0  0  0
  3 91  1  0  0  0
  4  5  1  0  0  0
  4 92  1  0  0  0
  4 93  1  0  0  0
  5  6  1  0  0  0
  5 26  1  0  0  0
  5 94  1  0  0  0
  6 25  1  0  0  0
  6 95  1  0  0  0
  6 96  1  0  0  0
  7  8  2  0  0  0
  7 26  1  0  0  0
  7 29  1  0  0  0
  8  9  1  0  0  0
  8 22  1  0  0  0
  9 10  1  0  0  0
  9 27  2  0  0  0
 10 11  2  0  0  0
 10 15  1  0  0  0
 11 12  1  0  0  0
 11 97  1  0  0  0
 12 13  2  0  0  0
 12 98  1  0  0  0
 13 14  1  0  0  0
 13 31  1  0  0  0
 14 15  2  0  0  0
 14 99  1  0  0  0
 15100  1  0  0  0
 16 17  2  0  0  0
 16 21  1  0  0  0
 16 31  1  0  0  0
 17 18  1  0  0  0
 17101  1  0  0  0
 18 19  2  0  0  0
 18102  1  0  0  0
 19 20  1  0  0  0
 19 24  1  0  0  0
 20 21  2  0  0  0
 20103  1  0  0  0
 21 23  1  0  0  0
 22 28  1  0  0  0
 22 32  2  0  0  0
 26 27  1  0  0  0
 28104  1  0  0  0
 28105  1  0  0  0
 29106  1  0  0  0
 29107  1  0  0  0
 33 34  1  0  0  0
 33 66  1  0  0  0
 33 70  2  0  0  0
 34 36  1  0  0  0
 34 59  1  0  0  0
 34108  1  0  0  0
 35 44  2  0  0  0
 35 45  1  0  0  0
 35 68  1  0  0  0
 36 56  1  0  0  0
 36109  1  0  0  0
 37 39  1  0  0  0
 37 47  1  0  0  0
 37 66  1  0  0  0
 37110  1  0  0  0
 38 43  2  0  0  0
 38 46  1  0  0  0
 38 47  1  0  0  0
 39 64  1  0  0  0
 39 67  2  0  0  0
 40 52  1  0  0  0
 40 53  2  0  0  0
 40 58  1  0  0  0
 41111  1  0  0  0
 41112  1  0  0  0
 41113  1  0  0  0
 41 48  1  0  0  0
 42 43  1  0  0  0
 42 66  1  0  0  0
 42114  1  0  0  0
 42115  1  0  0  0
 43 44  1  0  0  0
 44116  1  0  0  0
 45 46  2  0  0  0
 45117  1  0  0  0
 46118  1  0  0  0
 47119  1  0  0  0
 47120  1  0  0  0
 48 56  1  0  0  0
 48 65  1  0  0  0
 48121  1  0  0  0
 49 50  1  0  0  0
 49 53  1  0  0  0
 49 64  1  0  0  0
 49122  1  0  0  0
 50 51  1  0  0  0
 50123  1  0  0  0
 50124  1  0  0  0
 51 52  1  0  0  0
 51125  1  0  0  0
 51126  1  0  0  0
 52127  1  0  0  0
 52128  1  0  0  0
 53 54  1  0  0  0
 54 55  2  0  0  0
 54129  1  0  0  0
 55 57  1  0  0  0
 55130  1  0  0  0
 56 69  2  0  0  0
 57 58  2  0  0  0
 57131  1  0  0  0
 58132  1  0  0  0
 59 60  1  0  0  0
 59 61  1  0  0  0
 59 62  1  0  0  0
 60133  1  0  0  0
 60134  1  0  0  0
 60135  1  0  0  0
 61136  1  0  0  0
 61137  1  0  0  0
 61138  1  0  0  0
 62139  1  0  0  0
 62140  1  0  0  0
 62141  1  0  0  0
 63 65  1  0  0  0
 63142  1  0  0  0
 63143  1  0  0  0
 63144  1  0  0  0
 64145  1  0  0  0
 65146  1  0  0  0
 68 78  1  0  0  0
 71 79  1  0  0  0
 71 82  2  0  0  0
 71 83  1  0  0  0
 72 82  1  0  0  0
 72 84  2  0  0  0
 72 85  1  0  0  0
 73 83  2  0  0  0
 73 84  1  0  0  0
 73 86  1  0  0  0
 74147  1  0  0  0
 74148  1  0  0  0
 74149  1  0  0  0
 74 79  1  0  0  0
 75150  1  0  0  0
 75151  1  0  0  0
 75152  1  0  0  0
 75 80  1  0  0  0
 76153  1  0  0  0
 76154  1  0  0  0
 76155  1  0  0  0
 76 81  1  0  0  0
 77 78  1  0  0  0
 77 80  1  0  0  0
 77156  1  0  0  0
 77157  1  0  0  0
 78158  1  0  0  0
 78159  1  0  0  0
 79 87  1  0  0  0
 79160  1  0  0  0
 80 81  1  0  0  0
 80161  1  0  0  0
 81 86  1  0  0  0
 81162  1  0  0  0
 85163  1  0  0  0
 86164  1  0  0  0
 87165  1  0  0  0
 87166  1  0  0  0
 87167  1  0  0  0
M  CHG  1  87   1
M  ISO  4   1 100  68 101  78 101  85 100
M  END
> <chiral flag>
0

> <version>
0

> <s_m_source_file>
/data/baiqing/PycharmProjects/Reinvent-master-3.2/result/LINK_invent/BTK/process_docking_weight1_custom_product_contain_oxygen_bond_distance_aromatic_linkinvent_7_9_3/rearranged_h_0191.sdf

> <i_m_source_file_index>
3

> <r_mmod_Potential_Energy-OPLS-2005>
-1249.95190429688

> <r_mmod_Stretch_Energy-OPLS-2005>
52.7350730895996

> <r_mmod_Bend_Energy-OPLS-2005>
131.419906616211

> <r_mmod_Torsional_Energy-OPLS-2005>
231.024749755859

> <r_mmod_Improper_Torsional_Energy-OPLS-2005>
8.9320650100708

> <r_mmod_Van_der_Waal_Energy-OPLS-2005>
188.205017089844

> <r_mmod_Electrostatic_Energy-OPLS-2005>
-1386.59313964844

> <r_mmod_Solvation_Energy-OPLS-2005>
-505.579254150391

> <b_mmod_Minimization_Converged-OPLS-2005>
0

> <r_mmod_RMS_Derivative-OPLS-2005>
3.74464154243469

$$$$
4
                    3D
 Structure written by MMmdl.
155163  0  0  1  0            999 V2000
  -30.7082  -14.4529   20.6047 C   0  0  0  0  0  0
  -30.4229  -12.3116   19.4056 C   0  0  0  0  0  0
  -29.4855  -12.5040   18.1975 C   0  0  0  0  0  0
  -28.0089  -12.3628   18.6180 C   0  0  0  0  0  0
  -27.6602  -13.2047   19.8732 C   0  0  2  0  0  0
  -28.7022  -12.9727   20.9887 C   0  0  0  0  0  0
  -25.2600  -13.8152   20.5696 C   0  0  0  0  0  0
  -24.1839  -13.0431   20.9171 C   0  0  0  0  0  0
  -24.6378  -11.6895   20.8724 C   0  0  0  0  0  0
  -23.9049  -10.4286   21.0399 C   0  0  0  0  0  0
  -24.3606   -9.4210   21.9185 C   0  0  0  0  0  0
  -23.6283   -8.2241   22.0752 C   0  0  0  0  0  0
  -22.4269   -8.0275   21.3542 C   0  0  0  0  0  0
  -21.9895   -9.0247   20.4652 C   0  0  0  0  0  0
  -22.7215  -10.2128   20.3057 C   0  0  0  0  0  0
  -21.6848   -6.0736   22.5278 C   0  0  0  0  0  0
  -21.4014   -6.5645   23.8213 C   0  0  0  0  0  0
  -21.3657   -5.6797   24.9174 C   0  0  0  0  0  0
  -21.6036   -4.3058   24.7218 C   0  0  0  0  0  0
  -21.8819   -3.8150   23.4343 C   0  0  0  0  0  0
  -21.9197   -4.6966   22.3400 C   0  0  0  0  0  0
  -22.7872  -13.5240   21.1827 C   0  0  0  0  0  0
  -22.1665   -4.2157   21.0975 F   0  0  0  0  0  0
  -21.5625   -3.4540   25.7729 F   0  0  0  0  0  0
  -30.0293  -13.2875   20.4340 N   0  0  0  0  0  0
  -26.3023  -12.9311   20.3376 N   0  0  0  0  0  0
  -25.9306  -11.6468   20.5768 N   0  0  0  0  0  0
  -22.0499  -12.8246   22.0385 N   0  0  0  0  0  0
  -25.4370  -15.1860   20.4130 N   0  0  0  0  0  0
  -31.8100  -14.6674   20.0934 O   0  0  0  0  0  0
  -21.6637   -6.8873   21.4237 O   0  0  0  0  0  0
  -22.3561  -14.5535   20.6665 O   0  0  0  0  0  0
  -24.6180  -31.8661   23.2072 C   0  0  0  0  0  0
  -25.9060  -32.4815   23.8384 C   0  0  1  0  0  0
  -27.2327  -27.4193   20.0998 C   0  0  0  0  0  0
  -25.5908  -33.8616   24.2318 N   0  0  0  0  0  0
  -23.4076  -30.4900   21.5483 C   0  0  2  0  0  0
  -24.8532  -28.9516   20.1115 C   0  0  0  0  0  0
  -22.7449  -29.4659   22.4977 C   0  0  0  0  0  0
  -18.0281  -28.1395   22.8495 C   0  0  0  0  0  0
  -24.1486  -36.7316   23.2642 C   0  0  0  0  0  0
  -25.9373  -30.8299   21.3578 C   0  0  0  0  0  0
  -26.0150  -29.4617   20.7062 C   0  0  0  0  0  0
  -27.2121  -28.7065   20.6893 C   0  0  0  0  0  0
  -26.0561  -26.9243   19.4990 C   0  0  0  0  0  0
  -24.8712  -27.6857   19.4989 C   0  0  0  0  0  0
  -23.6150  -29.8199   20.1631 C   0  0  0  0  0  0
  -25.4104  -36.3116   24.0349 C   0  0  1  0  0  0
  -20.5882  -28.3683   23.1309 C   0  0  2  0  0  0
  -20.6771  -26.9414   22.5416 C   0  0  0  0  0  0
  -19.5730  -26.6398   21.5226 C   0  0  0  0  0  0
  -18.1915  -26.7944   22.1643 C   0  0  0  0  0  0
  -19.1536  -28.8859   23.2902 C   0  0  0  0  0  0
  -18.9450  -30.1466   23.8914 C   0  0  0  0  0  0
  -17.6448  -30.6590   24.0575 C   0  0  0  0  0  0
  -25.9035  -34.9480   23.5133 C   0  0  0  0  0  0
  -16.5344  -29.9087   23.6323 C   0  0  0  0  0  0
  -16.7275  -28.6513   23.0324 C   0  0  0  0  0  0
  -26.4468  -31.6601   25.0727 C   0  0  0  0  0  0
  -25.3736  -31.3693   26.1479 C   0  0  0  0  0  0
  -27.0281  -30.3047   24.6094 C   0  0  0  0  0  0
  -27.6056  -32.4313   25.7483 C   0  0  0  0  0  0
  -27.5580  -37.1816   24.8470 C   0  0  0  0  0  0
  -21.4170  -29.3048   22.3726 N   0  0  0  0  0  0
  -26.4292  -37.3793   23.9414 N   0  0  0  0  0  0
  -24.6738  -31.0754   22.0968 N   0  0  0  0  0  0
  -23.4233  -28.8212   23.3020 O   0  0  0  0  0  0
  -28.3853  -26.6603   20.0919 O   0  0  0  0  0  0
  -26.5590  -34.8945   22.4696 O   0  0  0  0  0  0
  -23.5366  -32.1399   23.7464 O   0  0  0  0  0  0
  -28.5385  -19.3422   20.5558 C   0  0  0  0  0  0
  -31.1542  -19.0403   21.1259 C   0  0  0  0  0  0
  -30.2564  -17.9453   21.2434 C   0  0  0  0  0  0
  -29.4163  -20.4594   20.4890 C   0  0  0  0  0  0
  -29.3413  -22.9635   20.3730 C   0  0  0  0  0  0
  -32.6362  -18.9178   21.4315 C   0  0  0  0  0  0
  -30.7002  -16.6090   21.8600 C   0  0  0  0  0  0
  -28.6522  -24.1813   19.7088 C   0  0  0  0  0  0
  -28.2865  -25.3424   20.6798 C   0  0  0  0  0  0
  -28.9419  -18.0980   20.9380 N   0  0  0  0  0  0
  -30.7363  -20.2753   20.7527 N   0  0  0  0  0  0
  -28.8654  -21.7247   20.1054 N   0  0  0  0  0  0
  -30.0791  -15.3869   21.3371 N   0  0  0  0  0  0
  -30.3009  -23.1660   21.1228 O   0  0  0  0  0  0
  -31.4635  -12.4208   19.0968 H   0  0  0  0  0  0
  -30.3413  -11.2979   19.8010 H   0  0  0  0  0  0
  -29.7198  -11.7816   17.4140 H   0  0  0  0  0  0
  -29.6508  -13.4901   17.7614 H   0  0  0  0  0  0
  -27.8199  -11.3080   18.8218 H   0  0  0  0  0  0
  -27.3535  -12.6305   17.7895 H   0  0  0  0  0  0
  -27.7074  -14.2537   19.5773 H   0  0  0  0  0  0
  -28.6835  -11.9310   21.3131 H   0  0  0  0  0  0
  -28.4546  -13.5502   21.8796 H   0  0  0  0  0  0
  -25.2734   -9.5686   22.4782 H   0  0  0  0  0  0
  -23.9985   -7.4627   22.7472 H   0  0  0  0  0  0
  -21.0824   -8.8770   19.8962 H   0  0  0  0  0  0
  -22.3663  -10.9679   19.6186 H   0  0  0  0  0  0
  -21.2013   -7.6154   23.9711 H   0  0  0  0  0  0
  -21.1475   -6.0535   25.9082 H   0  0  0  0  0  0
  -22.0600   -2.7614   23.2838 H   0  0  0  0  0  0
  -22.4101  -11.9911   22.4791 H   0  0  0  0  0  0
  -21.1132  -13.1317   22.2587 H   0  0  0  0  0  0
  -24.6797  -15.8501   20.5328 H   0  0  0  0  0  0
  -26.3034  -15.6214   20.1196 H   0  0  0  0  0  0
  -26.7167  -32.5518   23.1177 H   0  0  0  0  0  0
  -25.0075  -33.9771   25.0478 H   0  0  0  0  0  0
  -22.6981  -31.3089   21.4104 H   0  0  0  0  0  0
  -23.3748  -35.9649   23.3314 H   0  0  0  0  0  0
  -24.3569  -36.8915   22.2054 H   0  0  0  0  0  0
  -23.7255  -37.6545   23.6622 H   0  0  0  0  0  0
  -26.0467  -31.5942   20.5870 H   0  0  0  0  0  0
  -26.8277  -30.8877   21.9733 H   0  0  0  0  0  0
  -28.1129  -29.1018   21.1403 H   0  0  0  0  0  0
  -26.0596  -25.9506   19.0292 H   0  0  0  0  0  0
  -23.9788  -27.2941   19.0288 H   0  0  0  0  0  0
  -23.7278  -30.5962   19.4062 H   0  0  0  0  0  0
  -22.7352  -29.2444   19.8654 H   0  0  0  0  0  0
  -25.1279  -36.1982   25.0843 H   0  0  0  0  0  0
  -20.9972  -28.3256   24.1429 H   0  0  0  0  0  0
  -20.5677  -26.2297   23.3614 H   0  0  0  0  0  0
  -21.6632  -26.7444   22.1201 H   0  0  0  0  0  0
  -19.6871  -25.6311   21.1239 H   0  0  0  0  0  0
  -19.6655  -27.3233   20.6777 H   0  0  0  0  0  0
  -17.4182  -26.6710   21.4047 H   0  0  0  0  0  0
  -18.0297  -26.0088   22.9042 H   0  0  0  0  0  0
  -19.7921  -30.7283   24.2288 H   0  0  0  0  0  0
  -17.4990  -31.6261   24.5186 H   0  0  0  0  0  0
  -15.5338  -30.2978   23.7632 H   0  0  0  0  0  0
  -15.8688  -28.0846   22.6981 H   0  0  0  0  0  0
  -24.5917  -30.7025   25.7818 H   0  0  0  0  0  0
  -24.8907  -32.2831   26.4948 H   0  0  0  0  0  0
  -25.8101  -30.8858   27.0228 H   0  0  0  0  0  0
  -26.2806  -29.6841   24.1131 H   0  0  0  0  0  0
  -27.4039  -29.7253   25.4540 H   0  0  0  0  0  0
  -27.8652  -30.4377   23.9237 H   0  0  0  0  0  0
  -27.2692  -33.3603   26.2097 H   0  0  0  0  0  0
  -28.3839  -32.6891   25.0289 H   0  0  0  0  0  0
  -28.0754  -31.8413   26.5364 H   0  0  0  0  0  0
  -28.2615  -38.0095   24.7499 H   0  0  0  0  0  0
  -28.1058  -36.2629   24.6305 H   0  0  0  0  0  0
  -27.2291  -37.1508   25.8872 H   0  0  0  0  0  0
  -20.9337  -29.8789   21.6962 H   0  0  0  0  0  0
  -26.0189  -38.2882   24.1393 H   0  0  0  0  0  0
  -27.4868  -19.4561   20.3327 H   0  0  0  0  0  0
  -32.7883  -18.6304   22.4722 H   0  0  0  0  0  0
  -33.1562  -19.8617   21.2629 H   0  0  0  0  0  0
  -33.1019  -18.1667   20.7916 H   0  0  0  0  0  0
  -31.7834  -16.5090   21.8132 H   0  0  0  0  0  0
  -30.4725  -16.6606   22.9257 H   0  0  0  0  0  0
  -27.7792  -23.8710   19.1348 H   0  0  0  0  0  0
  -29.3684  -24.5623   18.9810 H   0  0  0  0  0  0
  -28.9663  -25.3385   21.5318 H   0  0  0  0  0  0
  -27.3002  -25.1600   21.1116 H   0  0  0  0  0  0
  -28.0129  -21.6756   19.5654 H   0  0  0  0  0  0
  -29.1443  -15.1820   21.6544 H   0  0  0  0  0  0
  1 25  1  0  0  0
  1 30  2  0  0  0
  1 83  1  0  0  0
  2  3  1  0  0  0
  2 25  1  0  0  0
  2 85  1  0  0  0
  2 86  1  0  0  0
  3  4  1  0  0  0
  3 87  1  0  0  0
  3 88  1  0  0  0
  4  5  1  0  0  0
  4 89  1  0  0  0
  4 90  1  0  0  0
  5  6  1  0  0  0
  5 26  1  0  0  0
  5 91  1  0  0  0
  6 25  1  0  0  0
  6 92  1  0  0  0
  6 93  1  0  0  0
  7  8  2  0  0  0
  7 26  1  0  0  0
  7 29  1  0  0  0
  8  9  1  0  0  0
  8 22  1  0  0  0
  9 10  1  0  0  0
  9 27  2  0  0  0
 10 11  2  0  0  0
 10 15  1  0  0  0
 11 12  1  0  0  0
 11 94  1  0  0  0
 12 13  2  0  0  0
 12 95  1  0  0  0
 13 14  1  0  0  0
 13 31  1  0  0  0
 14 15  2  0  0  0
 14 96  1  0  0  0
 15 97  1  0  0  0
 16 17  2  0  0  0
 16 21  1  0  0  0
 16 31  1  0  0  0
 17 18  1  0  0  0
 17 98  1  0  0  0
 18 19  2  0  0  0
 18 99  1  0  0  0
 19 20  1  0  0  0
 19 24  1  0  0  0
 20 21  2  0  0  0
 20100  1  0  0  0
 21 23  1  0  0  0
 22 28  1  0  0  0
 22 32  2  0  0  0
 26 27  1  0  0  0
 28101  1  0  0  0
 28102  1  0  0  0
 29103  1  0  0  0
 29104  1  0  0  0
 33 34  1  0  0  0
 33 66  1  0  0  0
 33 70  2  0  0  0
 34 36  1  0  0  0
 34 59  1  0  0  0
 34105  1  0  0  0
 35 44  2  0  0  0
 35 45  1  0  0  0
 35 68  1  0  0  0
 36 56  1  0  0  0
 36106  1  0  0  0
 37 39  1  0  0  0
 37 47  1  0  0  0
 37 66  1  0  0  0
 37107  1  0  0  0
 38 43  2  0  0  0
 38 46  1  0  0  0
 38 47  1  0  0  0
 39 64  1  0  0  0
 39 67  2  0  0  0
 40 52  1  0  0  0
 40 53  2  0  0  0
 40 58  1  0  0  0
 41108  1  0  0  0
 41109  1  0  0  0
 41110  1  0  0  0
 41 48  1  0  0  0
 42 43  1  0  0  0
 42 66  1  0  0  0
 42111  1  0  0  0
 42112  1  0  0  0
 43 44  1  0  0  0
 44113  1  0  0  0
 45 46  2  0  0  0
 45114  1  0  0  0
 46115  1  0  0  0
 47116  1  0  0  0
 47117  1  0  0  0
 48 56  1  0  0  0
 48 65  1  0  0  0
 48118  1  0  0  0
 49 50  1  0  0  0
 49 53  1  0  0  0
 49 64  1  0  0  0
 49119  1  0  0  0
 50 51  1  0  0  0
 50120  1  0  0  0
 50121  1  0  0  0
 51 52  1  0  0  0
 51122  1  0  0  0
 51123  1  0  0  0
 52124  1  0  0  0
 52125  1  0  0  0
 53 54  1  0  0  0
 54 55  2  0  0  0
 54126  1  0  0  0
 55 57  1  0  0  0
 55127  1  0  0  0
 56 69  2  0  0  0
 57 58  2  0  0  0
 57128  1  0  0  0
 58129  1  0  0  0
 59 60  1  0  0  0
 59 61  1  0  0  0
 59 62  1  0  0  0
 60130  1  0  0  0
 60131  1  0  0  0
 60132  1  0  0  0
 61133  1  0  0  0
 61134  1  0  0  0
 61135  1  0  0  0
 62136  1  0  0  0
 62137  1  0  0  0
 62138  1  0  0  0
 63 65  1  0  0  0
 63139  1  0  0  0
 63140  1  0  0  0
 63141  1  0  0  0
 64142  1  0  0  0
 65143  1  0  0  0
 68 79  1  0  0  0
 71 74  2  0  0  0
 71 80  1  0  0  0
 71144  1  0  0  0
 72 73  1  0  0  0
 72 76  1  0  0  0
 72 81  2  0  0  0
 73 77  1  0  0  0
 73 80  2  0  0  0
 74 81  1  0  0  0
 74 82  1  0  0  0
 75 78  1  0  0  0
 75 82  1  0  0  0
 75 84  2  0  0  0
 76145  1  0  0  0
 76146  1  0  0  0
 76147  1  0  0  0
 77 83  1  0  0  0
 77148  1  0  0  0
 77149  1  0  0  0
 78 79  1  0  0  0
 78150  1  0  0  0
 78151  1  0  0  0
 79152  1  0  0  0
 79153  1  0  0  0
 82154  1  0  0  0
 83155  1  0  0  0
M  ISO  4   1 100  68 101  79 101  83 100
M  END
> <chiral flag>
0

> <version>
0

> <s_m_source_file>
/data/baiqing/PycharmProjects/Reinvent-master-3.2/result/LINK_invent/BTK/process_docking_weight1_custom_product_contain_oxygen_bond_distance_aromatic_linkinvent_7_9_3/rearranged_h_0191.sdf

> <i_m_source_file_index>
4

> <r_mmod_Potential_Energy-OPLS-2005>
-153.102996826172

> <r_mmod_Stretch_Energy-OPLS-2005>
42.2043037414551

> <r_mmod_Bend_Energy-OPLS-2005>
99.7684631347656

> <r_mmod_Torsional_Energy-OPLS-2005>
219.452728271484

> <r_mmod_Improper_Torsional_Energy-OPLS-2005>
2.38572716712952

> <r_mmod_Van_der_Waal_Energy-OPLS-2005>
161.75634765625

> <r_mmod_Electrostatic_Energy-OPLS-2005>
-433.947937011719

> <r_mmod_Solvation_Energy-OPLS-2005>
-256.834167480469

> <b_mmod_Minimization_Converged-OPLS-2005>
0

> <r_mmod_RMS_Derivative-OPLS-2005>
2.48770809173584

$$$$
5
                    3D
 Structure written by MMmdl.
163171  0  0  1  0            999 V2000
  -30.6900  -14.6063   20.5139 C   0  0  0  0  0  0
  -30.4229  -12.3804   19.4581 C   0  0  0  0  0  0
  -29.5006  -12.4993   18.2270 C   0  0  0  0  0  0
  -28.0262  -12.3401   18.6419 C   0  0  0  0  0  0
  -27.6481  -13.2254   19.8599 C   0  0  2  0  0  0
  -28.6945  -13.1135   20.9917 C   0  0  0  0  0  0
  -25.2515  -13.8195   20.5721 C   0  0  0  0  0  0
  -24.1799  -13.0445   20.9211 C   0  0  0  0  0  0
  -24.6382  -11.6924   20.8761 C   0  0  0  0  0  0
  -23.9060  -10.4296   21.0407 C   0  0  0  0  0  0
  -24.3613   -9.4205   21.9177 C   0  0  0  0  0  0
  -23.6284   -8.2243   22.0755 C   0  0  0  0  0  0
  -22.4261   -8.0288   21.3551 C   0  0  0  0  0  0
  -21.9893   -9.0269   20.4651 C   0  0  0  0  0  0
  -22.7235  -10.2143   20.3059 C   0  0  0  0  0  0
  -21.6850   -6.0732   22.5276 C   0  0  0  0  0  0
  -21.4025   -6.5636   23.8213 C   0  0  0  0  0  0
  -21.3668   -5.6785   24.9169 C   0  0  0  0  0  0
  -21.6034   -4.3051   24.7219 C   0  0  0  0  0  0
  -21.8814   -3.8142   23.4340 C   0  0  0  0  0  0
  -21.9191   -4.6963   22.3394 C   0  0  0  0  0  0
  -22.7814  -13.5236   21.1846 C   0  0  0  0  0  0
  -22.1657   -4.2153   21.0974 F   0  0  0  0  0  0
  -21.5623   -3.4540   25.7737 F   0  0  0  0  0  0
  -30.0092  -13.4245   20.4144 N   0  0  0  0  0  0
  -26.2951  -12.9393   20.3322 N   0  0  0  0  0  0
  -25.9319  -11.6544   20.5764 N   0  0  0  0  0  0
  -22.0453  -12.8260   22.0421 N   0  0  0  0  0  0
  -25.4197  -15.1922   20.4161 N   0  0  0  0  0  0
  -31.8613  -14.6911   20.1365 O   0  0  0  0  0  0
  -21.6631   -6.8884   21.4239 O   0  0  0  0  0  0
  -22.3510  -14.5524   20.6670 O   0  0  0  0  0  0
  -24.6192  -31.8625   23.2080 C   0  0  0  0  0  0
  -25.9057  -32.4798   23.8383 C   0  0  1  0  0  0
  -27.2187  -27.3485   20.1135 C   0  0  0  0  0  0
  -25.5878  -33.8604   24.2294 N   0  0  0  0  0  0
  -23.4112  -30.4867   21.5502 C   0  0  2  0  0  0
  -24.8576  -28.9505   20.1116 C   0  0  0  0  0  0
  -22.7431  -29.4618   22.4967 C   0  0  0  0  0  0
  -18.0267  -28.1375   22.8491 C   0  0  0  0  0  0
  -24.1478  -36.7313   23.2641 C   0  0  0  0  0  0
  -25.9497  -30.8018   21.3769 C   0  0  0  0  0  0
  -26.0238  -29.4327   20.7187 C   0  0  0  0  0  0
  -27.2052  -28.6404   20.7159 C   0  0  0  0  0  0
  -26.0345  -26.9216   19.4659 C   0  0  0  0  0  0
  -24.8633  -27.6980   19.4798 C   0  0  0  0  0  0
  -23.6243  -29.8252   20.1634 C   0  0  0  0  0  0
  -25.4105  -36.3102   24.0328 C   0  0  1  0  0  0
  -20.5859  -28.3667   23.1307 C   0  0  2  0  0  0
  -20.6755  -26.9398   22.5424 C   0  0  0  0  0  0
  -19.5741  -26.6377   21.5210 C   0  0  0  0  0  0
  -18.1914  -26.7920   22.1614 C   0  0  0  0  0  0
  -19.1519  -28.8836   23.2892 C   0  0  0  0  0  0
  -18.9449  -30.1437   23.8914 C   0  0  0  0  0  0
  -17.6453  -30.6587   24.0562 C   0  0  0  0  0  0
  -25.9038  -34.9469   23.5115 C   0  0  0  0  0  0
  -16.5340  -29.9090   23.6327 C   0  0  0  0  0  0
  -16.7257  -28.6496   23.0365 C   0  0  0  0  0  0
  -26.4456  -31.6620   25.0752 C   0  0  0  0  0  0
  -25.3697  -31.3774   26.1489 C   0  0  0  0  0  0
  -27.0288  -30.3041   24.6204 C   0  0  0  0  0  0
  -27.6023  -32.4358   25.7508 C   0  0  0  0  0  0
  -27.5578  -37.1807   24.8455 C   0  0  0  0  0  0
  -21.4151  -29.3026   22.3712 N   0  0  0  0  0  0
  -26.4287  -37.3787   23.9407 N   0  0  0  0  0  0
  -24.6788  -31.0654   22.1021 N   0  0  0  0  0  0
  -23.4183  -28.8161   23.3033 O   0  0  0  0  0  0
  -28.3495  -26.5295   20.1859 O   0  0  0  0  0  0
  -26.5618  -34.8922   22.4693 O   0  0  0  0  0  0
  -23.5368  -32.1416   23.7421 O   0  0  0  0  0  0
  -31.7630  -17.2303   21.6210 C   0  0  0  0  0  0
  -31.5578  -19.5298   21.7155 C   0  0  0  0  0  0
  -30.4742  -17.0856   21.0400 C   0  0  0  0  0  0
  -30.2769  -19.4709   21.0941 C   0  0  0  0  0  0
  -32.1668  -20.8023   22.2700 C   0  0  0  0  0  0
  -30.0374  -21.4594   17.1264 C   0  0  0  0  0  0
  -30.2284  -20.8111   18.5104 C   0  0  0  0  0  0
  -29.1731  -24.1196   20.6954 C   0  0  0  0  0  0
  -28.2248  -25.0922   19.8947 C   0  0  0  0  0  0
  -29.5079  -21.5121   19.6983 C   0  0  2  0  0  0
  -29.9821  -23.0274   19.8871 C   0  0  2  0  0  0
  -32.2965  -18.4243   21.9539 N   0  0  0  0  0  0
  -29.7395  -18.2360   20.7944 N   0  0  0  0  0  0
  -29.9745  -15.7360   20.8114 N   0  0  0  0  0  0
  -29.4818  -20.6448   20.9157 N   0  0  0  0  0  0
  -31.3090  -22.9998   20.3656 O   0  0  0  0  0  0
  -31.4686  -12.4730   19.1606 H   0  0  0  0  0  0
  -30.3368  -11.3951   19.9200 H   0  0  0  0  0  0
  -29.7653  -11.7454   17.4833 H   0  0  0  0  0  0
  -29.6472  -13.4680   17.7458 H   0  0  0  0  0  0
  -27.8669  -11.2901   18.8888 H   0  0  0  0  0  0
  -27.3703  -12.5585   17.7993 H   0  0  0  0  0  0
  -27.6592  -14.2553   19.5031 H   0  0  0  0  0  0
  -28.7005  -12.1076   21.4149 H   0  0  0  0  0  0
  -28.4501  -13.7861   21.8156 H   0  0  0  0  0  0
  -25.2774   -9.5674   22.4736 H   0  0  0  0  0  0
  -24.0005   -7.4626   22.7471 H   0  0  0  0  0  0
  -21.0824   -8.8788   19.8965 H   0  0  0  0  0  0
  -22.3701  -10.9674   19.6159 H   0  0  0  0  0  0
  -21.2034   -7.6153   23.9716 H   0  0  0  0  0  0
  -21.1490   -6.0518   25.9068 H   0  0  0  0  0  0
  -22.0590   -2.7611   23.2831 H   0  0  0  0  0  0
  -22.4086  -11.9950   22.4851 H   0  0  0  0  0  0
  -21.1068  -13.1278   22.2600 H   0  0  0  0  0  0
  -24.6517  -15.8436   20.5338 H   0  0  0  0  0  0
  -26.2656  -15.6392   20.0884 H   0  0  0  0  0  0
  -26.7126  -32.5470   23.1136 H   0  0  0  0  0  0
  -24.9967  -33.9759   25.0395 H   0  0  0  0  0  0
  -22.7027  -31.3062   21.4106 H   0  0  0  0  0  0
  -23.3725  -35.9657   23.3313 H   0  0  0  0  0  0
  -24.3570  -36.8930   22.2054 H   0  0  0  0  0  0
  -23.7244  -37.6523   23.6662 H   0  0  0  0  0  0
  -26.0766  -31.5680   20.6110 H   0  0  0  0  0  0
  -26.8311  -30.8492   22.0047 H   0  0  0  0  0  0
  -28.0984  -29.0015   21.2074 H   0  0  0  0  0  0
  -25.9802  -25.9781   18.9442 H   0  0  0  0  0  0
  -23.9702  -27.3248   18.9966 H   0  0  0  0  0  0
  -23.7425  -30.6034   19.4082 H   0  0  0  0  0  0
  -22.7444  -29.2531   19.8609 H   0  0  0  0  0  0
  -25.1283  -36.1963   25.0817 H   0  0  0  0  0  0
  -20.9936  -28.3228   24.1431 H   0  0  0  0  0  0
  -20.5639  -26.2268   23.3610 H   0  0  0  0  0  0
  -21.6632  -26.7433   22.1235 H   0  0  0  0  0  0
  -19.6915  -25.6285   21.1246 H   0  0  0  0  0  0
  -19.6698  -27.3179   20.6735 H   0  0  0  0  0  0
  -17.4191  -26.6665   21.4012 H   0  0  0  0  0  0
  -18.0326  -26.0055   22.9003 H   0  0  0  0  0  0
  -19.7926  -30.7238   24.2306 H   0  0  0  0  0  0
  -17.5015  -31.6274   24.5154 H   0  0  0  0  0  0
  -15.5348  -30.3011   23.7639 H   0  0  0  0  0  0
  -15.8642  -28.0815   22.7110 H   0  0  0  0  0  0
  -24.5833  -30.7163   25.7825 H   0  0  0  0  0  0
  -24.8924  -32.2955   26.4932 H   0  0  0  0  0  0
  -25.8008  -30.8931   27.0262 H   0  0  0  0  0  0
  -26.2868  -29.6819   24.1180 H   0  0  0  0  0  0
  -27.3930  -29.7273   25.4721 H   0  0  0  0  0  0
  -27.8766  -30.4326   23.9467 H   0  0  0  0  0  0
  -27.2624  -33.3638   26.2122 H   0  0  0  0  0  0
  -28.3799  -32.6965   25.0315 H   0  0  0  0  0  0
  -28.0732  -31.8474   26.5393 H   0  0  0  0  0  0
  -28.2597  -38.0098   24.7490 H   0  0  0  0  0  0
  -28.1065  -36.2632   24.6284 H   0  0  0  0  0  0
  -27.2303  -37.1472   25.8859 H   0  0  0  0  0  0
  -20.9316  -29.8752   21.6933 H   0  0  0  0  0  0
  -26.0169  -38.2859   24.1416 H   0  0  0  0  0  0
  -32.3748  -16.3792   21.8812 H   0  0  0  0  0  0
  -31.3994  -21.5345   22.5163 H   0  0  0  0  0  0
  -32.8633  -21.2377   21.5563 H   0  0  0  0  0  0
  -32.7209  -20.5969   23.1868 H   0  0  0  0  0  0
  -30.4784  -20.8332   16.3506 H   0  0  0  0  0  0
  -30.5201  -22.4331   17.0440 H   0  0  0  0  0  0
  -28.9810  -21.5764   16.8839 H   0  0  0  0  0  0
  -31.2954  -20.7164   18.7101 H   0  0  0  0  0  0
  -29.8521  -19.7920   18.4200 H   0  0  0  0  0  0
  -28.6219  -23.6436   21.5068 H   0  0  0  0  0  0
  -29.8915  -24.7677   21.1996 H   0  0  0  0  0  0
  -27.2185  -24.7281   20.1025 H   0  0  0  0  0  0
  -28.3756  -24.9649   18.8228 H   0  0  0  0  0  0
  -28.4583  -21.5757   19.4042 H   0  0  0  0  0  0
  -30.0738  -23.4622   18.8947 H   0  0  0  0  0  0
  -28.9753  -15.6232   20.8668 H   0  0  0  0  0  0
  -28.5151  -20.4414   21.1425 H   0  0  0  0  0  0
  -31.7450  -22.2817   19.9210 H   0  0  0  0  0  0
  1 25  1  0  0  0
  1 30  2  0  0  0
  1 84  1  0  0  0
  2  3  1  0  0  0
  2 25  1  0  0  0
  2 87  1  0  0  0
  2 88  1  0  0  0
  3  4  1  0  0  0
  3 89  1  0  0  0
  3 90  1  0  0  0
  4  5  1  0  0  0
  4 91  1  0  0  0
  4 92  1  0  0  0
  5  6  1  0  0  0
  5 26  1  0  0  0
  5 93  1  0  0  0
  6 25  1  0  0  0
  6 94  1  0  0  0
  6 95  1  0  0  0
  7  8  2  0  0  0
  7 26  1  0  0  0
  7 29  1  0  0  0
  8  9  1  0  0  0
  8 22  1  0  0  0
  9 10  1  0  0  0
  9 27  2  0  0  0
 10 11  2  0  0  0
 10 15  1  0  0  0
 11 12  1  0  0  0
 11 96  1  0  0  0
 12 13  2  0  0  0
 12 97  1  0  0  0
 13 14  1  0  0  0
 13 31  1  0  0  0
 14 15  2  0  0  0
 14 98  1  0  0  0
 15 99  1  0  0  0
 16 17  2  0  0  0
 16 21  1  0  0  0
 16 31  1  0  0  0
 17 18  1  0  0  0
 17100  1  0  0  0
 18 19  2  0  0  0
 18101  1  0  0  0
 19 20  1  0  0  0
 19 24  1  0  0  0
 20 21  2  0  0  0
 20102  1  0  0  0
 21 23  1  0  0  0
 22 28  1  0  0  0
 22 32  2  0  0  0
 26 27  1  0  0  0
 28103  1  0  0  0
 28104  1  0  0  0
 29105  1  0  0  0
 29106  1  0  0  0
 33 34  1  0  0  0
 33 66  1  0  0  0
 33 70  2  0  0  0
 34 36  1  0  0  0
 34 59  1  0  0  0
 34107  1  0  0  0
 35 44  2  0  0  0
 35 45  1  0  0  0
 35 68  1  0  0  0
 36 56  1  0  0  0
 36108  1  0  0  0
 37 39  1  0  0  0
 37 47  1  0  0  0
 37 66  1  0  0  0
 37109  1  0  0  0
 38 43  2  0  0  0
 38 46  1  0  0  0
 38 47  1  0  0  0
 39 64  1  0  0  0
 39 67  2  0  0  0
 40 52  1  0  0  0
 40 53  2  0  0  0
 40 58  1  0  0  0
 41110  1  0  0  0
 41111  1  0  0  0
 41112  1  0  0  0
 41 48  1  0  0  0
 42 43  1  0  0  0
 42 66  1  0  0  0
 42113  1  0  0  0
 42114  1  0  0  0
 43 44  1  0  0  0
 44115  1  0  0  0
 45 46  2  0  0  0
 45116  1  0  0  0
 46117  1  0  0  0
 47118  1  0  0  0
 47119  1  0  0  0
 48 56  1  0  0  0
 48 65  1  0  0  0
 48120  1  0  0  0
 49 50  1  0  0  0
 49 53  1  0  0  0
 49 64  1  0  0  0
 49121  1  0  0  0
 50 51  1  0  0  0
 50122  1  0  0  0
 50123  1  0  0  0
 51 52  1  0  0  0
 51124  1  0  0  0
 51125  1  0  0  0
 52126  1  0  0  0
 52127  1  0  0  0
 53 54  1  0  0  0
 54 55  2  0  0  0
 54128  1  0  0  0
 55 57  1  0  0  0
 55129  1  0  0  0
 56 69  2  0  0  0
 57 58  2  0  0  0
 57130  1  0  0  0
 58131  1  0  0  0
 59 60  1  0  0  0
 59 61  1  0  0  0
 59 62  1  0  0  0
 60132  1  0  0  0
 60133  1  0  0  0
 60134  1  0  0  0
 61135  1  0  0  0
 61136  1  0  0  0
 61137  1  0  0  0
 62138  1  0  0  0
 62139  1  0  0  0
 62140  1  0  0  0
 63 65  1  0  0  0
 63141  1  0  0  0
 63142  1  0  0  0
 63143  1  0  0  0
 64144  1  0  0  0
 65145  1  0  0  0
 68 79  1  0  0  0
 71 73  2  0  0  0
 71 82  1  0  0  0
 71146  1  0  0  0
 72 74  1  0  0  0
 72 75  1  0  0  0
 72 82  2  0  0  0
 73 83  1  0  0  0
 73 84  1  0  0  0
 74 83  2  0  0  0
 74 85  1  0  0  0
 75147  1  0  0  0
 75148  1  0  0  0
 75149  1  0  0  0
 76 77  1  0  0  0
 76150  1  0  0  0
 76151  1  0  0  0
 76152  1  0  0  0
 77153  1  0  0  0
 77154  1  0  0  0
 77 80  1  0  0  0
 78 79  1  0  0  0
 78 81  1  0  0  0
 78155  1  0  0  0
 78156  1  0  0  0
 79157  1  0  0  0
 79158  1  0  0  0
 80 81  1  0  0  0
 80 85  1  0  0  0
 80159  1  0  0  0
 81 86  1  0  0  0
 81160  1  0  0  0
 84161  1  0  0  0
 85162  1  0  0  0
 86163  1  0  0  0
M  ISO  4   1 100  68 101  79 101  84 100
M  END
> <chiral flag>
0

> <version>
0

> <s_m_source_file>
/data/baiqing/PycharmProjects/Reinvent-master-3.2/result/LINK_invent/BTK/process_docking_weight1_custom_product_contain_oxygen_bond_distance_aromatic_linkinvent_7_9_3/rearranged_h_0191.sdf

> <i_m_source_file_index>
5

> <r_mmod_Potential_Energy-OPLS-2005>
23.550500869751

> <r_mmod_Stretch_Energy-OPLS-2005>
75.2038040161133

> <r_mmod_Bend_Energy-OPLS-2005>
154.267913818359

> <r_mmod_Torsional_Energy-OPLS-2005>
295.926727294922

> <r_mmod_Improper_Torsional_Energy-OPLS-2005>
10.8662261962891

> <r_mmod_Van_der_Waal_Energy-OPLS-2005>
164.28337097168

> <r_mmod_Electrostatic_Energy-OPLS-2005>
-483.855987548828

> <r_mmod_Solvation_Energy-OPLS-2005>
-234.106246948242

> <b_mmod_Minimization_Converged-OPLS-2005>
0

> <r_mmod_RMS_Derivative-OPLS-2005>
2.52700161933899

$$$$
6
                    3D
 Structure written by MMmdl.
154162  0  0  1  0            999 V2000
  -30.6748  -14.6875   20.4578 C   0  0  0  0  0  0
  -30.4209  -12.4120   19.4832 C   0  0  0  0  0  0
  -29.5140  -12.4811   18.2392 C   0  0  0  0  0  0
  -28.0396  -12.3177   18.6488 C   0  0  0  0  0  0
  -27.6430  -13.2294   19.8427 C   0  0  2  0  0  0
  -28.6844  -13.1835   20.9835 C   0  0  0  0  0  0
  -25.2548  -13.8200   20.5680 C   0  0  0  0  0  0
  -24.1828  -13.0453   20.9211 C   0  0  0  0  0  0
  -24.6397  -11.6930   20.8745 C   0  0  0  0  0  0
  -23.9063  -10.4309   21.0374 C   0  0  0  0  0  0
  -24.3616   -9.4221   21.9169 C   0  0  0  0  0  0
  -23.6293   -8.2259   22.0735 C   0  0  0  0  0  0
  -22.4288   -8.0275   21.3533 C   0  0  0  0  0  0
  -21.9909   -9.0240   20.4640 C   0  0  0  0  0  0
  -22.7225  -10.2125   20.3035 C   0  0  0  0  0  0
  -21.6862   -6.0729   22.5268 C   0  0  0  0  0  0
  -21.4033   -6.5625   23.8208 C   0  0  0  0  0  0
  -21.3688   -5.6780   24.9168 C   0  0  0  0  0  0
  -21.6056   -4.3047   24.7221 C   0  0  0  0  0  0
  -21.8815   -3.8140   23.4337 C   0  0  0  0  0  0
  -21.9201   -4.6957   22.3398 C   0  0  0  0  0  0
  -22.7857  -13.5237   21.1870 C   0  0  0  0  0  0
  -22.1665   -4.2142   21.0978 F   0  0  0  0  0  0
  -21.5638   -3.4531   25.7743 F   0  0  0  0  0  0
  -29.9937  -13.4949   20.3995 N   0  0  0  0  0  0
  -26.2946  -12.9408   20.3218 N   0  0  0  0  0  0
  -25.9322  -11.6550   20.5716 N   0  0  0  0  0  0
  -22.0492  -12.8237   22.0424 N   0  0  0  0  0  0
  -25.4223  -15.1918   20.4060 N   0  0  0  0  0  0
  -31.8637  -14.7347   20.1368 O   0  0  0  0  0  0
  -21.6659   -6.8861   21.4229 O   0  0  0  0  0  0
  -22.3537  -14.5530   20.6681 O   0  0  0  0  0  0
  -24.6267  -31.8598   23.1986 C   0  0  0  0  0  0
  -25.9081  -32.4797   23.8353 C   0  0  1  0  0  0
  -27.2285  -27.2908   20.1185 C   0  0  0  0  0  0
  -25.5845  -33.8595   24.2258 N   0  0  0  0  0  0
  -23.4235  -30.4798   21.5427 C   0  0  2  0  0  0
  -24.8732  -28.9219   20.1217 C   0  0  0  0  0  0
  -22.7477  -29.4626   22.4928 C   0  0  0  0  0  0
  -18.0290  -28.1392   22.8482 C   0  0  0  0  0  0
  -24.1475  -36.7332   23.2651 C   0  0  0  0  0  0
  -25.9696  -30.7764   21.3785 C   0  0  0  0  0  0
  -26.0432  -29.3978   20.7294 C   0  0  0  0  0  0
  -27.2274  -28.5937   20.7151 C   0  0  0  0  0  0
  -26.0433  -26.8855   19.4763 C   0  0  0  0  0  0
  -24.8756  -27.6703   19.4854 C   0  0  0  0  0  0
  -23.6410  -29.8048   20.1625 C   0  0  0  0  0  0
  -25.4101  -36.3117   24.0328 C   0  0  1  0  0  0
  -20.5896  -28.3692   23.1273 C   0  0  2  0  0  0
  -20.6748  -26.9405   22.5422 C   0  0  0  0  0  0
  -19.5723  -26.6378   21.5220 C   0  0  0  0  0  0
  -18.1910  -26.7936   22.1634 C   0  0  0  0  0  0
  -19.1542  -28.8851   23.2882 C   0  0  0  0  0  0
  -18.9481  -30.1454   23.8899 C   0  0  0  0  0  0
  -17.6473  -30.6581   24.0574 C   0  0  0  0  0  0
  -25.9038  -34.9477   23.5120 C   0  0  0  0  0  0
  -16.5360  -29.9089   23.6323 C   0  0  0  0  0  0
  -16.7276  -28.6506   23.0345 C   0  0  0  0  0  0
  -26.4414  -31.6647   25.0767 C   0  0  0  0  0  0
  -25.3610  -31.3885   26.1498 C   0  0  0  0  0  0
  -27.0234  -30.3035   24.6311 C   0  0  0  0  0  0
  -27.5975  -32.4382   25.7520 C   0  0  0  0  0  0
  -27.5586  -37.1818   24.8437 C   0  0  0  0  0  0
  -21.4194  -29.3041   22.3667 N   0  0  0  0  0  0
  -26.4281  -37.3811   23.9400 N   0  0  0  0  0  0
  -24.6925  -31.0567   22.0963 N   0  0  0  0  0  0
  -23.4207  -28.8156   23.3009 O   0  0  0  0  0  0
  -28.3554  -26.4531   20.0365 O   0  0  0  0  0  0
  -26.5661  -34.8929   22.4720 O   0  0  0  0  0  0
  -23.5404  -32.1401   23.7264 O   0  0  0  0  0  0
  -28.6157  -18.9116   19.9250 C   0  0  0  0  0  0
  -29.8307  -18.5914   20.5016 C   0  0  0  0  0  0
  -29.2106  -21.1125   20.4338 C   0  0  0  0  0  0
  -26.9025  -23.2390   19.7880 C   0  0  0  0  0  0
  -29.7878  -25.2644   21.4635 C   0  0  0  0  0  0
  -30.6238  -17.2414   20.6227 C   0  0  0  0  0  0
  -28.3550  -23.7062   19.9689 C   0  0  1  0  0  0
  -28.4313  -25.1395   20.7474 C   0  0  2  0  0  0
  -28.2979  -20.3000   19.8783 N   0  0  0  0  0  0
  -29.1404  -22.5472   20.5418 N   0  0  0  0  0  0
  -29.9847  -15.8648   20.6718 N   0  0  0  0  0  0
  -30.5726  -20.1242   21.0477 S   0  0  0  0  0  0
  -31.4674  -12.5009   19.1874 H   0  0  0  0  0  0
  -30.3287  -11.4392   19.9712 H   0  0  0  0  0  0
  -29.7939  -11.6999   17.5299 H   0  0  0  0  0  0
  -29.6621  -13.4335   17.7275 H   0  0  0  0  0  0
  -27.8963  -11.2704   18.9206 H   0  0  0  0  0  0
  -27.3877  -12.4993   17.7933 H   0  0  0  0  0  0
  -27.6352  -14.2463   19.4509 H   0  0  0  0  0  0
  -28.7030  -12.2043   21.4616 H   0  0  0  0  0  0
  -28.4258  -13.9054   21.7589 H   0  0  0  0  0  0
  -25.2762   -9.5742   22.4750 H   0  0  0  0  0  0
  -24.0029   -7.4670   22.7449 H   0  0  0  0  0  0
  -21.0851   -8.8729   19.8946 H   0  0  0  0  0  0
  -22.3648  -10.9650   19.6157 H   0  0  0  0  0  0
  -21.2006   -7.6138   23.9709 H   0  0  0  0  0  0
  -21.1534   -6.0516   25.9079 H   0  0  0  0  0  0
  -22.0567   -2.7597   23.2842 H   0  0  0  0  0  0
  -22.4090  -11.9932   22.4885 H   0  0  0  0  0  0
  -21.1070  -13.1236   22.2537 H   0  0  0  0  0  0
  -24.6542  -15.8436   20.5214 H   0  0  0  0  0  0
  -26.2623  -15.6296   20.0516 H   0  0  0  0  0  0
  -26.7163  -32.5457   23.1124 H   0  0  0  0  0  0
  -24.9800  -33.9736   25.0259 H   0  0  0  0  0  0
  -22.7199  -31.3009   21.3906 H   0  0  0  0  0  0
  -23.3725  -35.9681   23.3311 H   0  0  0  0  0  0
  -24.3555  -36.8977   22.2069 H   0  0  0  0  0  0
  -23.7230  -37.6519   23.6690 H   0  0  0  0  0  0
  -26.1102  -31.5345   20.6078 H   0  0  0  0  0  0
  -26.8475  -30.8280   22.0122 H   0  0  0  0  0  0
  -28.1337  -28.9636   21.1725 H   0  0  0  0  0  0
  -26.0229  -25.9657   18.9196 H   0  0  0  0  0  0
  -23.9884  -27.3108   18.9835 H   0  0  0  0  0  0
  -23.7573  -30.5733   19.3973 H   0  0  0  0  0  0
  -22.7613  -29.2291   19.8636 H   0  0  0  0  0  0
  -25.1295  -36.1982   25.0821 H   0  0  0  0  0  0
  -21.0021  -28.3263   24.1380 H   0  0  0  0  0  0
  -20.5607  -26.2309   23.3635 H   0  0  0  0  0  0
  -21.6621  -26.7367   22.1255 H   0  0  0  0  0  0
  -19.6867  -25.6288   21.1240 H   0  0  0  0  0  0
  -19.6669  -27.3185   20.6752 H   0  0  0  0  0  0
  -17.4192  -26.6709   21.4027 H   0  0  0  0  0  0
  -18.0286  -26.0076   22.9024 H   0  0  0  0  0  0
  -19.7960  -30.7272   24.2273 H   0  0  0  0  0  0
  -17.5029  -31.6259   24.5195 H   0  0  0  0  0  0
  -15.5364  -30.3005   23.7626 H   0  0  0  0  0  0
  -15.8677  -28.0830   22.7052 H   0  0  0  0  0  0
  -24.5657  -30.7397   25.7812 H   0  0  0  0  0  0
  -24.8943  -32.3120   26.4955 H   0  0  0  0  0  0
  -25.7867  -30.8977   27.0267 H   0  0  0  0  0  0
  -26.2862  -29.6828   24.1222 H   0  0  0  0  0  0
  -27.3714  -29.7286   25.4899 H   0  0  0  0  0  0
  -27.8816  -30.4259   23.9712 H   0  0  0  0  0  0
  -27.2551  -33.3600   26.2238 H   0  0  0  0  0  0
  -28.3696  -32.7116   25.0322 H   0  0  0  0  0  0
  -28.0755  -31.8457   26.5335 H   0  0  0  0  0  0
  -28.2618  -38.0112   24.7486 H   0  0  0  0  0  0
  -28.1094  -36.2649   24.6258 H   0  0  0  0  0  0
  -27.2322  -37.1438   25.8849 H   0  0  0  0  0  0
  -20.9372  -29.8803   21.6909 H   0  0  0  0  0  0
  -26.0180  -38.2895   24.1401 H   0  0  0  0  0  0
  -27.9162  -18.2152   19.4798 H   0  0  0  0  0  0
  -26.2457  -24.0184   19.4267 H   0  0  0  0  0  0
  -26.4815  -22.8698   20.7246 H   0  0  0  0  0  0
  -26.8439  -22.4286   19.0615 H   0  0  0  0  0  0
  -29.8819  -26.2304   21.9611 H   0  0  0  0  0  0
  -30.6156  -25.1754   20.7564 H   0  0  0  0  0  0
  -29.9140  -24.4987   22.2297 H   0  0  0  0  0  0
  -31.2486  -17.3076   21.5145 H   0  0  0  0  0  0
  -31.3407  -17.2312   19.7973 H   0  0  0  0  0  0
  -28.7781  -23.8726   18.9764 H   0  0  0  0  0  0
  -27.6673  -25.1419   21.5257 H   0  0  0  0  0  0
  -29.9004  -22.8922   21.1196 H   0  0  0  0  0  0
  -29.0073  -15.8026   20.9143 H   0  0  0  0  0  0
  1 25  1  0  0  0
  1 30  2  0  0  0
  1 81  1  0  0  0
  2  3  1  0  0  0
  2 25  1  0  0  0
  2 83  1  0  0  0
  2 84  1  0  0  0
  3  4  1  0  0  0
  3 85  1  0  0  0
  3 86  1  0  0  0
  4  5  1  0  0  0
  4 87  1  0  0  0
  4 88  1  0  0  0
  5  6  1  0  0  0
  5 26  1  0  0  0
  5 89  1  0  0  0
  6 25  1  0  0  0
  6 90  1  0  0  0
  6 91  1  0  0  0
  7  8  2  0  0  0
  7 26  1  0  0  0
  7 29  1  0  0  0
  8  9  1  0  0  0
  8 22  1  0  0  0
  9 10  1  0  0  0
  9 27  2  0  0  0
 10 11  2  0  0  0
 10 15  1  0  0  0
 11 12  1  0  0  0
 11 92  1  0  0  0
 12 13  2  0  0  0
 12 93  1  0  0  0
 13 14  1  0  0  0
 13 31  1  0  0  0
 14 15  2  0  0  0
 14 94  1  0  0  0
 15 95  1  0  0  0
 16 17  2  0  0  0
 16 21  1  0  0  0
 16 31  1  0  0  0
 17 18  1  0  0  0
 17 96  1  0  0  0
 18 19  2  0  0  0
 18 97  1  0  0  0
 19 20  1  0  0  0
 19 24  1  0  0  0
 20 21  2  0  0  0
 20 98  1  0  0  0
 21 23  1  0  0  0
 22 28  1  0  0  0
 22 32  2  0  0  0
 26 27  1  0  0  0
 28 99  1  0  0  0
 28100  1  0  0  0
 29101  1  0  0  0
 29102  1  0  0  0
 33 34  1  0  0  0
 33 66  1  0  0  0
 33 70  2  0  0  0
 34 36  1  0  0  0
 34 59  1  0  0  0
 34103  1  0  0  0
 35 44  2  0  0  0
 35 45  1  0  0  0
 35 68  1  0  0  0
 36 56  1  0  0  0
 36104  1  0  0  0
 37 39  1  0  0  0
 37 47  1  0  0  0
 37 66  1  0  0  0
 37105  1  0  0  0
 38 43  2  0  0  0
 38 46  1  0  0  0
 38 47  1  0  0  0
 39 64  1  0  0  0
 39 67  2  0  0  0
 40 52  1  0  0  0
 40 53  2  0  0  0
 40 58  1  0  0  0
 41106  1  0  0  0
 41107  1  0  0  0
 41108  1  0  0  0
 41 48  1  0  0  0
 42 43  1  0  0  0
 42 66  1  0  0  0
 42109  1  0  0  0
 42110  1  0  0  0
 43 44  1  0  0  0
 44111  1  0  0  0
 45 46  2  0  0  0
 45112  1  0  0  0
 46113  1  0  0  0
 47114  1  0  0  0
 47115  1  0  0  0
 48 56  1  0  0  0
 48 65  1  0  0  0
 48116  1  0  0  0
 49 50  1  0  0  0
 49 53  1  0  0  0
 49 64  1  0  0  0
 49117  1  0  0  0
 50 51  1  0  0  0
 50118  1  0  0  0
 50119  1  0  0  0
 51 52  1  0  0  0
 51120  1  0  0  0
 51121  1  0  0  0
 52122  1  0  0  0
 52123  1  0  0  0
 53 54  1  0  0  0
 54 55  2  0  0  0
 54124  1  0  0  0
 55 57  1  0  0  0
 55125  1  0  0  0
 56 69  2  0  0  0
 57 58  2  0  0  0
 57126  1  0  0  0
 58127  1  0  0  0
 59 60  1  0  0  0
 59 61  1  0  0  0
 59 62  1  0  0  0
 60128  1  0  0  0
 60129  1  0  0  0
 60130  1  0  0  0
 61131  1  0  0  0
 61132  1  0  0  0
 61133  1  0  0  0
 62134  1  0  0  0
 62135  1  0  0  0
 62136  1  0  0  0
 63 65  1  0  0  0
 63137  1  0  0  0
 63138  1  0  0  0
 63139  1  0  0  0
 64140  1  0  0  0
 65141  1  0  0  0
 68 78  1  0  0  0
 71 72  2  0  0  0
 71 79  1  0  0  0
 71142  1  0  0  0
 72 76  1  0  0  0
 72 82  1  0  0  0
 73 79  2  0  0  0
 73 80  1  0  0  0
 73 82  1  0  0  0
 74143  1  0  0  0
 74144  1  0  0  0
 74145  1  0  0  0
 74 77  1  0  0  0
 75146  1  0  0  0
 75147  1  0  0  0
 75148  1  0  0  0
 75 78  1  0  0  0
 76 81  1  0  0  0
 76149  1  0  0  0
 76150  1  0  0  0
 77 78  1  0  0  0
 77 80  1  0  0  0
 77151  1  0  0  0
 78152  1  0  0  0
 80153  1  0  0  0
 81154  1  0  0  0
M  ISO  4   1 100  68 101  78 101  81 100
M  END
> <chiral flag>
0

> <version>
0

> <s_m_source_file>
/data/baiqing/PycharmProjects/Reinvent-master-3.2/result/LINK_invent/BTK/process_docking_weight1_custom_product_contain_oxygen_bond_distance_aromatic_linkinvent_7_9_3/rearranged_h_0191.sdf

> <i_m_source_file_index>
6

> <r_mmod_Potential_Energy-OPLS-2005>
-5.64286708831787

> <r_mmod_Stretch_Energy-OPLS-2005>
98.3167495727539

> <r_mmod_Bend_Energy-OPLS-2005>
169.127960205078

> <r_mmod_Torsional_Energy-OPLS-2005>
229.695281982422

> <r_mmod_Improper_Torsional_Energy-OPLS-2005>
5.0884370803833

> <r_mmod_Van_der_Waal_Energy-OPLS-2005>
117.724319458008

> <r_mmod_Electrostatic_Energy-OPLS-2005>
-467.215545654297

> <r_mmod_Solvation_Energy-OPLS-2005>
-222.599670410156

> <b_mmod_Minimization_Converged-OPLS-2005>
0

> <r_mmod_RMS_Derivative-OPLS-2005>
3.98875284194946

$$$$
7
                    3D
 Structure written by MMmdl.
153161  0  0  1  0            999 V2000
  -30.5925  -14.7865   20.4692 C   0  0  0  0  0  0
  -30.4443  -12.4859   19.4755 C   0  0  0  0  0  0
  -29.5190  -12.5137   18.2388 C   0  0  0  0  0  0
  -28.0443  -12.3281   18.6490 C   0  0  0  0  0  0
  -27.6410  -13.2309   19.8445 C   0  0  2  0  0  0
  -28.6867  -13.1808   20.9789 C   0  0  0  0  0  0
  -25.2520  -13.8183   20.5694 C   0  0  0  0  0  0
  -24.1801  -13.0436   20.9203 C   0  0  0  0  0  0
  -24.6386  -11.6910   20.8741 C   0  0  0  0  0  0
  -23.9043  -10.4297   21.0394 C   0  0  0  0  0  0
  -24.3593   -9.4219   21.9167 C   0  0  0  0  0  0
  -23.6286   -8.2239   22.0735 C   0  0  0  0  0  0
  -22.4270   -8.0271   21.3524 C   0  0  0  0  0  0
  -21.9896   -9.0241   20.4623 C   0  0  0  0  0  0
  -22.7209  -10.2133   20.3039 C   0  0  0  0  0  0
  -21.6860   -6.0720   22.5265 C   0  0  0  0  0  0
  -21.4020   -6.5632   23.8199 C   0  0  0  0  0  0
  -21.3657   -5.6781   24.9163 C   0  0  0  0  0  0
  -21.6053   -4.3042   24.7212 C   0  0  0  0  0  0
  -21.8824   -3.8133   23.4330 C   0  0  0  0  0  0
  -21.9197   -4.6949   22.3392 C   0  0  0  0  0  0
  -22.7825  -13.5228   21.1886 C   0  0  0  0  0  0
  -22.1662   -4.2135   21.0971 F   0  0  0  0  0  0
  -21.5627   -3.4537   25.7723 F   0  0  0  0  0  0
  -29.9839  -13.5499   20.3967 N   0  0  0  0  0  0
  -26.2933  -12.9373   20.3238 N   0  0  0  0  0  0
  -25.9315  -11.6529   20.5721 N   0  0  0  0  0  0
  -22.0451  -12.8238   22.0427 N   0  0  0  0  0  0
  -25.4242  -15.1906   20.4115 N   0  0  0  0  0  0
  -31.7948  -14.8871   20.2026 O   0  0  0  0  0  0
  -21.6637   -6.8865   21.4227 O   0  0  0  0  0  0
  -22.3515  -14.5524   20.6719 O   0  0  0  0  0  0
  -24.6364  -31.8532   23.1985 C   0  0  0  0  0  0
  -25.9178  -32.4739   23.8340 C   0  0  1  0  0  0
  -27.2108  -27.2201   20.1272 C   0  0  0  0  0  0
  -25.5962  -33.8546   24.2255 N   0  0  0  0  0  0
  -23.4333  -30.4812   21.5432 C   0  0  2  0  0  0
  -24.8762  -28.9270   20.1124 C   0  0  0  0  0  0
  -22.7528  -29.4603   22.4883 C   0  0  0  0  0  0
  -18.0307  -28.1399   22.8474 C   0  0  0  0  0  0
  -24.1485  -36.7292   23.2632 C   0  0  0  0  0  0
  -25.9855  -30.7551   21.3830 C   0  0  0  0  0  0
  -26.0550  -29.3762   20.7196 C   0  0  0  0  0  0
  -27.2247  -28.5402   20.7091 C   0  0  0  0  0  0
  -25.9895  -26.8420   19.5202 C   0  0  0  0  0  0
  -24.8504  -27.6672   19.5014 C   0  0  0  0  0  0
  -23.6558  -29.8280   20.1560 C   0  0  0  0  0  0
  -25.4104  -36.3051   24.0314 C   0  0  1  0  0  0
  -20.5914  -28.3720   23.1259 C   0  0  2  0  0  0
  -20.6807  -26.9435   22.5413 C   0  0  0  0  0  0
  -19.5776  -26.6387   21.5225 C   0  0  0  0  0  0
  -18.1951  -26.7939   22.1623 C   0  0  0  0  0  0
  -19.1555  -28.8871   23.2864 C   0  0  0  0  0  0
  -18.9473  -30.1466   23.8890 C   0  0  0  0  0  0
  -17.6471  -30.6592   24.0570 C   0  0  0  0  0  0
  -25.9057  -34.9428   23.5077 C   0  0  0  0  0  0
  -16.5364  -29.9098   23.6323 C   0  0  0  0  0  0
  -16.7291  -28.6520   23.0334 C   0  0  0  0  0  0
  -26.4527  -31.6555   25.0732 C   0  0  0  0  0  0
  -25.3753  -31.3731   26.1459 C   0  0  0  0  0  0
  -27.0358  -30.2950   24.6246 C   0  0  0  0  0  0
  -27.6053  -32.4307   25.7533 C   0  0  0  0  0  0
  -27.5573  -37.1786   24.8445 C   0  0  0  0  0  0
  -21.4229  -29.3055   22.3629 N   0  0  0  0  0  0
  -26.4261  -37.3767   23.9420 N   0  0  0  0  0  0
  -24.7049  -31.0481   22.0975 N   0  0  0  0  0  0
  -23.4210  -28.8137   23.2992 O   0  0  0  0  0  0
  -28.3059  -26.3028   20.1759 O   0  0  0  0  0  0
  -26.5628  -34.8907   22.4644 O   0  0  0  0  0  0
  -23.5505  -32.1373   23.7262 O   0  0  0  0  0  0
  -29.7254  -19.6539   20.5516 C   0  0  0  0  0  0
  -30.0690  -17.3686   20.6632 C   0  0  0  0  0  0
  -28.9567  -21.9443   22.3880 C   0  0  0  0  0  0
  -28.1220  -24.6581   18.3486 C   0  0  0  0  0  0
  -29.1544  -23.6624   20.4358 C   0  0  0  0  0  0
  -28.7050  -22.1393   20.8807 C   0  0  1  0  0  0
  -28.1231  -24.8157   19.8849 C   0  0  1  0  0  0
  -29.2431  -18.3902   20.2553 N   0  0  0  0  0  0
  -30.8980  -19.6813   21.2114 N   0  0  0  0  0  0
  -29.1264  -20.8974   20.0887 N   0  0  0  0  0  0
  -29.7751  -15.9103   20.5674 N   0  0  0  0  0  0
  -31.4766  -18.0777   21.4257 S   0  0  0  0  0  0
  -31.4809  -12.6334   19.1678 H   0  0  0  0  0  0
  -30.4130  -11.5104   19.9644 H   0  0  0  0  0  0
  -29.8156  -11.7401   17.5294 H   0  0  0  0  0  0
  -29.6350  -13.4662   17.7192 H   0  0  0  0  0  0
  -27.9063  -11.2797   18.9160 H   0  0  0  0  0  0
  -27.3879  -12.5126   17.7975 H   0  0  0  0  0  0
  -27.6277  -14.2476   19.4538 H   0  0  0  0  0  0
  -28.7335  -12.1852   21.4215 H   0  0  0  0  0  0
  -28.4141  -13.8633   21.7858 H   0  0  0  0  0  0
  -25.2729   -9.5720   22.4748 H   0  0  0  0  0  0
  -24.0004   -7.4637   22.7468 H   0  0  0  0  0  0
  -21.0804   -8.8743   19.8944 H   0  0  0  0  0  0
  -22.3631  -10.9662   19.6156 H   0  0  0  0  0  0
  -21.2016   -7.6137   23.9706 H   0  0  0  0  0  0
  -21.1482   -6.0504   25.9071 H   0  0  0  0  0  0
  -22.0611   -2.7596   23.2829 H   0  0  0  0  0  0
  -22.4041  -11.9901   22.4834 H   0  0  0  0  0  0
  -21.1065  -13.1276   22.2606 H   0  0  0  0  0  0
  -24.6612  -15.8480   20.5351 H   0  0  0  0  0  0
  -26.2607  -15.6253   20.0441 H   0  0  0  0  0  0
  -26.7241  -32.5378   23.1075 H   0  0  0  0  0  0
  -25.0113  -33.9696   25.0405 H   0  0  0  0  0  0
  -22.7308  -31.3050   21.4026 H   0  0  0  0  0  0
  -23.3741  -35.9627   23.3234 H   0  0  0  0  0  0
  -24.3589  -36.8987   22.2060 H   0  0  0  0  0  0
  -23.7240  -37.6469   23.6715 H   0  0  0  0  0  0
  -26.1324  -31.5159   20.6153 H   0  0  0  0  0  0
  -26.8598  -30.8001   22.0207 H   0  0  0  0  0  0
  -28.1275  -28.8813   21.1958 H   0  0  0  0  0  0
  -25.8549  -25.8705   19.0747 H   0  0  0  0  0  0
  -23.9439  -27.3092   19.0329 H   0  0  0  0  0  0
  -23.8031  -30.6151   19.4146 H   0  0  0  0  0  0
  -22.7671  -29.2840   19.8324 H   0  0  0  0  0  0
  -25.1279  -36.1867   25.0805 H   0  0  0  0  0  0
  -21.0015  -28.3319   24.1376 H   0  0  0  0  0  0
  -20.5744  -26.2331   23.3626 H   0  0  0  0  0  0
  -21.6671  -26.7484   22.1183 H   0  0  0  0  0  0
  -19.6947  -25.6295   21.1264 H   0  0  0  0  0  0
  -19.6716  -27.3193   20.6750 H   0  0  0  0  0  0
  -17.4233  -26.6682   21.4019 H   0  0  0  0  0  0
  -18.0338  -26.0095   22.9028 H   0  0  0  0  0  0
  -19.7951  -30.7283   24.2262 H   0  0  0  0  0  0
  -17.5029  -31.6268   24.5190 H   0  0  0  0  0  0
  -15.5365  -30.3001   23.7653 H   0  0  0  0  0  0
  -15.8693  -28.0856   22.7027 H   0  0  0  0  0  0
  -24.5924  -30.7073   25.7813 H   0  0  0  0  0  0
  -24.8965  -32.2917   26.4862 H   0  0  0  0  0  0
  -25.8082  -30.8935   27.0249 H   0  0  0  0  0  0
  -26.2938  -29.6689   24.1277 H   0  0  0  0  0  0
  -27.4007  -29.7219   25.4779 H   0  0  0  0  0  0
  -27.8843  -30.4172   23.9511 H   0  0  0  0  0  0
  -27.2621  -33.3599   26.2101 H   0  0  0  0  0  0
  -28.3895  -32.6878   25.0399 H   0  0  0  0  0  0
  -28.0696  -31.8444   26.5476 H   0  0  0  0  0  0
  -28.2526  -38.0144   24.7532 H   0  0  0  0  0  0
  -28.1123  -36.2665   24.6185 H   0  0  0  0  0  0
  -27.2315  -37.1339   25.8855 H   0  0  0  0  0  0
  -20.9413  -29.8767   21.6826 H   0  0  0  0  0  0
  -26.0111  -38.2814   24.1481 H   0  0  0  0  0  0
  -28.5232  -22.7582   22.9703 H   0  0  0  0  0  0
  -30.0222  -21.9235   22.6177 H   0  0  0  0  0  0
  -28.5129  -21.0193   22.7577 H   0  0  0  0  0  0
  -27.8631  -23.6371   18.0651 H   0  0  0  0  0  0
  -29.1122  -24.8652   17.9407 H   0  0  0  0  0  0
  -27.4363  -25.3208   17.8270 H   0  0  0  0  0  0
  -30.0001  -23.5799   19.7522 H   0  0  0  0  0  0
  -29.6075  -24.1110   21.3205 H   0  0  0  0  0  0
  -27.6182  -22.1358   20.7777 H   0  0  0  0  0  0
  -27.1450  -24.5409   20.2808 H   0  0  0  0  0  0
  -28.4254  -20.6838   19.3857 H   0  0  0  0  0  0
  -28.7941  -15.6888   20.5849 H   0  0  0  0  0  0
  1 25  1  0  0  0
  1 30  2  0  0  0
  1 81  1  0  0  0
  2  3  1  0  0  0
  2 25  1  0  0  0
  2 83  1  0  0  0
  2 84  1  0  0  0
  3  4  1  0  0  0
  3 85  1  0  0  0
  3 86  1  0  0  0
  4  5  1  0  0  0
  4 87  1  0  0  0
  4 88  1  0  0  0
  5  6  1  0  0  0
  5 26  1  0  0  0
  5 89  1  0  0  0
  6 25  1  0  0  0
  6 90  1  0  0  0
  6 91  1  0  0  0
  7  8  2  0  0  0
  7 26  1  0  0  0
  7 29  1  0  0  0
  8  9  1  0  0  0
  8 22  1  0  0  0
  9 10  1  0  0  0
  9 27  2  0  0  0
 10 11  2  0  0  0
 10 15  1  0  0  0
 11 12  1  0  0  0
 11 92  1  0  0  0
 12 13  2  0  0  0
 12 93  1  0  0  0
 13 14  1  0  0  0
 13 31  1  0  0  0
 14 15  2  0  0  0
 14 94  1  0  0  0
 15 95  1  0  0  0
 16 17  2  0  0  0
 16 21  1  0  0  0
 16 31  1  0  0  0
 17 18  1  0  0  0
 17 96  1  0  0  0
 18 19  2  0  0  0
 18 97  1  0  0  0
 19 20  1  0  0  0
 19 24  1  0  0  0
 20 21  2  0  0  0
 20 98  1  0  0  0
 21 23  1  0  0  0
 22 28  1  0  0  0
 22 32  2  0  0  0
 26 27  1  0  0  0
 28 99  1  0  0  0
 28100  1  0  0  0
 29101  1  0  0  0
 29102  1  0  0  0
 33 34  1  0  0  0
 33 66  1  0  0  0
 33 70  2  0  0  0
 34 36  1  0  0  0
 34 59  1  0  0  0
 34103  1  0  0  0
 35 44  2  0  0  0
 35 45  1  0  0  0
 35 68  1  0  0  0
 36 56  1  0  0  0
 36104  1  0  0  0
 37 39  1  0  0  0
 37 47  1  0  0  0
 37 66  1  0  0  0
 37105  1  0  0  0
 38 43  2  0  0  0
 38 46  1  0  0  0
 38 47  1  0  0  0
 39 64  1  0  0  0
 39 67  2  0  0  0
 40 52  1  0  0  0
 40 53  2  0  0  0
 40 58  1  0  0  0
 41106  1  0  0  0
 41107  1  0  0  0
 41108  1  0  0  0
 41 48  1  0  0  0
 42 43  1  0  0  0
 42 66  1  0  0  0
 42109  1  0  0  0
 42110  1  0  0  0
 43 44  1  0  0  0
 44111  1  0  0  0
 45 46  2  0  0  0
 45112  1  0  0  0
 46113  1  0  0  0
 47114  1  0  0  0
 47115  1  0  0  0
 48 56  1  0  0  0
 48 65  1  0  0  0
 48116  1  0  0  0
 49 50  1  0  0  0
 49 53  1  0  0  0
 49 64  1  0  0  0
 49117  1  0  0  0
 50 51  1  0  0  0
 50118  1  0  0  0
 50119  1  0  0  0
 51 52  1  0  0  0
 51120  1  0  0  0
 51121  1  0  0  0
 52122  1  0  0  0
 52123  1  0  0  0
 53 54  1  0  0  0
 54 55  2  0  0  0
 54124  1  0  0  0
 55 57  1  0  0  0
 55125  1  0  0  0
 56 69  2  0  0  0
 57 58  2  0  0  0
 57126  1  0  0  0
 58127  1  0  0  0
 59 60  1  0  0  0
 59 61  1  0  0  0
 59 62  1  0  0  0
 60128  1  0  0  0
 60129  1  0  0  0
 60130  1  0  0  0
 61131  1  0  0  0
 61132  1  0  0  0
 61133  1  0  0  0
 62134  1  0  0  0
 62135  1  0  0  0
 62136  1  0  0  0
 63 65  1  0  0  0
 63137  1  0  0  0
 63138  1  0  0  0
 63139  1  0  0  0
 64140  1  0  0  0
 65141  1  0  0  0
 68 77  1  0  0  0
 71 78  1  0  0  0
 71 79  2  0  0  0
 71 80  1  0  0  0
 72 78  2  0  0  0
 72 81  1  0  0  0
 72 82  1  0  0  0
 73142  1  0  0  0
 73143  1  0  0  0
 73144  1  0  0  0
 73 76  1  0  0  0
 74145  1  0  0  0
 74146  1  0  0  0
 74147  1  0  0  0
 74 77  1  0  0  0
 75 76  1  0  0  0
 75 77  1  0  0  0
 75148  1  0  0  0
 75149  1  0  0  0
 76 80  1  0  0  0
 76150  1  0  0  0
 77151  1  0  0  0
 79 82  1  0  0  0
 80152  1  0  0  0
 81153  1  0  0  0
M  ISO  4   1 100  68 101  77 101  81 100
M  END
> <chiral flag>
0

> <version>
0

> <s_m_source_file>
/data/baiqing/PycharmProjects/Reinvent-master-3.2/result/LINK_invent/BTK/process_docking_weight1_custom_product_contain_oxygen_bond_distance_aromatic_linkinvent_7_9_3/rearranged_h_0191.sdf

> <i_m_source_file_index>
7

> <r_mmod_Potential_Energy-OPLS-2005>
173.461013793945

> <r_mmod_Stretch_Energy-OPLS-2005>
146.747207641602

> <r_mmod_Bend_Energy-OPLS-2005>
211.465301513672

> <r_mmod_Torsional_Energy-OPLS-2005>
238.90837097168

> <r_mmod_Improper_Torsional_Energy-OPLS-2005>
10.7284412384033

> <r_mmod_Van_der_Waal_Energy-OPLS-2005>
120.876953125

> <r_mmod_Electrostatic_Energy-OPLS-2005>
-442.410247802734

> <r_mmod_Solvation_Energy-OPLS-2005>
-221.011306762695

> <b_mmod_Minimization_Converged-OPLS-2005>
0

> <r_mmod_RMS_Derivative-OPLS-2005>
2.31781935691833

$$$$
8
                    3D
 Structure written by MMmdl.
160168  0  0  1  0            999 V2000
  -30.7314  -14.4442   20.5260 C   0  0  0  0  0  0
  -30.4043  -12.2659   19.4443 C   0  0  0  0  0  0
  -29.4986  -12.4736   18.2137 C   0  0  0  0  0  0
  -28.0139  -12.3548   18.6153 C   0  0  0  0  0  0
  -27.6547  -13.2137   19.8572 C   0  0  2  0  0  0
  -28.6941  -13.0439   20.9887 C   0  0  0  0  0  0
  -25.2564  -13.8179   20.5664 C   0  0  0  0  0  0
  -24.1823  -13.0441   20.9164 C   0  0  0  0  0  0
  -24.6392  -11.6914   20.8716 C   0  0  0  0  0  0
  -23.9062  -10.4297   21.0399 C   0  0  0  0  0  0
  -24.3611   -9.4213   21.9173 C   0  0  0  0  0  0
  -23.6291   -8.2245   22.0748 C   0  0  0  0  0  0
  -22.4272   -8.0283   21.3547 C   0  0  0  0  0  0
  -21.9901   -9.0261   20.4652 C   0  0  0  0  0  0
  -22.7227  -10.2139   20.3058 C   0  0  0  0  0  0
  -21.6859   -6.0736   22.5283 C   0  0  0  0  0  0
  -21.4021   -6.5637   23.8216 C   0  0  0  0  0  0
  -21.3652   -5.6785   24.9167 C   0  0  0  0  0  0
  -21.6042   -4.3049   24.7219 C   0  0  0  0  0  0
  -21.8808   -3.8146   23.4337 C   0  0  0  0  0  0
  -21.9189   -4.6966   22.3397 C   0  0  0  0  0  0
  -22.7843  -13.5242   21.1831 C   0  0  0  0  0  0
  -22.1656   -4.2147   21.0977 F   0  0  0  0  0  0
  -21.5626   -3.4534   25.7734 F   0  0  0  0  0  0
  -30.0317  -13.2845   20.4369 N   0  0  0  0  0  0
  -26.2993  -12.9363   20.3279 N   0  0  0  0  0  0
  -25.9321  -11.6515   20.5728 N   0  0  0  0  0  0
  -22.0476  -12.8256   22.0403 N   0  0  0  0  0  0
  -25.4264  -15.1898   20.4112 N   0  0  0  0  0  0
  -31.8975  -14.5164   20.1313 O   0  0  0  0  0  0
  -21.6633   -6.8882   21.4248 O   0  0  0  0  0  0
  -22.3523  -14.5535   20.6660 O   0  0  0  0  0  0
  -24.6145  -31.8681   23.2124 C   0  0  0  0  0  0
  -25.9061  -32.4812   23.8399 C   0  0  1  0  0  0
  -27.2245  -27.4410   20.0920 C   0  0  0  0  0  0
  -25.5933  -33.8614   24.2327 N   0  0  0  0  0  0
  -23.4000  -30.4923   21.5547 C   0  0  2  0  0  0
  -24.8410  -28.9576   20.1188 C   0  0  0  0  0  0
  -22.7393  -29.4664   22.5031 C   0  0  0  0  0  0
  -18.0262  -28.1378   22.8494 C   0  0  0  0  0  0
  -24.1490  -36.7320   23.2633 C   0  0  0  0  0  0
  -25.9277  -30.8340   21.3645 C   0  0  0  0  0  0
  -26.0011  -29.4702   20.7115 C   0  0  0  0  0  0
  -27.1970  -28.7193   20.6919 C   0  0  0  0  0  0
  -26.0465  -26.9398   19.4935 C   0  0  0  0  0  0
  -24.8573  -27.6919   19.5086 C   0  0  0  0  0  0
  -23.6053  -29.8268   20.1679 C   0  0  0  0  0  0
  -25.4109  -36.3102   24.0330 C   0  0  1  0  0  0
  -20.5846  -28.3661   23.1332 C   0  0  2  0  0  0
  -20.6762  -26.9407   22.5419 C   0  0  0  0  0  0
  -19.5740  -26.6385   21.5221 C   0  0  0  0  0  0
  -18.1914  -26.7921   22.1626 C   0  0  0  0  0  0
  -19.1508  -28.8839   23.2909 C   0  0  0  0  0  0
  -18.9442  -30.1446   23.8906 C   0  0  0  0  0  0
  -17.6445  -30.6585   24.0569 C   0  0  0  0  0  0
  -25.9041  -34.9468   23.5118 C   0  0  0  0  0  0
  -16.5339  -29.9087   23.6336 C   0  0  0  0  0  0
  -16.7251  -28.6509   23.0348 C   0  0  0  0  0  0
  -26.4491  -31.6586   25.0720 C   0  0  0  0  0  0
  -25.3775  -31.3702   26.1484 C   0  0  0  0  0  0
  -27.0315  -30.3023   24.6093 C   0  0  0  0  0  0
  -27.6063  -32.4307   25.7483 C   0  0  0  0  0  0
  -27.5578  -37.1816   24.8457 C   0  0  0  0  0  0
  -21.4127  -29.3029   22.3758 N   0  0  0  0  0  0
  -26.4290  -37.3793   23.9409 N   0  0  0  0  0  0
  -24.6663  -31.0784   22.1028 N   0  0  0  0  0  0
  -23.4176  -28.8213   23.3059 O   0  0  0  0  0  0
  -28.4069  -26.7369   20.0648 O   0  0  0  0  0  0
  -26.5588  -34.8917   22.4663 O   0  0  0  0  0  0
  -23.5348  -32.1428   23.7535 O   0  0  0  0  0  0
  -29.1697  -19.9703   19.3183 C   0  0  0  0  0  0
  -29.8177  -20.4183   21.5597 C   0  0  0  0  0  0
  -29.3520  -20.9318   20.3299 C   0  0  0  0  0  0
  -30.1156  -18.3540   20.6332 C   0  0  0  0  0  0
  -31.4848  -22.9898   20.5201 C   0  0  0  0  0  0
  -30.0245  -15.7741   20.8747 C   0  0  0  0  0  0
  -29.7327  -24.7287   20.1138 C   0  0  0  0  0  0
  -28.3465  -25.3388   20.3728 C   0  0  0  0  0  0
  -30.9039  -17.0485   20.6399 C   0  0  1  0  0  0
  -29.9847  -23.3146   20.6935 C   0  0  1  0  0  0
  -29.5678  -18.6919   19.4647 N   0  0  0  0  0  0
  -30.2151  -19.1378   21.6980 N   0  0  0  0  0  0
  -29.1293  -22.3011   20.0639 N   0  0  0  0  0  0
  -31.6389  -17.0675   19.3637 N   0  3  0  0  0  0
  -31.4568  -12.3078   19.1604 H   0  0  0  0  0  0
  -30.2544  -11.2702   19.8632 H   0  0  0  0  0  0
  -29.7374  -11.7372   17.4458 H   0  0  0  0  0  0
  -29.6881  -13.4517   17.7673 H   0  0  0  0  0  0
  -27.8159  -11.3036   18.8244 H   0  0  0  0  0  0
  -27.3731  -12.6223   17.7743 H   0  0  0  0  0  0
  -27.6825  -14.2505   19.5263 H   0  0  0  0  0  0
  -28.6479  -12.0351   21.4019 H   0  0  0  0  0  0
  -28.4742  -13.7153   21.8192 H   0  0  0  0  0  0
  -25.2763   -9.5686   22.4730 H   0  0  0  0  0  0
  -24.0002   -7.4637   22.7467 H   0  0  0  0  0  0
  -21.0822   -8.8776   19.8971 H   0  0  0  0  0  0
  -22.3682  -10.9668   19.6160 H   0  0  0  0  0  0
  -21.2032   -7.6148   23.9716 H   0  0  0  0  0  0
  -21.1483   -6.0517   25.9065 H   0  0  0  0  0  0
  -22.0601   -2.7614   23.2832 H   0  0  0  0  0  0
  -22.4089  -11.9952   22.4854 H   0  0  0  0  0  0
  -21.1094  -13.1299   22.2578 H   0  0  0  0  0  0
  -24.6587  -15.8426   20.5268 H   0  0  0  0  0  0
  -26.2795  -15.6359   20.1003 H   0  0  0  0  0  0
  -26.7126  -32.5514   23.1153 H   0  0  0  0  0  0
  -25.0122  -33.9781   25.0496 H   0  0  0  0  0  0
  -22.6884  -31.3108   21.4187 H   0  0  0  0  0  0
  -23.3732  -35.9676   23.3296 H   0  0  0  0  0  0
  -24.3587  -36.8925   22.2048 H   0  0  0  0  0  0
  -23.7253  -37.6530   23.6645 H   0  0  0  0  0  0
  -26.0394  -31.5992   20.5953 H   0  0  0  0  0  0
  -26.8173  -30.8821   21.9813 H   0  0  0  0  0  0
  -28.0977  -29.1140   21.1427 H   0  0  0  0  0  0
  -26.0330  -25.9846   18.9902 H   0  0  0  0  0  0
  -23.9653  -27.2985   19.0401 H   0  0  0  0  0  0
  -23.7206  -30.6027   19.4104 H   0  0  0  0  0  0
  -22.7269  -29.2494   19.8702 H   0  0  0  0  0  0
  -25.1279  -36.1975   25.0822 H   0  0  0  0  0  0
  -20.9921  -28.3223   24.1459 H   0  0  0  0  0  0
  -20.5697  -26.2269   23.3602 H   0  0  0  0  0  0
  -21.6637  -26.7480   22.1200 H   0  0  0  0  0  0
  -19.6908  -25.6300   21.1242 H   0  0  0  0  0  0
  -19.6673  -27.3210   20.6763 H   0  0  0  0  0  0
  -17.4191  -26.6685   21.4012 H   0  0  0  0  0  0
  -18.0307  -26.0058   22.9014 H   0  0  0  0  0  0
  -19.7921  -30.7269   24.2269 H   0  0  0  0  0  0
  -17.5003  -31.6260   24.5183 H   0  0  0  0  0  0
  -15.5340  -30.2997   23.7648 H   0  0  0  0  0  0
  -15.8655  -28.0838   22.7039 H   0  0  0  0  0  0
  -24.5939  -30.7043   25.7841 H   0  0  0  0  0  0
  -24.8984  -32.2867   26.4946 H   0  0  0  0  0  0
  -25.8153  -30.8871   27.0231 H   0  0  0  0  0  0
  -26.2845  -29.6779   24.1167 H   0  0  0  0  0  0
  -27.4092  -29.7264   25.4555 H   0  0  0  0  0  0
  -27.8689  -30.4316   23.9226 H   0  0  0  0  0  0
  -27.2662  -33.3576   26.2115 H   0  0  0  0  0  0
  -28.3853  -32.6910   25.0305 H   0  0  0  0  0  0
  -28.0764  -31.8405   26.5361 H   0  0  0  0  0  0
  -28.2596  -38.0108   24.7499 H   0  0  0  0  0  0
  -28.1066  -36.2639   24.6280 H   0  0  0  0  0  0
  -27.2312  -37.1470   25.8864 H   0  0  0  0  0  0
  -20.9303  -29.8734   21.6954 H   0  0  0  0  0  0
  -26.0169  -38.2870   24.1407 H   0  0  0  0  0  0
  -28.7946  -20.2476   18.3433 H   0  0  0  0  0  0
  -29.9631  -21.0566   22.4193 H   0  0  0  0  0  0
  -32.1041  -23.7621   20.9790 H   0  0  0  0  0  0
  -31.7628  -22.9374   19.4669 H   0  0  0  0  0  0
  -31.7871  -22.0533   20.9851 H   0  0  0  0  0  0
  -29.1353  -15.8521   20.2517 H   0  0  0  0  0  0
  -29.6817  -15.7541   21.9085 H   0  0  0  0  0  0
  -30.4672  -25.4070   20.5508 H   0  0  0  0  0  0
  -29.9318  -24.7386   19.0408 H   0  0  0  0  0  0
  -28.0688  -25.2196   21.4208 H   0  0  0  0  0  0
  -27.6129  -24.7986   19.7754 H   0  0  0  0  0  0
  -31.6483  -17.0887   21.4363 H   0  0  0  0  0  0
  -29.7551  -23.3440   21.7603 H   0  0  0  0  0  0
  -28.7831  -22.5281   19.1326 H   0  0  0  0  0  0
  -30.9538  -17.3352   18.6746 H   0  0  0  0  0  0
  -32.0435  -16.1604   19.1932 H   0  0  0  0  0  0
  -32.3418  -17.7819   19.3946 H   0  0  0  0  0  0
  1 25  1  0  0  0
  1 30  2  0  0  0
  1 76  1  0  0  0
  2  3  1  0  0  0
  2 25  1  0  0  0
  2 85  1  0  0  0
  2 86  1  0  0  0
  3  4  1  0  0  0
  3 87  1  0  0  0
  3 88  1  0  0  0
  4  5  1  0  0  0
  4 89  1  0  0  0
  4 90  1  0  0  0
  5  6  1  0  0  0
  5 26  1  0  0  0
  5 91  1  0  0  0
  6 25  1  0  0  0
  6 92  1  0  0  0
  6 93  1  0  0  0
  7  8  2  0  0  0
  7 26  1  0  0  0
  7 29  1  0  0  0
  8  9  1  0  0  0
  8 22  1  0  0  0
  9 10  1  0  0  0
  9 27  2  0  0  0
 10 11  2  0  0  0
 10 15  1  0  0  0
 11 12  1  0  0  0
 11 94  1  0  0  0
 12 13  2  0  0  0
 12 95  1  0  0  0
 13 14  1  0  0  0
 13 31  1  0  0  0
 14 15  2  0  0  0
 14 96  1  0  0  0
 15 97  1  0  0  0
 16 17  2  0  0  0
 16 21  1  0  0  0
 16 31  1  0  0  0
 17 18  1  0  0  0
 17 98  1  0  0  0
 18 19  2  0  0  0
 18 99  1  0  0  0
 19 20  1  0  0  0
 19 24  1  0  0  0
 20 21  2  0  0  0
 20100  1  0  0  0
 21 23  1  0  0  0
 22 28  1  0  0  0
 22 32  2  0  0  0
 26 27  1  0  0  0
 28101  1  0  0  0
 28102  1  0  0  0
 29103  1  0  0  0
 29104  1  0  0  0
 33 34  1  0  0  0
 33 66  1  0  0  0
 33 70  2  0  0  0
 34 36  1  0  0  0
 34 59  1  0  0  0
 34105  1  0  0  0
 35 44  2  0  0  0
 35 45  1  0  0  0
 35 68  1  0  0  0
 36 56  1  0  0  0
 36106  1  0  0  0
 37 39  1  0  0  0
 37 47  1  0  0  0
 37 66  1  0  0  0
 37107  1  0  0  0
 38 43  2  0  0  0
 38 46  1  0  0  0
 38 47  1  0  0  0
 39 64  1  0  0  0
 39 67  2  0  0  0
 40 52  1  0  0  0
 40 53  2  0  0  0
 40 58  1  0  0  0
 41108  1  0  0  0
 41109  1  0  0  0
 41110  1  0  0  0
 41 48  1  0  0  0
 42 43  1  0  0  0
 42 66  1  0  0  0
 42111  1  0  0  0
 42112  1  0  0  0
 43 44  1  0  0  0
 44113  1  0  0  0
 45 46  2  0  0  0
 45114  1  0  0  0
 46115  1  0  0  0
 47116  1  0  0  0
 47117  1  0  0  0
 48 56  1  0  0  0
 48 65  1  0  0  0
 48118  1  0  0  0
 49 50  1  0  0  0
 49 53  1  0  0  0
 49 64  1  0  0  0
 49119  1  0  0  0
 50 51  1  0  0  0
 50120  1  0  0  0
 50121  1  0  0  0
 51 52  1  0  0  0
 51122  1  0  0  0
 51123  1  0  0  0
 52124  1  0  0  0
 52125  1  0  0  0
 53 54  1  0  0  0
 54 55  2  0  0  0
 54126  1  0  0  0
 55 57  1  0  0  0
 55127  1  0  0  0
 56 69  2  0  0  0
 57 58  2  0  0  0
 57128  1  0  0  0
 58129  1  0  0  0
 59 60  1  0  0  0
 59 61  1  0  0  0
 59 62  1  0  0  0
 60130  1  0  0  0
 60131  1  0  0  0
 60132  1  0  0  0
 61133  1  0  0  0
 61134  1  0  0  0
 61135  1  0  0  0
 62136  1  0  0  0
 62137  1  0  0  0
 62138  1  0  0  0
 63 65  1  0  0  0
 63139  1  0  0  0
 63140  1  0  0  0
 63141  1  0  0  0
 64142  1  0  0  0
 65143  1  0  0  0
 68 78  1  0  0  0
 71 73  2  0  0  0
 71 81  1  0  0  0
 71144  1  0  0  0
 72 73  1  0  0  0
 72 82  2  0  0  0
 72145  1  0  0  0
 73 83  1  0  0  0
 74 79  1  0  0  0
 74 81  2  0  0  0
 74 82  1  0  0  0
 75146  1  0  0  0
 75147  1  0  0  0
 75148  1  0  0  0
 75 80  1  0  0  0
 76 79  1  0  0  0
 76149  1  0  0  0
 76150  1  0  0  0
 77 78  1  0  0  0
 77 80  1  0  0  0
 77151  1  0  0  0
 77152  1  0  0  0
 78153  1  0  0  0
 78154  1  0  0  0
 79 84  1  0  0  0
 79155  1  0  0  0
 80 83  1  0  0  0
 80156  1  0  0  0
 83157  1  0  0  0
 84158  1  0  0  0
 84159  1  0  0  0
 84160  1  0  0  0
M  CHG  1  84   1
M  ISO  4   1 100  68 101  76 100  78 101
M  END
> <chiral flag>
0

> <version>
0

> <s_m_source_file>
/data/baiqing/PycharmProjects/Reinvent-master-3.2/result/LINK_invent/BTK/process_docking_weight1_custom_product_contain_oxygen_bond_distance_aromatic_linkinvent_7_9_3/rearranged_h_0191.sdf

> <i_m_source_file_index>
8

> <r_mmod_Potential_Energy-OPLS-2005>
-857.518493652344

> <r_mmod_Stretch_Energy-OPLS-2005>
34.9192276000977

> <r_mmod_Bend_Energy-OPLS-2005>
111.204780578613

> <r_mmod_Torsional_Energy-OPLS-2005>
178.280883789062

> <r_mmod_Improper_Torsional_Energy-OPLS-2005>
9.29403495788574

> <r_mmod_Van_der_Waal_Energy-OPLS-2005>
186.329116821289

> <r_mmod_Electrostatic_Energy-OPLS-2005>
-933.03271484375

> <r_mmod_Solvation_Energy-OPLS-2005>
-461.379608154297

> <b_mmod_Minimization_Converged-OPLS-2005>
0

> <r_mmod_RMS_Derivative-OPLS-2005>
2.12257766723633

$$$$
9
                    3D
 Structure written by MMmdl.
172180  0  0  1  0            999 V2000
  -30.7001  -14.4814   20.5803 C   0  0  0  0  0  0
  -30.4303  -12.3157   19.4242 C   0  0  0  0  0  0
  -29.5005  -12.5171   18.2090 C   0  0  0  0  0  0
  -28.0225  -12.3731   18.6186 C   0  0  0  0  0  0
  -27.6670  -13.2068   19.8784 C   0  0  2  0  0  0
  -28.7084  -12.9913   21.0017 C   0  0  0  0  0  0
  -25.2618  -13.8131   20.5688 C   0  0  0  0  0  0
  -24.1873  -13.0431   20.9183 C   0  0  0  0  0  0
  -24.6409  -11.6886   20.8722 C   0  0  0  0  0  0
  -23.9046  -10.4288   21.0369 C   0  0  0  0  0  0
  -24.3589   -9.4212   21.9164 C   0  0  0  0  0  0
  -23.6281   -8.2244   22.0734 C   0  0  0  0  0  0
  -22.4273   -8.0263   21.3520 C   0  0  0  0  0  0
  -21.9890   -9.0226   20.4628 C   0  0  0  0  0  0
  -22.7201  -10.2116   20.3027 C   0  0  0  0  0  0
  -21.6854   -6.0719   22.5273 C   0  0  0  0  0  0
  -21.4007   -6.5630   23.8206 C   0  0  0  0  0  0
  -21.3654   -5.6787   24.9171 C   0  0  0  0  0  0
  -21.6051   -4.3055   24.7231 C   0  0  0  0  0  0
  -21.8825   -3.8132   23.4359 C   0  0  0  0  0  0
  -21.9201   -4.6944   22.3402 C   0  0  0  0  0  0
  -22.7887  -13.5230   21.1837 C   0  0  0  0  0  0
  -22.1672   -4.2125   21.0987 F   0  0  0  0  0  0
  -21.5624   -3.4535   25.7740 F   0  0  0  0  0  0
  -30.0437  -13.2952   20.4529 N   0  0  0  0  0  0
  -26.3062  -12.9316   20.3382 N   0  0  0  0  0  0
  -25.9355  -11.6472   20.5760 N   0  0  0  0  0  0
  -22.0525  -12.8214   22.0366 N   0  0  0  0  0  0
  -25.4360  -15.1857   20.4093 N   0  0  0  0  0  0
  -31.8151  -14.6916   20.0920 O   0  0  0  0  0  0
  -21.6652   -6.8848   21.4224 O   0  0  0  0  0  0
  -22.3586  -14.5553   20.6701 O   0  0  0  0  0  0
  -24.6128  -31.8664   23.2079 C   0  0  0  0  0  0
  -25.9023  -32.4814   23.8363 C   0  0  1  0  0  0
  -27.2510  -27.4376   20.1223 C   0  0  0  0  0  0
  -25.5891  -33.8617   24.2311 N   0  0  0  0  0  0
  -23.3985  -30.4875   21.5497 C   0  0  2  0  0  0
  -24.8503  -28.9399   20.1246 C   0  0  0  0  0  0
  -22.7404  -29.4673   22.5046 C   0  0  0  0  0  0
  -18.0276  -28.1396   22.8497 C   0  0  0  0  0  0
  -24.1479  -36.7302   23.2641 C   0  0  0  0  0  0
  -25.9239  -30.8340   21.3563 C   0  0  0  0  0  0
  -26.0057  -29.4640   20.7163 C   0  0  0  0  0  0
  -27.2067  -28.7218   20.7093 C   0  0  0  0  0  0
  -26.0771  -26.9113   19.5371 C   0  0  0  0  0  0
  -24.8805  -27.6618   19.5325 C   0  0  0  0  0  0
  -23.6073  -29.8052   20.1699 C   0  0  0  0  0  0
  -25.4101  -36.3109   24.0342 C   0  0  1  0  0  0
  -20.5862  -28.3665   23.1383 C   0  0  2  0  0  0
  -20.6782  -26.9404   22.5485 C   0  0  0  0  0  0
  -19.5782  -26.6390   21.5260 C   0  0  0  0  0  0
  -18.1923  -26.7970   22.1605 C   0  0  0  0  0  0
  -19.1520  -28.8853   23.2941 C   0  0  0  0  0  0
  -18.9448  -30.1465   23.8929 C   0  0  0  0  0  0
  -17.6444  -30.6592   24.0580 C   0  0  0  0  0  0
  -25.9039  -34.9484   23.5131 C   0  0  0  0  0  0
  -16.5340  -29.9097   23.6334 C   0  0  0  0  0  0
  -16.7256  -28.6541   23.0314 C   0  0  0  0  0  0
  -26.4459  -31.6580   25.0683 C   0  0  0  0  0  0
  -25.3688  -31.3716   26.1413 C   0  0  0  0  0  0
  -27.0290  -30.3019   24.6043 C   0  0  0  0  0  0
  -27.6045  -32.4285   25.7431 C   0  0  0  0  0  0
  -27.5591  -37.1791   24.8448 C   0  0  0  0  0  0
  -21.4148  -29.3011   22.3780 N   0  0  0  0  0  0
  -26.4275  -37.3789   23.9436 N   0  0  0  0  0  0
  -24.6629  -31.0786   22.0956 N   0  0  0  0  0  0
  -23.4193  -28.8256   23.3104 O   0  0  0  0  0  0
  -28.4530  -26.7671   20.0563 O   0  0  0  0  0  0
  -26.5588  -34.8947   22.4675 O   0  0  0  0  0  0
  -23.5336  -32.1418   23.7505 O   0  0  0  0  0  0
  -29.0748  -17.7497   20.9259 C   0  0  0  0  0  0
  -31.4366  -17.5203   20.9245 C   0  0  0  0  0  0
  -30.1809  -16.8851   20.9987 C   0  0  0  0  0  0
  -30.4315  -19.5629   20.6796 C   0  0  0  0  0  0
  -28.0744  -22.4637   16.9028 C   0  0  0  0  0  0
  -32.3861  -21.1754   16.5196 C   0  0  0  0  0  0
  -29.7989  -20.1474   17.6448 C   0  0  0  0  0  0
  -29.5976  -22.5676   17.0864 C   0  0  0  0  0  0
  -31.8108  -21.6815   17.8674 C   0  0  0  0  0  0
  -28.8994  -24.3596   19.7155 C   0  0  0  0  0  0
  -28.5752  -25.4984   20.7189 C   0  0  0  0  0  0
  -29.8181  -21.7908   19.5981 C   0  0  1  0  0  0
  -29.8272  -23.2254   20.2583 C   0  0  1  0  0  0
  -30.2592  -21.5664   18.0743 C   0  0  0  0  0  0
  -29.2011  -19.0823   20.7524 N   0  0  0  0  0  0
  -31.5463  -18.8613   20.7833 N   0  0  0  0  0  0
  -29.9922  -15.4713   21.1583 N   0  0  0  0  0  0
  -30.5966  -20.9178   20.4921 N   0  0  0  0  0  0
  -31.1606  -23.6934   20.2986 O   0  0  0  0  0  0
  -31.4733  -12.4209   19.1201 H   0  0  0  0  0  0
  -30.3379  -11.2997   19.8126 H   0  0  0  0  0  0
  -29.7414  -11.7984   17.4236 H   0  0  0  0  0  0
  -29.6682  -13.5070   17.7820 H   0  0  0  0  0  0
  -27.8325  -11.3179   18.8071 H   0  0  0  0  0  0
  -27.3699  -12.6521   17.7899 H   0  0  0  0  0  0
  -27.7130  -14.2551   19.5833 H   0  0  0  0  0  0
  -28.6851  -11.9625   21.3636 H   0  0  0  0  0  0
  -28.4644  -13.6019   21.8726 H   0  0  0  0  0  0
  -25.2724   -9.5722   22.4751 H   0  0  0  0  0  0
  -23.9990   -7.4641   22.7481 H   0  0  0  0  0  0
  -21.0796   -8.8718   19.8969 H   0  0  0  0  0  0
  -22.3615  -10.9633   19.6142 H   0  0  0  0  0  0
  -21.1995   -7.6143   23.9693 H   0  0  0  0  0  0
  -21.1468   -6.0529   25.9071 H   0  0  0  0  0  0
  -22.0616   -2.7600   23.2861 H   0  0  0  0  0  0
  -22.4109  -11.9859   22.4738 H   0  0  0  0  0  0
  -21.1139  -13.1237   22.2582 H   0  0  0  0  0  0
  -24.6565  -15.8288   20.4911 H   0  0  0  0  0  0
  -26.2761  -15.6142   20.0425 H   0  0  0  0  0  0
  -26.7106  -32.5539   23.1146 H   0  0  0  0  0  0
  -25.0033  -33.9735   25.0459 H   0  0  0  0  0  0
  -22.6860  -31.3044   21.4098 H   0  0  0  0  0  0
  -23.3760  -35.9612   23.3284 H   0  0  0  0  0  0
  -24.3593  -36.8920   22.2063 H   0  0  0  0  0  0
  -23.7204  -37.6487   23.6665 H   0  0  0  0  0  0
  -26.0256  -31.5896   20.5779 H   0  0  0  0  0  0
  -26.8162  -30.8986   21.9659 H   0  0  0  0  0  0
  -28.1009  -29.1373   21.1520 H   0  0  0  0  0  0
  -26.0953  -25.9372   19.0658 H   0  0  0  0  0  0
  -23.9914  -27.2524   19.0746 H   0  0  0  0  0  0
  -23.7138  -30.5726   19.4045 H   0  0  0  0  0  0
  -22.7306  -29.2240   19.8784 H   0  0  0  0  0  0
  -25.1278  -36.1942   25.0823 H   0  0  0  0  0  0
  -20.9932  -28.3219   24.1518 H   0  0  0  0  0  0
  -20.5724  -26.2245   23.3659 H   0  0  0  0  0  0
  -21.6646  -26.7485   22.1244 H   0  0  0  0  0  0
  -19.6946  -25.6310   21.1257 H   0  0  0  0  0  0
  -19.6770  -27.3242   20.6838 H   0  0  0  0  0  0
  -17.4244  -26.6797   21.3930 H   0  0  0  0  0  0
  -18.0237  -26.0084   22.8960 H   0  0  0  0  0  0
  -19.7917  -30.7277   24.2295 H   0  0  0  0  0  0
  -17.4998  -31.6263   24.5205 H   0  0  0  0  0  0
  -15.5340  -30.2997   23.7677 H   0  0  0  0  0  0
  -15.8663  -28.0891   22.6949 H   0  0  0  0  0  0
  -24.5941  -30.6956   25.7776 H   0  0  0  0  0  0
  -24.8765  -32.2877   26.4697 H   0  0  0  0  0  0
  -25.8003  -30.9043   27.0270 H   0  0  0  0  0  0
  -26.2839  -29.6778   24.1106 H   0  0  0  0  0  0
  -27.4089  -29.7251   25.4480 H   0  0  0  0  0  0
  -27.8647  -30.4365   23.9177 H   0  0  0  0  0  0
  -27.2677  -33.3585   26.2025 H   0  0  0  0  0  0
  -28.3831  -32.6824   25.0226 H   0  0  0  0  0  0
  -28.0742  -31.8384   26.5308 H   0  0  0  0  0  0
  -28.2586  -38.0109   24.7507 H   0  0  0  0  0  0
  -28.1102  -36.2644   24.6225 H   0  0  0  0  0  0
  -27.2341  -37.1344   25.8852 H   0  0  0  0  0  0
  -20.9336  -29.8615   21.6895 H   0  0  0  0  0  0
  -26.0175  -38.2864   24.1433 H   0  0  0  0  0  0
  -28.0669  -17.3657   20.9867 H   0  0  0  0  0  0
  -32.3629  -16.9728   21.0089 H   0  0  0  0  0  0
  -27.6676  -23.4159   16.5629 H   0  0  0  0  0  0
  -27.5647  -22.1920   17.8219 H   0  0  0  0  0  0
  -27.8131  -21.7186   16.1497 H   0  0  0  0  0  0
  -33.4668  -21.3241   16.4894 H   0  0  0  0  0  0
  -31.9830  -21.6949   15.6496 H   0  0  0  0  0  0
  -32.2112  -20.1090   16.3691 H   0  0  0  0  0  0
  -29.7781  -20.0209   16.5618 H   0  0  0  0  0  0
  -28.7905  -19.9361   18.0010 H   0  0  0  0  0  0
  -30.4473  -19.3663   18.0393 H   0  0  0  0  0  0
  -29.8892  -23.5785   17.3426 H   0  0  0  0  0  0
  -30.0205  -22.4427   16.0930 H   0  0  0  0  0  0
  -32.1165  -22.7213   17.9778 H   0  0  0  0  0  0
  -32.3493  -21.1405   18.6451 H   0  0  0  0  0  0
  -29.3669  -24.8579   18.8706 H   0  0  0  0  0  0
  -27.9613  -23.9373   19.3546 H   0  0  0  0  0  0
  -29.4017  -25.6162   21.4221 H   0  0  0  0  0  0
  -27.7012  -25.2437   21.3192 H   0  0  0  0  0  0
  -28.7791  -21.4695   19.6826 H   0  0  0  0  0  0
  -29.5242  -23.0852   21.2981 H   0  0  0  0  0  0
  -29.0907  -15.1751   21.5065 H   0  0  0  0  0  0
  -31.5485  -21.2375   20.6130 H   0  0  0  0  0  0
  -31.4898  -23.6528   19.4077 H   0  0  0  0  0  0
  1 25  1  0  0  0
  1 30  2  0  0  0
  1 87  1  0  0  0
  2  3  1  0  0  0
  2 25  1  0  0  0
  2 90  1  0  0  0
  2 91  1  0  0  0
  3  4  1  0  0  0
  3 92  1  0  0  0
  3 93  1  0  0  0
  4  5  1  0  0  0
  4 94  1  0  0  0
  4 95  1  0  0  0
  5  6  1  0  0  0
  5 26  1  0  0  0
  5 96  1  0  0  0
  6 25  1  0  0  0
  6 97  1  0  0  0
  6 98  1  0  0  0
  7  8  2  0  0  0
  7 26  1  0  0  0
  7 29  1  0  0  0
  8  9  1  0  0  0
  8 22  1  0  0  0
  9 10  1  0  0  0
  9 27  2  0  0  0
 10 11  2  0  0  0
 10 15  1  0  0  0
 11 12  1  0  0  0
 11 99  1  0  0  0
 12 13  2  0  0  0
 12100  1  0  0  0
 13 14  1  0  0  0
 13 31  1  0  0  0
 14 15  2  0  0  0
 14101  1  0  0  0
 15102  1  0  0  0
 16 17  2  0  0  0
 16 21  1  0  0  0
 16 31  1  0  0  0
 17 18  1  0  0  0
 17103  1  0  0  0
 18 19  2  0  0  0
 18104  1  0  0  0
 19 20  1  0  0  0
 19 24  1  0  0  0
 20 21  2  0  0  0
 20105  1  0  0  0
 21 23  1  0  0  0
 22 28  1  0  0  0
 22 32  2  0  0  0
 26 27  1  0  0  0
 28106  1  0  0  0
 28107  1  0  0  0
 29108  1  0  0  0
 29109  1  0  0  0
 33 34  1  0  0  0
 33 66  1  0  0  0
 33 70  2  0  0  0
 34 36  1  0  0  0
 34 59  1  0  0  0
 34110  1  0  0  0
 35 44  2  0  0  0
 35 45  1  0  0  0
 35 68  1  0  0  0
 36 56  1  0  0  0
 36111  1  0  0  0
 37 39  1  0  0  0
 37 47  1  0  0  0
 37 66  1  0  0  0
 37112  1  0  0  0
 38 43  2  0  0  0
 38 46  1  0  0  0
 38 47  1  0  0  0
 39 64  1  0  0  0
 39 67  2  0  0  0
 40 52  1  0  0  0
 40 53  2  0  0  0
 40 58  1  0  0  0
 41113  1  0  0  0
 41114  1  0  0  0
 41115  1  0  0  0
 41 48  1  0  0  0
 42 43  1  0  0  0
 42 66  1  0  0  0
 42116  1  0  0  0
 42117  1  0  0  0
 43 44  1  0  0  0
 44118  1  0  0  0
 45 46  2  0  0  0
 45119  1  0  0  0
 46120  1  0  0  0
 47121  1  0  0  0
 47122  1  0  0  0
 48 56  1  0  0  0
 48 65  1  0  0  0
 48123  1  0  0  0
 49 50  1  0  0  0
 49 53  1  0  0  0
 49 64  1  0  0  0
 49124  1  0  0  0
 50 51  1  0  0  0
 50125  1  0  0  0
 50126  1  0  0  0
 51 52  1  0  0  0
 51127  1  0  0  0
 51128  1  0  0  0
 52129  1  0  0  0
 52130  1  0  0  0
 53 54  1  0  0  0
 54 55  2  0  0  0
 54131  1  0  0  0
 55 57  1  0  0  0
 55132  1  0  0  0
 56 69  2  0  0  0
 57 58  2  0  0  0
 57133  1  0  0  0
 58134  1  0  0  0
 59 60  1  0  0  0
 59 61  1  0  0  0
 59 62  1  0  0  0
 60135  1  0  0  0
 60136  1  0  0  0
 60137  1  0  0  0
 61138  1  0  0  0
 61139  1  0  0  0
 61140  1  0  0  0
 62141  1  0  0  0
 62142  1  0  0  0
 62143  1  0  0  0
 63 65  1  0  0  0
 63144  1  0  0  0
 63145  1  0  0  0
 63146  1  0  0  0
 64147  1  0  0  0
 65148  1  0  0  0
 68 81  1  0  0  0
 71 73  2  0  0  0
 71 85  1  0  0  0
 71149  1  0  0  0
 72 73  1  0  0  0
 72 86  2  0  0  0
 72150  1  0  0  0
 73 87  1  0  0  0
 74 85  2  0  0  0
 74 86  1  0  0  0
 74 88  1  0  0  0
 75 78  1  0  0  0
 75151  1  0  0  0
 75152  1  0  0  0
 75153  1  0  0  0
 76 79  1  0  0  0
 76154  1  0  0  0
 76155  1  0  0  0
 76156  1  0  0  0
 77157  1  0  0  0
 77158  1  0  0  0
 77159  1  0  0  0
 77 84  1  0  0  0
 78 84  1  0  0  0
 78160  1  0  0  0
 78161  1  0  0  0
 79 84  1  0  0  0
 79162  1  0  0  0
 79163  1  0  0  0
 80 81  1  0  0  0
 80 83  1  0  0  0
 80164  1  0  0  0
 80165  1  0  0  0
 81166  1  0  0  0
 81167  1  0  0  0
 82 83  1  0  0  0
 82 84  1  0  0  0
 82 88  1  0  0  0
 82168  1  0  0  0
 83 89  1  0  0  0
 83169  1  0  0  0
 87170  1  0  0  0
 88171  1  0  0  0
 89172  1  0  0  0
M  ISO  4   1 100  68 101  81 101  87 100
M  END
> <chiral flag>
0

> <version>
0

> <s_m_source_file>
/data/baiqing/PycharmProjects/Reinvent-master-3.2/result/LINK_invent/BTK/process_docking_weight1_custom_product_contain_oxygen_bond_distance_aromatic_linkinvent_7_9_3/rearranged_h_0191.sdf

> <i_m_source_file_index>
9

> <r_mmod_Potential_Energy-OPLS-2005>
-616.34765625

> <r_mmod_Stretch_Energy-OPLS-2005>
49.498706817627

> <r_mmod_Bend_Energy-OPLS-2005>
143.900466918945

> <r_mmod_Torsional_Energy-OPLS-2005>
317.549102783203

> <r_mmod_Improper_Torsional_Energy-OPLS-2005>
6.72628021240234

> <r_mmod_Van_der_Waal_Energy-OPLS-2005>
168.334228515625

> <r_mmod_Electrostatic_Energy-OPLS-2005>
-1081.81945800781

> <r_mmod_Solvation_Energy-OPLS-2005>
-232.678634643555

> <b_mmod_Minimization_Converged-OPLS-2005>
0

> <r_mmod_RMS_Derivative-OPLS-2005>
5.27860116958618

$$$$
10
                    3D
 Structure written by MMmdl.
152160  0  0  1  0            999 V2000
  -30.6712  -14.5388   20.5146 C   0  0  0  0  0  0
  -30.4183  -12.3283   19.4483 C   0  0  0  0  0  0
  -29.4973  -12.4891   18.2200 C   0  0  0  0  0  0
  -28.0188  -12.3417   18.6322 C   0  0  0  0  0  0
  -27.6519  -13.2106   19.8657 C   0  0  2  0  0  0
  -28.6935  -13.0465   20.9963 C   0  0  0  0  0  0
  -25.2549  -13.8183   20.5681 C   0  0  0  0  0  0
  -24.1810  -13.0443   20.9193 C   0  0  0  0  0  0
  -24.6370  -11.6918   20.8738 C   0  0  0  0  0  0
  -23.9044  -10.4293   21.0404 C   0  0  0  0  0  0
  -24.3604   -9.4203   21.9175 C   0  0  0  0  0  0
  -23.6282   -8.2240   22.0744 C   0  0  0  0  0  0
  -22.4262   -8.0271   21.3542 C   0  0  0  0  0  0
  -21.9893   -9.0242   20.4644 C   0  0  0  0  0  0
  -22.7222  -10.2122   20.3050 C   0  0  0  0  0  0
  -21.6847   -6.0720   22.5279 C   0  0  0  0  0  0
  -21.4019   -6.5631   23.8210 C   0  0  0  0  0  0
  -21.3662   -5.6789   24.9177 C   0  0  0  0  0  0
  -21.6041   -4.3048   24.7231 C   0  0  0  0  0  0
  -21.8828   -3.8134   23.4355 C   0  0  0  0  0  0
  -21.9197   -4.6949   22.3408 C   0  0  0  0  0  0
  -22.7835  -13.5230   21.1865 C   0  0  0  0  0  0
  -22.1659   -4.2130   21.0985 F   0  0  0  0  0  0
  -21.5632   -3.4538   25.7750 F   0  0  0  0  0  0
  -30.0156  -13.3482   20.4322 N   0  0  0  0  0  0
  -26.2961  -12.9343   20.3343 N   0  0  0  0  0  0
  -25.9291  -11.6498   20.5768 N   0  0  0  0  0  0
  -22.0490  -12.8198   22.0426 N   0  0  0  0  0  0
  -25.4270  -15.1902   20.4091 N   0  0  0  0  0  0
  -31.8343  -14.6711   20.1241 O   0  0  0  0  0  0
  -21.6639   -6.8858   21.4236 O   0  0  0  0  0  0
  -22.3513  -14.5539   20.6719 O   0  0  0  0  0  0
  -24.6169  -31.8639   23.2060 C   0  0  0  0  0  0
  -25.9053  -32.4789   23.8371 C   0  0  1  0  0  0
  -27.2338  -27.3787   20.1046 C   0  0  0  0  0  0
  -25.5894  -33.8592   24.2301 N   0  0  0  0  0  0
  -23.4083  -30.4867   21.5453 C   0  0  2  0  0  0
  -24.8570  -28.9444   20.1084 C   0  0  0  0  0  0
  -22.7411  -29.4654   22.4943 C   0  0  0  0  0  0
  -18.0277  -28.1382   22.8503 C   0  0  0  0  0  0
  -24.1487  -36.7306   23.2641 C   0  0  0  0  0  0
  -25.9422  -30.8092   21.3710 C   0  0  0  0  0  0
  -26.0172  -29.4407   20.7139 C   0  0  0  0  0  0
  -27.2036  -28.6640   20.7094 C   0  0  0  0  0  0
  -26.0510  -26.9093   19.4882 C   0  0  0  0  0  0
  -24.8731  -27.6829   19.4889 C   0  0  0  0  0  0
  -23.6195  -29.8158   20.1599 C   0  0  0  0  0  0
  -25.4110  -36.3098   24.0332 C   0  0  1  0  0  0
  -20.5865  -28.3699   23.1296 C   0  0  2  0  0  0
  -20.6769  -26.9416   22.5458 C   0  0  0  0  0  0
  -19.5745  -26.6353   21.5279 C   0  0  0  0  0  0
  -18.1919  -26.7913   22.1673 C   0  0  0  0  0  0
  -19.1525  -28.8868   23.2881 C   0  0  0  0  0  0
  -18.9443  -30.1474   23.8882 C   0  0  0  0  0  0
  -17.6438  -30.6600   24.0547 C   0  0  0  0  0  0
  -25.9043  -34.9461   23.5119 C   0  0  0  0  0  0
  -16.5336  -29.9088   23.6332 C   0  0  0  0  0  0
  -16.7266  -28.6494   23.0369 C   0  0  0  0  0  0
  -26.4471  -31.6597   25.0723 C   0  0  0  0  0  0
  -25.3720  -31.3718   26.1460 C   0  0  0  0  0  0
  -27.0313  -30.3026   24.6163 C   0  0  0  0  0  0
  -27.6041  -32.4327   25.7474 C   0  0  0  0  0  0
  -27.5580  -37.1810   24.8463 C   0  0  0  0  0  0
  -21.4134  -29.3045   22.3670 N   0  0  0  0  0  0
  -26.4299  -37.3781   23.9396 N   0  0  0  0  0  0
  -24.6733  -31.0696   22.0980 N   0  0  0  0  0  0
  -23.4162  -28.8217   23.3019 O   0  0  0  0  0  0
  -28.4027  -26.6281   20.1659 O   0  0  0  0  0  0
  -26.5611  -34.8915   22.4686 O   0  0  0  0  0  0
  -23.5347  -32.1422   23.7427 O   0  0  0  0  0  0
  -28.3063  -18.2211   21.5655 C   0  0  0  0  0  0
  -29.4662  -18.1899   20.8284 C   0  0  0  0  0  0
  -28.9551  -20.4533   20.7042 C   0  0  0  0  0  0
  -30.4024  -17.0112   20.5533 C   0  0  0  0  0  0
  -28.7286  -23.0848   21.0438 C   0  0  0  0  0  0
  -28.5191  -25.3266   19.5277 C   0  0  0  0  0  0
  -27.8391  -24.0810   20.2139 C   0  0  1  0  0  0
  -29.7918  -19.4739   20.3234 N   0  0  0  0  0  0
  -29.1098  -21.8133   20.3708 N   0  0  0  0  0  0
  -29.9286  -15.6302   20.8206 N   0  0  0  0  0  0
  -27.2618  -23.2406   19.2380 O   0  0  0  0  0  0
  -27.6474  -19.8424   21.7122 S   0  0  0  0  0  0
  -31.4653  -12.4165   19.1526 H   0  0  0  0  0  0
  -30.3118  -11.3317   19.8808 H   0  0  0  0  0  0
  -29.7486  -11.7495   17.4589 H   0  0  0  0  0  0
  -29.6586  -13.4666   17.7619 H   0  0  0  0  0  0
  -27.8461  -11.2887   18.8591 H   0  0  0  0  0  0
  -27.3655  -12.5790   17.7915 H   0  0  0  0  0  0
  -27.6792  -14.2476   19.5321 H   0  0  0  0  0  0
  -28.6803  -12.0270   21.3857 H   0  0  0  0  0  0
  -28.4592  -13.6940   21.8424 H   0  0  0  0  0  0
  -25.2752   -9.5684   22.4738 H   0  0  0  0  0  0
  -23.9993   -7.4639   22.7459 H   0  0  0  0  0  0
  -21.0827   -8.8760   19.8954 H   0  0  0  0  0  0
  -22.3677  -10.9652   19.6157 H   0  0  0  0  0  0
  -21.2009   -7.6138   23.9712 H   0  0  0  0  0  0
  -21.1476   -6.0517   25.9082 H   0  0  0  0  0  0
  -22.0604   -2.7591   23.2872 H   0  0  0  0  0  0
  -22.4101  -11.9845   22.4779 H   0  0  0  0  0  0
  -21.1120  -13.1224   22.2677 H   0  0  0  0  0  0
  -24.6553  -15.8418   20.4992 H   0  0  0  0  0  0
  -26.2719  -15.6261   20.0627 H   0  0  0  0  0  0
  -26.7108  -32.5490   23.1116 H   0  0  0  0  0  0
  -25.0023  -33.9753   25.0432 H   0  0  0  0  0  0
  -22.7008  -31.3065   21.4030 H   0  0  0  0  0  0
  -23.3748  -35.9643   23.3315 H   0  0  0  0  0  0
  -24.3585  -36.8919   22.2057 H   0  0  0  0  0  0
  -23.7251  -37.6516   23.6653 H   0  0  0  0  0  0
  -26.0705  -31.5763   20.6061 H   0  0  0  0  0  0
  -26.8241  -30.8557   21.9985 H   0  0  0  0  0  0
  -28.0979  -29.0384   21.1880 H   0  0  0  0  0  0
  -26.0136  -25.9400   19.0139 H   0  0  0  0  0  0
  -23.9819  -27.2996   19.0122 H   0  0  0  0  0  0
  -23.7221  -30.5885   19.3971 H   0  0  0  0  0  0
  -22.7430  -29.2330   19.8690 H   0  0  0  0  0  0
  -25.1298  -36.1970   25.0827 H   0  0  0  0  0  0
  -20.9970  -28.3304   24.1421 H   0  0  0  0  0  0
  -20.5696  -26.2333   23.3688 H   0  0  0  0  0  0
  -21.6631  -26.7441   22.1243 H   0  0  0  0  0  0
  -19.6913  -25.6245   21.1358 H   0  0  0  0  0  0
  -19.6698  -27.3138   20.6778 H   0  0  0  0  0  0
  -17.4184  -26.6601   21.4083 H   0  0  0  0  0  0
  -18.0337  -26.0090   22.9114 H   0  0  0  0  0  0
  -19.7918  -30.7319   24.2208 H   0  0  0  0  0  0
  -17.4971  -31.6298   24.5108 H   0  0  0  0  0  0
  -15.5323  -30.2969   23.7629 H   0  0  0  0  0  0
  -15.8673  -28.0792   22.7101 H   0  0  0  0  0  0
  -24.5895  -30.7071   25.7784 H   0  0  0  0  0  0
  -24.8905  -32.2870   26.4900 H   0  0  0  0  0  0
  -25.8052  -30.8882   27.0225 H   0  0  0  0  0  0
  -26.2874  -29.6763   24.1224 H   0  0  0  0  0  0
  -27.4058  -29.7298   25.4663 H   0  0  0  0  0  0
  -27.8718  -30.4313   23.9340 H   0  0  0  0  0  0
  -27.2662  -33.3616   26.2071 H   0  0  0  0  0  0
  -28.3821  -32.6913   25.0283 H   0  0  0  0  0  0
  -28.0740  -31.8454   26.5374 H   0  0  0  0  0  0
  -28.2611  -38.0095   24.7504 H   0  0  0  0  0  0
  -28.1068  -36.2634   24.6302 H   0  0  0  0  0  0
  -27.2296  -37.1469   25.8866 H   0  0  0  0  0  0
  -20.9301  -29.8734   21.6859 H   0  0  0  0  0  0
  -26.0195  -38.2864   24.1389 H   0  0  0  0  0  0
  -27.8097  -17.4000   22.0657 H   0  0  0  0  0  0
  -31.3212  -17.1621   21.1224 H   0  0  0  0  0  0
  -30.7072  -17.0477   19.5052 H   0  0  0  0  0  0
  -28.1819  -22.8167   21.9499 H   0  0  0  0  0  0
  -29.6274  -23.5931   21.3966 H   0  0  0  0  0  0
  -28.1680  -25.4342   18.5011 H   0  0  0  0  0  0
  -29.5831  -25.1135   19.4166 H   0  0  0  0  0  0
  -27.0337  -24.4505   20.8515 H   0  0  0  0  0  0
  -29.9292  -21.9398   19.7832 H   0  0  0  0  0  0
  -28.9662  -15.4983   21.0898 H   0  0  0  0  0  0
  -27.8104  -22.4533   19.3038 H   0  0  0  0  0  0
  1 25  1  0  0  0
  1 30  2  0  0  0
  1 80  1  0  0  0
  2  3  1  0  0  0
  2 25  1  0  0  0
  2 83  1  0  0  0
  2 84  1  0  0  0
  3  4  1  0  0  0
  3 85  1  0  0  0
  3 86  1  0  0  0
  4  5  1  0  0  0
  4 87  1  0  0  0
  4 88  1  0  0  0
  5  6  1  0  0  0
  5 26  1  0  0  0
  5 89  1  0  0  0
  6 25  1  0  0  0
  6 90  1  0  0  0
  6 91  1  0  0  0
  7  8  2  0  0  0
  7 26  1  0  0  0
  7 29  1  0  0  0
  8  9  1  0  0  0
  8 22  1  0  0  0
  9 10  1  0  0  0
  9 27  2  0  0  0
 10 11  2  0  0  0
 10 15  1  0  0  0
 11 12  1  0  0  0
 11 92  1  0  0  0
 12 13  2  0  0  0
 12 93  1  0  0  0
 13 14  1  0  0  0
 13 31  1  0  0  0
 14 15  2  0  0  0
 14 94  1  0  0  0
 15 95  1  0  0  0
 16 17  2  0  0  0
 16 21  1  0  0  0
 16 31  1  0  0  0
 17 18  1  0  0  0
 17 96  1  0  0  0
 18 19  2  0  0  0
 18 97  1  0  0  0
 19 20  1  0  0  0
 19 24  1  0  0  0
 20 21  2  0  0  0
 20 98  1  0  0  0
 21 23  1  0  0  0
 22 28  1  0  0  0
 22 32  2  0  0  0
 26 27  1  0  0  0
 28 99  1  0  0  0
 28100  1  0  0  0
 29101  1  0  0  0
 29102  1  0  0  0
 33 34  1  0  0  0
 33 66  1  0  0  0
 33 70  2  0  0  0
 34 36  1  0  0  0
 34 59  1  0  0  0
 34103  1  0  0  0
 35 44  2  0  0  0
 35 45  1  0  0  0
 35 68  1  0  0  0
 36 56  1  0  0  0
 36104  1  0  0  0
 37 39  1  0  0  0
 37 47  1  0  0  0
 37 66  1  0  0  0
 37105  1  0  0  0
 38 43  2  0  0  0
 38 46  1  0  0  0
 38 47  1  0  0  0
 39 64  1  0  0  0
 39 67  2  0  0  0
 40 52  1  0  0  0
 40 53  2  0  0  0
 40 58  1  0  0  0
 41106  1  0  0  0
 41107  1  0  0  0
 41108  1  0  0  0
 41 48  1  0  0  0
 42 43  1  0  0  0
 42 66  1  0  0  0
 42109  1  0  0  0
 42110  1  0  0  0
 43 44  1  0  0  0
 44111  1  0  0  0
 45 46  2  0  0  0
 45112  1  0  0  0
 46113  1  0  0  0
 47114  1  0  0  0
 47115  1  0  0  0
 48 56  1  0  0  0
 48 65  1  0  0  0
 48116  1  0  0  0
 49 50  1  0  0  0
 49 53  1  0  0  0
 49 64  1  0  0  0
 49117  1  0  0  0
 50 51  1  0  0  0
 50118  1  0  0  0
 50119  1  0  0  0
 51 52  1  0  0  0
 51120  1  0  0  0
 51121  1  0  0  0
 52122  1  0  0  0
 52123  1  0  0  0
 53 54  1  0  0  0
 54 55  2  0  0  0
 54124  1  0  0  0
 55 57  1  0  0  0
 55125  1  0  0  0
 56 69  2  0  0  0
 57 58  2  0  0  0
 57126  1  0  0  0
 58127  1  0  0  0
 59 60  1  0  0  0
 59 61  1  0  0  0
 59 62  1  0  0  0
 60128  1  0  0  0
 60129  1  0  0  0
 60130  1  0  0  0
 61131  1  0  0  0
 61132  1  0  0  0
 61133  1  0  0  0
 62134  1  0  0  0
 62135  1  0  0  0
 62136  1  0  0  0
 63 65  1  0  0  0
 63137  1  0  0  0
 63138  1  0  0  0
 63139  1  0  0  0
 64140  1  0  0  0
 65141  1  0  0  0
 68 76  1  0  0  0
 71 72  2  0  0  0
 71 82  1  0  0  0
 71142  1  0  0  0
 72 74  1  0  0  0
 72 78  1  0  0  0
 73 78  2  0  0  0
 73 79  1  0  0  0
 73 82  1  0  0  0
 74 80  1  0  0  0
 74143  1  0  0  0
 74144  1  0  0  0
 75 77  1  0  0  0
 75 79  1  0  0  0
 75145  1  0  0  0
 75146  1  0  0  0
 76 77  1  0  0  0
 76147  1  0  0  0
 76148  1  0  0  0
 77 81  1  0  0  0
 77149  1  0  0  0
 79150  1  0  0  0
 80151  1  0  0  0
 81152  1  0  0  0
M  ISO  4   1 100  68 101  76 101  80 100
M  END
> <chiral flag>
0

> <version>
0

> <s_m_source_file>
/data/baiqing/PycharmProjects/Reinvent-master-3.2/result/LINK_invent/BTK/process_docking_weight1_custom_product_contain_oxygen_bond_distance_aromatic_linkinvent_7_9_3/rearranged_h_0191.sdf

> <i_m_source_file_index>
10

> <r_mmod_Potential_Energy-OPLS-2005>
-256.595001220703

> <r_mmod_Stretch_Energy-OPLS-2005>
48.977783203125

> <r_mmod_Bend_Energy-OPLS-2005>
123.672454833984

> <r_mmod_Torsional_Energy-OPLS-2005>
239.216522216797

> <r_mmod_Improper_Torsional_Energy-OPLS-2005>
7.51880645751953

> <r_mmod_Van_der_Waal_Energy-OPLS-2005>
133.392349243164

> <r_mmod_Electrostatic_Energy-OPLS-2005>
-595.460571289062

> <r_mmod_Solvation_Energy-OPLS-2005>
-239.425247192383

> <b_mmod_Minimization_Converged-OPLS-2005>
0

> <r_mmod_RMS_Derivative-OPLS-2005>
2.39066386222839

$$$$
11
                    3D
 Structure written by MMmdl.
164172  0  0  1  0            999 V2000
  -30.6438  -14.5799   20.4930 C   0  0  0  0  0  0
  -30.4161  -12.3438   19.4698 C   0  0  0  0  0  0
  -29.4996  -12.5013   18.2374 C   0  0  0  0  0  0
  -28.0215  -12.3498   18.6425 C   0  0  0  0  0  0
  -27.6458  -13.2226   19.8691 C   0  0  2  0  0  0
  -28.6807  -13.0781   21.0083 C   0  0  0  0  0  0
  -25.2508  -13.8199   20.5665 C   0  0  0  0  0  0
  -24.1783  -13.0449   20.9187 C   0  0  0  0  0  0
  -24.6369  -11.6920   20.8742 C   0  0  0  0  0  0
  -23.9048  -10.4295   21.0395 C   0  0  0  0  0  0
  -24.3611   -9.4219   21.9170 C   0  0  0  0  0  0
  -23.6300   -8.2253   22.0732 C   0  0  0  0  0  0
  -22.4285   -8.0293   21.3527 C   0  0  0  0  0  0
  -21.9913   -9.0262   20.4622 C   0  0  0  0  0  0
  -22.7233  -10.2136   20.3046 C   0  0  0  0  0  0
  -21.6867   -6.0738   22.5272 C   0  0  0  0  0  0
  -21.4006   -6.5636   23.8205 C   0  0  0  0  0  0
  -21.3657   -5.6791   24.9170 C   0  0  0  0  0  0
  -21.6048   -4.3060   24.7226 C   0  0  0  0  0  0
  -21.8820   -3.8147   23.4358 C   0  0  0  0  0  0
  -21.9190   -4.6953   22.3405 C   0  0  0  0  0  0
  -22.7812  -13.5213   21.1873 C   0  0  0  0  0  0
  -22.1665   -4.2140   21.0982 F   0  0  0  0  0  0
  -21.5626   -3.4546   25.7741 F   0  0  0  0  0  0
  -30.0131  -13.3684   20.4534 N   0  0  0  0  0  0
  -26.2937  -12.9387   20.3341 N   0  0  0  0  0  0
  -25.9296  -11.6532   20.5799 N   0  0  0  0  0  0
  -22.0466  -12.8198   22.0434 N   0  0  0  0  0  0
  -25.4227  -15.1924   20.4027 N   0  0  0  0  0  0
  -31.7951  -14.7260   20.0715 O   0  0  0  0  0  0
  -21.6664   -6.8893   21.4239 O   0  0  0  0  0  0
  -22.3493  -14.5536   20.6740 O   0  0  0  0  0  0
  -24.6171  -31.8651   23.2085 C   0  0  0  0  0  0
  -25.9043  -32.4822   23.8417 C   0  0  1  0  0  0
  -27.2497  -27.4098   20.0864 C   0  0  0  0  0  0
  -25.5889  -33.8624   24.2366 N   0  0  0  0  0  0
  -23.4099  -30.4852   21.5475 C   0  0  2  0  0  0
  -24.8627  -28.9550   20.1074 C   0  0  0  0  0  0
  -22.7411  -29.4620   22.4937 C   0  0  0  0  0  0
  -18.0283  -28.1344   22.8508 C   0  0  0  0  0  0
  -24.1507  -36.7327   23.2636 C   0  0  0  0  0  0
  -25.9384  -30.8304   21.3579 C   0  0  0  0  0  0
  -26.0222  -29.4574   20.7120 C   0  0  0  0  0  0
  -27.2105  -28.6894   20.7030 C   0  0  0  0  0  0
  -26.0637  -26.9276   19.4843 C   0  0  0  0  0  0
  -24.8846  -27.6936   19.4910 C   0  0  0  0  0  0
  -23.6224  -29.8178   20.1616 C   0  0  0  0  0  0
  -25.4124  -36.3109   24.0352 C   0  0  1  0  0  0
  -20.5889  -28.3647   23.1343 C   0  0  2  0  0  0
  -20.6772  -26.9369   22.5459 C   0  0  0  0  0  0
  -19.5751  -26.6351   21.5249 C   0  0  0  0  0  0
  -18.1927  -26.7898   22.1639 C   0  0  0  0  0  0
  -19.1539  -28.8797   23.2932 C   0  0  0  0  0  0
  -18.9452  -30.1407   23.8929 C   0  0  0  0  0  0
  -17.6455  -30.6549   24.0560 C   0  0  0  0  0  0
  -25.9031  -34.9465   23.5153 C   0  0  0  0  0  0
  -16.5344  -29.9070   23.6287 C   0  0  0  0  0  0
  -16.7274  -28.6486   23.0308 C   0  0  0  0  0  0
  -26.4492  -31.6539   25.0686 C   0  0  0  0  0  0
  -25.3786  -31.3673   26.1444 C   0  0  0  0  0  0
  -27.0279  -30.2979   24.6002 C   0  0  0  0  0  0
  -27.6085  -32.4211   25.7461 C   0  0  0  0  0  0
  -27.5589  -37.1822   24.8459 C   0  0  0  0  0  0
  -21.4126  -29.3047   22.3732 N   0  0  0  0  0  0
  -26.4294  -37.3796   23.9407 N   0  0  0  0  0  0
  -24.6743  -31.0729   22.0978 N   0  0  0  0  0  0
  -23.4162  -28.8120   23.2960 O   0  0  0  0  0  0
  -28.4346  -26.6874   20.1040 O   0  0  0  0  0  0
  -26.5561  -34.8907   22.4692 O   0  0  0  0  0  0
  -23.5350  -32.1405   23.7435 O   0  0  0  0  0  0
  -28.9682  -19.0858   19.9532 C   0  0  0  0  0  0
  -29.6811  -18.9007   18.7803 C   0  0  0  0  0  0
  -29.8235  -16.9352   20.2909 C   0  0  0  0  0  0
  -27.1712  -22.6035   18.5717 C   0  0  0  0  0  0
  -25.9454  -19.2416   21.4259 C   0  0  0  0  0  0
  -28.3146  -24.1444   20.2601 C   0  0  0  0  0  0
  -28.5741  -25.4258   19.4084 C   0  0  0  0  0  0
  -28.0295  -20.2769   20.2806 C   0  0  1  0  0  0
  -28.4138  -22.7785   19.4820 C   0  0  1  0  0  0
  -27.2110  -20.0963   21.5982 C   0  0  1  0  0  0
  -29.0626  -17.9343   20.7884 N   0  0  0  0  0  0
  -29.7687  -19.7250   17.6594 N   0  0  0  0  0  0
  -29.8906  -15.6334   20.9037 N   0  0  0  0  0  0
  -28.7005  -21.6152   20.4042 N   0  3  0  0  0  0
  -26.7989  -21.3652   22.1095 O   0  0  0  0  0  0
  -30.5336  -17.3681   18.7398 S   0  0  0  0  0  0
  -31.4658  -12.4279   19.1838 H   0  0  0  0  0  0
  -30.3131  -11.3492   19.9047 H   0  0  0  0  0  0
  -29.7544  -11.7698   17.4708 H   0  0  0  0  0  0
  -29.6516  -13.4840   17.7882 H   0  0  0  0  0  0
  -27.8478  -11.2966   18.8689 H   0  0  0  0  0  0
  -27.3706  -12.5863   17.8002 H   0  0  0  0  0  0
  -27.6659  -14.2577   19.5261 H   0  0  0  0  0  0
  -28.6600  -12.0701   21.4254 H   0  0  0  0  0  0
  -28.4252  -13.7431   21.8363 H   0  0  0  0  0  0
  -25.2746   -9.5705   22.4747 H   0  0  0  0  0  0
  -24.0013   -7.4653   22.7444 H   0  0  0  0  0  0
  -21.0854   -8.8782   19.8934 H   0  0  0  0  0  0
  -22.3694  -10.9680   19.6167 H   0  0  0  0  0  0
  -21.2004   -7.6144   23.9704 H   0  0  0  0  0  0
  -21.1467   -6.0524   25.9070 H   0  0  0  0  0  0
  -22.0596   -2.7609   23.2861 H   0  0  0  0  0  0
  -22.4119  -11.9897   22.4872 H   0  0  0  0  0  0
  -21.1073  -13.1169   22.2611 H   0  0  0  0  0  0
  -24.6515  -15.8487   20.4782 H   0  0  0  0  0  0
  -26.2823  -15.6222   20.0858 H   0  0  0  0  0  0
  -26.7102  -32.5540   23.1185 H   0  0  0  0  0  0
  -25.0066  -33.9837   25.0531 H   0  0  0  0  0  0
  -22.7071  -31.3074   21.4031 H   0  0  0  0  0  0
  -23.3750  -35.9666   23.3303 H   0  0  0  0  0  0
  -24.3633  -36.8921   22.2045 H   0  0  0  0  0  0
  -23.7247  -37.6549   23.6625 H   0  0  0  0  0  0
  -26.0294  -31.5955   20.5838 H   0  0  0  0  0  0
  -26.8336  -30.9073   21.9622 H   0  0  0  0  0  0
  -28.1029  -29.0715   21.1827 H   0  0  0  0  0  0
  -26.0256  -25.9579   19.0117 H   0  0  0  0  0  0
  -23.9894  -27.3081   19.0200 H   0  0  0  0  0  0
  -23.7252  -30.5930   19.4018 H   0  0  0  0  0  0
  -22.7479  -29.2376   19.8606 H   0  0  0  0  0  0
  -25.1293  -36.2017   25.0848 H   0  0  0  0  0  0
  -21.0038  -28.3193   24.1426 H   0  0  0  0  0  0
  -20.5692  -26.2228   23.3630 H   0  0  0  0  0  0
  -21.6645  -26.7374   22.1258 H   0  0  0  0  0  0
  -19.6932  -25.6274   21.1246 H   0  0  0  0  0  0
  -19.6712  -27.3186   20.6811 H   0  0  0  0  0  0
  -17.4228  -26.6656   21.4026 H   0  0  0  0  0  0
  -18.0298  -26.0031   22.9021 H   0  0  0  0  0  0
  -19.7926  -30.7212   24.2329 H   0  0  0  0  0  0
  -17.5002  -31.6240   24.5135 H   0  0  0  0  0  0
  -15.5350  -30.2965   23.7592 H   0  0  0  0  0  0
  -15.8678  -28.0813   22.6982 H   0  0  0  0  0  0
  -24.5994  -30.6945   25.7861 H   0  0  0  0  0  0
  -24.8924  -32.2827   26.4822 H   0  0  0  0  0  0
  -25.8173  -30.8948   27.0237 H   0  0  0  0  0  0
  -26.2791  -29.6756   24.1074 H   0  0  0  0  0  0
  -27.4105  -29.7187   25.4417 H   0  0  0  0  0  0
  -27.8612  -30.4336   23.9091 H   0  0  0  0  0  0
  -27.2735  -33.3524   26.2081 H   0  0  0  0  0  0
  -28.3901  -32.6741   25.0263 H   0  0  0  0  0  0
  -28.0730  -31.8256   26.5343 H   0  0  0  0  0  0
  -28.2609  -38.0116   24.7490 H   0  0  0  0  0  0
  -28.1072  -36.2641   24.6299 H   0  0  0  0  0  0
  -27.2297  -37.1498   25.8856 H   0  0  0  0  0  0
  -20.9213  -29.8836   21.7050 H   0  0  0  0  0  0
  -26.0191  -38.2878   24.1397 H   0  0  0  0  0  0
  -26.9651  -23.4976   17.9826 H   0  0  0  0  0  0
  -26.2642  -22.3953   19.1425 H   0  0  0  0  0  0
  -27.3227  -21.8006   17.8493 H   0  0  0  0  0  0
  -26.1901  -18.2455   21.0579 H   0  0  0  0  0  0
  -25.2421  -19.6899   20.7236 H   0  0  0  0  0  0
  -25.4206  -19.1179   22.3738 H   0  0  0  0  0  0
  -27.3318  -24.2222   20.7277 H   0  0  0  0  0  0
  -29.0310  -24.1514   21.0846 H   0  0  0  0  0  0
  -29.6164  -25.3766   19.0921 H   0  0  0  0  0  0
  -28.0240  -25.4269   18.4700 H   0  0  0  0  0  0
  -27.2975  -20.3077   19.4792 H   0  0  0  0  0  0
  -29.2806  -22.8385   18.8240 H   0  0  0  0  0  0
  -27.8444  -19.6586   22.3716 H   0  0  0  0  0  0
  -29.1709  -20.5195   17.4538 H   0  0  0  0  0  0
  -30.3609  -19.4917   16.8673 H   0  0  0  0  0  0
  -29.0873  -15.3928   21.4611 H   0  0  0  0  0  0
  -29.6860  -21.5140   20.5872 H   0  0  0  0  0  0
  -28.2592  -21.8836   21.2788 H   0  0  0  0  0  0
  -26.3292  -21.2145   22.9268 H   0  0  0  0  0  0
  1 25  1  0  0  0
  1 30  2  0  0  0
  1 83  1  0  0  0
  2  3  1  0  0  0
  2 25  1  0  0  0
  2 87  1  0  0  0
  2 88  1  0  0  0
  3  4  1  0  0  0
  3 89  1  0  0  0
  3 90  1  0  0  0
  4  5  1  0  0  0
  4 91  1  0  0  0
  4 92  1  0  0  0
  5  6  1  0  0  0
  5 26  1  0  0  0
  5 93  1  0  0  0
  6 25  1  0  0  0
  6 94  1  0  0  0
  6 95  1  0  0  0
  7  8  2  0  0  0
  7 26  1  0  0  0
  7 29  1  0  0  0
  8  9  1  0  0  0
  8 22  1  0  0  0
  9 10  1  0  0  0
  9 27  2  0  0  0
 10 11  2  0  0  0
 10 15  1  0  0  0
 11 12  1  0  0  0
 11 96  1  0  0  0
 12 13  2  0  0  0
 12 97  1  0  0  0
 13 14  1  0  0  0
 13 31  1  0  0  0
 14 15  2  0  0  0
 14 98  1  0  0  0
 15 99  1  0  0  0
 16 17  2  0  0  0
 16 21  1  0  0  0
 16 31  1  0  0  0
 17 18  1  0  0  0
 17100  1  0  0  0
 18 19  2  0  0  0
 18101  1  0  0  0
 19 20  1  0  0  0
 19 24  1  0  0  0
 20 21  2  0  0  0
 20102  1  0  0  0
 21 23  1  0  0  0
 22 28  1  0  0  0
 22 32  2  0  0  0
 26 27  1  0  0  0
 28103  1  0  0  0
 28104  1  0  0  0
 29105  1  0  0  0
 29106  1  0  0  0
 33 34  1  0  0  0
 33 66  1  0  0  0
 33 70  2  0  0  0
 34 36  1  0  0  0
 34 59  1  0  0  0
 34107  1  0  0  0
 35 44  2  0  0  0
 35 45  1  0  0  0
 35 68  1  0  0  0
 36 56  1  0  0  0
 36108  1  0  0  0
 37 39  1  0  0  0
 37 47  1  0  0  0
 37 66  1  0  0  0
 37109  1  0  0  0
 38 43  2  0  0  0
 38 46  1  0  0  0
 38 47  1  0  0  0
 39 64  1  0  0  0
 39 67  2  0  0  0
 40 52  1  0  0  0
 40 53  2  0  0  0
 40 58  1  0  0  0
 41110  1  0  0  0
 41111  1  0  0  0
 41112  1  0  0  0
 41 48  1  0  0  0
 42 43  1  0  0  0
 42 66  1  0  0  0
 42113  1  0  0  0
 42114  1  0  0  0
 43 44  1  0  0  0
 44115  1  0  0  0
 45 46  2  0  0  0
 45116  1  0  0  0
 46117  1  0  0  0
 47118  1  0  0  0
 47119  1  0  0  0
 48 56  1  0  0  0
 48 65  1  0  0  0
 48120  1  0  0  0
 49 50  1  0  0  0
 49 53  1  0  0  0
 49 64  1  0  0  0
 49121  1  0  0  0
 50 51  1  0  0  0
 50122  1  0  0  0
 50123  1  0  0  0
 51 52  1  0  0  0
 51124  1  0  0  0
 51125  1  0  0  0
 52126  1  0  0  0
 52127  1  0  0  0
 53 54  1  0  0  0
 54 55  2  0  0  0
 54128  1  0  0  0
 55 57  1  0  0  0
 55129  1  0  0  0
 56 69  2  0  0  0
 57 58  2  0  0  0
 57130  1  0  0  0
 58131  1  0  0  0
 59 60  1  0  0  0
 59 61  1  0  0  0
 59 62  1  0  0  0
 60132  1  0  0  0
 60133  1  0  0  0
 60134  1  0  0  0
 61135  1  0  0  0
 61136  1  0  0  0
 61137  1  0  0  0
 62138  1  0  0  0
 62139  1  0  0  0
 62140  1  0  0  0
 63 65  1  0  0  0
 63141  1  0  0  0
 63142  1  0  0  0
 63143  1  0  0  0
 64144  1  0  0  0
 65145  1  0  0  0
 68 77  1  0  0  0
 71 72  2  0  0  0
 71 78  1  0  0  0
 71 81  1  0  0  0
 72 82  1  0  0  0
 72 86  1  0  0  0
 73 81  2  0  0  0
 73 83  1  0  0  0
 73 86  1  0  0  0
 74146  1  0  0  0
 74147  1  0  0  0
 74148  1  0  0  0
 74 79  1  0  0  0
 75149  1  0  0  0
 75150  1  0  0  0
 75151  1  0  0  0
 75 80  1  0  0  0
 76 77  1  0  0  0
 76 79  1  0  0  0
 76152  1  0  0  0
 76153  1  0  0  0
 77154  1  0  0  0
 77155  1  0  0  0
 78 80  1  0  0  0
 78 84  1  0  0  0
 78156  1  0  0  0
 79 84  1  0  0  0
 79157  1  0  0  0
 80 85  1  0  0  0
 80158  1  0  0  0
 82159  1  0  0  0
 82160  1  0  0  0
 83161  1  0  0  0
 84162  1  0  0  0
 84163  1  0  0  0
 85164  1  0  0  0
M  CHG  1  84   1
M  ISO  4   1 100  68 101  77 101  83 100
M  END
> <chiral flag>
0

> <version>
0

> <s_m_source_file>
/data/baiqing/PycharmProjects/Reinvent-master-3.2/result/LINK_invent/BTK/process_docking_weight1_custom_product_contain_oxygen_bond_distance_aromatic_linkinvent_7_9_3/rearranged_h_0191.sdf

> <i_m_source_file_index>
11

> <r_mmod_Potential_Energy-OPLS-2005>
-196.524871826172

> <r_mmod_Stretch_Energy-OPLS-2005>
54.4073753356934

> <r_mmod_Bend_Energy-OPLS-2005>
147.196136474609

> <r_mmod_Torsional_Energy-OPLS-2005>
254.661987304688

> <r_mmod_Improper_Torsional_Energy-OPLS-2005>
5.86201572418213

> <r_mmod_Van_der_Waal_Energy-OPLS-2005>
132.51741027832

> <r_mmod_Electrostatic_Energy-OPLS-2005>
-361.331695556641

> <r_mmod_Solvation_Energy-OPLS-2005>
-455.436553955078

> <b_mmod_Minimization_Converged-OPLS-2005>
0

> <r_mmod_RMS_Derivative-OPLS-2005>
5.40986061096191

$$$$
12
                    3D
 Structure written by MMmdl.
151159  0  0  1  0            999 V2000
  -30.6227  -14.7432   20.4721 C   0  0  0  0  0  0
  -30.4299  -12.4569   19.4775 C   0  0  0  0  0  0
  -29.5111  -12.5113   18.2374 C   0  0  0  0  0  0
  -28.0357  -12.3360   18.6470 C   0  0  0  0  0  0
  -27.6403  -13.2336   19.8506 C   0  0  2  0  0  0
  -28.6842  -13.1705   20.9876 C   0  0  0  0  0  0
  -25.2482  -13.8183   20.5668 C   0  0  0  0  0  0
  -24.1789  -13.0433   20.9226 C   0  0  0  0  0  0
  -24.6376  -11.6914   20.8747 C   0  0  0  0  0  0
  -23.9049  -10.4293   21.0405 C   0  0  0  0  0  0
  -24.3604   -9.4210   21.9178 C   0  0  0  0  0  0
  -23.6292   -8.2238   22.0742 C   0  0  0  0  0  0
  -22.4276   -8.0266   21.3534 C   0  0  0  0  0  0
  -21.9904   -9.0236   20.4634 C   0  0  0  0  0  0
  -22.7221  -10.2128   20.3049 C   0  0  0  0  0  0
  -21.6856   -6.0722   22.5275 C   0  0  0  0  0  0
  -21.4008   -6.5630   23.8207 C   0  0  0  0  0  0
  -21.3666   -5.6787   24.9171 C   0  0  0  0  0  0
  -21.6048   -4.3047   24.7224 C   0  0  0  0  0  0
  -21.8823   -3.8133   23.4347 C   0  0  0  0  0  0
  -21.9192   -4.6946   22.3401 C   0  0  0  0  0  0
  -22.7809  -13.5211   21.1889 C   0  0  0  0  0  0
  -22.1666   -4.2135   21.0978 F   0  0  0  0  0  0
  -21.5636   -3.4529   25.7738 F   0  0  0  0  0  0
  -29.9864  -13.5222   20.4079 N   0  0  0  0  0  0
  -26.2916  -12.9400   20.3258 N   0  0  0  0  0  0
  -25.9309  -11.6541   20.5741 N   0  0  0  0  0  0
  -22.0464  -12.8194   22.0444 N   0  0  0  0  0  0
  -25.4149  -15.1890   20.3988 N   0  0  0  0  0  0
  -31.8082  -14.8308   20.1430 O   0  0  0  0  0  0
  -21.6645   -6.8860   21.4235 O   0  0  0  0  0  0
  -22.3493  -14.5513   20.6728 O   0  0  0  0  0  0
  -24.6331  -31.8541   23.1983 C   0  0  0  0  0  0
  -25.9152  -32.4757   23.8325 C   0  0  1  0  0  0
  -27.2152  -27.2422   20.1225 C   0  0  0  0  0  0
  -25.5943  -33.8552   24.2248 N   0  0  0  0  0  0
  -23.4310  -30.4787   21.5425 C   0  0  2  0  0  0
  -24.8770  -28.9298   20.1078 C   0  0  0  0  0  0
  -22.7522  -29.4598   22.4902 C   0  0  0  0  0  0
  -18.0298  -28.1395   22.8495 C   0  0  0  0  0  0
  -24.1489  -36.7275   23.2639 C   0  0  0  0  0  0
  -25.9804  -30.7610   21.3823 C   0  0  0  0  0  0
  -26.0509  -29.3830   20.7221 C   0  0  0  0  0  0
  -27.2206  -28.5516   20.7216 C   0  0  0  0  0  0
  -26.0133  -26.8737   19.4702 C   0  0  0  0  0  0
  -24.8653  -27.6841   19.4696 C   0  0  0  0  0  0
  -23.6500  -29.8179   20.1568 C   0  0  0  0  0  0
  -25.4117  -36.3072   24.0331 C   0  0  1  0  0  0
  -20.5911  -28.3705   23.1272 C   0  0  2  0  0  0
  -20.6790  -26.9422   22.5410 C   0  0  0  0  0  0
  -19.5758  -26.6392   21.5222 C   0  0  0  0  0  0
  -18.1941  -26.7939   22.1633 C   0  0  0  0  0  0
  -19.1555  -28.8866   23.2879 C   0  0  0  0  0  0
  -18.9472  -30.1470   23.8895 C   0  0  0  0  0  0
  -17.6470  -30.6594   24.0565 C   0  0  0  0  0  0
  -25.9067  -34.9441   23.5095 C   0  0  0  0  0  0
  -16.5363  -29.9096   23.6332 C   0  0  0  0  0  0
  -16.7285  -28.6513   23.0358 C   0  0  0  0  0  0
  -26.4502  -31.6589   25.0720 C   0  0  0  0  0  0
  -25.3708  -31.3747   26.1433 C   0  0  0  0  0  0
  -27.0345  -30.3005   24.6213 C   0  0  0  0  0  0
  -27.6060  -32.4328   25.7481 C   0  0  0  0  0  0
  -27.5580  -37.1791   24.8467 C   0  0  0  0  0  0
  -21.4224  -29.3044   22.3657 N   0  0  0  0  0  0
  -26.4287  -37.3778   23.9422 N   0  0  0  0  0  0
  -24.7011  -31.0498   22.0971 N   0  0  0  0  0  0
  -23.4218  -28.8131   23.3002 O   0  0  0  0  0  0
  -28.3022  -26.3246   20.1994 O   0  0  0  0  0  0
  -26.5633  -34.8923   22.4663 O   0  0  0  0  0  0
  -23.5484  -32.1361   23.7280 O   0  0  0  0  0  0
  -27.9681  -18.3647   20.2854 C   0  0  0  0  0  0
  -29.3121  -18.5389   20.4925 C   0  0  0  0  0  0
  -28.5590  -20.8074   20.3088 C   0  0  0  0  0  0
  -28.3216  -24.7832   18.3042 C   0  0  0  0  0  0
  -30.3433  -17.3484   20.6433 C   0  0  0  0  0  0
  -28.9547  -23.6317   20.4906 C   0  0  0  0  0  0
  -28.1191  -24.8665   19.8291 C   0  0  1  0  0  0
  -29.6220  -19.9646   20.5254 N   0  0  0  0  0  0
  -28.3980  -22.2454   20.2225 N   0  0  0  0  0  0
  -29.8789  -15.8894   20.7093 N   0  0  0  0  0  0
  -27.0875  -19.8647   20.0803 S   0  0  0  0  0  0
  -31.4721  -12.5767   19.1774 H   0  0  0  0  0  0
  -30.3690  -11.4803   19.9604 H   0  0  0  0  0  0
  -29.7962  -11.7388   17.5218 H   0  0  0  0  0  0
  -29.6399  -13.4665   17.7260 H   0  0  0  0  0  0
  -27.8884  -11.2864   18.9049 H   0  0  0  0  0  0
  -27.3809  -12.5332   17.7973 H   0  0  0  0  0  0
  -27.6351  -14.2566   19.4729 H   0  0  0  0  0  0
  -28.7187  -12.1736   21.4295 H   0  0  0  0  0  0
  -28.4169  -13.8525   21.7964 H   0  0  0  0  0  0
  -25.2752   -9.5696   22.4747 H   0  0  0  0  0  0
  -24.0012   -7.4628   22.7453 H   0  0  0  0  0  0
  -21.0837   -8.8730   19.8944 H   0  0  0  0  0  0
  -22.3654  -10.9651   19.6156 H   0  0  0  0  0  0
  -21.1994   -7.6139   23.9699 H   0  0  0  0  0  0
  -21.1494   -6.0522   25.9077 H   0  0  0  0  0  0
  -22.0599   -2.7592   23.2845 H   0  0  0  0  0  0
  -22.4091  -11.9870   22.4849 H   0  0  0  0  0  0
  -21.1068  -13.1188   22.2635 H   0  0  0  0  0  0
  -24.6275  -15.8258   20.4587 H   0  0  0  0  0  0
  -26.2185  -15.5911   19.9376 H   0  0  0  0  0  0
  -26.7216  -32.5398   23.1062 H   0  0  0  0  0  0
  -25.0086  -33.9676   25.0394 H   0  0  0  0  0  0
  -22.7289  -31.3021   21.3975 H   0  0  0  0  0  0
  -23.3764  -35.9595   23.3300 H   0  0  0  0  0  0
  -24.3583  -36.8899   22.2054 H   0  0  0  0  0  0
  -23.7217  -37.6467   23.6662 H   0  0  0  0  0  0
  -26.1239  -31.5222   20.6144 H   0  0  0  0  0  0
  -26.8565  -30.8076   22.0173 H   0  0  0  0  0  0
  -28.1149  -28.8917   21.2254 H   0  0  0  0  0  0
  -25.9097  -25.9304   18.9590 H   0  0  0  0  0  0
  -23.9705  -27.3338   18.9725 H   0  0  0  0  0  0
  -23.7768  -30.5952   19.4025 H   0  0  0  0  0  0
  -22.7675  -29.2532   19.8507 H   0  0  0  0  0  0
  -25.1303  -36.1909   25.0824 H   0  0  0  0  0  0
  -21.0003  -28.3277   24.1394 H   0  0  0  0  0  0
  -20.5703  -26.2312   23.3618 H   0  0  0  0  0  0
  -21.6654  -26.7459   22.1185 H   0  0  0  0  0  0
  -19.6920  -25.6304   21.1250 H   0  0  0  0  0  0
  -19.6689  -27.3203   20.6755 H   0  0  0  0  0  0
  -17.4212  -26.6696   21.4033 H   0  0  0  0  0  0
  -18.0333  -26.0080   22.9026 H   0  0  0  0  0  0
  -19.7946  -30.7292   24.2259 H   0  0  0  0  0  0
  -17.5024  -31.6268   24.5173 H   0  0  0  0  0  0
  -15.5361  -30.3000   23.7652 H   0  0  0  0  0  0
  -15.8688  -28.0835   22.7072 H   0  0  0  0  0  0
  -24.5896  -30.7089   25.7756 H   0  0  0  0  0  0
  -24.8876  -32.2912   26.4825 H   0  0  0  0  0  0
  -25.8007  -30.8941   27.0228 H   0  0  0  0  0  0
  -26.2925  -29.6753   24.1227 H   0  0  0  0  0  0
  -27.4018  -29.7280   25.4738 H   0  0  0  0  0  0
  -27.8821  -30.4299   23.9477 H   0  0  0  0  0  0
  -27.2688  -33.3648   26.2034 H   0  0  0  0  0  0
  -28.3869  -32.6849   25.0295 H   0  0  0  0  0  0
  -28.0726  -31.8453   26.5401 H   0  0  0  0  0  0
  -28.2599  -38.0088   24.7538 H   0  0  0  0  0  0
  -28.1073  -36.2622   24.6269 H   0  0  0  0  0  0
  -27.2307  -37.1421   25.8871 H   0  0  0  0  0  0
  -20.9414  -29.8772   21.6862 H   0  0  0  0  0  0
  -26.0165  -38.2853   24.1429 H   0  0  0  0  0  0
  -27.4301  -17.4317   20.2197 H   0  0  0  0  0  0
  -28.0753  -23.7915   17.9230 H   0  0  0  0  0  0
  -29.3621  -24.9842   18.0476 H   0  0  0  0  0  0
  -27.7130  -25.4974   17.7544 H   0  0  0  0  0  0
  -30.9525  -17.5237   21.5311 H   0  0  0  0  0  0
  -31.0480  -17.4139   19.8129 H   0  0  0  0  0  0
  -28.9720  -23.7664   21.5729 H   0  0  0  0  0  0
  -29.9961  -23.6697   20.1677 H   0  0  0  0  0  0
  -27.0899  -24.6095   20.0755 H   0  0  0  0  0  0
  -27.4420  -22.3847   19.9119 H   0  0  0  0  0  0
  -28.9120  -15.7460   20.9529 H   0  0  0  0  0  0
  1 25  1  0  0  0
  1 30  2  0  0  0
  1 80  1  0  0  0
  2  3  1  0  0  0
  2 25  1  0  0  0
  2 82  1  0  0  0
  2 83  1  0  0  0
  3  4  1  0  0  0
  3 84  1  0  0  0
  3 85  1  0  0  0
  4  5  1  0  0  0
  4 86  1  0  0  0
  4 87  1  0  0  0
  5  6  1  0  0  0
  5 26  1  0  0  0
  5 88  1  0  0  0
  6 25  1  0  0  0
  6 89  1  0  0  0
  6 90  1  0  0  0
  7  8  2  0  0  0
  7 26  1  0  0  0
  7 29  1  0  0  0
  8  9  1  0  0  0
  8 22  1  0  0  0
  9 10  1  0  0  0
  9 27  2  0  0  0
 10 11  2  0  0  0
 10 15  1  0  0  0
 11 12  1  0  0  0
 11 91  1  0  0  0
 12 13  2  0  0  0
 12 92  1  0  0  0
 13 14  1  0  0  0
 13 31  1  0  0  0
 14 15  2  0  0  0
 14 93  1  0  0  0
 15 94  1  0  0  0
 16 17  2  0  0  0
 16 21  1  0  0  0
 16 31  1  0  0  0
 17 18  1  0  0  0
 17 95  1  0  0  0
 18 19  2  0  0  0
 18 96  1  0  0  0
 19 20  1  0  0  0
 19 24  1  0  0  0
 20 21  2  0  0  0
 20 97  1  0  0  0
 21 23  1  0  0  0
 22 28  1  0  0  0
 22 32  2  0  0  0
 26 27  1  0  0  0
 28 98  1  0  0  0
 28 99  1  0  0  0
 29100  1  0  0  0
 29101  1  0  0  0
 33 34  1  0  0  0
 33 66  1  0  0  0
 33 70  2  0  0  0
 34 36  1  0  0  0
 34 59  1  0  0  0
 34102  1  0  0  0
 35 44  2  0  0  0
 35 45  1  0  0  0
 35 68  1  0  0  0
 36 56  1  0  0  0
 36103  1  0  0  0
 37 39  1  0  0  0
 37 47  1  0  0  0
 37 66  1  0  0  0
 37104  1  0  0  0
 38 43  2  0  0  0
 38 46  1  0  0  0
 38 47  1  0  0  0
 39 64  1  0  0  0
 39 67  2  0  0  0
 40 52  1  0  0  0
 40 53  2  0  0  0
 40 58  1  0  0  0
 41105  1  0  0  0
 41106  1  0  0  0
 41107  1  0  0  0
 41 48  1  0  0  0
 42 43  1  0  0  0
 42 66  1  0  0  0
 42108  1  0  0  0
 42109  1  0  0  0
 43 44  1  0  0  0
 44110  1  0  0  0
 45 46  2  0  0  0
 45111  1  0  0  0
 46112  1  0  0  0
 47113  1  0  0  0
 47114  1  0  0  0
 48 56  1  0  0  0
 48 65  1  0  0  0
 48115  1  0  0  0
 49 50  1  0  0  0
 49 53  1  0  0  0
 49 64  1  0  0  0
 49116  1  0  0  0
 50 51  1  0  0  0
 50117  1  0  0  0
 50118  1  0  0  0
 51 52  1  0  0  0
 51119  1  0  0  0
 51120  1  0  0  0
 52121  1  0  0  0
 52122  1  0  0  0
 53 54  1  0  0  0
 54 55  2  0  0  0
 54123  1  0  0  0
 55 57  1  0  0  0
 55124  1  0  0  0
 56 69  2  0  0  0
 57 58  2  0  0  0
 57125  1  0  0  0
 58126  1  0  0  0
 59 60  1  0  0  0
 59 61  1  0  0  0
 59 62  1  0  0  0
 60127  1  0  0  0
 60128  1  0  0  0
 60129  1  0  0  0
 61130  1  0  0  0
 61131  1  0  0  0
 61132  1  0  0  0
 62133  1  0  0  0
 62134  1  0  0  0
 62135  1  0  0  0
 63 65  1  0  0  0
 63136  1  0  0  0
 63137  1  0  0  0
 63138  1  0  0  0
 64139  1  0  0  0
 65140  1  0  0  0
 68 77  1  0  0  0
 71 72  2  0  0  0
 71 81  1  0  0  0
 71141  1  0  0  0
 72 75  1  0  0  0
 72 78  1  0  0  0
 73 78  2  0  0  0
 73 79  1  0  0  0
 73 81  1  0  0  0
 74142  1  0  0  0
 74143  1  0  0  0
 74144  1  0  0  0
 74 77  1  0  0  0
 75 80  1  0  0  0
 75145  1  0  0  0
 75146  1  0  0  0
 76 77  1  0  0  0
 76 79  1  0  0  0
 76147  1  0  0  0
 76148  1  0  0  0
 77149  1  0  0  0
 79150  1  0  0  0
 80151  1  0  0  0
M  ISO  4   1 100  68 101  77 101  80 100
M  END
> <chiral flag>
0

> <version>
0

> <s_m_source_file>
/data/baiqing/PycharmProjects/Reinvent-master-3.2/result/LINK_invent/BTK/process_docking_weight1_custom_product_contain_oxygen_bond_distance_aromatic_linkinvent_7_9_3/rearranged_h_0191.sdf

> <i_m_source_file_index>
12

> <r_mmod_Potential_Energy-OPLS-2005>
-47.4104499816895

> <r_mmod_Stretch_Energy-OPLS-2005>
123.539505004883

> <r_mmod_Bend_Energy-OPLS-2005>
188.738311767578

> <r_mmod_Torsional_Energy-OPLS-2005>
191.881698608398

> <r_mmod_Improper_Torsional_Energy-OPLS-2005>
5.31645822525024

> <r_mmod_Van_der_Waal_Energy-OPLS-2005>
121.073997497559

> <r_mmod_Electrostatic_Energy-OPLS-2005>
-531.9140625

> <r_mmod_Solvation_Energy-OPLS-2005>
-237.603256225586

> <b_mmod_Minimization_Converged-OPLS-2005>
0

> <r_mmod_RMS_Derivative-OPLS-2005>
1.37101018428802

$$$$
13
                    3D
 Structure written by MMmdl.
164172  0  0  1  0            999 V2000
  -30.6068  -14.5814   20.5777 C   0  0  0  0  0  0
  -30.4472  -12.3681   19.4760 C   0  0  0  0  0  0
  -29.5346  -12.5201   18.2393 C   0  0  0  0  0  0
  -28.0497  -12.3534   18.6271 C   0  0  0  0  0  0
  -27.6579  -13.2043   19.8656 C   0  0  2  0  0  0
  -28.6811  -13.0074   21.0055 C   0  0  0  0  0  0
  -25.2564  -13.8130   20.5600 C   0  0  0  0  0  0
  -24.1807  -13.0402   20.9101 C   0  0  0  0  0  0
  -24.6367  -11.6881   20.8629 C   0  0  0  0  0  0
  -23.9025  -10.4283   21.0367 C   0  0  0  0  0  0
  -24.3596   -9.4220   21.9161 C   0  0  0  0  0  0
  -23.6287   -8.2256   22.0750 C   0  0  0  0  0  0
  -22.4270   -8.0268   21.3548 C   0  0  0  0  0  0
  -21.9858   -9.0248   20.4690 C   0  0  0  0  0  0
  -22.7187  -10.2131   20.3062 C   0  0  0  0  0  0
  -21.6837   -6.0727   22.5284 C   0  0  0  0  0  0
  -21.4017   -6.5623   23.8220 C   0  0  0  0  0  0
  -21.3653   -5.6776   24.9170 C   0  0  0  0  0  0
  -21.6054   -4.3048   24.7227 C   0  0  0  0  0  0
  -21.8818   -3.8134   23.4340 C   0  0  0  0  0  0
  -21.9186   -4.6949   22.3402 C   0  0  0  0  0  0
  -22.7867  -13.5246   21.1859 C   0  0  0  0  0  0
  -22.1685   -4.2158   21.0979 F   0  0  0  0  0  0
  -21.5609   -3.4528   25.7729 F   0  0  0  0  0  0
  -30.0144  -13.3530   20.4837 N   0  0  0  0  0  0
  -26.2975  -12.9289   20.3195 N   0  0  0  0  0  0
  -25.9265  -11.6459   20.5594 N   0  0  0  0  0  0
  -22.0485  -12.8263   22.0435 N   0  0  0  0  0  0
  -25.4232  -15.1855   20.4086 N   0  0  0  0  0  0
  -31.7128  -14.8171   20.0780 O   0  0  0  0  0  0
  -21.6648   -6.8865   21.4243 O   0  0  0  0  0  0
  -22.3565  -14.5582   20.6719 O   0  0  0  0  0  0
  -24.6224  -31.8668   23.2071 C   0  0  0  0  0  0
  -25.9102  -32.4847   23.8383 C   0  0  1  0  0  0
  -27.2356  -27.3603   20.1133 C   0  0  0  0  0  0
  -25.5976  -33.8636   24.2330 N   0  0  0  0  0  0
  -23.4160  -30.4866   21.5497 C   0  0  2  0  0  0
  -24.8679  -28.9479   20.1156 C   0  0  0  0  0  0
  -22.7473  -29.4627   22.4966 C   0  0  0  0  0  0
  -18.0275  -28.1354   22.8497 C   0  0  0  0  0  0
  -24.1488  -36.7267   23.2622 C   0  0  0  0  0  0
  -25.9548  -30.8027   21.3821 C   0  0  0  0  0  0
  -26.0300  -29.4323   20.7269 C   0  0  0  0  0  0
  -27.2136  -28.6438   20.7277 C   0  0  0  0  0  0
  -26.0592  -26.9362   19.4521 C   0  0  0  0  0  0
  -24.8818  -27.7039   19.4716 C   0  0  0  0  0  0
  -23.6343  -29.8199   20.1656 C   0  0  0  0  0  0
  -25.4119  -36.3106   24.0325 C   0  0  1  0  0  0
  -20.5882  -28.3644   23.1274 C   0  0  2  0  0  0
  -20.6740  -26.9359   22.5388 C   0  0  0  0  0  0
  -19.5720  -26.6366   21.5182 C   0  0  0  0  0  0
  -18.1914  -26.7906   22.1608 C   0  0  0  0  0  0
  -19.1526  -28.8816   23.2890 C   0  0  0  0  0  0
  -18.9445  -30.1429   23.8900 C   0  0  0  0  0  0
  -17.6442  -30.6564   24.0550 C   0  0  0  0  0  0
  -25.9054  -34.9492   23.5114 C   0  0  0  0  0  0
  -16.5346  -29.9059   23.6323 C   0  0  0  0  0  0
  -16.7259  -28.6468   23.0364 C   0  0  0  0  0  0
  -26.4497  -31.6640   25.0729 C   0  0  0  0  0  0
  -25.3705  -31.3798   26.1444 C   0  0  0  0  0  0
  -27.0324  -30.3078   24.6116 C   0  0  0  0  0  0
  -27.6081  -32.4357   25.7502 C   0  0  0  0  0  0
  -27.5582  -37.1785   24.8456 C   0  0  0  0  0  0
  -21.4190  -29.3029   22.3695 N   0  0  0  0  0  0
  -26.4296  -37.3783   23.9399 N   0  0  0  0  0  0
  -24.6824  -31.0686   22.1034 N   0  0  0  0  0  0
  -23.4193  -28.8175   23.3057 O   0  0  0  0  0  0
  -28.3857  -26.5676   20.1794 O   0  0  0  0  0  0
  -26.5562  -34.8935   22.4633 O   0  0  0  0  0  0
  -23.5406  -32.1518   23.7387 O   0  0  0  0  0  0
  -28.9122  -17.8514   21.5449 C   0  0  0  0  0  0
  -29.7108  -16.9548   20.8679 C   0  0  0  0  0  0
  -29.6411  -18.8635   19.7067 C   0  0  0  0  0  0
  -29.8121  -19.7667   18.5325 C   0  0  0  0  0  0
  -26.9666  -21.9591   18.3575 C   0  0  0  0  0  0
  -26.6558  -22.0326   19.8524 C   0  0  0  0  0  0
  -29.0657  -22.6475   20.7704 C   0  0  0  0  0  0
  -27.8597  -20.1097   21.1507 C   0  0  0  0  0  0
  -28.3041  -25.1221   19.9410 C   0  0  0  0  0  0
  -27.8151  -21.6796   20.8177 C   0  0  2  0  0  0
  -28.8814  -24.2024   21.0751 C   0  0  1  0  0  0
  -28.8634  -19.0304   20.8065 N   0  0  0  0  0  0
  -30.1908  -17.6306   19.7786 N   0  3  0  0  0  0
  -29.8617  -15.5454   21.1845 N   0  0  0  0  0  0
  -28.0762  -24.3580   22.2316 O   0  0  0  0  0  0
  -31.4954  -12.5047   19.1987 H   0  0  0  0  0  0
  -30.3852  -11.3595   19.8877 H   0  0  0  0  0  0
  -29.8188  -11.7919   17.4782 H   0  0  0  0  0  0
  -29.6894  -13.5083   17.7996 H   0  0  0  0  0  0
  -27.8847  -11.2978   18.8385 H   0  0  0  0  0  0
  -27.4144  -12.5987   17.7766 H   0  0  0  0  0  0
  -27.6916  -14.2481   19.5535 H   0  0  0  0  0  0
  -28.6724  -11.9673   21.3338 H   0  0  0  0  0  0
  -28.3983  -13.5868   21.8851 H   0  0  0  0  0  0
  -25.2711   -9.5724   22.4759 H   0  0  0  0  0  0
  -23.9978   -7.4655   22.7482 H   0  0  0  0  0  0
  -21.0747   -8.8804   19.9035 H   0  0  0  0  0  0
  -22.3619  -10.9671   19.6203 H   0  0  0  0  0  0
  -21.2032   -7.6137   23.9734 H   0  0  0  0  0  0
  -21.1461   -6.0502   25.9086 H   0  0  0  0  0  0
  -22.0599   -2.7596   23.2839 H   0  0  0  0  0  0
  -22.4018  -11.9869   22.4760 H   0  0  0  0  0  0
  -21.1139  -13.1350   22.2736 H   0  0  0  0  0  0
  -24.6421  -15.8238   20.5120 H   0  0  0  0  0  0
  -26.2696  -15.6366   20.0867 H   0  0  0  0  0  0
  -26.7162  -32.5544   23.1120 H   0  0  0  0  0  0
  -25.0310  -33.9807   25.0609 H   0  0  0  0  0  0
  -22.7086  -31.3050   21.4037 H   0  0  0  0  0  0
  -23.3780  -35.9562   23.3315 H   0  0  0  0  0  0
  -24.3573  -36.8851   22.2027 H   0  0  0  0  0  0
  -23.7198  -37.6463   23.6617 H   0  0  0  0  0  0
  -26.0791  -31.5663   20.6151 H   0  0  0  0  0  0
  -26.8361  -30.8556   22.0097 H   0  0  0  0  0  0
  -28.1012  -29.0021   21.2282 H   0  0  0  0  0  0
  -26.0075  -26.0176   18.8903 H   0  0  0  0  0  0
  -23.9973  -27.3321   18.9744 H   0  0  0  0  0  0
  -23.7538  -30.5941   19.4069 H   0  0  0  0  0  0
  -22.7596  -29.2400   19.8633 H   0  0  0  0  0  0
  -25.1282  -36.1972   25.0812 H   0  0  0  0  0  0
  -20.9972  -28.3201   24.1400 H   0  0  0  0  0  0
  -20.5576  -26.2257   23.3600 H   0  0  0  0  0  0
  -21.6616  -26.7372   22.1211 H   0  0  0  0  0  0
  -19.6862  -25.6273   21.1234 H   0  0  0  0  0  0
  -19.6650  -27.3171   20.6708 H   0  0  0  0  0  0
  -17.4181  -26.6694   21.4027 H   0  0  0  0  0  0
  -18.0296  -26.0029   22.8969 H   0  0  0  0  0  0
  -19.7913  -30.7241   24.2296 H   0  0  0  0  0  0
  -17.4984  -31.6252   24.5110 H   0  0  0  0  0  0
  -15.5334  -30.2934   23.7620 H   0  0  0  0  0  0
  -15.8680  -28.0760   22.7075 H   0  0  0  0  0  0
  -24.5903  -30.7115   25.7779 H   0  0  0  0  0  0
  -24.8852  -32.2966   26.4818 H   0  0  0  0  0  0
  -25.8009  -30.9053   27.0260 H   0  0  0  0  0  0
  -26.2902  -29.6869   24.1084 H   0  0  0  0  0  0
  -27.4019  -29.7303   25.4588 H   0  0  0  0  0  0
  -27.8772  -30.4425   23.9354 H   0  0  0  0  0  0
  -27.2749  -33.3680   26.2062 H   0  0  0  0  0  0
  -28.3897  -32.6875   25.0326 H   0  0  0  0  0  0
  -28.0697  -31.8461   26.5429 H   0  0  0  0  0  0
  -28.2604  -38.0086   24.7523 H   0  0  0  0  0  0
  -28.1087  -36.2615   24.6276 H   0  0  0  0  0  0
  -27.2290  -37.1412   25.8858 H   0  0  0  0  0  0
  -20.9377  -29.8782   21.6920 H   0  0  0  0  0  0
  -26.0205  -38.2851   24.1431 H   0  0  0  0  0  0
  -28.3175  -17.7228   22.4399 H   0  0  0  0  0  0
  -30.0988  -20.7580   18.8647 H   0  0  0  0  0  0
  -28.8843  -19.7768   17.9656 H   0  0  0  0  0  0
  -30.6001  -19.3711   17.8924 H   0  0  0  0  0  0
  -27.1299  -20.9342   18.0391 H   0  0  0  0  0  0
  -27.8375  -22.5621   18.0981 H   0  0  0  0  0  0
  -26.1206  -22.3231   17.7750 H   0  0  0  0  0  0
  -25.7937  -21.3993   20.0580 H   0  0  0  0  0  0
  -26.2739  -23.0205   20.0896 H   0  0  0  0  0  0
  -29.5817  -22.5648   19.8203 H   0  0  0  0  0  0
  -29.7732  -22.2706   21.5118 H   0  0  0  0  0  0
  -26.9094  -19.6832   20.8296 H   0  0  0  0  0  0
  -27.7893  -20.0559   22.2382 H   0  0  0  0  0  0
  -27.3031  -24.7757   19.7414 H   0  0  0  0  0  0
  -28.8647  -24.9298   19.0257 H   0  0  0  0  0  0
  -27.3592  -22.0193   21.7472 H   0  0  0  0  0  0
  -29.8697  -24.5998   21.3169 H   0  0  0  0  0  0
  -30.8166  -17.2435   19.0829 H   0  0  0  0  0  0
  -29.1189  -15.1635   21.7523 H   0  0  0  0  0  0
  -27.9866  -25.2939   22.3944 H   0  0  0  0  0  0
  1 25  1  0  0  0
  1 30  2  0  0  0
  1 84  1  0  0  0
  2  3  1  0  0  0
  2 25  1  0  0  0
  2 86  1  0  0  0
  2 87  1  0  0  0
  3  4  1  0  0  0
  3 88  1  0  0  0
  3 89  1  0  0  0
  4  5  1  0  0  0
  4 90  1  0  0  0
  4 91  1  0  0  0
  5  6  1  0  0  0
  5 26  1  0  0  0
  5 92  1  0  0  0
  6 25  1  0  0  0
  6 93  1  0  0  0
  6 94  1  0  0  0
  7  8  2  0  0  0
  7 26  1  0  0  0
  7 29  1  0  0  0
  8  9  1  0  0  0
  8 22  1  0  0  0
  9 10  1  0  0  0
  9 27  2  0  0  0
 10 11  2  0  0  0
 10 15  1  0  0  0
 11 12  1  0  0  0
 11 95  1  0  0  0
 12 13  2  0  0  0
 12 96  1  0  0  0
 13 14  1  0  0  0
 13 31  1  0  0  0
 14 15  2  0  0  0
 14 97  1  0  0  0
 15 98  1  0  0  0
 16 17  2  0  0  0
 16 21  1  0  0  0
 16 31  1  0  0  0
 17 18  1  0  0  0
 17 99  1  0  0  0
 18 19  2  0  0  0
 18100  1  0  0  0
 19 20  1  0  0  0
 19 24  1  0  0  0
 20 21  2  0  0  0
 20101  1  0  0  0
 21 23  1  0  0  0
 22 28  1  0  0  0
 22 32  2  0  0  0
 26 27  1  0  0  0
 28102  1  0  0  0
 28103  1  0  0  0
 29104  1  0  0  0
 29105  1  0  0  0
 33 34  1  0  0  0
 33 66  1  0  0  0
 33 70  2  0  0  0
 34 36  1  0  0  0
 34 59  1  0  0  0
 34106  1  0  0  0
 35 44  2  0  0  0
 35 45  1  0  0  0
 35 68  1  0  0  0
 36 56  1  0  0  0
 36107  1  0  0  0
 37 39  1  0  0  0
 37 47  1  0  0  0
 37 66  1  0  0  0
 37108  1  0  0  0
 38 43  2  0  0  0
 38 46  1  0  0  0
 38 47  1  0  0  0
 39 64  1  0  0  0
 39 67  2  0  0  0
 40 52  1  0  0  0
 40 53  2  0  0  0
 40 58  1  0  0  0
 41109  1  0  0  0
 41110  1  0  0  0
 41111  1  0  0  0
 41 48  1  0  0  0
 42 43  1  0  0  0
 42 66  1  0  0  0
 42112  1  0  0  0
 42113  1  0  0  0
 43 44  1  0  0  0
 44114  1  0  0  0
 45 46  2  0  0  0
 45115  1  0  0  0
 46116  1  0  0  0
 47117  1  0  0  0
 47118  1  0  0  0
 48 56  1  0  0  0
 48 65  1  0  0  0
 48119  1  0  0  0
 49 50  1  0  0  0
 49 53  1  0  0  0
 49 64  1  0  0  0
 49120  1  0  0  0
 50 51  1  0  0  0
 50121  1  0  0  0
 50122  1  0  0  0
 51 52  1  0  0  0
 51123  1  0  0  0
 51124  1  0  0  0
 52125  1  0  0  0
 52126  1  0  0  0
 53 54  1  0  0  0
 54 55  2  0  0  0
 54127  1  0  0  0
 55 57  1  0  0  0
 55128  1  0  0  0
 56 69  2  0  0  0
 57 58  2  0  0  0
 57129  1  0  0  0
 58130  1  0  0  0
 59 60  1  0  0  0
 59 61  1  0  0  0
 59 62  1  0  0  0
 60131  1  0  0  0
 60132  1  0  0  0
 60133  1  0  0  0
 61134  1  0  0  0
 61135  1  0  0  0
 61136  1  0  0  0
 62137  1  0  0  0
 62138  1  0  0  0
 62139  1  0  0  0
 63 65  1  0  0  0
 63140  1  0  0  0
 63141  1  0  0  0
 63142  1  0  0  0
 64143  1  0  0  0
 65144  1  0  0  0
 68 79  1  0  0  0
 71 72  2  0  0  0
 71 82  1  0  0  0
 71145  1  0  0  0
 72 83  1  0  0  0
 72 84  1  0  0  0
 73 74  1  0  0  0
 73 82  1  0  0  0
 73 83  2  0  0  0
 74146  1  0  0  0
 74147  1  0  0  0
 74148  1  0  0  0
 75 76  1  0  0  0
 75149  1  0  0  0
 75150  1  0  0  0
 75151  1  0  0  0
 76152  1  0  0  0
 76153  1  0  0  0
 76 80  1  0  0  0
 77 80  1  0  0  0
 77 81  1  0  0  0
 77154  1  0  0  0
 77155  1  0  0  0
 78 80  1  0  0  0
 78 82  1  0  0  0
 78156  1  0  0  0
 78157  1  0  0  0
 79 81  1  0  0  0
 79158  1  0  0  0
 79159  1  0  0  0
 80160  1  0  0  0
 81 85  1  0  0  0
 81161  1  0  0  0
 83162  1  0  0  0
 84163  1  0  0  0
 85164  1  0  0  0
M  CHG  1  83   1
M  ISO  4   1 100  68 101  79 101  84 100
M  END
> <chiral flag>
0

> <version>
0

> <s_m_source_file>
/data/baiqing/PycharmProjects/Reinvent-master-3.2/result/LINK_invent/BTK/process_docking_weight1_custom_product_contain_oxygen_bond_distance_aromatic_linkinvent_7_9_3/rearranged_h_0191.sdf

> <i_m_source_file_index>
13

> <r_mmod_Potential_Energy-OPLS-2005>
44.6943855285645

> <r_mmod_Stretch_Energy-OPLS-2005>
67.727668762207

> <r_mmod_Bend_Energy-OPLS-2005>
223.92724609375

> <r_mmod_Torsional_Energy-OPLS-2005>
257.293365478516

> <r_mmod_Improper_Torsional_Energy-OPLS-2005>
6.32492256164551

> <r_mmod_Van_der_Waal_Energy-OPLS-2005>
128.950836181641

> <r_mmod_Electrostatic_Energy-OPLS-2005>
-249.012756347656

> <r_mmod_Solvation_Energy-OPLS-2005>
-425.096252441406

> <b_mmod_Minimization_Converged-OPLS-2005>
0

> <r_mmod_RMS_Derivative-OPLS-2005>
4.95200252532959

$$$$
14
                    3D
 Structure written by MMmdl.
166174  0  0  1  0            999 V2000
  -30.6444  -14.6553   20.4740 C   0  0  0  0  0  0
  -30.4193  -12.3970   19.4751 C   0  0  0  0  0  0
  -29.5064  -12.5036   18.2354 C   0  0  0  0  0  0
  -28.0319  -12.3334   18.6477 C   0  0  0  0  0  0
  -27.6453  -13.2263   19.8568 C   0  0  2  0  0  0
  -28.6855  -13.1338   20.9962 C   0  0  0  0  0  0
  -25.2518  -13.8204   20.5694 C   0  0  0  0  0  0
  -24.1797  -13.0431   20.9209 C   0  0  0  0  0  0
  -24.6383  -11.6913   20.8752 C   0  0  0  0  0  0
  -23.9060  -10.4284   21.0408 C   0  0  0  0  0  0
  -24.3619   -9.4208   21.9179 C   0  0  0  0  0  0
  -23.6295   -8.2245   22.0758 C   0  0  0  0  0  0
  -22.4275   -8.0283   21.3559 C   0  0  0  0  0  0
  -21.9914   -9.0253   20.4647 C   0  0  0  0  0  0
  -22.7240  -10.2132   20.3050 C   0  0  0  0  0  0
  -21.6839   -6.0734   22.5282 C   0  0  0  0  0  0
  -21.4016   -6.5643   23.8217 C   0  0  0  0  0  0
  -21.3658   -5.6802   24.9186 C   0  0  0  0  0  0
  -21.6049   -4.3065   24.7231 C   0  0  0  0  0  0
  -21.8818   -3.8147   23.4349 C   0  0  0  0  0  0
  -21.9191   -4.6958   22.3401 C   0  0  0  0  0  0
  -22.7829  -13.5237   21.1873 C   0  0  0  0  0  0
  -22.1653   -4.2144   21.0983 F   0  0  0  0  0  0
  -21.5626   -3.4548   25.7742 F   0  0  0  0  0  0
  -29.9991  -13.4478   20.4257 N   0  0  0  0  0  0
  -26.2941  -12.9405   20.3298 N   0  0  0  0  0  0
  -25.9311  -11.6547   20.5751 N   0  0  0  0  0  0
  -22.0484  -12.8204   22.0437 N   0  0  0  0  0  0
  -25.4214  -15.1919   20.4087 N   0  0  0  0  0  0
  -31.8198  -14.7473   20.1159 O   0  0  0  0  0  0
  -21.6636   -6.8874   21.4244 O   0  0  0  0  0  0
  -22.3503  -14.5521   20.6706 O   0  0  0  0  0  0
  -24.6230  -31.8600   23.2050 C   0  0  0  0  0  0
  -25.9095  -32.4776   23.8364 C   0  0  1  0  0  0
  -27.1942  -27.3220   20.1198 C   0  0  0  0  0  0
  -25.5923  -33.8585   24.2305 N   0  0  0  0  0  0
  -23.4168  -30.4818   21.5493 C   0  0  2  0  0  0
  -24.8599  -28.9440   20.0986 C   0  0  0  0  0  0
  -22.7457  -29.4584   22.4964 C   0  0  0  0  0  0
  -18.0282  -28.1353   22.8462 C   0  0  0  0  0  0
  -24.1495  -36.7313   23.2633 C   0  0  0  0  0  0
  -25.9530  -30.7948   21.3702 C   0  0  0  0  0  0
  -26.0283  -29.4236   20.7073 C   0  0  0  0  0  0
  -27.2059  -28.6205   20.7100 C   0  0  0  0  0  0
  -26.0268  -26.9067   19.4516 C   0  0  0  0  0  0
  -24.8605  -27.6954   19.4556 C   0  0  0  0  0  0
  -23.6275  -29.8204   20.1608 C   0  0  0  0  0  0
  -25.4111  -36.3084   24.0327 C   0  0  1  0  0  0
  -20.5880  -28.3654   23.1293 C   0  0  2  0  0  0
  -20.6776  -26.9393   22.5387 C   0  0  0  0  0  0
  -19.5759  -26.6356   21.5175 C   0  0  0  0  0  0
  -18.1942  -26.7920   22.1568 C   0  0  0  0  0  0
  -19.1534  -28.8816   23.2873 C   0  0  0  0  0  0
  -18.9456  -30.1423   23.8891 C   0  0  0  0  0  0
  -17.6453  -30.6567   24.0533 C   0  0  0  0  0  0
  -25.9044  -34.9460   23.5119 C   0  0  0  0  0  0
  -16.5341  -29.9073   23.6280 C   0  0  0  0  0  0
  -16.7267  -28.6470   23.0336 C   0  0  0  0  0  0
  -26.4510  -31.6572   25.0713 C   0  0  0  0  0  0
  -25.3738  -31.3656   26.1417 C   0  0  0  0  0  0
  -27.0368  -30.3002   24.6133 C   0  0  0  0  0  0
  -27.6068  -32.4299   25.7490 C   0  0  0  0  0  0
  -27.5595  -37.1810   24.8456 C   0  0  0  0  0  0
  -21.4175  -29.3026   22.3700 N   0  0  0  0  0  0
  -26.4293  -37.3774   23.9414 N   0  0  0  0  0  0
  -24.6846  -31.0595   22.1020 N   0  0  0  0  0  0
  -23.4181  -28.8113   23.3029 O   0  0  0  0  0  0
  -28.2485  -26.4160   20.2474 O   0  0  0  0  0  0
  -26.5601  -34.8924   22.4677 O   0  0  0  0  0  0
  -23.5390  -32.1416   23.7367 O   0  0  0  0  0  0
  -29.0494  -18.8604   21.6521 C   0  0  0  0  0  0
  -28.6384  -20.2078   21.8904 C   0  0  0  0  0  0
  -29.7535  -19.6020   19.4929 C   0  0  0  0  0  0
  -29.6326  -18.5177   20.4096 C   0  0  0  0  0  0
  -28.7930  -21.2138   20.9034 C   0  0  0  0  0  0
  -24.9373  -24.3316   23.5328 C   0  0  0  0  0  0
  -27.5779  -25.9307   23.3966 C   0  0  0  0  0  0
  -27.1046  -23.4213   19.2037 C   0  0  0  0  0  0
  -30.2261  -17.1136   20.0065 C   0  0  0  0  0  0
  -26.0885  -24.0340   22.5533 C   0  0  0  0  0  0
  -26.9342  -25.2782   22.1590 C   0  0  2  0  0  0
  -28.1980  -23.7229   20.2473 C   0  0  1  0  0  0
  -28.0240  -25.1411   21.0016 C   0  0  1  0  0  0
  -29.3494  -20.8888   19.7174 N   0  0  0  0  0  0
  -28.4025  -22.5623   21.1757 N   0  0  0  0  0  0
  -29.8881  -15.7925   20.6524 N   0  0  0  0  0  0
  -31.4644  -12.4944   19.1794 H   0  0  0  0  0  0
  -30.3316  -11.4127   19.9386 H   0  0  0  0  0  0
  -29.7778  -11.7499   17.4953 H   0  0  0  0  0  0
  -29.6437  -13.4724   17.7539 H   0  0  0  0  0  0
  -27.8829  -11.2839   18.9041 H   0  0  0  0  0  0
  -27.3730  -12.5370   17.8024 H   0  0  0  0  0  0
  -27.6510  -14.2501   19.4850 H   0  0  0  0  0  0
  -28.6943  -12.1380   21.4428 H   0  0  0  0  0  0
  -28.4344  -13.8258   21.8018 H   0  0  0  0  0  0
  -25.2757   -9.5680   22.4753 H   0  0  0  0  0  0
  -23.9995   -7.4638   22.7482 H   0  0  0  0  0  0
  -21.0851   -8.8779   19.8938 H   0  0  0  0  0  0
  -22.3709  -10.9675   19.6155 H   0  0  0  0  0  0
  -21.2016   -7.6155   23.9715 H   0  0  0  0  0  0
  -21.1479   -6.0535   25.9091 H   0  0  0  0  0  0
  -22.0597   -2.7607   23.2858 H   0  0  0  0  0  0
  -22.4115  -11.9856   22.4793 H   0  0  0  0  0  0
  -21.1088  -13.1193   22.2625 H   0  0  0  0  0  0
  -24.6510  -15.8461   20.5099 H   0  0  0  0  0  0
  -26.2723  -15.6326   20.0839 H   0  0  0  0  0  0
  -26.7151  -32.5447   23.1101 H   0  0  0  0  0  0
  -25.0047  -33.9724   25.0432 H   0  0  0  0  0  0
  -22.7079  -31.3014   21.4126 H   0  0  0  0  0  0
  -23.3763  -35.9651   23.3290 H   0  0  0  0  0  0
  -24.3529  -36.8974   22.2046 H   0  0  0  0  0  0
  -23.7270  -37.6521   23.6658 H   0  0  0  0  0  0
  -26.0735  -31.5579   20.5994 H   0  0  0  0  0  0
  -26.8366  -30.8471   21.9934 H   0  0  0  0  0  0
  -28.0994  -28.9568   21.2215 H   0  0  0  0  0  0
  -25.9966  -25.9415   18.9687 H   0  0  0  0  0  0
  -23.9621  -27.3366   18.9692 H   0  0  0  0  0  0
  -23.7408  -30.6000   19.4065 H   0  0  0  0  0  0
  -22.7487  -29.2472   19.8614 H   0  0  0  0  0  0
  -25.1303  -36.1934   25.0823 H   0  0  0  0  0  0
  -20.9946  -28.3236   24.1430 H   0  0  0  0  0  0
  -20.5666  -26.2269   23.3582 H   0  0  0  0  0  0
  -21.6668  -26.7442   22.1222 H   0  0  0  0  0  0
  -19.6943  -25.6270   21.1220 H   0  0  0  0  0  0
  -19.6726  -27.3121   20.6692 H   0  0  0  0  0  0
  -17.4229  -26.6628   21.3972 H   0  0  0  0  0  0
  -18.0377  -26.0079   22.8968 H   0  0  0  0  0  0
  -19.7943  -30.7212   24.2307 H   0  0  0  0  0  0
  -17.5028  -31.6253   24.5134 H   0  0  0  0  0  0
  -15.5342  -30.2968   23.7652 H   0  0  0  0  0  0
  -15.8666  -28.0773   22.7098 H   0  0  0  0  0  0
  -24.5971  -30.6945   25.7709 H   0  0  0  0  0  0
  -24.8820  -32.2799   26.4769 H   0  0  0  0  0  0
  -25.8068  -30.8869   27.0212 H   0  0  0  0  0  0
  -26.2916  -29.6715   24.1218 H   0  0  0  0  0  0
  -27.4183  -29.7277   25.4598 H   0  0  0  0  0  0
  -27.8770  -30.4322   23.9302 H   0  0  0  0  0  0
  -27.2689  -33.3627   26.1998 H   0  0  0  0  0  0
  -28.3900  -32.6797   25.0331 H   0  0  0  0  0  0
  -28.0708  -31.8459   26.5433 H   0  0  0  0  0  0
  -28.2599  -38.0134   24.7536 H   0  0  0  0  0  0
  -28.1127  -36.2652   24.6265 H   0  0  0  0  0  0
  -27.2275  -37.1458   25.8852 H   0  0  0  0  0  0
  -20.9353  -29.8769   21.6935 H   0  0  0  0  0  0
  -26.0200  -38.2872   24.1392 H   0  0  0  0  0  0
  -28.9418  -18.1130   22.4246 H   0  0  0  0  0  0
  -28.2005  -20.4544   22.8483 H   0  0  0  0  0  0
  -30.2280  -19.4427   18.5345 H   0  0  0  0  0  0
  -24.2716  -23.4706   23.6167 H   0  0  0  0  0  0
  -24.3294  -25.1755   23.2035 H   0  0  0  0  0  0
  -25.3099  -24.5442   24.5352 H   0  0  0  0  0  0
  -26.8435  -26.2464   24.1380 H   0  0  0  0  0  0
  -28.1339  -26.8246   23.1101 H   0  0  0  0  0  0
  -28.2774  -25.2472   23.8777 H   0  0  0  0  0  0
  -27.1736  -24.1030   18.3567 H   0  0  0  0  0  0
  -26.0974  -23.4877   19.6079 H   0  0  0  0  0  0
  -27.2171  -22.4164   18.7997 H   0  0  0  0  0  0
  -31.3104  -17.2429   20.0059 H   0  0  0  0  0  0
  -29.9639  -16.9804   18.9546 H   0  0  0  0  0  0
  -25.6324  -23.6118   21.6620 H   0  0  0  0  0  0
  -26.7021  -23.2498   22.9894 H   0  0  0  0  0  0
  -26.1597  -25.9692   21.8469 H   0  0  0  0  0  0
  -29.1306  -23.7983   19.6870 H   0  0  0  0  0  0
  -28.9644  -25.1279   21.5576 H   0  0  0  0  0  0
  -28.1597  -22.7625   22.1402 H   0  0  0  0  0  0
  -28.9309  -15.6498   20.9298 H   0  0  0  0  0  0
  1 25  1  0  0  0
  1 30  2  0  0  0
  1 86  1  0  0  0
  2  3  1  0  0  0
  2 25  1  0  0  0
  2 87  1  0  0  0
  2 88  1  0  0  0
  3  4  1  0  0  0
  3 89  1  0  0  0
  3 90  1  0  0  0
  4  5  1  0  0  0
  4 91  1  0  0  0
  4 92  1  0  0  0
  5  6  1  0  0  0
  5 26  1  0  0  0
  5 93  1  0  0  0
  6 25  1  0  0  0
  6 94  1  0  0  0
  6 95  1  0  0  0
  7  8  2  0  0  0
  7 26  1  0  0  0
  7 29  1  0  0  0
  8  9  1  0  0  0
  8 22  1  0  0  0
  9 10  1  0  0  0
  9 27  2  0  0  0
 10 11  2  0  0  0
 10 15  1  0  0  0
 11 12  1  0  0  0
 11 96  1  0  0  0
 12 13  2  0  0  0
 12 97  1  0  0  0
 13 14  1  0  0  0
 13 31  1  0  0  0
 14 15  2  0  0  0
 14 98  1  0  0  0
 15 99  1  0  0  0
 16 17  2  0  0  0
 16 21  1  0  0  0
 16 31  1  0  0  0
 17 18  1  0  0  0
 17100  1  0  0  0
 18 19  2  0  0  0
 18101  1  0  0  0
 19 20  1  0  0  0
 19 24  1  0  0  0
 20 21  2  0  0  0
 20102  1  0  0  0
 21 23  1  0  0  0
 22 28  1  0  0  0
 22 32  2  0  0  0
 26 27  1  0  0  0
 28103  1  0  0  0
 28104  1  0  0  0
 29105  1  0  0  0
 29106  1  0  0  0
 33 34  1  0  0  0
 33 66  1  0  0  0
 33 70  2  0  0  0
 34 36  1  0  0  0
 34 59  1  0  0  0
 34107  1  0  0  0
 35 44  2  0  0  0
 35 45  1  0  0  0
 35 68  1  0  0  0
 36 56  1  0  0  0
 36108  1  0  0  0
 37 39  1  0  0  0
 37 47  1  0  0  0
 37 66  1  0  0  0
 37109  1  0  0  0
 38 43  2  0  0  0
 38 46  1  0  0  0
 38 47  1  0  0  0
 39 64  1  0  0  0
 39 67  2  0  0  0
 40 52  1  0  0  0
 40 53  2  0  0  0
 40 58  1  0  0  0
 41110  1  0  0  0
 41111  1  0  0  0
 41112  1  0  0  0
 41 48  1  0  0  0
 42 43  1  0  0  0
 42 66  1  0  0  0
 42113  1  0  0  0
 42114  1  0  0  0
 43 44  1  0  0  0
 44115  1  0  0  0
 45 46  2  0  0  0
 45116  1  0  0  0
 46117  1  0  0  0
 47118  1  0  0  0
 47119  1  0  0  0
 48 56  1  0  0  0
 48 65  1  0  0  0
 48120  1  0  0  0
 49 50  1  0  0  0
 49 53  1  0  0  0
 49 64  1  0  0  0
 49121  1  0  0  0
 50 51  1  0  0  0
 50122  1  0  0  0
 50123  1  0  0  0
 51 52  1  0  0  0
 51124  1  0  0  0
 51125  1  0  0  0
 52126  1  0  0  0
 52127  1  0  0  0
 53 54  1  0  0  0
 54 55  2  0  0  0
 54128  1  0  0  0
 55 57  1  0  0  0
 55129  1  0  0  0
 56 69  2  0  0  0
 57 58  2  0  0  0
 57130  1  0  0  0
 58131  1  0  0  0
 59 60  1  0  0  0
 59 61  1  0  0  0
 59 62  1  0  0  0
 60132  1  0  0  0
 60133  1  0  0  0
 60134  1  0  0  0
 61135  1  0  0  0
 61136  1  0  0  0
 61137  1  0  0  0
 62138  1  0  0  0
 62139  1  0  0  0
 62140  1  0  0  0
 63 65  1  0  0  0
 63141  1  0  0  0
 63142  1  0  0  0
 63143  1  0  0  0
 64144  1  0  0  0
 65145  1  0  0  0
 68 83  1  0  0  0
 71 72  2  0  0  0
 71 74  1  0  0  0
 71146  1  0  0  0
 72 75  1  0  0  0
 72147  1  0  0  0
 73 74  2  0  0  0
 73 84  1  0  0  0
 73148  1  0  0  0
 74 79  1  0  0  0
 75 84  2  0  0  0
 75 85  1  0  0  0
 76 80  1  0  0  0
 76149  1  0  0  0
 76150  1  0  0  0
 76151  1  0  0  0
 77152  1  0  0  0
 77153  1  0  0  0
 77154  1  0  0  0
 77 81  1  0  0  0
 78155  1  0  0  0
 78156  1  0  0  0
 78157  1  0  0  0
 78 82  1  0  0  0
 79 86  1  0  0  0
 79158  1  0  0  0
 79159  1  0  0  0
 80 81  1  0  0  0
 80160  1  0  0  0
 80161  1  0  0  0
 81 83  1  0  0  0
 81162  1  0  0  0
 82 83  1  0  0  0
 82 85  1  0  0  0
 82163  1  0  0  0
 83164  1  0  0  0
 85165  1  0  0  0
 86166  1  0  0  0
M  ISO  4   1 100  68 101  83 101  86 100
M  END
> <chiral flag>
0

> <version>
0

> <s_m_source_file>
/data/baiqing/PycharmProjects/Reinvent-master-3.2/result/LINK_invent/BTK/process_docking_weight1_custom_product_contain_oxygen_bond_distance_aromatic_linkinvent_7_9_3/rearranged_h_0191.sdf

> <i_m_source_file_index>
14

> <r_mmod_Potential_Energy-OPLS-2005>
-31.280216217041

> <r_mmod_Stretch_Energy-OPLS-2005>
87.9621734619141

> <r_mmod_Bend_Energy-OPLS-2005>
193.40461730957

> <r_mmod_Torsional_Energy-OPLS-2005>
252.304351806641

> <r_mmod_Improper_Torsional_Energy-OPLS-2005>
8.48920249938965

> <r_mmod_Van_der_Waal_Energy-OPLS-2005>
144.732894897461

> <r_mmod_Electrostatic_Energy-OPLS-2005>
-558.361267089844

> <r_mmod_Solvation_Energy-OPLS-2005>
-221.449005126953

> <b_mmod_Minimization_Converged-OPLS-2005>
0

> <r_mmod_RMS_Derivative-OPLS-2005>
4.62564182281494

$$$$
15
                    3D
 Structure written by MMmdl.
167175  0  0  1  0            999 V2000
  -30.7548  -14.3870   20.6423 C   0  0  0  0  0  0
  -30.4026  -12.2867   19.3929 C   0  0  0  0  0  0
  -29.4726  -12.5119   18.1890 C   0  0  0  0  0  0
  -27.9978  -12.3631   18.6121 C   0  0  0  0  0  0
  -27.6516  -13.1965   19.8737 C   0  0  2  0  0  0
  -28.6958  -12.9636   20.9868 C   0  0  0  0  0  0
  -25.2514  -13.8110   20.5648 C   0  0  0  0  0  0
  -24.1783  -13.0395   20.9176 C   0  0  0  0  0  0
  -24.6347  -11.6872   20.8758 C   0  0  0  0  0  0
  -23.9019  -10.4273   21.0398 C   0  0  0  0  0  0
  -24.3586   -9.4200   21.9181 C   0  0  0  0  0  0
  -23.6271   -8.2227   22.0736 C   0  0  0  0  0  0
  -22.4251   -8.0276   21.3527 C   0  0  0  0  0  0
  -21.9892   -9.0252   20.4625 C   0  0  0  0  0  0
  -22.7212  -10.2129   20.3042 C   0  0  0  0  0  0
  -21.6850   -6.0738   22.5292 C   0  0  0  0  0  0
  -21.4012   -6.5642   23.8230 C   0  0  0  0  0  0
  -21.3648   -5.6787   24.9187 C   0  0  0  0  0  0
  -21.6039   -4.3051   24.7238 C   0  0  0  0  0  0
  -21.8817   -3.8151   23.4356 C   0  0  0  0  0  0
  -21.9180   -4.6968   22.3411 C   0  0  0  0  0  0
  -22.7830  -13.5211   21.1862 C   0  0  0  0  0  0
  -22.1649   -4.2163   21.0988 F   0  0  0  0  0  0
  -21.5619   -3.4518   25.7742 F   0  0  0  0  0  0
  -30.0284  -13.2580   20.4294 N   0  0  0  0  0  0
  -26.2953  -12.9280   20.3395 N   0  0  0  0  0  0
  -25.9274  -11.6439   20.5823 N   0  0  0  0  0  0
  -22.0450  -12.8216   22.0410 N   0  0  0  0  0  0
  -25.4135  -15.1807   20.3977 N   0  0  0  0  0  0
  -31.8595  -14.5918   20.1334 O   0  0  0  0  0  0
  -21.6630   -6.8879   21.4252 O   0  0  0  0  0  0
  -22.3528  -14.5549   20.6741 O   0  0  0  0  0  0
  -24.6099  -31.8697   23.2148 C   0  0  0  0  0  0
  -25.9009  -32.4833   23.8409 C   0  0  1  0  0  0
  -27.2343  -27.4710   20.0672 C   0  0  0  0  0  0
  -25.5888  -33.8631   24.2341 N   0  0  0  0  0  0
  -23.3956  -30.4923   21.5580 C   0  0  2  0  0  0
  -24.8388  -28.9579   20.1244 C   0  0  0  0  0  0
  -22.7370  -29.4658   22.5061 C   0  0  0  0  0  0
  -18.0266  -28.1350   22.8517 C   0  0  0  0  0  0
  -24.1491  -36.7320   23.2641 C   0  0  0  0  0  0
  -25.9218  -30.8376   21.3678 C   0  0  0  0  0  0
  -25.9964  -29.4711   20.7238 C   0  0  0  0  0  0
  -27.1951  -28.7259   20.7091 C   0  0  0  0  0  0
  -26.0542  -26.9487   19.4958 C   0  0  0  0  0  0
  -24.8589  -27.6907   19.5163 C   0  0  0  0  0  0
  -23.5987  -29.8208   20.1741 C   0  0  0  0  0  0
  -25.4115  -36.3121   24.0339 C   0  0  1  0  0  0
  -20.5838  -28.3628   23.1367 C   0  0  2  0  0  0
  -20.6752  -26.9375   22.5440 C   0  0  0  0  0  0
  -19.5736  -26.6374   21.5226 C   0  0  0  0  0  0
  -18.1913  -26.7906   22.1630 C   0  0  0  0  0  0
  -19.1505  -28.8812   23.2934 C   0  0  0  0  0  0
  -18.9433  -30.1419   23.8928 C   0  0  0  0  0  0
  -17.6435  -30.6568   24.0564 C   0  0  0  0  0  0
  -25.9036  -34.9479   23.5139 C   0  0  0  0  0  0
  -16.5330  -29.9064   23.6328 C   0  0  0  0  0  0
  -16.7251  -28.6473   23.0371 C   0  0  0  0  0  0
  -26.4444  -31.6596   25.0716 C   0  0  0  0  0  0
  -25.3712  -31.3668   26.1459 C   0  0  0  0  0  0
  -27.0264  -30.3056   24.6039 C   0  0  0  0  0  0
  -27.6049  -32.4283   25.7458 C   0  0  0  0  0  0
  -27.5588  -37.1807   24.8457 C   0  0  0  0  0  0
  -21.4105  -29.3001   22.3782 N   0  0  0  0  0  0
  -26.4311  -37.3800   23.9394 N   0  0  0  0  0  0
  -24.6606  -31.0804   22.1052 N   0  0  0  0  0  0
  -23.4161  -28.8206   23.3092 O   0  0  0  0  0  0
  -28.4254  -26.7957   19.9563 O   0  0  0  0  0  0
  -26.5596  -34.8918   22.4699 O   0  0  0  0  0  0
  -23.5306  -32.1435   23.7562 O   0  0  0  0  0  0
  -27.4667  -17.6465   21.0070 C   0  0  0  0  0  0
  -27.8036  -17.8085   19.6803 C   0  0  0  0  0  0
  -29.2098  -16.2004   20.8880 C   0  0  0  0  0  0
  -27.9436  -21.1424   17.8662 C   0  0  0  0  0  0
  -26.3863  -18.3561   21.7631 C   0  0  0  0  0  0
  -30.1845  -24.3666   18.4744 C   0  0  0  0  0  0
  -27.1383  -22.9156   15.3561 C   0  0  0  0  0  0
  -27.6536  -20.2356   19.0455 C   0  0  0  0  0  0
  -28.0600  -24.5927   17.0257 C   0  0  0  0  0  0
  -28.7727  -26.4560   18.6089 C   0  0  0  0  0  0
  -27.2329  -18.7869   18.6961 C   0  0  1  0  0  0
  -28.7554  -24.9293   18.3716 C   0  0  2  0  0  0
  -27.9918  -23.1040   16.6220 C   0  0  1  0  0  0
  -28.2831  -16.7333   21.6861 N   0  0  0  0  0  0
  -27.4506  -22.3072   17.7157 N   0  0  0  0  0  0
  -30.1813  -15.3217   21.4050 N   0  0  0  0  0  0
  -27.5971  -18.4682   17.4503 F   0  0  0  0  0  0
  -29.1452  -16.7829   19.2300 S   0  0  0  0  0  0
  -31.4457  -12.3734   19.0878 H   0  0  0  0  0  0
  -30.2868  -11.2687   19.7720 H   0  0  0  0  0  0
  -29.7095  -11.8024   17.3943 H   0  0  0  0  0  0
  -29.6380  -13.5079   17.7749 H   0  0  0  0  0  0
  -27.8156  -11.3060   18.8103 H   0  0  0  0  0  0
  -27.3392  -12.6346   17.7863 H   0  0  0  0  0  0
  -27.6902  -14.2433   19.5835 H   0  0  0  0  0  0
  -28.6645  -11.9275   21.3244 H   0  0  0  0  0  0
  -28.4530  -13.5568   21.8694 H   0  0  0  0  0  0
  -25.2716   -9.5709   22.4788 H   0  0  0  0  0  0
  -23.9996   -7.4616   22.7441 H   0  0  0  0  0  0
  -21.0822   -8.8764   19.8924 H   0  0  0  0  0  0
  -22.3657  -10.9678   19.6169 H   0  0  0  0  0  0
  -21.2021   -7.6151   23.9750 H   0  0  0  0  0  0
  -21.1459   -6.0507   25.9099 H   0  0  0  0  0  0
  -22.0605   -2.7615   23.2853 H   0  0  0  0  0  0
  -22.4048  -11.9863   22.4812 H   0  0  0  0  0  0
  -21.1085  -13.1283   22.2624 H   0  0  0  0  0  0
  -24.6403  -15.8259   20.5179 H   0  0  0  0  0  0
  -26.2903  -15.6371   20.1824 H   0  0  0  0  0  0
  -26.7074  -32.5544   23.1175 H   0  0  0  0  0  0
  -25.0040  -33.9797   25.0480 H   0  0  0  0  0  0
  -22.6829  -31.3080   21.4224 H   0  0  0  0  0  0
  -23.3754  -35.9655   23.3308 H   0  0  0  0  0  0
  -24.3600  -36.8926   22.2057 H   0  0  0  0  0  0
  -23.7231  -37.6528   23.6638 H   0  0  0  0  0  0
  -26.0294  -31.6011   20.5959 H   0  0  0  0  0  0
  -26.8134  -30.8937   21.9802 H   0  0  0  0  0  0
  -28.0950  -29.1244   21.1565 H   0  0  0  0  0  0
  -26.0608  -25.9816   19.0142 H   0  0  0  0  0  0
  -23.9672  -27.2885   19.0553 H   0  0  0  0  0  0
  -23.6881  -30.5902   19.4062 H   0  0  0  0  0  0
  -22.7261  -29.2293   19.8928 H   0  0  0  0  0  0
  -25.1288  -36.2019   25.0839 H   0  0  0  0  0  0
  -20.9926  -28.3178   24.1485 H   0  0  0  0  0  0
  -20.5674  -26.2217   23.3605 H   0  0  0  0  0  0
  -21.6626  -26.7435   22.1216 H   0  0  0  0  0  0
  -19.6898  -25.6293   21.1233 H   0  0  0  0  0  0
  -19.6694  -27.3208   20.6774 H   0  0  0  0  0  0
  -17.4195  -26.6688   21.4018 H   0  0  0  0  0  0
  -18.0299  -26.0018   22.8988 H   0  0  0  0  0  0
  -19.7901  -30.7234   24.2316 H   0  0  0  0  0  0
  -17.4979  -31.6260   24.5139 H   0  0  0  0  0  0
  -15.5323  -30.2974   23.7623 H   0  0  0  0  0  0
  -15.8648  -28.0780   22.7101 H   0  0  0  0  0  0
  -24.5941  -30.6956   25.7783 H   0  0  0  0  0  0
  -24.8824  -32.2796   26.4869 H   0  0  0  0  0  0
  -25.8072  -30.8875   27.0232 H   0  0  0  0  0  0
  -26.2784  -29.6838   24.1113 H   0  0  0  0  0  0
  -27.4091  -29.7266   25.4450 H   0  0  0  0  0  0
  -27.8585  -30.4404   23.9130 H   0  0  0  0  0  0
  -27.2722  -33.3597   26.2040 H   0  0  0  0  0  0
  -28.3848  -32.6807   25.0264 H   0  0  0  0  0  0
  -28.0709  -31.8384   26.5355 H   0  0  0  0  0  0
  -28.2607  -38.0101   24.7529 H   0  0  0  0  0  0
  -28.1087  -36.2640   24.6269 H   0  0  0  0  0  0
  -27.2301  -37.1436   25.8857 H   0  0  0  0  0  0
  -20.9260  -29.8713   21.6997 H   0  0  0  0  0  0
  -26.0211  -38.2889   24.1390 H   0  0  0  0  0  0
  -28.6756  -20.7275   17.1668 H   0  0  0  0  0  0
  -26.7429  -19.3104   22.1537 H   0  0  0  0  0  0
  -26.0353  -17.7645   22.6083 H   0  0  0  0  0  0
  -25.5203  -18.5555   21.1319 H   0  0  0  0  0  0
  -30.2004  -23.2796   18.3945 H   0  0  0  0  0  0
  -30.6321  -24.6215   19.4361 H   0  0  0  0  0  0
  -30.8291  -24.7684   17.6901 H   0  0  0  0  0  0
  -27.5342  -23.5069   14.5279 H   0  0  0  0  0  0
  -26.1057  -23.2282   15.5150 H   0  0  0  0  0  0
  -27.1254  -21.8753   15.0269 H   0  0  0  0  0  0
  -26.9279  -20.6938   19.7187 H   0  0  0  0  0  0
  -28.5877  -20.1997   19.6061 H   0  0  0  0  0  0
  -28.5594  -25.1392   16.2244 H   0  0  0  0  0  0
  -27.0443  -24.9897   17.0560 H   0  0  0  0  0  0
  -28.1312  -26.9659   17.8862 H   0  0  0  0  0  0
  -29.7653  -26.8603   18.4070 H   0  0  0  0  0  0
  -26.1439  -18.7172   18.6837 H   0  0  0  0  0  0
  -28.1613  -24.4741   19.1657 H   0  0  0  0  0  0
  -29.0111  -22.7975   16.3671 H   0  0  0  0  0  0
  -30.8586  -15.8212   21.9591 H   0  0  0  0  0  0
  1 25  1  0  0  0
  1 30  2  0  0  0
  1 86  1  0  0  0
  2  3  1  0  0  0
  2 25  1  0  0  0
  2 89  1  0  0  0
  2 90  1  0  0  0
  3  4  1  0  0  0
  3 91  1  0  0  0
  3 92  1  0  0  0
  4  5  1  0  0  0
  4 93  1  0  0  0
  4 94  1  0  0  0
  5  6  1  0  0  0
  5 26  1  0  0  0
  5 95  1  0  0  0
  6 25  1  0  0  0
  6 96  1  0  0  0
  6 97  1  0  0  0
  7  8  2  0  0  0
  7 26  1  0  0  0
  7 29  1  0  0  0
  8  9  1  0  0  0
  8 22  1  0  0  0
  9 10  1  0  0  0
  9 27  2  0  0  0
 10 11  2  0  0  0
 10 15  1  0  0  0
 11 12  1  0  0  0
 11 98  1  0  0  0
 12 13  2  0  0  0
 12 99  1  0  0  0
 13 14  1  0  0  0
 13 31  1  0  0  0
 14 15  2  0  0  0
 14100  1  0  0  0
 15101  1  0  0  0
 16 17  2  0  0  0
 16 21  1  0  0  0
 16 31  1  0  0  0
 17 18  1  0  0  0
 17102  1  0  0  0
 18 19  2  0  0  0
 18103  1  0  0  0
 19 20  1  0  0  0
 19 24  1  0  0  0
 20 21  2  0  0  0
 20104  1  0  0  0
 21 23  1  0  0  0
 22 28  1  0  0  0
 22 32  2  0  0  0
 26 27  1  0  0  0
 28105  1  0  0  0
 28106  1  0  0  0
 29107  1  0  0  0
 29108  1  0  0  0
 33 34  1  0  0  0
 33 66  1  0  0  0
 33 70  2  0  0  0
 34 36  1  0  0  0
 34 59  1  0  0  0
 34109  1  0  0  0
 35 44  2  0  0  0
 35 45  1  0  0  0
 35 68  1  0  0  0
 36 56  1  0  0  0
 36110  1  0  0  0
 37 39  1  0  0  0
 37 47  1  0  0  0
 37 66  1  0  0  0
 37111  1  0  0  0
 38 43  2  0  0  0
 38 46  1  0  0  0
 38 47  1  0  0  0
 39 64  1  0  0  0
 39 67  2  0  0  0
 40 52  1  0  0  0
 40 53  2  0  0  0
 40 58  1  0  0  0
 41112  1  0  0  0
 41113  1  0  0  0
 41114  1  0  0  0
 41 48  1  0  0  0
 42 43  1  0  0  0
 42 66  1  0  0  0
 42115  1  0  0  0
 42116  1  0  0  0
 43 44  1  0  0  0
 44117  1  0  0  0
 45 46  2  0  0  0
 45118  1  0  0  0
 46119  1  0  0  0
 47120  1  0  0  0
 47121  1  0  0  0
 48 56  1  0  0  0
 48 65  1  0  0  0
 48122  1  0  0  0
 49 50  1  0  0  0
 49 53  1  0  0  0
 49 64  1  0  0  0
 49123  1  0  0  0
 50 51  1  0  0  0
 50124  1  0  0  0
 50125  1  0  0  0
 51 52  1  0  0  0
 51126  1  0  0  0
 51127  1  0  0  0
 52128  1  0  0  0
 52129  1  0  0  0
 53 54  1  0  0  0
 54 55  2  0  0  0
 54130  1  0  0  0
 55 57  1  0  0  0
 55131  1  0  0  0
 56 69  2  0  0  0
 57 58  2  0  0  0
 57132  1  0  0  0
 58133  1  0  0  0
 59 60  1  0  0  0
 59 61  1  0  0  0
 59 62  1  0  0  0
 60134  1  0  0  0
 60135  1  0  0  0
 60136  1  0  0  0
 61137  1  0  0  0
 61138  1  0  0  0
 61139  1  0  0  0
 62140  1  0  0  0
 62141  1  0  0  0
 62142  1  0  0  0
 63 65  1  0  0  0
 63143  1  0  0  0
 63144  1  0  0  0
 63145  1  0  0  0
 64146  1  0  0  0
 65147  1  0  0  0
 68 80  1  0  0  0
 71 72  2  0  0  0
 71 75  1  0  0  0
 71 84  1  0  0  0
 72 81  1  0  0  0
 72 88  1  0  0  0
 73 84  2  0  0  0
 73 86  1  0  0  0
 73 88  1  0  0  0
 74 78  1  0  0  0
 74 85  2  0  0  0
 74148  1  0  0  0
 75149  1  0  0  0
 75150  1  0  0  0
 75151  1  0  0  0
 76152  1  0  0  0
 76153  1  0  0  0
 76154  1  0  0  0
 76 82  1  0  0  0
 77155  1  0  0  0
 77156  1  0  0  0
 77157  1  0  0  0
 77 83  1  0  0  0
 78 81  1  0  0  0
 78158  1  0  0  0
 78159  1  0  0  0
 79 82  1  0  0  0
 79 83  1  0  0  0
 79160  1  0  0  0
 79161  1  0  0  0
 80 82  1  0  0  0
 80162  1  0  0  0
 80163  1  0  0  0
 81 87  1  0  0  0
 81164  1  0  0  0
 82165  1  0  0  0
 83 85  1  0  0  0
 83166  1  0  0  0
 86167  1  0  0  0
M  ISO  4   1 100  68 101  80 101  86 100
M  END
> <chiral flag>
0

> <version>
0

> <s_m_source_file>
/data/baiqing/PycharmProjects/Reinvent-master-3.2/result/LINK_invent/BTK/process_docking_weight1_custom_product_contain_oxygen_bond_distance_aromatic_linkinvent_7_9_3/rearranged_h_0191.sdf

> <i_m_source_file_index>
15

> <r_mmod_Potential_Energy-OPLS-2005>
-112.758407592773

> <r_mmod_Stretch_Energy-OPLS-2005>
31.4941139221191

> <r_mmod_Bend_Energy-OPLS-2005>
101.579612731934

> <r_mmod_Torsional_Energy-OPLS-2005>
275.314910888672

> <r_mmod_Improper_Torsional_Energy-OPLS-2005>
6.75966501235962

> <r_mmod_Van_der_Waal_Energy-OPLS-2005>
129.023422241211

> <r_mmod_Electrostatic_Energy-OPLS-2005>
-467.220275878906

> <r_mmod_Solvation_Energy-OPLS-2005>
-199.390060424805

> <b_mmod_Minimization_Converged-OPLS-2005>
0

> <r_mmod_RMS_Derivative-OPLS-2005>
2.52455186843872

$$$$
16
                    3D
 Structure written by MMmdl.
156164  0  0  1  0            999 V2000
  -30.7074  -14.4941   20.4701 C   0  0  0  0  0  0
  -30.4098  -12.2928   19.4480 C   0  0  0  0  0  0
  -29.4978  -12.4764   18.2185 C   0  0  0  0  0  0
  -28.0164  -12.3491   18.6268 C   0  0  0  0  0  0
  -27.6532  -13.2164   19.8635 C   0  0  2  0  0  0
  -28.6967  -13.0650   20.9944 C   0  0  0  0  0  0
  -25.2543  -13.8176   20.5705 C   0  0  0  0  0  0
  -24.1813  -13.0449   20.9190 C   0  0  0  0  0  0
  -24.6399  -11.6923   20.8760 C   0  0  0  0  0  0
  -23.9086  -10.4302   21.0426 C   0  0  0  0  0  0
  -24.3643   -9.4212   21.9196 C   0  0  0  0  0  0
  -23.6306   -8.2253   22.0760 C   0  0  0  0  0  0
  -22.4283   -8.0296   21.3555 C   0  0  0  0  0  0
  -21.9927   -9.0268   20.4657 C   0  0  0  0  0  0
  -22.7260  -10.2134   20.3078 C   0  0  0  0  0  0
  -21.6844   -6.0744   22.5282 C   0  0  0  0  0  0
  -21.4012   -6.5644   23.8219 C   0  0  0  0  0  0
  -21.3661   -5.6801   24.9185 C   0  0  0  0  0  0
  -21.6038   -4.3057   24.7231 C   0  0  0  0  0  0
  -21.8821   -3.8156   23.4348 C   0  0  0  0  0  0
  -21.9186   -4.6970   22.3403 C   0  0  0  0  0  0
  -22.7833  -13.5226   21.1851 C   0  0  0  0  0  0
  -22.1656   -4.2166   21.0979 F   0  0  0  0  0  0
  -21.5644   -3.4540   25.7734 F   0  0  0  0  0  0
  -30.0233  -13.3238   20.4222 N   0  0  0  0  0  0
  -26.2985  -12.9371   20.3349 N   0  0  0  0  0  0
  -25.9322  -11.6527   20.5802 N   0  0  0  0  0  0
  -22.0464  -12.8242   22.0415 N   0  0  0  0  0  0
  -25.4219  -15.1900   20.4132 N   0  0  0  0  0  0
  -31.8987  -14.5726   20.1626 O   0  0  0  0  0  0
  -21.6641   -6.8887   21.4250 O   0  0  0  0  0  0
  -22.3531  -14.5541   20.6686 O   0  0  0  0  0  0
  -24.6127  -31.8700   23.2114 C   0  0  0  0  0  0
  -25.9042  -32.4825   23.8394 C   0  0  1  0  0  0
  -27.2235  -27.4427   20.1070 C   0  0  0  0  0  0
  -25.5904  -33.8618   24.2335 N   0  0  0  0  0  0
  -23.3982  -30.4929   21.5539 C   0  0  2  0  0  0
  -24.8441  -28.9607   20.1162 C   0  0  0  0  0  0
  -22.7401  -29.4655   22.5022 C   0  0  0  0  0  0
  -18.0269  -28.1362   22.8501 C   0  0  0  0  0  0
  -24.1490  -36.7307   23.2640 C   0  0  0  0  0  0
  -25.9272  -30.8388   21.3649 C   0  0  0  0  0  0
  -26.0046  -29.4744   20.7116 C   0  0  0  0  0  0
  -27.2020  -28.7247   20.7005 C   0  0  0  0  0  0
  -26.0529  -26.9390   19.5081 C   0  0  0  0  0  0
  -24.8628  -27.6913   19.5104 C   0  0  0  0  0  0
  -23.6045  -29.8252   20.1678 C   0  0  0  0  0  0
  -25.4106  -36.3110   24.0344 C   0  0  1  0  0  0
  -20.5859  -28.3643   23.1332 C   0  0  2  0  0  0
  -20.6765  -26.9383   22.5424 C   0  0  0  0  0  0
  -19.5745  -26.6375   21.5218 C   0  0  0  0  0  0
  -18.1913  -26.7911   22.1625 C   0  0  0  0  0  0
  -19.1518  -28.8815   23.2914 C   0  0  0  0  0  0
  -18.9445  -30.1428   23.8912 C   0  0  0  0  0  0
  -17.6452  -30.6576   24.0551 C   0  0  0  0  0  0
  -25.9037  -34.9476   23.5142 C   0  0  0  0  0  0
  -16.5337  -29.9066   23.6335 C   0  0  0  0  0  0
  -16.7255  -28.6489   23.0357 C   0  0  0  0  0  0
  -26.4482  -31.6589   25.0711 C   0  0  0  0  0  0
  -25.3753  -31.3680   26.1461 C   0  0  0  0  0  0
  -27.0324  -30.3031   24.6088 C   0  0  0  0  0  0
  -27.6077  -32.4297   25.7457 C   0  0  0  0  0  0
  -27.5587  -37.1797   24.8460 C   0  0  0  0  0  0
  -21.4133  -29.3013   22.3751 N   0  0  0  0  0  0
  -26.4292  -37.3794   23.9414 N   0  0  0  0  0  0
  -24.6642  -31.0801   22.1018 N   0  0  0  0  0  0
  -23.4180  -28.8214   23.3073 O   0  0  0  0  0  0
  -28.3628  -26.6731   20.0960 O   0  0  0  0  0  0
  -26.5597  -34.8921   22.4703 O   0  0  0  0  0  0
  -23.5332  -32.1446   23.7528 O   0  0  0  0  0  0
  -29.8034  -18.1324   20.2509 C   0  0  0  0  0  0
  -29.2445  -20.4659   20.4919 C   0  0  0  0  0  0
  -29.4658  -22.9253   22.5740 C   0  0  0  0  0  0
  -29.2412  -26.2340   22.2359 C   0  0  0  0  0  0
  -30.4603  -16.8400   19.8602 C   0  0  0  0  0  0
  -28.9657  -24.3312   20.4628 C   0  0  0  0  0  0
  -28.7423  -22.9768   21.2170 C   0  0  1  0  0  0
  -28.3967  -25.6379   21.0940 C   0  0  2  0  0  0
  -29.0729  -18.3656   21.3553 N   0  0  0  0  0  0
  -28.7487  -19.7221   21.4941 N   0  0  0  0  0  0
  -29.1841  -21.8559   20.3850 N   0  0  0  0  0  0
  -29.9642  -15.6173   20.5239 N   0  0  0  0  0  0
  -30.0904  -19.5582   19.2581 S   0  0  0  0  0  0
  -31.4578  -12.3641   19.1515 H   0  0  0  0  0  0
  -30.2876  -11.2986   19.8827 H   0  0  0  0  0  0
  -29.7430  -11.7386   17.4529 H   0  0  0  0  0  0
  -29.6759  -13.4536   17.7673 H   0  0  0  0  0  0
  -27.8259  -11.2986   18.8469 H   0  0  0  0  0  0
  -27.3697  -12.6005   17.7849 H   0  0  0  0  0  0
  -27.6781  -14.2516   19.5256 H   0  0  0  0  0  0
  -28.6662  -12.0614   21.4205 H   0  0  0  0  0  0
  -28.4836  -13.7509   21.8167 H   0  0  0  0  0  0
  -25.2788   -9.5661   22.4786 H   0  0  0  0  0  0
  -23.9998   -7.4640   22.7470 H   0  0  0  0  0  0
  -21.0868   -8.8788   19.8957 H   0  0  0  0  0  0
  -22.3729  -10.9688   19.6195 H   0  0  0  0  0  0
  -21.1993   -7.6147   23.9726 H   0  0  0  0  0  0
  -21.1493   -6.0529   25.9086 H   0  0  0  0  0  0
  -22.0594   -2.7625   23.2840 H   0  0  0  0  0  0
  -22.4053  -11.9890   22.4808 H   0  0  0  0  0  0
  -21.1082  -13.1259   22.2624 H   0  0  0  0  0  0
  -24.6486  -15.8360   20.5223 H   0  0  0  0  0  0
  -26.2688  -15.6409   20.0921 H   0  0  0  0  0  0
  -26.7116  -32.5539   23.1165 H   0  0  0  0  0  0
  -25.0064  -33.9788   25.0484 H   0  0  0  0  0  0
  -22.6851  -31.3091   21.4187 H   0  0  0  0  0  0
  -23.3767  -35.9628   23.3295 H   0  0  0  0  0  0
  -24.3592  -36.8925   22.2059 H   0  0  0  0  0  0
  -23.7227  -37.6503   23.6652 H   0  0  0  0  0  0
  -26.0442  -31.6101   20.6019 H   0  0  0  0  0  0
  -26.8132  -30.8845   21.9860 H   0  0  0  0  0  0
  -28.0995  -29.1174   21.1593 H   0  0  0  0  0  0
  -26.0653  -25.9615   19.0469 H   0  0  0  0  0  0
  -23.9712  -27.2888   19.0497 H   0  0  0  0  0  0
  -23.7005  -30.5999   19.4063 H   0  0  0  0  0  0
  -22.7294  -29.2397   19.8787 H   0  0  0  0  0  0
  -25.1286  -36.1983   25.0837 H   0  0  0  0  0  0
  -20.9944  -28.3204   24.1453 H   0  0  0  0  0  0
  -20.5678  -26.2241   23.3605 H   0  0  0  0  0  0
  -21.6635  -26.7436   22.1204 H   0  0  0  0  0  0
  -19.6903  -25.6289   21.1228 H   0  0  0  0  0  0
  -19.6684  -27.3203   20.6762 H   0  0  0  0  0  0
  -17.4193  -26.6673   21.4013 H   0  0  0  0  0  0
  -18.0304  -26.0032   22.8999 H   0  0  0  0  0  0
  -19.7918  -30.7244   24.2281 H   0  0  0  0  0  0
  -17.4999  -31.6257   24.5151 H   0  0  0  0  0  0
  -15.5338  -30.2975   23.7640 H   0  0  0  0  0  0
  -15.8657  -28.0802   22.7073 H   0  0  0  0  0  0
  -24.5888  -30.7094   25.7756 H   0  0  0  0  0  0
  -24.9000  -32.2839   26.4982 H   0  0  0  0  0  0
  -25.8097  -30.8750   27.0169 H   0  0  0  0  0  0
  -26.2858  -29.6760   24.1198 H   0  0  0  0  0  0
  -27.4161  -29.7297   25.4540 H   0  0  0  0  0  0
  -27.8668  -30.4353   23.9195 H   0  0  0  0  0  0
  -27.2719  -33.3581   26.2089 H   0  0  0  0  0  0
  -28.3848  -32.6880   25.0248 H   0  0  0  0  0  0
  -28.0794  -31.8384   26.5319 H   0  0  0  0  0  0
  -28.2598  -38.0105   24.7545 H   0  0  0  0  0  0
  -28.1101  -36.2642   24.6247 H   0  0  0  0  0  0
  -27.2314  -37.1401   25.8865 H   0  0  0  0  0  0
  -20.9288  -29.8715   21.6961 H   0  0  0  0  0  0
  -26.0194  -38.2879   24.1421 H   0  0  0  0  0  0
  -28.9298  -23.5067   23.3197 H   0  0  0  0  0  0
  -30.4835  -23.3098   22.5081 H   0  0  0  0  0  0
  -29.5303  -21.9140   22.9747 H   0  0  0  0  0  0
  -29.3414  -25.5725   23.0901 H   0  0  0  0  0  0
  -28.7857  -27.1488   22.6154 H   0  0  0  0  0  0
  -30.2454  -26.4874   21.8936 H   0  0  0  0  0  0
  -31.5282  -16.9822   20.0337 H   0  0  0  0  0  0
  -30.3415  -16.7191   18.7816 H   0  0  0  0  0  0
  -28.4946  -24.2356   19.4833 H   0  0  0  0  0  0
  -30.0280  -24.4681   20.2589 H   0  0  0  0  0  0
  -27.6727  -22.8405   21.3894 H   0  0  0  0  0  0
  -27.3939  -25.4200   21.4660 H   0  0  0  0  0  0
  -29.6015  -22.1574   19.5114 H   0  0  0  0  0  0
  -28.9770  -15.5478   20.7148 H   0  0  0  0  0  0
  1 25  1  0  0  0
  1 30  2  0  0  0
  1 82  1  0  0  0
  2  3  1  0  0  0
  2 25  1  0  0  0
  2 84  1  0  0  0
  2 85  1  0  0  0
  3  4  1  0  0  0
  3 86  1  0  0  0
  3 87  1  0  0  0
  4  5  1  0  0  0
  4 88  1  0  0  0
  4 89  1  0  0  0
  5  6  1  0  0  0
  5 26  1  0  0  0
  5 90  1  0  0  0
  6 25  1  0  0  0
  6 91  1  0  0  0
  6 92  1  0  0  0
  7  8  2  0  0  0
  7 26  1  0  0  0
  7 29  1  0  0  0
  8  9  1  0  0  0
  8 22  1  0  0  0
  9 10  1  0  0  0
  9 27  2  0  0  0
 10 11  2  0  0  0
 10 15  1  0  0  0
 11 12  1  0  0  0
 11 93  1  0  0  0
 12 13  2  0  0  0
 12 94  1  0  0  0
 13 14  1  0  0  0
 13 31  1  0  0  0
 14 15  2  0  0  0
 14 95  1  0  0  0
 15 96  1  0  0  0
 16 17  2  0  0  0
 16 21  1  0  0  0
 16 31  1  0  0  0
 17 18  1  0  0  0
 17 97  1  0  0  0
 18 19  2  0  0  0
 18 98  1  0  0  0
 19 20  1  0  0  0
 19 24  1  0  0  0
 20 21  2  0  0  0
 20 99  1  0  0  0
 21 23  1  0  0  0
 22 28  1  0  0  0
 22 32  2  0  0  0
 26 27  1  0  0  0
 28100  1  0  0  0
 28101  1  0  0  0
 29102  1  0  0  0
 29103  1  0  0  0
 33 34  1  0  0  0
 33 66  1  0  0  0
 33 70  2  0  0  0
 34 36  1  0  0  0
 34 59  1  0  0  0
 34104  1  0  0  0
 35 44  2  0  0  0
 35 45  1  0  0  0
 35 68  1  0  0  0
 36 56  1  0  0  0
 36105  1  0  0  0
 37 39  1  0  0  0
 37 47  1  0  0  0
 37 66  1  0  0  0
 37106  1  0  0  0
 38 43  2  0  0  0
 38 46  1  0  0  0
 38 47  1  0  0  0
 39 64  1  0  0  0
 39 67  2  0  0  0
 40 52  1  0  0  0
 40 53  2  0  0  0
 40 58  1  0  0  0
 41107  1  0  0  0
 41108  1  0  0  0
 41109  1  0  0  0
 41 48  1  0  0  0
 42 43  1  0  0  0
 42 66  1  0  0  0
 42110  1  0  0  0
 42111  1  0  0  0
 43 44  1  0  0  0
 44112  1  0  0  0
 45 46  2  0  0  0
 45113  1  0  0  0
 46114  1  0  0  0
 47115  1  0  0  0
 47116  1  0  0  0
 48 56  1  0  0  0
 48 65  1  0  0  0
 48117  1  0  0  0
 49 50  1  0  0  0
 49 53  1  0  0  0
 49 64  1  0  0  0
 49118  1  0  0  0
 50 51  1  0  0  0
 50119  1  0  0  0
 50120  1  0  0  0
 51 52  1  0  0  0
 51121  1  0  0  0
 51122  1  0  0  0
 52123  1  0  0  0
 52124  1  0  0  0
 53 54  1  0  0  0
 54 55  2  0  0  0
 54125  1  0  0  0
 55 57  1  0  0  0
 55126  1  0  0  0
 56 69  2  0  0  0
 57 58  2  0  0  0
 57127  1  0  0  0
 58128  1  0  0  0
 59 60  1  0  0  0
 59 61  1  0  0  0
 59 62  1  0  0  0
 60129  1  0  0  0
 60130  1  0  0  0
 60131  1  0  0  0
 61132  1  0  0  0
 61133  1  0  0  0
 61134  1  0  0  0
 62135  1  0  0  0
 62136  1  0  0  0
 62137  1  0  0  0
 63 65  1  0  0  0
 63138  1  0  0  0
 63139  1  0  0  0
 63140  1  0  0  0
 64141  1  0  0  0
 65142  1  0  0  0
 68 78  1  0  0  0
 71 75  1  0  0  0
 71 79  2  0  0  0
 71 83  1  0  0  0
 72 80  2  0  0  0
 72 81  1  0  0  0
 72 83  1  0  0  0
 73143  1  0  0  0
 73144  1  0  0  0
 73145  1  0  0  0
 73 77  1  0  0  0
 74146  1  0  0  0
 74147  1  0  0  0
 74148  1  0  0  0
 74 78  1  0  0  0
 75 82  1  0  0  0
 75149  1  0  0  0
 75150  1  0  0  0
 76 77  1  0  0  0
 76 78  1  0  0  0
 76151  1  0  0  0
 76152  1  0  0  0
 77 81  1  0  0  0
 77153  1  0  0  0
 78154  1  0  0  0
 79 80  1  0  0  0
 81155  1  0  0  0
 82156  1  0  0  0
M  ISO  4   1 100  68 101  78 101  82 100
M  END
> <chiral flag>
0

> <version>
0

> <s_m_source_file>
/data/baiqing/PycharmProjects/Reinvent-master-3.2/result/LINK_invent/BTK/process_docking_weight1_custom_product_contain_oxygen_bond_distance_aromatic_linkinvent_7_9_3/rearranged_h_0191.sdf

> <i_m_source_file_index>
16

> <r_mmod_Potential_Energy-OPLS-2005>
-157.115524291992

> <r_mmod_Stretch_Energy-OPLS-2005>
35.7223625183105

> <r_mmod_Bend_Energy-OPLS-2005>
111.560646057129

> <r_mmod_Torsional_Energy-OPLS-2005>
232.033493041992

> <r_mmod_Improper_Torsional_Energy-OPLS-2005>
10.3406419754028

> <r_mmod_Van_der_Waal_Energy-OPLS-2005>
126.895233154297

> <r_mmod_Electrostatic_Energy-OPLS-2005>
-465.617401123047

> <r_mmod_Solvation_Energy-OPLS-2005>
-229.248229980469

> <b_mmod_Minimization_Converged-OPLS-2005>
0

> <r_mmod_RMS_Derivative-OPLS-2005>
2.62398815155029

$$$$
17
                    3D
 Structure written by MMmdl.
161169  0  0  1  0            999 V2000
  -30.7184  -14.4069   20.6703 C   0  0  0  0  0  0
  -30.4353  -12.3041   19.3951 C   0  0  0  0  0  0
  -29.4931  -12.5316   18.1958 C   0  0  0  0  0  0
  -28.0165  -12.3814   18.6114 C   0  0  0  0  0  0
  -27.6719  -13.1962   19.8842 C   0  0  2  0  0  0
  -28.7094  -12.9194   20.9933 C   0  0  0  0  0  0
  -25.2648  -13.8143   20.5670 C   0  0  0  0  0  0
  -24.1875  -13.0436   20.9162 C   0  0  0  0  0  0
  -24.6407  -11.6895   20.8718 C   0  0  0  0  0  0
  -23.9061  -10.4290   21.0402 C   0  0  0  0  0  0
  -24.3612   -9.4203   21.9184 C   0  0  0  0  0  0
  -23.6285   -8.2243   22.0756 C   0  0  0  0  0  0
  -22.4264   -8.0285   21.3551 C   0  0  0  0  0  0
  -21.9900   -9.0255   20.4649 C   0  0  0  0  0  0
  -22.7227  -10.2135   20.3051 C   0  0  0  0  0  0
  -21.6857   -6.0730   22.5273 C   0  0  0  0  0  0
  -21.4018   -6.5634   23.8205 C   0  0  0  0  0  0
  -21.3660   -5.6784   24.9169 C   0  0  0  0  0  0
  -21.6050   -4.3043   24.7217 C   0  0  0  0  0  0
  -21.8824   -3.8139   23.4335 C   0  0  0  0  0  0
  -21.9198   -4.6960   22.3394 C   0  0  0  0  0  0
  -22.7895  -13.5248   21.1814 C   0  0  0  0  0  0
  -22.1660   -4.2148   21.0966 F   0  0  0  0  0  0
  -21.5635   -3.4526   25.7727 F   0  0  0  0  0  0
  -30.0540  -13.2364   20.4660 N   0  0  0  0  0  0
  -26.3085  -12.9289   20.3385 N   0  0  0  0  0  0
  -25.9338  -11.6456   20.5762 N   0  0  0  0  0  0
  -22.0517  -12.8256   22.0368 N   0  0  0  0  0  0
  -25.4418  -15.1859   20.4075 N   0  0  0  0  0  0
  -31.7370  -14.7275   20.0463 O   0  0  0  0  0  0
  -21.6640   -6.8872   21.4234 O   0  0  0  0  0  0
  -22.3589  -14.5551   20.6650 O   0  0  0  0  0  0
  -24.6118  -31.8695   23.2111 C   0  0  0  0  0  0
  -25.9012  -32.4834   23.8408 C   0  0  1  0  0  0
  -27.2378  -27.4555   20.0918 C   0  0  0  0  0  0
  -25.5881  -33.8632   24.2352 N   0  0  0  0  0  0
  -23.3986  -30.4943   21.5495 C   0  0  2  0  0  0
  -24.8435  -28.9551   20.1197 C   0  0  0  0  0  0
  -22.7380  -29.4686   22.4980 C   0  0  0  0  0  0
  -18.0274  -28.1404   22.8481 C   0  0  0  0  0  0
  -24.1486  -36.7324   23.2640 C   0  0  0  0  0  0
  -25.9228  -30.8448   21.3553 C   0  0  0  0  0  0
  -26.0018  -29.4773   20.7081 C   0  0  0  0  0  0
  -27.2016  -28.7356   20.6863 C   0  0  0  0  0  0
  -26.0604  -26.9344   19.5109 C   0  0  0  0  0  0
  -24.8660  -27.6819   19.5224 C   0  0  0  0  0  0
  -23.6071  -29.8243   20.1645 C   0  0  0  0  0  0
  -25.4103  -36.3123   24.0347 C   0  0  1  0  0  0
  -20.5858  -28.3690   23.1317 C   0  0  2  0  0  0
  -20.6770  -26.9430   22.5417 C   0  0  0  0  0  0
  -19.5755  -26.6409   21.5207 C   0  0  0  0  0  0
  -18.1929  -26.7951   22.1613 C   0  0  0  0  0  0
  -19.1519  -28.8856   23.2904 C   0  0  0  0  0  0
  -18.9451  -30.1458   23.8927 C   0  0  0  0  0  0
  -17.6456  -30.6600   24.0582 C   0  0  0  0  0  0
  -25.9025  -34.9482   23.5148 C   0  0  0  0  0  0
  -16.5348  -29.9116   23.6321 C   0  0  0  0  0  0
  -16.7263  -28.6537   23.0327 C   0  0  0  0  0  0
  -26.4468  -31.6596   25.0713 C   0  0  0  0  0  0
  -25.3778  -31.3656   26.1489 C   0  0  0  0  0  0
  -27.0279  -30.3055   24.6023 C   0  0  0  0  0  0
  -27.6062  -32.4304   25.7459 C   0  0  0  0  0  0
  -27.5582  -37.1815   24.8465 C   0  0  0  0  0  0
  -21.4110  -29.3060   22.3716 N   0  0  0  0  0  0
  -26.4291  -37.3802   23.9415 N   0  0  0  0  0  0
  -24.6630  -31.0827   22.0990 N   0  0  0  0  0  0
  -23.4162  -28.8221   23.3006 O   0  0  0  0  0  0
  -28.4367  -26.7809   20.0564 O   0  0  0  0  0  0
  -26.5579  -34.8924   22.4706 O   0  0  0  0  0  0
  -23.5316  -32.1423   23.7537 O   0  0  0  0  0  0
  -29.8936  -19.1192   22.6474 C   0  0  0  0  0  0
  -29.8114  -16.8992   23.2112 C   0  0  0  0  0  0
  -30.2656  -18.7844   21.3204 C   0  0  0  0  0  0
  -30.1881  -16.5239   21.8987 C   0  0  0  0  0  0
  -29.8766  -22.3277   20.4650 C   0  0  0  0  0  0
  -31.6464  -19.5980   19.3252 C   0  0  0  0  0  0
  -29.9119  -24.9506   20.3997 C   0  0  0  0  0  0
  -28.4320  -25.3647   20.2486 C   0  0  0  0  0  0
  -30.4329  -19.8660   20.2340 C   0  0  2  0  0  0
  -30.2221  -23.6520   21.1990 C   0  0  2  0  0  0
  -29.6675  -18.1849   23.5962 N   0  0  0  0  0  0
  -30.3998  -17.4785   20.9479 N   0  0  0  0  0  0
  -30.2247  -15.1248   21.6867 N   0  0  0  0  0  0
  -30.5810  -21.2230   20.7875 N   0  0  0  0  0  0
  -31.6306  -23.6748   21.6485 N   0  3  0  0  0  0
  -28.9889  -22.3058   19.6112 O   0  0  0  0  0  0
  -31.4757  -12.4299   19.0887 H   0  0  0  0  0  0
  -30.3563  -11.2770   19.7550 H   0  0  0  0  0  0
  -29.7270  -11.8306   17.3939 H   0  0  0  0  0  0
  -29.6594  -13.5296   17.7886 H   0  0  0  0  0  0
  -27.8246  -11.3216   18.7864 H   0  0  0  0  0  0
  -27.3626  -12.6773   17.7899 H   0  0  0  0  0  0
  -27.7339  -14.2522   19.6233 H   0  0  0  0  0  0
  -28.6810  -11.8678   21.2829 H   0  0  0  0  0  0
  -28.4399  -13.4646   21.8981 H   0  0  0  0  0  0
  -25.2765   -9.5677   22.4749 H   0  0  0  0  0  0
  -23.9997   -7.4637   22.7471 H   0  0  0  0  0  0
  -21.0836   -8.8759   19.8952 H   0  0  0  0  0  0
  -22.3685  -10.9666   19.6147 H   0  0  0  0  0  0
  -21.2005   -7.6138   23.9704 H   0  0  0  0  0  0
  -21.1482   -6.0514   25.9071 H   0  0  0  0  0  0
  -22.0608   -2.7603   23.2831 H   0  0  0  0  0  0
  -22.4104  -11.9904   22.4753 H   0  0  0  0  0  0
  -21.1138  -13.1299   22.2549 H   0  0  0  0  0  0
  -24.6846  -15.8504   20.5251 H   0  0  0  0  0  0
  -26.3010  -15.6174   20.0898 H   0  0  0  0  0  0
  -26.7078  -32.5562   23.1173 H   0  0  0  0  0  0
  -25.0047  -33.9804   25.0508 H   0  0  0  0  0  0
  -22.6877  -31.3115   21.4099 H   0  0  0  0  0  0
  -23.3739  -35.9664   23.3309 H   0  0  0  0  0  0
  -24.3585  -36.8928   22.2053 H   0  0  0  0  0  0
  -23.7238  -37.6536   23.6640 H   0  0  0  0  0  0
  -26.0210  -31.6101   20.5842 H   0  0  0  0  0  0
  -26.8154  -30.9091   21.9652 H   0  0  0  0  0  0
  -28.0999  -29.1420   21.1294 H   0  0  0  0  0  0
  -26.0598  -25.9670   19.0298 H   0  0  0  0  0  0
  -23.9731  -27.2745   19.0686 H   0  0  0  0  0  0
  -23.7218  -30.6001   19.4060 H   0  0  0  0  0  0
  -22.7305  -29.2486   19.8637 H   0  0  0  0  0  0
  -25.1277  -36.1999   25.0839 H   0  0  0  0  0  0
  -20.9962  -28.3267   24.1433 H   0  0  0  0  0  0
  -20.5681  -26.2300   23.3602 H   0  0  0  0  0  0
  -21.6644  -26.7488   22.1209 H   0  0  0  0  0  0
  -19.6925  -25.6320   21.1239 H   0  0  0  0  0  0
  -19.6710  -27.3220   20.6738 H   0  0  0  0  0  0
  -17.4203  -26.6694   21.4011 H   0  0  0  0  0  0
  -18.0338  -26.0096   22.9014 H   0  0  0  0  0  0
  -19.7927  -30.7263   24.2315 H   0  0  0  0  0  0
  -17.5018  -31.6282   24.5190 H   0  0  0  0  0  0
  -15.5355  -30.3040   23.7629 H   0  0  0  0  0  0
  -15.8658  -28.0884   22.7014 H   0  0  0  0  0  0
  -24.5954  -30.6995   25.7830 H   0  0  0  0  0  0
  -24.8966  -32.2790   26.4995 H   0  0  0  0  0  0
  -25.8186  -30.8792   27.0204 H   0  0  0  0  0  0
  -26.2774  -29.6811   24.1159 H   0  0  0  0  0  0
  -27.4166  -29.7288   25.4425 H   0  0  0  0  0  0
  -27.8562  -30.4392   23.9062 H   0  0  0  0  0  0
  -27.2696  -33.3587   26.2082 H   0  0  0  0  0  0
  -28.3841  -32.6888   25.0264 H   0  0  0  0  0  0
  -28.0763  -31.8401   26.5332 H   0  0  0  0  0  0
  -28.2599  -38.0112   24.7513 H   0  0  0  0  0  0
  -28.1080  -36.2643   24.6288 H   0  0  0  0  0  0
  -27.2304  -37.1471   25.8870 H   0  0  0  0  0  0
  -20.9257  -29.8790   21.6952 H   0  0  0  0  0  0
  -26.0185  -38.2879   24.1434 H   0  0  0  0  0  0
  -29.7497  -20.1441   22.9558 H   0  0  0  0  0  0
  -29.6103  -16.1530   23.9660 H   0  0  0  0  0  0
  -31.5414  -18.6508   18.7957 H   0  0  0  0  0  0
  -32.5753  -19.5595   19.8953 H   0  0  0  0  0  0
  -31.7464  -20.3760   18.5677 H   0  0  0  0  0  0
  -30.4014  -25.7715   20.9253 H   0  0  0  0  0  0
  -30.3813  -24.9154   19.4156 H   0  0  0  0  0  0
  -27.8648  -25.1237   21.1492 H   0  0  0  0  0  0
  -27.9725  -24.8441   19.4079 H   0  0  0  0  0  0
  -29.5319  -19.8184   19.6196 H   0  0  0  0  0  0
  -29.6127  -23.6695   22.1036 H   0  0  0  0  0  0
  -29.6115  -14.5975   22.2874 H   0  0  0  0  0  0
  -31.2812  -21.3024   21.5080 H   0  0  0  0  0  0
  -32.2495  -23.5347   20.8689 H   0  0  0  0  0  0
  -31.8068  -22.9696   22.3395 H   0  0  0  0  0  0
  -31.8443  -24.5625   22.0652 H   0  0  0  0  0  0
  1 25  1  0  0  0
  1 30  2  0  0  0
  1 83  1  0  0  0
  2  3  1  0  0  0
  2 25  1  0  0  0
  2 87  1  0  0  0
  2 88  1  0  0  0
  3  4  1  0  0  0
  3 89  1  0  0  0
  3 90  1  0  0  0
  4  5  1  0  0  0
  4 91  1  0  0  0
  4 92  1  0  0  0
  5  6  1  0  0  0
  5 26  1  0  0  0
  5 93  1  0  0  0
  6 25  1  0  0  0
  6 94  1  0  0  0
  6 95  1  0  0  0
  7  8  2  0  0  0
  7 26  1  0  0  0
  7 29  1  0  0  0
  8  9  1  0  0  0
  8 22  1  0  0  0
  9 10  1  0  0  0
  9 27  2  0  0  0
 10 11  2  0  0  0
 10 15  1  0  0  0
 11 12  1  0  0  0
 11 96  1  0  0  0
 12 13  2  0  0  0
 12 97  1  0  0  0
 13 14  1  0  0  0
 13 31  1  0  0  0
 14 15  2  0  0  0
 14 98  1  0  0  0
 15 99  1  0  0  0
 16 17  2  0  0  0
 16 21  1  0  0  0
 16 31  1  0  0  0
 17 18  1  0  0  0
 17100  1  0  0  0
 18 19  2  0  0  0
 18101  1  0  0  0
 19 20  1  0  0  0
 19 24  1  0  0  0
 20 21  2  0  0  0
 20102  1  0  0  0
 21 23  1  0  0  0
 22 28  1  0  0  0
 22 32  2  0  0  0
 26 27  1  0  0  0
 28103  1  0  0  0
 28104  1  0  0  0
 29105  1  0  0  0
 29106  1  0  0  0
 33 34  1  0  0  0
 33 66  1  0  0  0
 33 70  2  0  0  0
 34 36  1  0  0  0
 34 59  1  0  0  0
 34107  1  0  0  0
 35 44  2  0  0  0
 35 45  1  0  0  0
 35 68  1  0  0  0
 36 56  1  0  0  0
 36108  1  0  0  0
 37 39  1  0  0  0
 37 47  1  0  0  0
 37 66  1  0  0  0
 37109  1  0  0  0
 38 43  2  0  0  0
 38 46  1  0  0  0
 38 47  1  0  0  0
 39 64  1  0  0  0
 39 67  2  0  0  0
 40 52  1  0  0  0
 40 53  2  0  0  0
 40 58  1  0  0  0
 41110  1  0  0  0
 41111  1  0  0  0
 41112  1  0  0  0
 41 48  1  0  0  0
 42 43  1  0  0  0
 42 66  1  0  0  0
 42113  1  0  0  0
 42114  1  0  0  0
 43 44  1  0  0  0
 44115  1  0  0  0
 45 46  2  0  0  0
 45116  1  0  0  0
 46117  1  0  0  0
 47118  1  0  0  0
 47119  1  0  0  0
 48 56  1  0  0  0
 48 65  1  0  0  0
 48120  1  0  0  0
 49 50  1  0  0  0
 49 53  1  0  0  0
 49 64  1  0  0  0
 49121  1  0  0  0
 50 51  1  0  0  0
 50122  1  0  0  0
 50123  1  0  0  0
 51 52  1  0  0  0
 51124  1  0  0  0
 51125  1  0  0  0
 52126  1  0  0  0
 52127  1  0  0  0
 53 54  1  0  0  0
 54 55  2  0  0  0
 54128  1  0  0  0
 55 57  1  0  0  0
 55129  1  0  0  0
 56 69  2  0  0  0
 57 58  2  0  0  0
 57130  1  0  0  0
 58131  1  0  0  0
 59 60  1  0  0  0
 59 61  1  0  0  0
 59 62  1  0  0  0
 60132  1  0  0  0
 60133  1  0  0  0
 60134  1  0  0  0
 61135  1  0  0  0
 61136  1  0  0  0
 61137  1  0  0  0
 62138  1  0  0  0
 62139  1  0  0  0
 62140  1  0  0  0
 63 65  1  0  0  0
 63141  1  0  0  0
 63142  1  0  0  0
 63143  1  0  0  0
 64144  1  0  0  0
 65145  1  0  0  0
 68 78  1  0  0  0
 71 73  2  0  0  0
 71 81  1  0  0  0
 71146  1  0  0  0
 72 74  1  0  0  0
 72 81  2  0  0  0
 72147  1  0  0  0
 73 79  1  0  0  0
 73 82  1  0  0  0
 74 82  2  0  0  0
 74 83  1  0  0  0
 75 80  1  0  0  0
 75 84  1  0  0  0
 75 86  2  0  0  0
 76148  1  0  0  0
 76149  1  0  0  0
 76150  1  0  0  0
 76 79  1  0  0  0
 77 78  1  0  0  0
 77 80  1  0  0  0
 77151  1  0  0  0
 77152  1  0  0  0
 78153  1  0  0  0
 78154  1  0  0  0
 79 84  1  0  0  0
 79155  1  0  0  0
 80 85  1  0  0  0
 80156  1  0  0  0
 83157  1  0  0  0
 84158  1  0  0  0
 85159  1  0  0  0
 85160  1  0  0  0
 85161  1  0  0  0
M  CHG  1  85   1
M  ISO  4   1 100  68 101  78 101  83 100
M  END
> <chiral flag>
0

> <version>
0

> <s_m_source_file>
/data/baiqing/PycharmProjects/Reinvent-master-3.2/result/LINK_invent/BTK/process_docking_weight1_custom_product_contain_oxygen_bond_distance_aromatic_linkinvent_7_9_3/rearranged_h_0191.sdf

> <i_m_source_file_index>
17

> <r_mmod_Potential_Energy-OPLS-2005>
-448.605072021484

> <r_mmod_Stretch_Energy-OPLS-2005>
39.8657646179199

> <r_mmod_Bend_Energy-OPLS-2005>
110.240859985352

> <r_mmod_Torsional_Energy-OPLS-2005>
204.901901245117

> <r_mmod_Improper_Torsional_Energy-OPLS-2005>
3.61441993713379

> <r_mmod_Van_der_Waal_Energy-OPLS-2005>
164.531005859375

> <r_mmod_Electrostatic_Energy-OPLS-2005>
-407.384887695312

> <r_mmod_Solvation_Energy-OPLS-2005>
-572.846801757812

> <b_mmod_Minimization_Converged-OPLS-2005>
0

> <r_mmod_RMS_Derivative-OPLS-2005>
1.55409300327301

$$$$
18
                    3D
 Structure written by MMmdl.
162170  0  0  1  0            999 V2000
  -30.6304  -14.5742   20.5826 C   0  0  0  0  0  0
  -30.4458  -12.3734   19.4337 C   0  0  0  0  0  0
  -29.5066  -12.5277   18.2159 C   0  0  0  0  0  0
  -28.0285  -12.3652   18.6250 C   0  0  0  0  0  0
  -27.6624  -13.2069   19.8753 C   0  0  2  0  0  0
  -28.7035  -12.9894   20.9965 C   0  0  0  0  0  0
  -25.2576  -13.8135   20.5644 C   0  0  0  0  0  0
  -24.1840  -13.0421   20.9180 C   0  0  0  0  0  0
  -24.6396  -11.6891   20.8730 C   0  0  0  0  0  0
  -23.9056  -10.4285   21.0406 C   0  0  0  0  0  0
  -24.3609   -9.4203   21.9183 C   0  0  0  0  0  0
  -23.6289   -8.2237   22.0753 C   0  0  0  0  0  0
  -22.4270   -8.0276   21.3545 C   0  0  0  0  0  0
  -21.9902   -9.0247   20.4649 C   0  0  0  0  0  0
  -22.7227  -10.2129   20.3057 C   0  0  0  0  0  0
  -21.6852   -6.0733   22.5281 C   0  0  0  0  0  0
  -21.4012   -6.5639   23.8214 C   0  0  0  0  0  0
  -21.3659   -5.6789   24.9176 C   0  0  0  0  0  0
  -21.6044   -4.3052   24.7226 C   0  0  0  0  0  0
  -21.8819   -3.8144   23.4347 C   0  0  0  0  0  0
  -21.9192   -4.6961   22.3404 C   0  0  0  0  0  0
  -22.7865  -13.5232   21.1844 C   0  0  0  0  0  0
  -22.1661   -4.2148   21.0981 F   0  0  0  0  0  0
  -21.5632   -3.4534   25.7737 F   0  0  0  0  0  0
  -30.0319  -13.3483   20.4603 N   0  0  0  0  0  0
  -26.3023  -12.9310   20.3335 N   0  0  0  0  0  0
  -25.9324  -11.6475   20.5746 N   0  0  0  0  0  0
  -22.0496  -12.8237   22.0403 N   0  0  0  0  0  0
  -25.4259  -15.1843   20.3984 N   0  0  0  0  0  0
  -31.7212  -14.8294   20.0601 O   0  0  0  0  0  0
  -21.6636   -6.8873   21.4243 O   0  0  0  0  0  0
  -22.3559  -14.5541   20.6691 O   0  0  0  0  0  0
  -24.6220  -31.8630   23.2048 C   0  0  0  0  0  0
  -25.9087  -32.4796   23.8363 C   0  0  1  0  0  0
  -27.2314  -27.3598   20.1177 C   0  0  0  0  0  0
  -25.5920  -33.8593   24.2297 N   0  0  0  0  0  0
  -23.4134  -30.4860   21.5465 C   0  0  2  0  0  0
  -24.8606  -28.9409   20.1165 C   0  0  0  0  0  0
  -22.7449  -29.4643   22.4959 C   0  0  0  0  0  0
  -18.0284  -28.1384   22.8492 C   0  0  0  0  0  0
  -24.1489  -36.7302   23.2637 C   0  0  0  0  0  0
  -25.9492  -30.8071   21.3684 C   0  0  0  0  0  0
  -26.0255  -29.4350   20.7167 C   0  0  0  0  0  0
  -27.2145  -28.6560   20.7061 C   0  0  0  0  0  0
  -26.0469  -26.9042   19.4979 C   0  0  0  0  0  0
  -24.8706  -27.6790   19.4998 C   0  0  0  0  0  0
  -23.6267  -29.8175   20.1625 C   0  0  0  0  0  0
  -25.4110  -36.3096   24.0335 C   0  0  1  0  0  0
  -20.5879  -28.3685   23.1302 C   0  0  2  0  0  0
  -20.6775  -26.9416   22.5416 C   0  0  0  0  0  0
  -19.5752  -26.6391   21.5218 C   0  0  0  0  0  0
  -18.1930  -26.7930   22.1627 C   0  0  0  0  0  0
  -19.1531  -28.8850   23.2895 C   0  0  0  0  0  0
  -18.9456  -30.1452   23.8912 C   0  0  0  0  0  0
  -17.6456  -30.6590   24.0565 C   0  0  0  0  0  0
  -25.9044  -34.9463   23.5114 C   0  0  0  0  0  0
  -16.5350  -29.9091   23.6325 C   0  0  0  0  0  0
  -16.7270  -28.6505   23.0353 C   0  0  0  0  0  0
  -26.4486  -31.6591   25.0716 C   0  0  0  0  0  0
  -25.3731  -31.3720   26.1451 C   0  0  0  0  0  0
  -27.0317  -30.3022   24.6133 C   0  0  0  0  0  0
  -27.6062  -32.4309   25.7479 C   0  0  0  0  0  0
  -27.5583  -37.1802   24.8461 C   0  0  0  0  0  0
  -21.4168  -29.3044   22.3698 N   0  0  0  0  0  0
  -26.4291  -37.3788   23.9412 N   0  0  0  0  0  0
  -24.6801  -31.0677   22.0979 N   0  0  0  0  0  0
  -23.4190  -28.8191   23.3031 O   0  0  0  0  0  0
  -28.3827  -26.5745   20.1098 O   0  0  0  0  0  0
  -26.5606  -34.8928   22.4677 O   0  0  0  0  0  0
  -23.5395  -32.1410   23.7405 O   0  0  0  0  0  0
  -29.4896  -19.0442   20.7395 C   0  0  0  0  0  0
  -29.5310  -16.8411   21.1232 C   0  0  0  0  0  0
  -29.8448  -21.5697   17.6069 C   0  0  0  0  0  0
  -27.7107  -20.3908   18.2776 C   0  0  0  0  0  0
  -29.9347  -22.9332   22.0832 C   0  0  0  0  0  0
  -29.4764  -24.2888   19.9360 C   0  0  0  0  0  0
  -28.2751  -25.1538   20.4642 C   0  0  0  0  0  0
  -28.6782  -21.5390   18.6120 C   0  0  0  0  0  0
  -29.8574  -22.8648   20.5484 C   0  0  2  0  0  0
  -29.1446  -21.5195   20.0933 C   0  0  2  0  0  0
  -30.2339  -17.8991   20.6565 N   0  0  0  0  0  0
  -28.2472  -18.9530   21.2399 N   0  0  0  0  0  0
  -29.9902  -20.3132   20.3540 N   0  0  0  0  0  0
  -29.9301  -15.4654   21.3269 N   0  0  0  0  0  0
  -27.9491  -17.3441   21.6607 S   0  0  0  0  0  0
  -31.4850  -12.5141   19.1309 H   0  0  0  0  0  0
  -30.3895  -11.3604   19.8350 H   0  0  0  0  0  0
  -29.7635  -11.7972   17.4476 H   0  0  0  0  0  0
  -29.6533  -13.5094   17.7625 H   0  0  0  0  0  0
  -27.8554  -11.3078   18.8290 H   0  0  0  0  0  0
  -27.3751  -12.6247   17.7911 H   0  0  0  0  0  0
  -27.7029  -14.2546   19.5761 H   0  0  0  0  0  0
  -28.7055  -11.9439   21.3090 H   0  0  0  0  0  0
  -28.4313  -13.5489   21.8919 H   0  0  0  0  0  0
  -25.2757   -9.5682   22.4752 H   0  0  0  0  0  0
  -24.0003   -7.4628   22.7469 H   0  0  0  0  0  0
  -21.0835   -8.8763   19.8953 H   0  0  0  0  0  0
  -22.3686  -10.9665   19.6163 H   0  0  0  0  0  0
  -21.2002   -7.6146   23.9718 H   0  0  0  0  0  0
  -21.1483   -6.0518   25.9080 H   0  0  0  0  0  0
  -22.0598   -2.7606   23.2844 H   0  0  0  0  0  0
  -22.4101  -11.9900   22.4804 H   0  0  0  0  0  0
  -21.1116  -13.1274   22.2600 H   0  0  0  0  0  0
  -24.6441  -15.8259   20.4756 H   0  0  0  0  0  0
  -26.2504  -15.6109   19.9980 H   0  0  0  0  0  0
  -26.7156  -32.5485   23.1118 H   0  0  0  0  0  0
  -25.0078  -33.9738   25.0450 H   0  0  0  0  0  0
  -22.7055  -31.3053   21.4040 H   0  0  0  0  0  0
  -23.3755  -35.9631   23.3294 H   0  0  0  0  0  0
  -24.3587  -36.8922   22.2053 H   0  0  0  0  0  0
  -23.7237  -37.6503   23.6654 H   0  0  0  0  0  0
  -26.0697  -31.5700   20.5981 H   0  0  0  0  0  0
  -26.8339  -30.8609   21.9913 H   0  0  0  0  0  0
  -28.1135  -29.0364   21.1707 H   0  0  0  0  0  0
  -26.0209  -25.9491   18.9946 H   0  0  0  0  0  0
  -23.9789  -27.2985   19.0209 H   0  0  0  0  0  0
  -23.7436  -30.5925   19.4040 H   0  0  0  0  0  0
  -22.7479  -29.2438   19.8625 H   0  0  0  0  0  0
  -25.1287  -36.1951   25.0827 H   0  0  0  0  0  0
  -20.9970  -28.3259   24.1424 H   0  0  0  0  0  0
  -20.5694  -26.2292   23.3608 H   0  0  0  0  0  0
  -21.6644  -26.7463   22.1200 H   0  0  0  0  0  0
  -19.6917  -25.6303   21.1246 H   0  0  0  0  0  0
  -19.6695  -27.3203   20.6750 H   0  0  0  0  0  0
  -17.4204  -26.6686   21.4025 H   0  0  0  0  0  0
  -18.0328  -26.0069   22.9019 H   0  0  0  0  0  0
  -19.7930  -30.7260   24.2298 H   0  0  0  0  0  0
  -17.5012  -31.6273   24.5160 H   0  0  0  0  0  0
  -15.5350  -30.2998   23.7639 H   0  0  0  0  0  0
  -15.8672  -28.0827   22.7065 H   0  0  0  0  0  0
  -24.5900  -30.7076   25.7780 H   0  0  0  0  0  0
  -24.8926  -32.2883   26.4889 H   0  0  0  0  0  0
  -25.8062  -30.8886   27.0216 H   0  0  0  0  0  0
  -26.2872  -29.6781   24.1174 H   0  0  0  0  0  0
  -27.4053  -29.7267   25.4614 H   0  0  0  0  0  0
  -27.8727  -30.4321   23.9317 H   0  0  0  0  0  0
  -27.2692  -33.3610   26.2068 H   0  0  0  0  0  0
  -28.3868  -32.6864   25.0299 H   0  0  0  0  0  0
  -28.0735  -31.8420   26.5382 H   0  0  0  0  0  0
  -28.2593  -38.0108   24.7523 H   0  0  0  0  0  0
  -28.1087  -36.2640   24.6264 H   0  0  0  0  0  0
  -27.2304  -37.1427   25.8864 H   0  0  0  0  0  0
  -20.9343  -29.8751   21.6897 H   0  0  0  0  0  0
  -26.0176  -38.2865   24.1420 H   0  0  0  0  0  0
  -29.4749  -21.6717   16.5862 H   0  0  0  0  0  0
  -30.4366  -20.6550   17.6484 H   0  0  0  0  0  0
  -30.5173  -22.4071   17.7902 H   0  0  0  0  0  0
  -27.2836  -20.5171   17.2825 H   0  0  0  0  0  0
  -26.8807  -20.3542   18.9842 H   0  0  0  0  0  0
  -28.2084  -19.4214   18.2945 H   0  0  0  0  0  0
  -30.5280  -23.7866   22.4132 H   0  0  0  0  0  0
  -30.3984  -22.0374   22.4976 H   0  0  0  0  0  0
  -28.9435  -23.0222   22.5282 H   0  0  0  0  0  0
  -30.3573  -24.9106   20.1000 H   0  0  0  0  0  0
  -29.4092  -24.2278   18.8510 H   0  0  0  0  0  0
  -28.2441  -25.1086   21.5525 H   0  0  0  0  0  0
  -27.3485  -24.6958   20.1225 H   0  0  0  0  0  0
  -28.0944  -22.4487   18.4686 H   0  0  0  0  0  0
  -30.8884  -22.7382   20.2136 H   0  0  0  0  0  0
  -28.2411  -21.4422   20.7005 H   0  0  0  0  0  0
  -30.9213  -20.3185   19.9570 H   0  0  0  0  0  0
  -29.2382  -14.9647   21.8631 H   0  0  0  0  0  0
  1 25  1  0  0  0
  1 30  2  0  0  0
  1 84  1  0  0  0
  2  3  1  0  0  0
  2 25  1  0  0  0
  2 86  1  0  0  0
  2 87  1  0  0  0
  3  4  1  0  0  0
  3 88  1  0  0  0
  3 89  1  0  0  0
  4  5  1  0  0  0
  4 90  1  0  0  0
  4 91  1  0  0  0
  5  6  1  0  0  0
  5 26  1  0  0  0
  5 92  1  0  0  0
  6 25  1  0  0  0
  6 93  1  0  0  0
  6 94  1  0  0  0
  7  8  2  0  0  0
  7 26  1  0  0  0
  7 29  1  0  0  0
  8  9  1  0  0  0
  8 22  1  0  0  0
  9 10  1  0  0  0
  9 27  2  0  0  0
 10 11  2  0  0  0
 10 15  1  0  0  0
 11 12  1  0  0  0
 11 95  1  0  0  0
 12 13  2  0  0  0
 12 96  1  0  0  0
 13 14  1  0  0  0
 13 31  1  0  0  0
 14 15  2  0  0  0
 14 97  1  0  0  0
 15 98  1  0  0  0
 16 17  2  0  0  0
 16 21  1  0  0  0
 16 31  1  0  0  0
 17 18  1  0  0  0
 17 99  1  0  0  0
 18 19  2  0  0  0
 18100  1  0  0  0
 19 20  1  0  0  0
 19 24  1  0  0  0
 20 21  2  0  0  0
 20101  1  0  0  0
 21 23  1  0  0  0
 22 28  1  0  0  0
 22 32  2  0  0  0
 26 27  1  0  0  0
 28102  1  0  0  0
 28103  1  0  0  0
 29104  1  0  0  0
 29105  1  0  0  0
 33 34  1  0  0  0
 33 66  1  0  0  0
 33 70  2  0  0  0
 34 36  1  0  0  0
 34 59  1  0  0  0
 34106  1  0  0  0
 35 44  2  0  0  0
 35 45  1  0  0  0
 35 68  1  0  0  0
 36 56  1  0  0  0
 36107  1  0  0  0
 37 39  1  0  0  0
 37 47  1  0  0  0
 37 66  1  0  0  0
 37108  1  0  0  0
 38 43  2  0  0  0
 38 46  1  0  0  0
 38 47  1  0  0  0
 39 64  1  0  0  0
 39 67  2  0  0  0
 40 52  1  0  0  0
 40 53  2  0  0  0
 40 58  1  0  0  0
 41109  1  0  0  0
 41110  1  0  0  0
 41111  1  0  0  0
 41 48  1  0  0  0
 42 43  1  0  0  0
 42 66  1  0  0  0
 42112  1  0  0  0
 42113  1  0  0  0
 43 44  1  0  0  0
 44114  1  0  0  0
 45 46  2  0  0  0
 45115  1  0  0  0
 46116  1  0  0  0
 47117  1  0  0  0
 47118  1  0  0  0
 48 56  1  0  0  0
 48 65  1  0  0  0
 48119  1  0  0  0
 49 50  1  0  0  0
 49 53  1  0  0  0
 49 64  1  0  0  0
 49120  1  0  0  0
 50 51  1  0  0  0
 50121  1  0  0  0
 50122  1  0  0  0
 51 52  1  0  0  0
 51123  1  0  0  0
 51124  1  0  0  0
 52125  1  0  0  0
 52126  1  0  0  0
 53 54  1  0  0  0
 54 55  2  0  0  0
 54127  1  0  0  0
 55 57  1  0  0  0
 55128  1  0  0  0
 56 69  2  0  0  0
 57 58  2  0  0  0
 57129  1  0  0  0
 58130  1  0  0  0
 59 60  1  0  0  0
 59 61  1  0  0  0
 59 62  1  0  0  0
 60131  1  0  0  0
 60132  1  0  0  0
 60133  1  0  0  0
 61134  1  0  0  0
 61135  1  0  0  0
 61136  1  0  0  0
 62137  1  0  0  0
 62138  1  0  0  0
 62139  1  0  0  0
 63 65  1  0  0  0
 63140  1  0  0  0
 63141  1  0  0  0
 63142  1  0  0  0
 64143  1  0  0  0
 65144  1  0  0  0
 68 77  1  0  0  0
 71 81  1  0  0  0
 71 82  2  0  0  0
 71 83  1  0  0  0
 72 81  2  0  0  0
 72 84  1  0  0  0
 72 85  1  0  0  0
 73145  1  0  0  0
 73146  1  0  0  0
 73147  1  0  0  0
 73 78  1  0  0  0
 74 78  1  0  0  0
 74148  1  0  0  0
 74149  1  0  0  0
 74150  1  0  0  0
 75151  1  0  0  0
 75152  1  0  0  0
 75153  1  0  0  0
 75 79  1  0  0  0
 76 77  1  0  0  0
 76 79  1  0  0  0
 76154  1  0  0  0
 76155  1  0  0  0
 77156  1  0  0  0
 77157  1  0  0  0
 78 80  1  0  0  0
 78158  1  0  0  0
 79 80  1  0  0  0
 79159  1  0  0  0
 80 83  1  0  0  0
 80160  1  0  0  0
 82 85  1  0  0  0
 83161  1  0  0  0
 84162  1  0  0  0
M  ISO  4   1 100  68 101  77 101  84 100
M  END
> <chiral flag>
0

> <version>
0

> <s_m_source_file>
/data/baiqing/PycharmProjects/Reinvent-master-3.2/result/LINK_invent/BTK/process_docking_weight1_custom_product_contain_oxygen_bond_distance_aromatic_linkinvent_7_9_3/rearranged_h_0191.sdf

> <i_m_source_file_index>
18

> <r_mmod_Potential_Energy-OPLS-2005>
-92.3336791992188

> <r_mmod_Stretch_Energy-OPLS-2005>
64.2990798950195

> <r_mmod_Bend_Energy-OPLS-2005>
172.702514648438

> <r_mmod_Torsional_Energy-OPLS-2005>
259.491394042969

> <r_mmod_Improper_Torsional_Energy-OPLS-2005>
6.22747039794922

> <r_mmod_Van_der_Waal_Energy-OPLS-2005>
118.618301391602

> <r_mmod_Electrostatic_Energy-OPLS-2005>
-524.56494140625

> <r_mmod_Solvation_Energy-OPLS-2005>
-218.239013671875

> <b_mmod_Minimization_Converged-OPLS-2005>
0

> <r_mmod_RMS_Derivative-OPLS-2005>
0.522152900695801

$$$$
19
                    3D
 Structure written by MMmdl.
160168  0  0  1  0            999 V2000
  -30.6528  -14.5770   20.4925 C   0  0  0  0  0  0
  -30.4176  -12.3445   19.4523 C   0  0  0  0  0  0
  -29.4911  -12.4732   18.2262 C   0  0  0  0  0  0
  -28.0154  -12.3222   18.6445 C   0  0  0  0  0  0
  -27.6444  -13.2127   19.8628 C   0  0  2  0  0  0
  -28.6881  -13.0760   20.9904 C   0  0  0  0  0  0
  -25.2526  -13.8093   20.5907 C   0  0  0  0  0  0
  -24.1832  -13.0373   20.9415 C   0  0  0  0  0  0
  -24.6379  -11.6848   20.8783 C   0  0  0  0  0  0
  -23.9090  -10.4229   21.0377 C   0  0  0  0  0  0
  -24.3639   -9.4161   21.9189 C   0  0  0  0  0  0
  -23.6320   -8.2213   22.0722 C   0  0  0  0  0  0
  -22.4298   -8.0249   21.3508 C   0  0  0  0  0  0
  -21.9954   -9.0216   20.4614 C   0  0  0  0  0  0
  -22.7281  -10.2122   20.3023 C   0  0  0  0  0  0
  -21.6846   -6.0710   22.5235 C   0  0  0  0  0  0
  -21.4070   -6.5637   23.8166 C   0  0  0  0  0  0
  -21.3689   -5.6798   24.9153 C   0  0  0  0  0  0
  -21.6052   -4.3057   24.7221 C   0  0  0  0  0  0
  -21.8837   -3.8146   23.4337 C   0  0  0  0  0  0
  -21.9205   -4.6939   22.3401 C   0  0  0  0  0  0
  -22.7834  -13.5112   21.2201 C   0  0  0  0  0  0
  -22.1660   -4.2141   21.0967 F   0  0  0  0  0  0
  -21.5666   -3.4546   25.7734 F   0  0  0  0  0  0
  -30.0031  -13.3803   20.4166 N   0  0  0  0  0  0
  -26.2948  -12.9320   20.3374 N   0  0  0  0  0  0
  -25.9258  -11.6446   20.5671 N   0  0  0  0  0  0
  -22.0644  -12.8003   22.0805 N   0  0  0  0  0  0
  -25.4283  -15.1831   20.4459 N   0  0  0  0  0  0
  -31.8223  -14.7002   20.1234 O   0  0  0  0  0  0
  -21.6635   -6.8865   21.4200 O   0  0  0  0  0  0
  -22.3420  -14.5394   20.7063 O   0  0  0  0  0  0
  -24.6195  -31.8618   23.2066 C   0  0  0  0  0  0
  -25.9075  -32.4778   23.8371 C   0  0  1  0  0  0
  -27.2309  -27.3728   20.1045 C   0  0  0  0  0  0
  -25.5942  -33.8576   24.2304 N   0  0  0  0  0  0
  -23.4112  -30.4842   21.5467 C   0  0  2  0  0  0
  -24.8631  -28.9407   20.1106 C   0  0  0  0  0  0
  -22.7445  -29.4626   22.4953 C   0  0  0  0  0  0
  -18.0259  -28.1386   22.8478 C   0  0  0  0  0  0
  -24.1493  -36.7314   23.2644 C   0  0  0  0  0  0
  -25.9445  -30.8024   21.3767 C   0  0  0  0  0  0
  -26.0221  -29.4295   20.7299 C   0  0  0  0  0  0
  -27.2079  -28.6501   20.7280 C   0  0  0  0  0  0
  -26.0618  -26.9188   19.4654 C   0  0  0  0  0  0
  -24.8844  -27.6907   19.4688 C   0  0  0  0  0  0
  -23.6272  -29.8161   20.1608 C   0  0  0  0  0  0
  -25.4120  -36.3085   24.0314 C   0  0  1  0  0  0
  -20.5853  -28.3683   23.1304 C   0  0  2  0  0  0
  -20.6759  -26.9419   22.5410 C   0  0  0  0  0  0
  -19.5742  -26.6391   21.5204 C   0  0  0  0  0  0
  -18.1913  -26.7920   22.1615 C   0  0  0  0  0  0
  -19.1511  -28.8846   23.2885 C   0  0  0  0  0  0
  -18.9452  -30.1443   23.8908 C   0  0  0  0  0  0
  -17.6465  -30.6600   24.0556 C   0  0  0  0  0  0
  -25.9043  -34.9444   23.5093 C   0  0  0  0  0  0
  -16.5346  -29.9109   23.6326 C   0  0  0  0  0  0
  -16.7245  -28.6516   23.0350 C   0  0  0  0  0  0
  -26.4506  -31.6579   25.0720 C   0  0  0  0  0  0
  -25.3766  -31.3731   26.1471 C   0  0  0  0  0  0
  -27.0344  -30.3004   24.6133 C   0  0  0  0  0  0
  -27.6056  -32.4327   25.7503 C   0  0  0  0  0  0
  -27.5564  -37.1819   24.8460 C   0  0  0  0  0  0
  -21.4156  -29.3054   22.3718 N   0  0  0  0  0  0
  -26.4286  -37.3772   23.9398 N   0  0  0  0  0  0
  -24.6764  -31.0666   22.1003 N   0  0  0  0  0  0
  -23.4194  -28.8158   23.2998 O   0  0  0  0  0  0
  -28.3760  -26.5921   20.0410 O   0  0  0  0  0  0
  -26.5593  -34.8907   22.4639 O   0  0  0  0  0  0
  -23.5395  -32.1394   23.7472 O   0  0  0  0  0  0
  -29.3518  -18.1612   20.2336 C   0  0  0  0  0  0
  -27.5749  -18.7257   19.0444 C   0  0  0  0  0  0
  -28.7593  -20.3228   20.0045 C   0  0  0  0  0  0
  -28.3459  -22.8275   18.1578 C   0  0  0  0  0  0
  -26.4211  -17.1123   17.5146 C   0  0  0  0  0  0
  -30.3783  -17.0802   20.6541 C   0  0  0  0  0  0
  -27.8762  -24.0034   20.4050 C   0  0  0  0  0  0
  -28.4350  -25.4056   20.8844 C   0  0  0  0  0  0
  -28.7840  -22.9669   19.6302 C   0  0  1  0  0  0
  -28.3319  -17.7374   19.4953 N   0  0  0  0  0  0
  -29.6076  -19.4452   20.5470 N   0  0  0  0  0  0
  -27.7149  -20.0262   19.2465 N   0  0  0  0  0  0
  -26.5071  -18.3691   18.2563 N   0  0  0  0  0  0
  -28.9861  -21.6675   20.3455 N   0  0  0  0  0  0
  -29.9056  -15.6717   20.7869 N   0  0  0  0  0  0
  -31.4581  -12.4589   19.1358 H   0  0  0  0  0  0
  -30.3522  -11.3499   19.8993 H   0  0  0  0  0  0
  -29.7538  -11.7340   17.4650 H   0  0  0  0  0  0
  -29.6334  -13.4526   17.7692 H   0  0  0  0  0  0
  -27.8501  -11.2732   18.8943 H   0  0  0  0  0  0
  -27.3567  -12.5371   17.8033 H   0  0  0  0  0  0
  -27.6625  -14.2440   19.5129 H   0  0  0  0  0  0
  -28.6827  -12.0587   21.3893 H   0  0  0  0  0  0
  -28.4521  -13.7326   21.8290 H   0  0  0  0  0  0
  -25.2777   -9.5625   22.4804 H   0  0  0  0  0  0
  -24.0025   -7.4634   22.7463 H   0  0  0  0  0  0
  -21.0924   -8.8679   19.8898 H   0  0  0  0  0  0
  -22.3795  -10.9638   19.6093 H   0  0  0  0  0  0
  -21.2084   -7.6163   23.9660 H   0  0  0  0  0  0
  -21.1521   -6.0556   25.9052 H   0  0  0  0  0  0
  -22.0639   -2.7597   23.2860 H   0  0  0  0  0  0
  -22.4434  -11.9836   22.5361 H   0  0  0  0  0  0
  -21.1297  -13.0967   22.3231 H   0  0  0  0  0  0
  -24.6832  -15.8454   20.6242 H   0  0  0  0  0  0
  -26.2617  -15.6214   20.0731 H   0  0  0  0  0  0
  -26.7136  -32.5473   23.1121 H   0  0  0  0  0  0
  -25.0152  -33.9729   25.0487 H   0  0  0  0  0  0
  -22.7017  -31.3044   21.4039 H   0  0  0  0  0  0
  -23.3715  -35.9675   23.3307 H   0  0  0  0  0  0
  -24.3592  -36.8951   22.2063 H   0  0  0  0  0  0
  -23.7266  -37.6524   23.6662 H   0  0  0  0  0  0
  -26.0639  -31.5617   20.6054 H   0  0  0  0  0  0
  -26.8327  -30.8657   21.9936 H   0  0  0  0  0  0
  -28.0991  -29.0180   21.2209 H   0  0  0  0  0  0
  -26.0694  -25.9760   18.9378 H   0  0  0  0  0  0
  -24.0081  -27.3291   18.9513 H   0  0  0  0  0  0
  -23.7454  -30.5934   19.4053 H   0  0  0  0  0  0
  -22.7479  -29.2466   19.8534 H   0  0  0  0  0  0
  -25.1289  -36.1924   25.0794 H   0  0  0  0  0  0
  -20.9910  -28.3242   24.1445 H   0  0  0  0  0  0
  -20.5667  -26.2296   23.3602 H   0  0  0  0  0  0
  -21.6627  -26.7480   22.1204 H   0  0  0  0  0  0
  -19.6928  -25.6303   21.1239 H   0  0  0  0  0  0
  -19.6683  -27.3185   20.6715 H   0  0  0  0  0  0
  -17.4187  -26.6636   21.4019 H   0  0  0  0  0  0
  -18.0345  -26.0071   22.9026 H   0  0  0  0  0  0
  -19.7922  -30.7221   24.2324 H   0  0  0  0  0  0
  -17.5025  -31.6274   24.5152 H   0  0  0  0  0  0
  -15.5347  -30.3034   23.7639 H   0  0  0  0  0  0
  -15.8629  -28.0830   22.7115 H   0  0  0  0  0  0
  -24.5913  -30.7092   25.7820 H   0  0  0  0  0  0
  -24.9009  -32.2935   26.4871 H   0  0  0  0  0  0
  -25.8142  -30.8934   27.0247 H   0  0  0  0  0  0
  -26.2885  -29.6749   24.1220 H   0  0  0  0  0  0
  -27.4108  -29.7255   25.4605 H   0  0  0  0  0  0
  -27.8721  -30.4288   23.9283 H   0  0  0  0  0  0
  -27.2595  -33.3586   26.2091 H   0  0  0  0  0  0
  -28.3869  -32.6947   25.0361 H   0  0  0  0  0  0
  -28.0688  -31.8461   26.5447 H   0  0  0  0  0  0
  -28.2589  -38.0111   24.7471 H   0  0  0  0  0  0
  -28.1062  -36.2643   24.6309 H   0  0  0  0  0  0
  -27.2290  -37.1480   25.8868 H   0  0  0  0  0  0
  -20.9340  -29.8831   21.6971 H   0  0  0  0  0  0
  -26.0170  -38.2845   24.1382 H   0  0  0  0  0  0
  -28.3660  -23.7842   17.6380 H   0  0  0  0  0  0
  -27.3238  -22.4543   18.0740 H   0  0  0  0  0  0
  -28.9950  -22.1584   17.5899 H   0  0  0  0  0  0
  -26.7961  -17.2570   16.4990 H   0  0  0  0  0  0
  -25.3815  -16.7813   17.4644 H   0  0  0  0  0  0
  -26.9901  -16.3068   17.9828 H   0  0  0  0  0  0
  -30.8408  -17.3695   21.5964 H   0  0  0  0  0  0
  -31.1628  -17.1225   19.8965 H   0  0  0  0  0  0
  -26.9278  -24.1519   19.8906 H   0  0  0  0  0  0
  -27.5953  -23.4985   21.3282 H   0  0  0  0  0  0
  -29.4683  -25.2829   21.2169 H   0  0  0  0  0  0
  -27.8965  -25.6540   21.8025 H   0  0  0  0  0  0
  -29.7857  -23.3935   19.5955 H   0  0  0  0  0  0
  -25.9548  -19.1478   17.9180 H   0  0  0  0  0  0
  -29.7080  -21.7338   21.0509 H   0  0  0  0  0  0
  -28.9322  -15.5392   21.0074 H   0  0  0  0  0  0
  1 25  1  0  0  0
  1 30  2  0  0  0
  1 85  1  0  0  0
  2  3  1  0  0  0
  2 25  1  0  0  0
  2 86  1  0  0  0
  2 87  1  0  0  0
  3  4  1  0  0  0
  3 88  1  0  0  0
  3 89  1  0  0  0
  4  5  1  0  0  0
  4 90  1  0  0  0
  4 91  1  0  0  0
  5  6  1  0  0  0
  5 26  1  0  0  0
  5 92  1  0  0  0
  6 25  1  0  0  0
  6 93  1  0  0  0
  6 94  1  0  0  0
  7  8  2  0  0  0
  7 26  1  0  0  0
  7 29  1  0  0  0
  8  9  1  0  0  0
  8 22  1  0  0  0
  9 10  1  0  0  0
  9 27  2  0  0  0
 10 11  2  0  0  0
 10 15  1  0  0  0
 11 12  1  0  0  0
 11 95  1  0  0  0
 12 13  2  0  0  0
 12 96  1  0  0  0
 13 14  1  0  0  0
 13 31  1  0  0  0
 14 15  2  0  0  0
 14 97  1  0  0  0
 15 98  1  0  0  0
 16 17  2  0  0  0
 16 21  1  0  0  0
 16 31  1  0  0  0
 17 18  1  0  0  0
 17 99  1  0  0  0
 18 19  2  0  0  0
 18100  1  0  0  0
 19 20  1  0  0  0
 19 24  1  0  0  0
 20 21  2  0  0  0
 20101  1  0  0  0
 21 23  1  0  0  0
 22 28  1  0  0  0
 22 32  2  0  0  0
 26 27  1  0  0  0
 28102  1  0  0  0
 28103  1  0  0  0
 29104  1  0  0  0
 29105  1  0  0  0
 33 34  1  0  0  0
 33 66  1  0  0  0
 33 70  2  0  0  0
 34 36  1  0  0  0
 34 59  1  0  0  0
 34106  1  0  0  0
 35 44  2  0  0  0
 35 45  1  0  0  0
 35 68  1  0  0  0
 36 56  1  0  0  0
 36107  1  0  0  0
 37 39  1  0  0  0
 37 47  1  0  0  0
 37 66  1  0  0  0
 37108  1  0  0  0
 38 43  2  0  0  0
 38 46  1  0  0  0
 38 47  1  0  0  0
 39 64  1  0  0  0
 39 67  2  0  0  0
 40 52  1  0  0  0
 40 53  2  0  0  0
 40 58  1  0  0  0
 41109  1  0  0  0
 41110  1  0  0  0
 41111  1  0  0  0
 41 48  1  0  0  0
 42 43  1  0  0  0
 42 66  1  0  0  0
 42112  1  0  0  0
 42113  1  0  0  0
 43 44  1  0  0  0
 44114  1  0  0  0
 45 46  2  0  0  0
 45115  1  0  0  0
 46116  1  0  0  0
 47117  1  0  0  0
 47118  1  0  0  0
 48 56  1  0  0  0
 48 65  1  0  0  0
 48119  1  0  0  0
 49 50  1  0  0  0
 49 53  1  0  0  0
 49 64  1  0  0  0
 49120  1  0  0  0
 50 51  1  0  0  0
 50121  1  0  0  0
 50122  1  0  0  0
 51 52  1  0  0  0
 51123  1  0  0  0
 51124  1  0  0  0
 52125  1  0  0  0
 52126  1  0  0  0
 53 54  1  0  0  0
 54 55  2  0  0  0
 54127  1  0  0  0
 55 57  1  0  0  0
 55128  1  0  0  0
 56 69  2  0  0  0
 57 58  2  0  0  0
 57129  1  0  0  0
 58130  1  0  0  0
 59 60  1  0  0  0
 59 61  1  0  0  0
 59 62  1  0  0  0
 60131  1  0  0  0
 60132  1  0  0  0
 60133  1  0  0  0
 61134  1  0  0  0
 61135  1  0  0  0
 61136  1  0  0  0
 62137  1  0  0  0
 62138  1  0  0  0
 62139  1  0  0  0
 63 65  1  0  0  0
 63140  1  0  0  0
 63141  1  0  0  0
 63142  1  0  0  0
 64143  1  0  0  0
 65144  1  0  0  0
 68 78  1  0  0  0
 71 76  1  0  0  0
 71 80  1  0  0  0
 71 81  2  0  0  0
 72 80  2  0  0  0
 72 82  1  0  0  0
 72 83  1  0  0  0
 73 81  1  0  0  0
 73 82  2  0  0  0
 73 84  1  0  0  0
 74145  1  0  0  0
 74146  1  0  0  0
 74147  1  0  0  0
 74 79  1  0  0  0
 75 83  1  0  0  0
 75148  1  0  0  0
 75149  1  0  0  0
 75150  1  0  0  0
 76 85  1  0  0  0
 76151  1  0  0  0
 76152  1  0  0  0
 77 78  1  0  0  0
 77 79  1  0  0  0
 77153  1  0  0  0
 77154  1  0  0  0
 78155  1  0  0  0
 78156  1  0  0  0
 79 84  1  0  0  0
 79157  1  0  0  0
 83158  1  0  0  0
 84159  1  0  0  0
 85160  1  0  0  0
M  ISO  4   1 100  68 101  78 101  85 100
M  END
> <chiral flag>
0

> <version>
0

> <s_m_source_file>
/data/baiqing/PycharmProjects/Reinvent-master-3.2/result/LINK_invent/BTK/process_docking_weight1_custom_product_contain_oxygen_bond_distance_aromatic_linkinvent_7_9_3/rearranged_h_0191.sdf

> <i_m_source_file_index>
19

> <r_mmod_Potential_Energy-OPLS-2005>
-1017.96942138672

> <r_mmod_Stretch_Energy-OPLS-2005>
53.6179695129395

> <r_mmod_Bend_Energy-OPLS-2005>
152.674087524414

> <r_mmod_Torsional_Energy-OPLS-2005>
234.251281738281

> <r_mmod_Improper_Torsional_Energy-OPLS-2005>
7.95949459075928

> <r_mmod_Van_der_Waal_Energy-OPLS-2005>
164.285736083984

> <r_mmod_Electrostatic_Energy-OPLS-2005>
-1423.79626464844

> <r_mmod_Solvation_Energy-OPLS-2005>
-238.332702636719

> <b_mmod_Minimization_Converged-OPLS-2005>
0

> <r_mmod_RMS_Derivative-OPLS-2005>
7.86158084869385

$$$$
20
                    3D
 Structure written by MMmdl.
161169  0  0  1  0            999 V2000
  -30.6655  -14.5112   20.5331 C   0  0  0  0  0  0
  -30.4172  -12.3127   19.4327 C   0  0  0  0  0  0
  -29.5039  -12.5253   18.2071 C   0  0  0  0  0  0
  -28.0222  -12.3661   18.6090 C   0  0  0  0  0  0
  -27.6556  -13.2044   19.8671 C   0  0  2  0  0  0
  -28.6921  -13.0027   20.9944 C   0  0  0  0  0  0
  -25.2541  -13.8141   20.5591 C   0  0  0  0  0  0
  -24.1782  -13.0432   20.9104 C   0  0  0  0  0  0
  -24.6323  -11.6896   20.8680 C   0  0  0  0  0  0
  -23.8996  -10.4296   21.0386 C   0  0  0  0  0  0
  -24.3563   -9.4242   21.9156 C   0  0  0  0  0  0
  -23.6287   -8.2263   22.0741 C   0  0  0  0  0  0
  -22.4268   -8.0262   21.3526 C   0  0  0  0  0  0
  -21.9902   -9.0220   20.4642 C   0  0  0  0  0  0
  -22.7174  -10.2121   20.3033 C   0  0  0  0  0  0
  -21.6856   -6.0731   22.5277 C   0  0  0  0  0  0
  -21.4019   -6.5621   23.8214 C   0  0  0  0  0  0
  -21.3651   -5.6763   24.9174 C   0  0  0  0  0  0
  -21.6063   -4.3035   24.7217 C   0  0  0  0  0  0
  -21.8796   -3.8131   23.4339 C   0  0  0  0  0  0
  -21.9164   -4.6958   22.3401 C   0  0  0  0  0  0
  -22.7811  -13.5287   21.1778 C   0  0  0  0  0  0
  -22.1649   -4.2129   21.0989 F   0  0  0  0  0  0
  -21.5655   -3.4516   25.7744 F   0  0  0  0  0  0
  -30.0171  -13.3147   20.4358 N   0  0  0  0  0  0
  -26.2978  -12.9317   20.3289 N   0  0  0  0  0  0
  -25.9256  -11.6483   20.5678 N   0  0  0  0  0  0
  -22.0384  -12.8362   22.0342 N   0  0  0  0  0  0
  -25.4302  -15.1861   20.4040 N   0  0  0  0  0  0
  -31.8262  -14.6544   20.1337 O   0  0  0  0  0  0
  -21.6634   -6.8869   21.4243 O   0  0  0  0  0  0
  -22.3541  -14.5597   20.6578 O   0  0  0  0  0  0
  -24.6207  -31.8622   23.2053 C   0  0  0  0  0  0
  -25.9072  -32.4793   23.8349 C   0  0  1  0  0  0
  -27.2384  -27.3856   20.0907 C   0  0  0  0  0  0
  -25.5914  -33.8584   24.2267 N   0  0  0  0  0  0
  -23.4086  -30.4886   21.5476 C   0  0  2  0  0  0
  -24.8514  -28.9436   20.1129 C   0  0  0  0  0  0
  -22.7414  -29.4652   22.4949 C   0  0  0  0  0  0
  -18.0257  -28.1411   22.8502 C   0  0  0  0  0  0
  -24.1485  -36.7315   23.2622 C   0  0  0  0  0  0
  -25.9398  -30.8152   21.3572 C   0  0  0  0  0  0
  -26.0157  -29.4442   20.7047 C   0  0  0  0  0  0
  -27.2071  -28.6762   20.6857 C   0  0  0  0  0  0
  -26.0476  -26.9013   19.5030 C   0  0  0  0  0  0
  -24.8670  -27.6724   19.5065 C   0  0  0  0  0  0
  -23.6169  -29.8202   20.1630 C   0  0  0  0  0  0
  -25.4101  -36.3080   24.0312 C   0  0  1  0  0  0
  -20.5856  -28.3706   23.1312 C   0  0  2  0  0  0
  -20.6763  -26.9428   22.5443 C   0  0  0  0  0  0
  -19.5739  -26.6383   21.5251 C   0  0  0  0  0  0
  -18.1905  -26.7958   22.1629 C   0  0  0  0  0  0
  -19.1510  -28.8865   23.2909 C   0  0  0  0  0  0
  -18.9441  -30.1476   23.8925 C   0  0  0  0  0  0
  -17.6448  -30.6630   24.0556 C   0  0  0  0  0  0
  -25.9042  -34.9458   23.5094 C   0  0  0  0  0  0
  -16.5326  -29.9128   23.6329 C   0  0  0  0  0  0
  -16.7244  -28.6532   23.0349 C   0  0  0  0  0  0
  -26.4482  -31.6565   25.0693 C   0  0  0  0  0  0
  -25.3731  -31.3695   26.1431 C   0  0  0  0  0  0
  -27.0264  -30.2986   24.6084 C   0  0  0  0  0  0
  -27.6061  -32.4267   25.7485 C   0  0  0  0  0  0
  -27.5586  -37.1785   24.8425 C   0  0  0  0  0  0
  -21.4126  -29.3080   22.3698 N   0  0  0  0  0  0
  -26.4250  -37.3806   23.9449 N   0  0  0  0  0  0
  -24.6753  -31.0706   22.0964 N   0  0  0  0  0  0
  -23.4176  -28.8152   23.2967 O   0  0  0  0  0  0
  -28.4241  -26.6622   20.1282 O   0  0  0  0  0  0
  -26.5614  -34.8924   22.4652 O   0  0  0  0  0  0
  -23.5395  -32.1356   23.7456 O   0  0  0  0  0  0
  -31.5080  -17.4311   21.2463 C   0  0  0  0  0  0
  -30.2414  -16.9650   20.9791 C   0  0  0  0  0  0
  -29.8284  -19.2353   21.0186 C   0  0  0  0  0  0
  -29.9832  -21.6417   16.1858 C   0  0  0  0  0  0
  -29.1828  -22.0374   17.4356 C   0  0  0  0  0  0
  -29.4410  -21.0665   18.6079 C   0  0  0  0  0  0
  -28.4146  -24.1261   20.5931 C   0  0  0  0  0  0
  -28.5731  -25.3204   19.5830 C   0  0  0  0  0  0
  -28.8685  -21.5024   19.9784 C   0  0  2  0  0  0
  -29.4258  -22.9108   20.4521 C   0  0  2  0  0  0
  -29.2915  -18.0112   20.8484 N   0  0  0  0  0  0
  -29.8944  -15.5678   20.8951 N   0  0  0  0  0  0
  -29.1381  -20.4575   20.9898 N   0  0  0  0  0  0
  -30.0802  -22.7192   21.7051 O   0  0  0  0  0  0
  -31.5640  -19.1774   21.3236 S   0  0  0  0  0  0
  -31.4736  -12.3810   19.1587 H   0  0  0  0  0  0
  -30.2807  -11.3036   19.8268 H   0  0  0  0  0  0
  -29.7653  -11.8174   17.4190 H   0  0  0  0  0  0
  -29.6639  -13.5221   17.7918 H   0  0  0  0  0  0
  -27.8369  -11.3078   18.7989 H   0  0  0  0  0  0
  -27.3745  -12.6345   17.7731 H   0  0  0  0  0  0
  -27.6945  -14.2517   19.5664 H   0  0  0  0  0  0
  -28.6706  -11.9731   21.3530 H   0  0  0  0  0  0
  -28.4539  -13.6121   21.8696 H   0  0  0  0  0  0
  -25.2713   -9.5777   22.4730 H   0  0  0  0  0  0
  -23.9986   -7.4687   22.7491 H   0  0  0  0  0  0
  -21.0814   -8.8732   19.8969 H   0  0  0  0  0  0
  -22.3608  -10.9646   19.6154 H   0  0  0  0  0  0
  -21.2019   -7.6129   23.9724 H   0  0  0  0  0  0
  -21.1520   -6.0496   25.9080 H   0  0  0  0  0  0
  -22.0585   -2.7596   23.2814 H   0  0  0  0  0  0
  -22.3951  -12.0078   22.4899 H   0  0  0  0  0  0
  -21.0984  -13.1464   22.2424 H   0  0  0  0  0  0
  -24.6640  -15.8415   20.5130 H   0  0  0  0  0  0
  -26.2898  -15.6338   20.1099 H   0  0  0  0  0  0
  -26.7125  -32.5504   23.1084 H   0  0  0  0  0  0
  -25.0026  -33.9713   25.0389 H   0  0  0  0  0  0
  -22.7008  -31.3085   21.4115 H   0  0  0  0  0  0
  -23.3757  -35.9638   23.3199 H   0  0  0  0  0  0
  -24.3587  -36.9036   22.2061 H   0  0  0  0  0  0
  -23.7220  -37.6480   23.6696 H   0  0  0  0  0  0
  -26.0429  -31.5742   20.5804 H   0  0  0  0  0  0
  -26.8299  -30.8798   21.9702 H   0  0  0  0  0  0
  -28.1066  -29.0651   21.1411 H   0  0  0  0  0  0
  -26.0056  -25.9224   19.0505 H   0  0  0  0  0  0
  -23.9694  -27.2765   19.0521 H   0  0  0  0  0  0
  -23.7332  -30.5961   19.4058 H   0  0  0  0  0  0
  -22.7336  -29.2538   19.8652 H   0  0  0  0  0  0
  -25.1269  -36.1901   25.0799 H   0  0  0  0  0  0
  -20.9991  -28.3307   24.1415 H   0  0  0  0  0  0
  -20.5727  -26.2310   23.3650 H   0  0  0  0  0  0
  -21.6617  -26.7517   22.1200 H   0  0  0  0  0  0
  -19.6898  -25.6288   21.1291 H   0  0  0  0  0  0
  -19.6685  -27.3179   20.6776 H   0  0  0  0  0  0
  -17.4199  -26.6750   21.3995 H   0  0  0  0  0  0
  -18.0258  -26.0111   22.9034 H   0  0  0  0  0  0
  -19.7902  -30.7285   24.2329 H   0  0  0  0  0  0
  -17.4996  -31.6322   24.5119 H   0  0  0  0  0  0
  -15.5334  -30.3044   23.7663 H   0  0  0  0  0  0
  -15.8630  -28.0883   22.7052 H   0  0  0  0  0  0
  -24.5914  -30.7030   25.7760 H   0  0  0  0  0  0
  -24.8897  -32.2858   26.4841 H   0  0  0  0  0  0
  -25.8068  -30.8885   27.0205 H   0  0  0  0  0  0
  -26.2777  -29.6817   24.1100 H   0  0  0  0  0  0
  -27.3930  -29.7186   25.4562 H   0  0  0  0  0  0
  -27.8671  -30.4257   23.9260 H   0  0  0  0  0  0
  -27.2664  -33.3554   26.2088 H   0  0  0  0  0  0
  -28.3878  -32.6845   25.0322 H   0  0  0  0  0  0
  -28.0708  -31.8351   26.5389 H   0  0  0  0  0  0
  -28.2498  -38.0185   24.7612 H   0  0  0  0  0  0
  -28.1166  -36.2717   24.6036 H   0  0  0  0  0  0
  -27.2317  -37.1200   25.8818 H   0  0  0  0  0  0
  -20.9257  -29.8843   21.6965 H   0  0  0  0  0  0
  -26.0105  -38.2843   24.1570 H   0  0  0  0  0  0
  -32.4171  -16.8639   21.4033 H   0  0  0  0  0  0
  -29.9374  -22.4195   15.4221 H   0  0  0  0  0  0
  -29.6173  -20.7168   15.7425 H   0  0  0  0  0  0
  -31.0365  -21.4944   16.4249 H   0  0  0  0  0  0
  -28.1152  -22.0868   17.2122 H   0  0  0  0  0  0
  -29.4766  -23.0511   17.7000 H   0  0  0  0  0  0
  -30.5191  -20.9210   18.7081 H   0  0  0  0  0  0
  -29.0324  -20.0909   18.3384 H   0  0  0  0  0  0
  -27.3845  -23.7618   20.5758 H   0  0  0  0  0  0
  -28.5292  -24.5589   21.5888 H   0  0  0  0  0  0
  -27.9829  -25.1543   18.6822 H   0  0  0  0  0  0
  -29.6023  -25.3155   19.2238 H   0  0  0  0  0  0
  -27.7829  -21.5706   19.8903 H   0  0  0  0  0  0
  -30.2331  -23.2111   19.7802 H   0  0  0  0  0  0
  -28.9231  -15.3454   21.0335 H   0  0  0  0  0  0
  -29.5317  -21.0522   21.7270 H   0  0  0  0  0  0
  -31.0152  -22.6199   21.5316 H   0  0  0  0  0  0
  1 25  1  0  0  0
  1 30  2  0  0  0
  1 82  1  0  0  0
  2  3  1  0  0  0
  2 25  1  0  0  0
  2 86  1  0  0  0
  2 87  1  0  0  0
  3  4  1  0  0  0
  3 88  1  0  0  0
  3 89  1  0  0  0
  4  5  1  0  0  0
  4 90  1  0  0  0
  4 91  1  0  0  0
  5  6  1  0  0  0
  5 26  1  0  0  0
  5 92  1  0  0  0
  6 25  1  0  0  0
  6 93  1  0  0  0
  6 94  1  0  0  0
  7  8  2  0  0  0
  7 26  1  0  0  0
  7 29  1  0  0  0
  8  9  1  0  0  0
  8 22  1  0  0  0
  9 10  1  0  0  0
  9 27  2  0  0  0
 10 11  2  0  0  0
 10 15  1  0  0  0
 11 12  1  0  0  0
 11 95  1  0  0  0
 12 13  2  0  0  0
 12 96  1  0  0  0
 13 14  1  0  0  0
 13 31  1  0  0  0
 14 15  2  0  0  0
 14 97  1  0  0  0
 15 98  1  0  0  0
 16 17  2  0  0  0
 16 21  1  0  0  0
 16 31  1  0  0  0
 17 18  1  0  0  0
 17 99  1  0  0  0
 18 19  2  0  0  0
 18100  1  0  0  0
 19 20  1  0  0  0
 19 24  1  0  0  0
 20 21  2  0  0  0
 20101  1  0  0  0
 21 23  1  0  0  0
 22 28  1  0  0  0
 22 32  2  0  0  0
 26 27  1  0  0  0
 28102  1  0  0  0
 28103  1  0  0  0
 29104  1  0  0  0
 29105  1  0  0  0
 33 34  1  0  0  0
 33 66  1  0  0  0
 33 70  2  0  0  0
 34 36  1  0  0  0
 34 59  1  0  0  0
 34106  1  0  0  0
 35 44  2  0  0  0
 35 45  1  0  0  0
 35 68  1  0  0  0
 36 56  1  0  0  0
 36107  1  0  0  0
 37 39  1  0  0  0
 37 47  1  0  0  0
 37 66  1  0  0  0
 37108  1  0  0  0
 38 43  2  0  0  0
 38 46  1  0  0  0
 38 47  1  0  0  0
 39 64  1  0  0  0
 39 67  2  0  0  0
 40 52  1  0  0  0
 40 53  2  0  0  0
 40 58  1  0  0  0
 41109  1  0  0  0
 41110  1  0  0  0
 41111  1  0  0  0
 41 48  1  0  0  0
 42 43  1  0  0  0
 42 66  1  0  0  0
 42112  1  0  0  0
 42113  1  0  0  0
 43 44  1  0  0  0
 44114  1  0  0  0
 45 46  2  0  0  0
 45115  1  0  0  0
 46116  1  0  0  0
 47117  1  0  0  0
 47118  1  0  0  0
 48 56  1  0  0  0
 48 65  1  0  0  0
 48119  1  0  0  0
 49 50  1  0  0  0
 49 53  1  0  0  0
 49 64  1  0  0  0
 49120  1  0  0  0
 50 51  1  0  0  0
 50121  1  0  0  0
 50122  1  0  0  0
 51 52  1  0  0  0
 51123  1  0  0  0
 51124  1  0  0  0
 52125  1  0  0  0
 52126  1  0  0  0
 53 54  1  0  0  0
 54 55  2  0  0  0
 54127  1  0  0  0
 55 57  1  0  0  0
 55128  1  0  0  0
 56 69  2  0  0  0
 57 58  2  0  0  0
 57129  1  0  0  0
 58130  1  0  0  0
 59 60  1  0  0  0
 59 61  1  0  0  0
 59 62  1  0  0  0
 60131  1  0  0  0
 60132  1  0  0  0
 60133  1  0  0  0
 61134  1  0  0  0
 61135  1  0  0  0
 61136  1  0  0  0
 62137  1  0  0  0
 62138  1  0  0  0
 62139  1  0  0  0
 63 65  1  0  0  0
 63140  1  0  0  0
 63141  1  0  0  0
 63142  1  0  0  0
 64143  1  0  0  0
 65144  1  0  0  0
 68 78  1  0  0  0
 71 72  2  0  0  0
 71 85  1  0  0  0
 71145  1  0  0  0
 72 81  1  0  0  0
 72 82  1  0  0  0
 73 81  2  0  0  0
 73 83  1  0  0  0
 73 85  1  0  0  0
 74 75  1  0  0  0
 74146  1  0  0  0
 74147  1  0  0  0
 74148  1  0  0  0
 75 76  1  0  0  0
 75149  1  0  0  0
 75150  1  0  0  0
 76151  1  0  0  0
 76152  1  0  0  0
 76 79  1  0  0  0
 77 78  1  0  0  0
 77 80  1  0  0  0
 77153  1  0  0  0
 77154  1  0  0  0
 78155  1  0  0  0
 78156  1  0  0  0
 79 80  1  0  0  0
 79 83  1  0  0  0
 79157  1  0  0  0
 80 84  1  0  0  0
 80158  1  0  0  0
 82159  1  0  0  0
 83160  1  0  0  0
 84161  1  0  0  0
M  ISO  4   1 100  68 101  78 101  82 100
M  END
> <chiral flag>
0

> <version>
0

> <s_m_source_file>
/data/baiqing/PycharmProjects/Reinvent-master-3.2/result/LINK_invent/BTK/process_docking_weight1_custom_product_contain_oxygen_bond_distance_aromatic_linkinvent_7_9_3/rearranged_h_0191.sdf

> <i_m_source_file_index>
20

> <r_mmod_Potential_Energy-OPLS-2005>
-88.8955001831055

> <r_mmod_Stretch_Energy-OPLS-2005>
53.5774993896484

> <r_mmod_Bend_Energy-OPLS-2005>
139.782257080078

> <r_mmod_Torsional_Energy-OPLS-2005>
299.940887451172

> <r_mmod_Improper_Torsional_Energy-OPLS-2005>
10.4866571426392

> <r_mmod_Van_der_Waal_Energy-OPLS-2005>
136.626586914062

> <r_mmod_Electrostatic_Energy-OPLS-2005>
-522.026916503906

> <r_mmod_Solvation_Energy-OPLS-2005>
-227.549957275391

> <b_mmod_Minimization_Converged-OPLS-2005>
0

> <r_mmod_RMS_Derivative-OPLS-2005>
5.38524198532104

$$$$
21
                    3D
 Structure written by MMmdl.
172180  0  0  1  0            999 V2000
  -30.6764  -14.5707   20.4923 C   0  0  0  0  0  0
  -30.4188  -12.3456   19.4417 C   0  0  0  0  0  0
  -29.4937  -12.4871   18.2147 C   0  0  0  0  0  0
  -28.0168  -12.3404   18.6293 C   0  0  0  0  0  0
  -27.6486  -13.2156   19.8570 C   0  0  2  0  0  0
  -28.6951  -13.0761   20.9861 C   0  0  0  0  0  0
  -25.2541  -13.8179   20.5685 C   0  0  0  0  0  0
  -24.1816  -13.0435   20.9191 C   0  0  0  0  0  0
  -24.6384  -11.6907   20.8739 C   0  0  0  0  0  0
  -23.9056  -10.4288   21.0405 C   0  0  0  0  0  0
  -24.3607   -9.4200   21.9180 C   0  0  0  0  0  0
  -23.6286   -8.2234   22.0748 C   0  0  0  0  0  0
  -22.4270   -8.0274   21.3542 C   0  0  0  0  0  0
  -21.9907   -9.0239   20.4636 C   0  0  0  0  0  0
  -22.7229  -10.2121   20.3047 C   0  0  0  0  0  0
  -21.6850   -6.0728   22.5277 C   0  0  0  0  0  0
  -21.4015   -6.5637   23.8206 C   0  0  0  0  0  0
  -21.3659   -5.6793   24.9171 C   0  0  0  0  0  0
  -21.6043   -4.3055   24.7225 C   0  0  0  0  0  0
  -21.8822   -3.8145   23.4349 C   0  0  0  0  0  0
  -21.9195   -4.6957   22.3404 C   0  0  0  0  0  0
  -22.7842  -13.5220   21.1862 C   0  0  0  0  0  0
  -22.1662   -4.2141   21.0980 F   0  0  0  0  0  0
  -21.5628   -3.4543   25.7738 F   0  0  0  0  0  0
  -30.0149  -13.3772   20.4138 N   0  0  0  0  0  0
  -26.2959  -12.9354   20.3306 N   0  0  0  0  0  0
  -25.9312  -11.6512   20.5761 N   0  0  0  0  0  0
  -22.0495  -12.8192   22.0404 N   0  0  0  0  0  0
  -25.4265  -15.1892   20.4083 N   0  0  0  0  0  0
  -31.8563  -14.6673   20.1423 O   0  0  0  0  0  0
  -21.6641   -6.8868   21.4236 O   0  0  0  0  0  0
  -22.3514  -14.5526   20.6716 O   0  0  0  0  0  0
  -24.6204  -31.8615   23.2057 C   0  0  0  0  0  0
  -25.9072  -32.4788   23.8364 C   0  0  1  0  0  0
  -27.2346  -27.3841   20.1091 C   0  0  0  0  0  0
  -25.5896  -33.8590   24.2282 N   0  0  0  0  0  0
  -23.4116  -30.4849   21.5459 C   0  0  2  0  0  0
  -24.8605  -28.9409   20.1156 C   0  0  0  0  0  0
  -22.7436  -29.4627   22.4957 C   0  0  0  0  0  0
  -18.0274  -28.1375   22.8465 C   0  0  0  0  0  0
  -24.1488  -36.7311   23.2641 C   0  0  0  0  0  0
  -25.9451  -30.8134   21.3662 C   0  0  0  0  0  0
  -26.0242  -29.4437   20.7129 C   0  0  0  0  0  0
  -27.2182  -28.6752   20.7007 C   0  0  0  0  0  0
  -26.0543  -26.9049   19.5091 C   0  0  0  0  0  0
  -24.8728  -27.6718   19.5095 C   0  0  0  0  0  0
  -23.6235  -29.8133   20.1626 C   0  0  0  0  0  0
  -25.4110  -36.3090   24.0328 C   0  0  1  0  0  0
  -20.5871  -28.3672   23.1295 C   0  0  2  0  0  0
  -20.6758  -26.9393   22.5417 C   0  0  0  0  0  0
  -19.5743  -26.6376   21.5204 C   0  0  0  0  0  0
  -18.1915  -26.7919   22.1603 C   0  0  0  0  0  0
  -19.1527  -28.8834   23.2872 C   0  0  0  0  0  0
  -18.9456  -30.1431   23.8898 C   0  0  0  0  0  0
  -17.6465  -30.6572   24.0562 C   0  0  0  0  0  0
  -25.9041  -34.9459   23.5107 C   0  0  0  0  0  0
  -16.5352  -29.9071   23.6336 C   0  0  0  0  0  0
  -16.7269  -28.6497   23.0334 C   0  0  0  0  0  0
  -26.4483  -31.6594   25.0723 C   0  0  0  0  0  0
  -25.3729  -31.3714   26.1462 C   0  0  0  0  0  0
  -27.0326  -30.3030   24.6132 C   0  0  0  0  0  0
  -27.6046  -32.4340   25.7482 C   0  0  0  0  0  0
  -27.5576  -37.1799   24.8452 C   0  0  0  0  0  0
  -21.4156  -29.3030   22.3697 N   0  0  0  0  0  0
  -26.4290  -37.3778   23.9401 N   0  0  0  0  0  0
  -24.6768  -31.0673   22.0980 N   0  0  0  0  0  0
  -23.4175  -28.8182   23.3034 O   0  0  0  0  0  0
  -28.3669  -26.5855   20.0815 O   0  0  0  0  0  0
  -26.5616  -34.8915   22.4675 O   0  0  0  0  0  0
  -23.5387  -32.1386   23.7423 O   0  0  0  0  0  0
  -29.3856  -18.1378   20.5972 C   0  0  0  0  0  0
  -31.4111  -18.8960   20.7661 C   0  0  0  0  0  0
  -30.2708  -17.0677   20.7124 C   0  0  0  0  0  0
  -28.9432  -18.9267   24.9427 C   0  0  0  0  0  0
  -27.0701  -21.8119   24.2723 C   0  0  0  0  0  0
  -30.8639  -21.1721   23.5422 C   0  0  0  0  0  0
  -29.0045  -19.4649   23.4988 C   0  0  0  0  0  0
  -28.6064  -21.7915   24.3830 C   0  0  0  0  0  0
  -29.0927  -23.0831   21.7070 C   0  0  0  0  0  0
  -29.7305  -20.7612   20.5871 C   0  0  0  0  0  0
  -28.3993  -25.4999   21.0470 C   0  0  0  0  0  0
  -28.9931  -21.4844   21.7955 C   0  0  1  0  0  0
  -28.5250  -23.9946   20.5557 C   0  0  2  0  0  0
  -29.3531  -20.9761   23.2756 C   0  0  0  0  0  0
  -31.5663  -17.5734   20.8151 N   0  0  0  0  0  0
  -30.1417  -19.3290   20.6675 N   0  0  0  0  0  0
  -29.9068  -15.6684   20.7450 N   0  0  0  0  0  0
  -27.2306  -23.5327   20.2107 O   0  0  0  0  0  0
  -31.4630  -12.4378   19.1384 H   0  0  0  0  0  0
  -30.3232  -11.3530   19.8836 H   0  0  0  0  0  0
  -29.7439  -11.7363   17.4635 H   0  0  0  0  0  0
  -29.6491  -13.4581   17.7421 H   0  0  0  0  0  0
  -27.8444  -11.2888   18.8603 H   0  0  0  0  0  0
  -27.3630  -12.5751   17.7885 H   0  0  0  0  0  0
  -27.6650  -14.2486   19.5095 H   0  0  0  0  0  0
  -28.6882  -12.0639   21.3930 H   0  0  0  0  0  0
  -28.4584  -13.7374   21.8214 H   0  0  0  0  0  0
  -25.2752   -9.5683   22.4754 H   0  0  0  0  0  0
  -23.9999   -7.4631   22.7474 H   0  0  0  0  0  0
  -21.0837   -8.8744   19.8947 H   0  0  0  0  0  0
  -22.3679  -10.9651   19.6151 H   0  0  0  0  0  0
  -21.2007   -7.6146   23.9704 H   0  0  0  0  0  0
  -21.1479   -6.0527   25.9069 H   0  0  0  0  0  0
  -22.0606   -2.7607   23.2852 H   0  0  0  0  0  0
  -22.4121  -11.9834   22.4752 H   0  0  0  0  0  0
  -21.1107  -13.1191   22.2637 H   0  0  0  0  0  0
  -24.6597  -15.8449   20.5127 H   0  0  0  0  0  0
  -26.2694  -15.6238   20.0556 H   0  0  0  0  0  0
  -26.7143  -32.5490   23.1124 H   0  0  0  0  0  0
  -25.0025  -33.9742   25.0412 H   0  0  0  0  0  0
  -22.7041  -31.3041   21.4010 H   0  0  0  0  0  0
  -23.3744  -35.9644   23.3301 H   0  0  0  0  0  0
  -24.3583  -36.8943   22.2054 H   0  0  0  0  0  0
  -23.7251  -37.6513   23.6677 H   0  0  0  0  0  0
  -26.0631  -31.5797   20.5987 H   0  0  0  0  0  0
  -26.8302  -30.8662   21.9882 H   0  0  0  0  0  0
  -28.1185  -29.0600   21.1581 H   0  0  0  0  0  0
  -26.0519  -25.9271   19.0475 H   0  0  0  0  0  0
  -23.9784  -27.2763   19.0479 H   0  0  0  0  0  0
  -23.7337  -30.5866   19.4017 H   0  0  0  0  0  0
  -22.7450  -29.2359   19.8672 H   0  0  0  0  0  0
  -25.1291  -36.1940   25.0822 H   0  0  0  0  0  0
  -20.9958  -28.3243   24.1420 H   0  0  0  0  0  0
  -20.5643  -26.2279   23.3609 H   0  0  0  0  0  0
  -21.6631  -26.7407   22.1221 H   0  0  0  0  0  0
  -19.6917  -25.6292   21.1217 H   0  0  0  0  0  0
  -19.6704  -27.3201   20.6749 H   0  0  0  0  0  0
  -17.4192  -26.6677   21.3994 H   0  0  0  0  0  0
  -18.0298  -26.0047   22.8989 H   0  0  0  0  0  0
  -19.7940  -30.7224   24.2276 H   0  0  0  0  0  0
  -17.5026  -31.6259   24.5149 H   0  0  0  0  0  0
  -15.5355  -30.2969   23.7666 H   0  0  0  0  0  0
  -15.8666  -28.0830   22.7041 H   0  0  0  0  0  0
  -24.5915  -30.7042   25.7813 H   0  0  0  0  0  0
  -24.8903  -32.2870   26.4891 H   0  0  0  0  0  0
  -25.8072  -30.8909   27.0236 H   0  0  0  0  0  0
  -26.2884  -29.6771   24.1189 H   0  0  0  0  0  0
  -27.4087  -29.7294   25.4614 H   0  0  0  0  0  0
  -27.8718  -30.4340   23.9295 H   0  0  0  0  0  0
  -27.2656  -33.3645   26.2045 H   0  0  0  0  0  0
  -28.3848  -32.6894   25.0304 H   0  0  0  0  0  0
  -28.0707  -31.8474   26.5401 H   0  0  0  0  0  0
  -28.2581  -38.0105   24.7503 H   0  0  0  0  0  0
  -28.1085  -36.2638   24.6273 H   0  0  0  0  0  0
  -27.2295  -37.1446   25.8853 H   0  0  0  0  0  0
  -20.9321  -29.8779   21.6936 H   0  0  0  0  0  0
  -26.0174  -38.2852   24.1420 H   0  0  0  0  0  0
  -28.3084  -18.1600   20.4958 H   0  0  0  0  0  0
  -32.2521  -19.5741   20.8134 H   0  0  0  0  0  0
  -28.8406  -17.8417   24.9372 H   0  0  0  0  0  0
  -28.0890  -19.3168   25.4955 H   0  0  0  0  0  0
  -29.8501  -19.1586   25.5007 H   0  0  0  0  0  0
  -26.6373  -22.3441   25.1198 H   0  0  0  0  0  0
  -26.6460  -20.8077   24.2692 H   0  0  0  0  0  0
  -26.7306  -22.3163   23.3680 H   0  0  0  0  0  0
  -31.1409  -20.8467   24.5444 H   0  0  0  0  0  0
  -31.1607  -22.2169   23.4654 H   0  0  0  0  0  0
  -31.4871  -20.6122   22.8496 H   0  0  0  0  0  0
  -28.0661  -19.2201   23.0003 H   0  0  0  0  0  0
  -29.7693  -18.8458   23.0452 H   0  0  0  0  0  0
  -28.8712  -21.4172   25.3704 H   0  0  0  0  0  0
  -28.9819  -22.8120   24.4462 H   0  0  0  0  0  0
  -30.1324  -23.3714   21.8574 H   0  0  0  0  0  0
  -28.5692  -23.4930   22.5612 H   0  0  0  0  0  0
  -30.6401  -21.3281   20.3821 H   0  0  0  0  0  0
  -29.1288  -20.8741   19.6842 H   0  0  0  0  0  0
  -29.2888  -25.7158   21.6395 H   0  0  0  0  0  0
  -27.5766  -25.5924   21.7596 H   0  0  0  0  0  0
  -27.9391  -21.2387   21.6584 H   0  0  0  0  0  0
  -29.1791  -23.9358   19.6842 H   0  0  0  0  0  0
  -28.9311  -15.4705   20.9003 H   0  0  0  0  0  0
  -27.3278  -22.7025   19.7568 H   0  0  0  0  0  0
  1 25  1  0  0  0
  1 30  2  0  0  0
  1 87  1  0  0  0
  2  3  1  0  0  0
  2 25  1  0  0  0
  2 89  1  0  0  0
  2 90  1  0  0  0
  3  4  1  0  0  0
  3 91  1  0  0  0
  3 92  1  0  0  0
  4  5  1  0  0  0
  4 93  1  0  0  0
  4 94  1  0  0  0
  5  6  1  0  0  0
  5 26  1  0  0  0
  5 95  1  0  0  0
  6 25  1  0  0  0
  6 96  1  0  0  0
  6 97  1  0  0  0
  7  8  2  0  0  0
  7 26  1  0  0  0
  7 29  1  0  0  0
  8  9  1  0  0  0
  8 22  1  0  0  0
  9 10  1  0  0  0
  9 27  2  0  0  0
 10 11  2  0  0  0
 10 15  1  0  0  0
 11 12  1  0  0  0
 11 98  1  0  0  0
 12 13  2  0  0  0
 12 99  1  0  0  0
 13 14  1  0  0  0
 13 31  1  0  0  0
 14 15  2  0  0  0
 14100  1  0  0  0
 15101  1  0  0  0
 16 17  2  0  0  0
 16 21  1  0  0  0
 16 31  1  0  0  0
 17 18  1  0  0  0
 17102  1  0  0  0
 18 19  2  0  0  0
 18103  1  0  0  0
 19 20  1  0  0  0
 19 24  1  0  0  0
 20 21  2  0  0  0
 20104  1  0  0  0
 21 23  1  0  0  0
 22 28  1  0  0  0
 22 32  2  0  0  0
 26 27  1  0  0  0
 28105  1  0  0  0
 28106  1  0  0  0
 29107  1  0  0  0
 29108  1  0  0  0
 33 34  1  0  0  0
 33 66  1  0  0  0
 33 70  2  0  0  0
 34 36  1  0  0  0
 34 59  1  0  0  0
 34109  1  0  0  0
 35 44  2  0  0  0
 35 45  1  0  0  0
 35 68  1  0  0  0
 36 56  1  0  0  0
 36110  1  0  0  0
 37 39  1  0  0  0
 37 47  1  0  0  0
 37 66  1  0  0  0
 37111  1  0  0  0
 38 43  2  0  0  0
 38 46  1  0  0  0
 38 47  1  0  0  0
 39 64  1  0  0  0
 39 67  2  0  0  0
 40 52  1  0  0  0
 40 53  2  0  0  0
 40 58  1  0  0  0
 41112  1  0  0  0
 41113  1  0  0  0
 41114  1  0  0  0
 41 48  1  0  0  0
 42 43  1  0  0  0
 42 66  1  0  0  0
 42115  1  0  0  0
 42116  1  0  0  0
 43 44  1  0  0  0
 44117  1  0  0  0
 45 46  2  0  0  0
 45118  1  0  0  0
 46119  1  0  0  0
 47120  1  0  0  0
 47121  1  0  0  0
 48 56  1  0  0  0
 48 65  1  0  0  0
 48122  1  0  0  0
 49 50  1  0  0  0
 49 53  1  0  0  0
 49 64  1  0  0  0
 49123  1  0  0  0
 50 51  1  0  0  0
 50124  1  0  0  0
 50125  1  0  0  0
 51 52  1  0  0  0
 51126  1  0  0  0
 51127  1  0  0  0
 52128  1  0  0  0
 52129  1  0  0  0
 53 54  1  0  0  0
 54 55  2  0  0  0
 54130  1  0  0  0
 55 57  1  0  0  0
 55131  1  0  0  0
 56 69  2  0  0  0
 57 58  2  0  0  0
 57132  1  0  0  0
 58133  1  0  0  0
 59 60  1  0  0  0
 59 61  1  0  0  0
 59 62  1  0  0  0
 60134  1  0  0  0
 60135  1  0  0  0
 60136  1  0  0  0
 61137  1  0  0  0
 61138  1  0  0  0
 61139  1  0  0  0
 62140  1  0  0  0
 62141  1  0  0  0
 62142  1  0  0  0
 63 65  1  0  0  0
 63143  1  0  0  0
 63144  1  0  0  0
 63145  1  0  0  0
 64146  1  0  0  0
 65147  1  0  0  0
 68 81  1  0  0  0
 71 73  2  0  0  0
 71 86  1  0  0  0
 71148  1  0  0  0
 72 85  2  0  0  0
 72 86  1  0  0  0
 72149  1  0  0  0
 73 85  1  0  0  0
 73 87  1  0  0  0
 74 77  1  0  0  0
 74150  1  0  0  0
 74151  1  0  0  0
 74152  1  0  0  0
 75 78  1  0  0  0
 75153  1  0  0  0
 75154  1  0  0  0
 75155  1  0  0  0
 76156  1  0  0  0
 76157  1  0  0  0
 76158  1  0  0  0
 76 84  1  0  0  0
 77 84  1  0  0  0
 77159  1  0  0  0
 77160  1  0  0  0
 78 84  1  0  0  0
 78161  1  0  0  0
 78162  1  0  0  0
 79 83  1  0  0  0
 79163  1  0  0  0
 79164  1  0  0  0
 79 82  1  0  0  0
 80 82  1  0  0  0
 80 86  1  0  0  0
 80165  1  0  0  0
 80166  1  0  0  0
 81 83  1  0  0  0
 81167  1  0  0  0
 81168  1  0  0  0
 82 84  1  0  0  0
 82169  1  0  0  0
 83 88  1  0  0  0
 83170  1  0  0  0
 87171  1  0  0  0
 88172  1  0  0  0
M  ISO  4   1 100  68 101  81 101  87 100
M  END
> <chiral flag>
0

> <version>
0

> <s_m_source_file>
/data/baiqing/PycharmProjects/Reinvent-master-3.2/result/LINK_invent/BTK/process_docking_weight1_custom_product_contain_oxygen_bond_distance_aromatic_linkinvent_7_9_3/rearranged_h_0191.sdf

> <i_m_source_file_index>
21

> <r_mmod_Potential_Energy-OPLS-2005>
93.4452056884766

> <r_mmod_Stretch_Energy-OPLS-2005>
72.5457534790039

> <r_mmod_Bend_Energy-OPLS-2005>
171.316329956055

> <r_mmod_Torsional_Energy-OPLS-2005>
283.18798828125

> <r_mmod_Improper_Torsional_Energy-OPLS-2005>
5.49055242538452

> <r_mmod_Van_der_Waal_Energy-OPLS-2005>
137.890777587891

> <r_mmod_Electrostatic_Energy-OPLS-2005>
-357.525115966797

> <r_mmod_Solvation_Energy-OPLS-2005>
-248.174179077148

> <b_mmod_Minimization_Converged-OPLS-2005>
0

> <r_mmod_RMS_Derivative-OPLS-2005>
1.6619918346405

$$$$
22
                    3D
 Structure written by MMmdl.
162170  0  0  1  0            999 V2000
  -30.6529  -14.5360   20.5053 C   0  0  0  0  0  0
  -30.4229  -12.3221   19.4550 C   0  0  0  0  0  0
  -29.5107  -12.5065   18.2219 C   0  0  0  0  0  0
  -28.0229  -12.3775   18.6123 C   0  0  0  0  0  0
  -27.6552  -13.2142   19.8683 C   0  0  2  0  0  0
  -28.6922  -13.0244   20.9995 C   0  0  0  0  0  0
  -25.2554  -13.8177   20.5694 C   0  0  0  0  0  0
  -24.1813  -13.0441   20.9175 C   0  0  0  0  0  0
  -24.6375  -11.6913   20.8712 C   0  0  0  0  0  0
  -23.9047  -10.4296   21.0393 C   0  0  0  0  0  0
  -24.3604   -9.4218   21.9175 C   0  0  0  0  0  0
  -23.6288   -8.2250   22.0747 C   0  0  0  0  0  0
  -22.4269   -8.0281   21.3538 C   0  0  0  0  0  0
  -21.9888   -9.0252   20.4641 C   0  0  0  0  0  0
  -22.7212  -10.2137   20.3043 C   0  0  0  0  0  0
  -21.6862   -6.0727   22.5279 C   0  0  0  0  0  0
  -21.4021   -6.5633   23.8209 C   0  0  0  0  0  0
  -21.3666   -5.6789   24.9171 C   0  0  0  0  0  0
  -21.6037   -4.3050   24.7227 C   0  0  0  0  0  0
  -21.8824   -3.8140   23.4352 C   0  0  0  0  0  0
  -21.9195   -4.6953   22.3404 C   0  0  0  0  0  0
  -22.7830  -13.5251   21.1819 C   0  0  0  0  0  0
  -22.1664   -4.2144   21.0984 F   0  0  0  0  0  0
  -21.5621   -3.4533   25.7738 F   0  0  0  0  0  0
  -30.0229  -13.3299   20.4518 N   0  0  0  0  0  0
  -26.2982  -12.9362   20.3301 N   0  0  0  0  0  0
  -25.9303  -11.6519   20.5721 N   0  0  0  0  0  0
  -22.0466  -12.8265   22.0393 N   0  0  0  0  0  0
  -25.4270  -15.1898   20.4118 N   0  0  0  0  0  0
  -31.8103  -14.6928   20.1071 O   0  0  0  0  0  0
  -21.6638   -6.8874   21.4245 O   0  0  0  0  0  0
  -22.3537  -14.5559   20.6644 O   0  0  0  0  0  0
  -24.6199  -31.8661   23.2057 C   0  0  0  0  0  0
  -25.9078  -32.4808   23.8375 C   0  0  1  0  0  0
  -27.2254  -27.3842   20.1030 C   0  0  0  0  0  0
  -25.5926  -33.8615   24.2328 N   0  0  0  0  0  0
  -23.4082  -30.4893   21.5478 C   0  0  2  0  0  0
  -24.8489  -28.9445   20.1125 C   0  0  0  0  0  0
  -22.7427  -29.4670   22.4971 C   0  0  0  0  0  0
  -18.0286  -28.1371   22.8497 C   0  0  0  0  0  0
  -24.1475  -36.7296   23.2637 C   0  0  0  0  0  0
  -25.9396  -30.8158   21.3617 C   0  0  0  0  0  0
  -26.0095  -29.4449   20.7110 C   0  0  0  0  0  0
  -27.1958  -28.6726   20.7017 C   0  0  0  0  0  0
  -26.0386  -26.9020   19.5096 C   0  0  0  0  0  0
  -24.8597  -27.6735   19.5105 C   0  0  0  0  0  0
  -23.6152  -29.8177   20.1627 C   0  0  0  0  0  0
  -25.4098  -36.3113   24.0351 C   0  0  1  0  0  0
  -20.5874  -28.3684   23.1285 C   0  0  2  0  0  0
  -20.6774  -26.9410   22.5401 C   0  0  0  0  0  0
  -19.5753  -26.6383   21.5199 C   0  0  0  0  0  0
  -18.1936  -26.7919   22.1618 C   0  0  0  0  0  0
  -19.1536  -28.8846   23.2892 C   0  0  0  0  0  0
  -18.9454  -30.1440   23.8910 C   0  0  0  0  0  0
  -17.6457  -30.6577   24.0571 C   0  0  0  0  0  0
  -25.9026  -34.9479   23.5134 C   0  0  0  0  0  0
  -16.5352  -29.9080   23.6328 C   0  0  0  0  0  0
  -16.7279  -28.6493   23.0374 C   0  0  0  0  0  0
  -26.4486  -31.6611   25.0736 C   0  0  0  0  0  0
  -25.3739  -31.3737   26.1483 C   0  0  0  0  0  0
  -27.0328  -30.3052   24.6142 C   0  0  0  0  0  0
  -27.6071  -32.4332   25.7506 C   0  0  0  0  0  0
  -27.5585  -37.1798   24.8474 C   0  0  0  0  0  0
  -21.4155  -29.3058   22.3696 N   0  0  0  0  0  0
  -26.4282  -37.3803   23.9434 N   0  0  0  0  0  0
  -24.6751  -31.0729   22.0969 N   0  0  0  0  0  0
  -23.4188  -28.8209   23.3037 O   0  0  0  0  0  0
  -28.4040  -26.6518   20.1680 O   0  0  0  0  0  0
  -26.5578  -34.8947   22.4687 O   0  0  0  0  0  0
  -23.5378  -32.1447   23.7414 O   0  0  0  0  0  0
  -30.2864  -18.5018   21.9508 C   0  0  0  0  0  0
  -29.7811  -18.1799   20.7160 C   0  0  0  0  0  0
  -29.2056  -20.4205   20.8182 C   0  0  0  0  0  0
  -28.5669  -23.3147   22.2792 C   0  0  0  0  0  0
  -27.1786  -22.9349   24.4222 C   0  0  0  0  0  0
  -28.5906  -25.6172   17.9376 C   0  0  0  0  0  0
  -29.9216  -16.8632   19.9643 C   0  0  0  0  0  0
  -27.3439  -22.6425   22.9199 C   0  0  0  0  0  0
  -27.9415  -24.0721   19.9217 C   0  0  0  0  0  0
  -28.8086  -23.0704   20.7771 C   0  0  2  0  0  0
  -28.6438  -25.4056   19.4610 C   0  0  2  0  0  0
  -29.1375  -19.2827   20.1083 N   0  0  0  0  0  0
  -28.6620  -21.6451   20.3925 N   0  0  0  0  0  0
  -29.8471  -15.5994   20.7356 N   0  0  0  0  0  0
  -29.3260  -24.0082   22.9584 O   0  0  0  0  0  0
  -30.0633  -20.1949   22.3423 S   0  0  0  0  0  0
  -31.4722  -12.4155   19.1695 H   0  0  0  0  0  0
  -30.3153  -11.3191   19.8723 H   0  0  0  0  0  0
  -29.7639  -11.7721   17.4572 H   0  0  0  0  0  0
  -29.6923  -13.4875   17.7777 H   0  0  0  0  0  0
  -27.8136  -11.3224   18.7908 H   0  0  0  0  0  0
  -27.3955  -12.6725   17.7700 H   0  0  0  0  0  0
  -27.6850  -14.2580   19.5604 H   0  0  0  0  0  0
  -28.6694  -11.9980   21.3677 H   0  0  0  0  0  0
  -28.4524  -13.6550   21.8567 H   0  0  0  0  0  0
  -25.2758   -9.5708   22.4728 H   0  0  0  0  0  0
  -24.0005   -7.4648   22.7458 H   0  0  0  0  0  0
  -21.0817   -8.8753   19.8957 H   0  0  0  0  0  0
  -22.3659  -10.9656   19.6132 H   0  0  0  0  0  0
  -21.2021   -7.6136   23.9715 H   0  0  0  0  0  0
  -21.1479   -6.0511   25.9076 H   0  0  0  0  0  0
  -22.0597   -2.7600   23.2845 H   0  0  0  0  0  0
  -22.4081  -11.9963   22.4854 H   0  0  0  0  0  0
  -21.1058  -13.1283   22.2527 H   0  0  0  0  0  0
  -24.6582  -15.8436   20.5150 H   0  0  0  0  0  0
  -26.2761  -15.6306   20.0833 H   0  0  0  0  0  0
  -26.7162  -32.5503   23.1146 H   0  0  0  0  0  0
  -25.0157  -33.9774   25.0532 H   0  0  0  0  0  0
  -22.7000  -31.3084   21.4052 H   0  0  0  0  0  0
  -23.3750  -35.9611   23.3304 H   0  0  0  0  0  0
  -24.3552  -36.8894   22.2043 H   0  0  0  0  0  0
  -23.7209  -37.6503   23.6630 H   0  0  0  0  0  0
  -26.0524  -31.5744   20.5853 H   0  0  0  0  0  0
  -26.8299  -30.8724   21.9771 H   0  0  0  0  0  0
  -28.0931  -29.0573   21.1649 H   0  0  0  0  0  0
  -25.9932  -25.9200   19.0648 H   0  0  0  0  0  0
  -23.9617  -27.2755   19.0597 H   0  0  0  0  0  0
  -23.7274  -30.5896   19.4014 H   0  0  0  0  0  0
  -22.7378  -29.2397   19.8689 H   0  0  0  0  0  0
  -25.1262  -36.1979   25.0841 H   0  0  0  0  0  0
  -20.9985  -28.3248   24.1398 H   0  0  0  0  0  0
  -20.5648  -26.2298   23.3596 H   0  0  0  0  0  0
  -21.6646  -26.7429   22.1205 H   0  0  0  0  0  0
  -19.6904  -25.6290   21.1237 H   0  0  0  0  0  0
  -19.6680  -27.3178   20.6709 H   0  0  0  0  0  0
  -17.4204  -26.6688   21.4022 H   0  0  0  0  0  0
  -18.0331  -26.0034   22.8984 H   0  0  0  0  0  0
  -19.7935  -30.7251   24.2284 H   0  0  0  0  0  0
  -17.5026  -31.6259   24.5158 H   0  0  0  0  0  0
  -15.5362  -30.3007   23.7620 H   0  0  0  0  0  0
  -15.8677  -28.0808   22.7102 H   0  0  0  0  0  0
  -24.5905  -30.7095   25.7829 H   0  0  0  0  0  0
  -24.8936  -32.2896   26.4937 H   0  0  0  0  0  0
  -25.8068  -30.8913   27.0253 H   0  0  0  0  0  0
  -26.2890  -29.6822   24.1164 H   0  0  0  0  0  0
  -27.4063  -29.7301   25.4626 H   0  0  0  0  0  0
  -27.8739  -30.4390   23.9332 H   0  0  0  0  0  0
  -27.2703  -33.3630   26.2110 H   0  0  0  0  0  0
  -28.3858  -32.6895   25.0310 H   0  0  0  0  0  0
  -28.0764  -31.8442   26.5401 H   0  0  0  0  0  0
  -28.2608  -38.0093   24.7530 H   0  0  0  0  0  0
  -28.1067  -36.2630   24.6266 H   0  0  0  0  0  0
  -27.2303  -37.1415   25.8875 H   0  0  0  0  0  0
  -20.9308  -29.8777   21.6906 H   0  0  0  0  0  0
  -26.0175  -38.2877   24.1456 H   0  0  0  0  0  0
  -30.8241  -17.8544   22.6298 H   0  0  0  0  0  0
  -26.3879  -22.3207   24.8528 H   0  0  0  0  0  0
  -26.9177  -23.9793   24.5913 H   0  0  0  0  0  0
  -28.0931  -22.7203   24.9780 H   0  0  0  0  0  0
  -29.0456  -24.7724   17.4201 H   0  0  0  0  0  0
  -29.1448  -26.5101   17.6471 H   0  0  0  0  0  0
  -27.5757  -25.7155   17.5553 H   0  0  0  0  0  0
  -29.1380  -16.8034   19.2083 H   0  0  0  0  0  0
  -30.8479  -16.8972   19.3897 H   0  0  0  0  0  0
  -27.4435  -21.5672   22.7763 H   0  0  0  0  0  0
  -26.4488  -22.9473   22.3790 H   0  0  0  0  0  0
  -27.0048  -24.3060   20.4284 H   0  0  0  0  0  0
  -27.6245  -23.5418   19.0245 H   0  0  0  0  0  0
  -29.8582  -23.2912   20.5806 H   0  0  0  0  0  0
  -29.7054  -25.2450   19.6534 H   0  0  0  0  0  0
  -28.1516  -21.5260   19.5267 H   0  0  0  0  0  0
  -28.9397  -15.3827   21.1177 H   0  0  0  0  0  0
  1 25  1  0  0  0
  1 30  2  0  0  0
  1 84  1  0  0  0
  2  3  1  0  0  0
  2 25  1  0  0  0
  2 87  1  0  0  0
  2 88  1  0  0  0
  3  4  1  0  0  0
  3 89  1  0  0  0
  3 90  1  0  0  0
  4  5  1  0  0  0
  4 91  1  0  0  0
  4 92  1  0  0  0
  5  6  1  0  0  0
  5 26  1  0  0  0
  5 93  1  0  0  0
  6 25  1  0  0  0
  6 94  1  0  0  0
  6 95  1  0  0  0
  7  8  2  0  0  0
  7 26  1  0  0  0
  7 29  1  0  0  0
  8  9  1  0  0  0
  8 22  1  0  0  0
  9 10  1  0  0  0
  9 27  2  0  0  0
 10 11  2  0  0  0
 10 15  1  0  0  0
 11 12  1  0  0  0
 11 96  1  0  0  0
 12 13  2  0  0  0
 12 97  1  0  0  0
 13 14  1  0  0  0
 13 31  1  0  0  0
 14 15  2  0  0  0
 14 98  1  0  0  0
 15 99  1  0  0  0
 16 17  2  0  0  0
 16 21  1  0  0  0
 16 31  1  0  0  0
 17 18  1  0  0  0
 17100  1  0  0  0
 18 19  2  0  0  0
 18101  1  0  0  0
 19 20  1  0  0  0
 19 24  1  0  0  0
 20 21  2  0  0  0
 20102  1  0  0  0
 21 23  1  0  0  0
 22 28  1  0  0  0
 22 32  2  0  0  0
 26 27  1  0  0  0
 28103  1  0  0  0
 28104  1  0  0  0
 29105  1  0  0  0
 29106  1  0  0  0
 33 34  1  0  0  0
 33 66  1  0  0  0
 33 70  2  0  0  0
 34 36  1  0  0  0
 34 59  1  0  0  0
 34107  1  0  0  0
 35 44  2  0  0  0
 35 45  1  0  0  0
 35 68  1  0  0  0
 36 56  1  0  0  0
 36108  1  0  0  0
 37 39  1  0  0  0
 37 47  1  0  0  0
 37 66  1  0  0  0
 37109  1  0  0  0
 38 43  2  0  0  0
 38 46  1  0  0  0
 38 47  1  0  0  0
 39 64  1  0  0  0
 39 67  2  0  0  0
 40 52  1  0  0  0
 40 53  2  0  0  0
 40 58  1  0  0  0
 41110  1  0  0  0
 41111  1  0  0  0
 41112  1  0  0  0
 41 48  1  0  0  0
 42 43  1  0  0  0
 42 66  1  0  0  0
 42113  1  0  0  0
 42114  1  0  0  0
 43 44  1  0  0  0
 44115  1  0  0  0
 45 46  2  0  0  0
 45116  1  0  0  0
 46117  1  0  0  0
 47118  1  0  0  0
 47119  1  0  0  0
 48 56  1  0  0  0
 48 65  1  0  0  0
 48120  1  0  0  0
 49 50  1  0  0  0
 49 53  1  0  0  0
 49 64  1  0  0  0
 49121  1  0  0  0
 50 51  1  0  0  0
 50122  1  0  0  0
 50123  1  0  0  0
 51 52  1  0  0  0
 51124  1  0  0  0
 51125  1  0  0  0
 52126  1  0  0  0
 52127  1  0  0  0
 53 54  1  0  0  0
 54 55  2  0  0  0
 54128  1  0  0  0
 55 57  1  0  0  0
 55129  1  0  0  0
 56 69  2  0  0  0
 57 58  2  0  0  0
 57130  1  0  0  0
 58131  1  0  0  0
 59 60  1  0  0  0
 59 61  1  0  0  0
 59 62  1  0  0  0
 60132  1  0  0  0
 60133  1  0  0  0
 60134  1  0  0  0
 61135  1  0  0  0
 61136  1  0  0  0
 61137  1  0  0  0
 62138  1  0  0  0
 62139  1  0  0  0
 62140  1  0  0  0
 63 65  1  0  0  0
 63141  1  0  0  0
 63142  1  0  0  0
 63143  1  0  0  0
 64144  1  0  0  0
 65145  1  0  0  0
 68 81  1  0  0  0
 71 72  2  0  0  0
 71 86  1  0  0  0
 71146  1  0  0  0
 72 77  1  0  0  0
 72 82  1  0  0  0
 73 82  2  0  0  0
 73 83  1  0  0  0
 73 86  1  0  0  0
 74 78  1  0  0  0
 74 80  1  0  0  0
 74 85  2  0  0  0
 75 78  1  0  0  0
 75147  1  0  0  0
 75148  1  0  0  0
 75149  1  0  0  0
 76150  1  0  0  0
 76151  1  0  0  0
 76152  1  0  0  0
 76 81  1  0  0  0
 77 84  1  0  0  0
 77153  1  0  0  0
 77154  1  0  0  0
 78155  1  0  0  0
 78156  1  0  0  0
 79 81  1  0  0  0
 79157  1  0  0  0
 79158  1  0  0  0
 79 80  1  0  0  0
 80 83  1  0  0  0
 80159  1  0  0  0
 81160  1  0  0  0
 83161  1  0  0  0
 84162  1  0  0  0
M  ISO  4   1 100  68 101  81 101  84 100
M  END
> <chiral flag>
0

> <version>
0

> <s_m_source_file>
/data/baiqing/PycharmProjects/Reinvent-master-3.2/result/LINK_invent/BTK/process_docking_weight1_custom_product_contain_oxygen_bond_distance_aromatic_linkinvent_7_9_3/rearranged_h_0191.sdf

> <i_m_source_file_index>
22

> <r_mmod_Potential_Energy-OPLS-2005>
-217.844161987305

> <r_mmod_Stretch_Energy-OPLS-2005>
47.3572082519531

> <r_mmod_Bend_Energy-OPLS-2005>
133.425064086914

> <r_mmod_Torsional_Energy-OPLS-2005>
216.888900756836

> <r_mmod_Improper_Torsional_Energy-OPLS-2005>
9.82740497589111

> <r_mmod_Van_der_Waal_Energy-OPLS-2005>
121.823432922363

> <r_mmod_Electrostatic_Energy-OPLS-2005>
-535.742980957031

> <r_mmod_Solvation_Energy-OPLS-2005>
-235.204528808594

> <b_mmod_Minimization_Converged-OPLS-2005>
0

> <r_mmod_RMS_Derivative-OPLS-2005>
2.80702638626099

$$$$
23
                    3D
 Structure written by MMmdl.
178186  0  0  1  0            999 V2000
  -30.7181  -14.5699   20.4830 C   0  0  0  0  0  0
  -30.4342  -12.3487   19.4400 C   0  0  0  0  0  0
  -29.5062  -12.4460   18.2137 C   0  0  0  0  0  0
  -28.0277  -12.3231   18.6328 C   0  0  0  0  0  0
  -27.6535  -13.2157   19.8481 C   0  0  2  0  0  0
  -28.7066  -13.1179   20.9727 C   0  0  0  0  0  0
  -25.2564  -13.8110   20.5591 C   0  0  0  0  0  0
  -24.1843  -13.0412   20.9169 C   0  0  0  0  0  0
  -24.6427  -11.6898   20.8754 C   0  0  0  0  0  0
  -23.9091  -10.4293   21.0401 C   0  0  0  0  0  0
  -24.3638   -9.4212   21.9181 C   0  0  0  0  0  0
  -23.6319   -8.2248   22.0757 C   0  0  0  0  0  0
  -22.4305   -8.0274   21.3531 C   0  0  0  0  0  0
  -21.9932   -9.0260   20.4646 C   0  0  0  0  0  0
  -22.7255  -10.2141   20.3060 C   0  0  0  0  0  0
  -21.6851   -6.0742   22.5276 C   0  0  0  0  0  0
  -21.4011   -6.5645   23.8209 C   0  0  0  0  0  0
  -21.3661   -5.6789   24.9167 C   0  0  0  0  0  0
  -21.6053   -4.3050   24.7208 C   0  0  0  0  0  0
  -21.8824   -3.8152   23.4324 C   0  0  0  0  0  0
  -21.9200   -4.6972   22.3389 C   0  0  0  0  0  0
  -22.7870  -13.5239   21.1809 C   0  0  0  0  0  0
  -22.1654   -4.2162   21.0959 F   0  0  0  0  0  0
  -21.5648   -3.4529   25.7714 F   0  0  0  0  0  0
  -30.0184  -13.4036   20.3786 N   0  0  0  0  0  0
  -26.3028  -12.9333   20.3297 N   0  0  0  0  0  0
  -25.9365  -11.6494   20.5806 N   0  0  0  0  0  0
  -22.0473  -12.8290   22.0382 N   0  0  0  0  0  0
  -25.4220  -15.1776   20.3857 N   0  0  0  0  0  0
  -31.9411  -14.5977   20.3574 O   0  0  0  0  0  0
  -21.6647   -6.8885   21.4240 O   0  0  0  0  0  0
  -22.3581  -14.5538   20.6634 O   0  0  0  0  0  0
  -24.6204  -31.8651   23.2072 C   0  0  0  0  0  0
  -25.9073  -32.4807   23.8385 C   0  0  1  0  0  0
  -27.2328  -27.3720   20.1184 C   0  0  0  0  0  0
  -25.5917  -33.8609   24.2313 N   0  0  0  0  0  0
  -23.4121  -30.4877   21.5504 C   0  0  2  0  0  0
  -24.8590  -28.9490   20.1167 C   0  0  0  0  0  0
  -22.7455  -29.4641   22.4987 C   0  0  0  0  0  0
  -18.0272  -28.1380   22.8488 C   0  0  0  0  0  0
  -24.1483  -36.7303   23.2633 C   0  0  0  0  0  0
  -25.9480  -30.8119   21.3701 C   0  0  0  0  0  0
  -26.0243  -29.4424   20.7164 C   0  0  0  0  0  0
  -27.2147  -28.6664   20.7062 C   0  0  0  0  0  0
  -26.0448  -26.9189   19.4963 C   0  0  0  0  0  0
  -24.8685  -27.6898   19.4989 C   0  0  0  0  0  0
  -23.6234  -29.8206   20.1662 C   0  0  0  0  0  0
  -25.4104  -36.3106   24.0336 C   0  0  1  0  0  0
  -20.5874  -28.3677   23.1306 C   0  0  2  0  0  0
  -20.6766  -26.9408   22.5419 C   0  0  0  0  0  0
  -19.5750  -26.6377   21.5216 C   0  0  0  0  0  0
  -18.1922  -26.7925   22.1616 C   0  0  0  0  0  0
  -19.1525  -28.8846   23.2888 C   0  0  0  0  0  0
  -18.9449  -30.1449   23.8901 C   0  0  0  0  0  0
  -17.6452  -30.6589   24.0559 C   0  0  0  0  0  0
  -25.9044  -34.9469   23.5128 C   0  0  0  0  0  0
  -16.5340  -29.9085   23.6330 C   0  0  0  0  0  0
  -16.7261  -28.6499   23.0357 C   0  0  0  0  0  0
  -26.4473  -31.6604   25.0735 C   0  0  0  0  0  0
  -25.3719  -31.3735   26.1477 C   0  0  0  0  0  0
  -27.0288  -30.3029   24.6149 C   0  0  0  0  0  0
  -27.6061  -32.4315   25.7487 C   0  0  0  0  0  0
  -27.5592  -37.1788   24.8450 C   0  0  0  0  0  0
  -21.4176  -29.3037   22.3718 N   0  0  0  0  0  0
  -26.4284  -37.3797   23.9429 N   0  0  0  0  0  0
  -24.6787  -31.0696   22.1002 N   0  0  0  0  0  0
  -23.4197  -28.8187   23.3057 O   0  0  0  0  0  0
  -28.3769  -26.5753   20.1572 O   0  0  0  0  0  0
  -26.5609  -34.8928   22.4690 O   0  0  0  0  0  0
  -23.5384  -32.1427   23.7435 O   0  0  0  0  0  0
  -29.1319  -19.3604   21.3245 C   0  0  0  0  0  0
  -29.0545  -17.9890   21.2384 C   0  0  0  0  0  0
  -32.8671  -16.2823   16.4562 C   0  0  0  0  0  0
  -29.3543  -17.3089   16.1016 C   0  0  0  0  0  0
  -31.7302  -22.3349   21.2866 C   0  0  0  0  0  0
  -31.9110  -17.6682   19.0373 C   0  0  0  0  0  0
  -30.2256  -20.3685   21.6997 C   0  0  0  0  0  0
  -30.0188  -16.7873   21.4196 C   0  0  0  0  0  0
  -31.7236  -15.7747   17.3527 C   0  0  0  0  0  0
  -30.3150  -17.8930   17.1526 C   0  0  0  0  0  0
  -29.2218  -22.7839   20.9931 C   0  0  0  0  0  0
  -29.7553  -16.2279   18.9703 C   0  0  0  0  0  0
  -28.1736  -25.1413   20.3649 C   0  0  0  0  0  0
  -30.3798  -21.7118   20.8782 C   0  0  1  0  0  0
  -29.4576  -24.2377   20.4125 C   0  0  2  0  0  0
  -30.9369  -16.8669   18.1435 C   0  0  0  0  0  0
  -30.0098  -15.7332   20.3510 N   0  0  0  0  0  0
  -29.9350  -24.1059   19.0813 O   0  0  0  0  0  0
  -27.4248  -19.7869   21.1432 S   0  0  0  0  0  0
  -27.3061  -17.8029   21.0490 S   0  0  0  0  0  0
  -31.4738  -12.4591   19.1235 H   0  0  0  0  0  0
  -30.3583  -11.3669   19.9113 H   0  0  0  0  0  0
  -29.7541  -11.6596   17.5002 H   0  0  0  0  0  0
  -29.6685  -13.3835   17.6862 H   0  0  0  0  0  0
  -27.8539  -11.2768   18.8844 H   0  0  0  0  0  0
  -27.3749  -12.5387   17.7862 H   0  0  0  0  0  0
  -27.6585  -14.2426   19.4872 H   0  0  0  0  0  0
  -28.7059  -12.1254   21.4239 H   0  0  0  0  0  0
  -28.4841  -13.8271   21.7727 H   0  0  0  0  0  0
  -25.2769   -9.5707   22.4772 H   0  0  0  0  0  0
  -24.0012   -7.4659   22.7502 H   0  0  0  0  0  0
  -21.0841   -8.8792   19.8980 H   0  0  0  0  0  0
  -22.3685  -10.9694   19.6194 H   0  0  0  0  0  0
  -21.1979   -7.6150   23.9718 H   0  0  0  0  0  0
  -21.1484   -6.0506   25.9072 H   0  0  0  0  0  0
  -22.0603   -2.7616   23.2805 H   0  0  0  0  0  0
  -22.4015  -11.9966   22.4850 H   0  0  0  0  0  0
  -21.1106  -13.1389   22.2520 H   0  0  0  0  0  0
  -24.6621  -15.8368   20.5065 H   0  0  0  0  0  0
  -26.2890  -15.6150   20.1039 H   0  0  0  0  0  0
  -26.7145  -32.5492   23.1145 H   0  0  0  0  0  0
  -25.0083  -33.9763   25.0472 H   0  0  0  0  0  0
  -22.7028  -31.3063   21.4091 H   0  0  0  0  0  0
  -23.3769  -35.9609   23.3258 H   0  0  0  0  0  0
  -24.3589  -36.8961   22.2056 H   0  0  0  0  0  0
  -23.7191  -37.6479   23.6672 H   0  0  0  0  0  0
  -26.0699  -31.5742   20.5994 H   0  0  0  0  0  0
  -26.8327  -30.8633   21.9940 H   0  0  0  0  0  0
  -28.1099  -29.0457   21.1791 H   0  0  0  0  0  0
  -25.9951  -25.9669   18.9922 H   0  0  0  0  0  0
  -23.9770  -27.3048   19.0224 H   0  0  0  0  0  0
  -23.7364  -30.5937   19.4057 H   0  0  0  0  0  0
  -22.7463  -29.2424   19.8698 H   0  0  0  0  0  0
  -25.1273  -36.1970   25.0825 H   0  0  0  0  0  0
  -20.9947  -28.3232   24.1436 H   0  0  0  0  0  0
  -20.5667  -26.2287   23.3612 H   0  0  0  0  0  0
  -21.6634  -26.7451   22.1211 H   0  0  0  0  0  0
  -19.6911  -25.6284   21.1251 H   0  0  0  0  0  0
  -19.6693  -27.3182   20.6741 H   0  0  0  0  0  0
  -17.4204  -26.6692   21.4004 H   0  0  0  0  0  0
  -18.0303  -26.0057   22.8999 H   0  0  0  0  0  0
  -19.7927  -30.7258   24.2280 H   0  0  0  0  0  0
  -17.5009  -31.6275   24.5150 H   0  0  0  0  0  0
  -15.5344  -30.2994   23.7649 H   0  0  0  0  0  0
  -15.8655  -28.0813   22.7089 H   0  0  0  0  0  0
  -24.5902  -30.7067   25.7818 H   0  0  0  0  0  0
  -24.8891  -32.2895   26.4895 H   0  0  0  0  0  0
  -25.8053  -30.8930   27.0259 H   0  0  0  0  0  0
  -26.2836  -29.6808   24.1178 H   0  0  0  0  0  0
  -27.4003  -29.7257   25.4626 H   0  0  0  0  0  0
  -27.8704  -30.4321   23.9338 H   0  0  0  0  0  0
  -27.2708  -33.3629   26.2062 H   0  0  0  0  0  0
  -28.3867  -32.6851   25.0300 H   0  0  0  0  0  0
  -28.0732  -31.8435   26.5399 H   0  0  0  0  0  0
  -28.2571  -38.0126   24.7583 H   0  0  0  0  0  0
  -28.1131  -36.2670   24.6165 H   0  0  0  0  0  0
  -27.2335  -37.1299   25.8855 H   0  0  0  0  0  0
  -20.9360  -29.8761   21.6926 H   0  0  0  0  0  0
  -26.0177  -38.2870   24.1476 H   0  0  0  0  0  0
  -33.3587  -15.4463   15.9578 H   0  0  0  0  0  0
  -33.6373  -16.8059   17.0238 H   0  0  0  0  0  0
  -32.5087  -16.9493   15.6736 H   0  0  0  0  0  0
  -29.8742  -16.6580   15.3985 H   0  0  0  0  0  0
  -28.8952  -18.1071   15.5163 H   0  0  0  0  0  0
  -28.5499  -16.7343   16.5593 H   0  0  0  0  0  0
  -32.5480  -21.6190   21.1898 H   0  0  0  0  0  0
  -31.7127  -22.6755   22.3222 H   0  0  0  0  0  0
  -31.9956  -23.1870   20.6604 H   0  0  0  0  0  0
  -32.6429  -18.2220   18.4508 H   0  0  0  0  0  0
  -32.4783  -17.0291   19.7117 H   0  0  0  0  0  0
  -31.3844  -18.4137   19.6298 H   0  0  0  0  0  0
  -31.1620  -19.8109   21.6567 H   0  0  0  0  0  0
  -30.0883  -20.6120   22.7554 H   0  0  0  0  0  0
  -29.7404  -16.3043   22.3575 H   0  0  0  0  0  0
  -31.0310  -17.1556   21.5819 H   0  0  0  0  0  0
  -32.1597  -15.0403   18.0224 H   0  0  0  0  0  0
  -31.0356  -15.1941   16.7384 H   0  0  0  0  0  0
  -29.7771  -18.6531   17.7219 H   0  0  0  0  0  0
  -31.1011  -18.4448   16.6357 H   0  0  0  0  0  0
  -28.9502  -22.8834   22.0450 H   0  0  0  0  0  0
  -28.3352  -22.3756   20.5090 H   0  0  0  0  0  0
  -29.3455  -15.4013   18.3951 H   0  0  0  0  0  0
  -28.9163  -16.9154   18.9827 H   0  0  0  0  0  0
  -27.6550  -25.0371   21.3194 H   0  0  0  0  0  0
  -27.5106  -24.7143   19.6150 H   0  0  0  0  0  0
  -30.4678  -21.4365   19.8268 H   0  0  0  0  0  0
  -30.2136  -24.7405   21.0175 H   0  0  0  0  0  0
  -29.2615  -23.6716   18.5685 H   0  0  0  0  0  0
  1 25  1  0  0  0
  1 30  2  0  0  0
  1 87  1  0  0  0
  2  3  1  0  0  0
  2 25  1  0  0  0
  2 91  1  0  0  0
  2 92  1  0  0  0
  3  4  1  0  0  0
  3 93  1  0  0  0
  3 94  1  0  0  0
  4  5  1  0  0  0
  4 95  1  0  0  0
  4 96  1  0  0  0
  5  6  1  0  0  0
  5 26  1  0  0  0
  5 97  1  0  0  0
  6 25  1  0  0  0
  6 98  1  0  0  0
  6 99  1  0  0  0
  7  8  2  0  0  0
  7 26  1  0  0  0
  7 29  1  0  0  0
  8  9  1  0  0  0
  8 22  1  0  0  0
  9 10  1  0  0  0
  9 27  2  0  0  0
 10 11  2  0  0  0
 10 15  1  0  0  0
 11 12  1  0  0  0
 11100  1  0  0  0
 12 13  2  0  0  0
 12101  1  0  0  0
 13 14  1  0  0  0
 13 31  1  0  0  0
 14 15  2  0  0  0
 14102  1  0  0  0
 15103  1  0  0  0
 16 17  2  0  0  0
 16 21  1  0  0  0
 16 31  1  0  0  0
 17 18  1  0  0  0
 17104  1  0  0  0
 18 19  2  0  0  0
 18105  1  0  0  0
 19 20  1  0  0  0
 19 24  1  0  0  0
 20 21  2  0  0  0
 20106  1  0  0  0
 21 23  1  0  0  0
 22 28  1  0  0  0
 22 32  2  0  0  0
 26 27  1  0  0  0
 28107  1  0  0  0
 28108  1  0  0  0
 29109  1  0  0  0
 29110  1  0  0  0
 33 34  1  0  0  0
 33 66  1  0  0  0
 33 70  2  0  0  0
 34 36  1  0  0  0
 34 59  1  0  0  0
 34111  1  0  0  0
 35 44  2  0  0  0
 35 45  1  0  0  0
 35 68  1  0  0  0
 36 56  1  0  0  0
 36112  1  0  0  0
 37 39  1  0  0  0
 37 47  1  0  0  0
 37 66  1  0  0  0
 37113  1  0  0  0
 38 43  2  0  0  0
 38 46  1  0  0  0
 38 47  1  0  0  0
 39 64  1  0  0  0
 39 67  2  0  0  0
 40 52  1  0  0  0
 40 53  2  0  0  0
 40 58  1  0  0  0
 41114  1  0  0  0
 41115  1  0  0  0
 41116  1  0  0  0
 41 48  1  0  0  0
 42 43  1  0  0  0
 42 66  1  0  0  0
 42117  1  0  0  0
 42118  1  0  0  0
 43 44  1  0  0  0
 44119  1  0  0  0
 45 46  2  0  0  0
 45120  1  0  0  0
 46121  1  0  0  0
 47122  1  0  0  0
 47123  1  0  0  0
 48 56  1  0  0  0
 48 65  1  0  0  0
 48124  1  0  0  0
 49 50  1  0  0  0
 49 53  1  0  0  0
 49 64  1  0  0  0
 49125  1  0  0  0
 50 51  1  0  0  0
 50126  1  0  0  0
 50127  1  0  0  0
 51 52  1  0  0  0
 51128  1  0  0  0
 51129  1  0  0  0
 52130  1  0  0  0
 52131  1  0  0  0
 53 54  1  0  0  0
 54 55  2  0  0  0
 54132  1  0  0  0
 55 57  1  0  0  0
 55133  1  0  0  0
 56 69  2  0  0  0
 57 58  2  0  0  0
 57134  1  0  0  0
 58135  1  0  0  0
 59 60  1  0  0  0
 59 61  1  0  0  0
 59 62  1  0  0  0
 60136  1  0  0  0
 60137  1  0  0  0
 60138  1  0  0  0
 61139  1  0  0  0
 61140  1  0  0  0
 61141  1  0  0  0
 62142  1  0  0  0
 62143  1  0  0  0
 62144  1  0  0  0
 63 65  1  0  0  0
 63145  1  0  0  0
 63146  1  0  0  0
 63147  1  0  0  0
 64148  1  0  0  0
 65149  1  0  0  0
 68 83  1  0  0  0
 71 72  2  0  0  0
 71 77  1  0  0  0
 71 89  1  0  0  0
 72 78  1  0  0  0
 72 90  1  0  0  0
 73 79  1  0  0  0
 73150  1  0  0  0
 73151  1  0  0  0
 73152  1  0  0  0
 74 80  1  0  0  0
 74153  1  0  0  0
 74154  1  0  0  0
 74155  1  0  0  0
 75156  1  0  0  0
 75157  1  0  0  0
 75158  1  0  0  0
 75 84  1  0  0  0
 76159  1  0  0  0
 76160  1  0  0  0
 76161  1  0  0  0
 76 86  1  0  0  0
 77 84  1  0  0  0
 77162  1  0  0  0
 77163  1  0  0  0
 78 87  1  0  0  0
 78164  1  0  0  0
 78165  1  0  0  0
 79 86  1  0  0  0
 79166  1  0  0  0
 79167  1  0  0  0
 80 86  1  0  0  0
 80168  1  0  0  0
 80169  1  0  0  0
 81 84  1  0  0  0
 81 85  1  0  0  0
 81170  1  0  0  0
 81171  1  0  0  0
 82 86  1  0  0  0
 82 87  1  0  0  0
 82172  1  0  0  0
 82173  1  0  0  0
 83 85  1  0  0  0
 83174  1  0  0  0
 83175  1  0  0  0
 84176  1  0  0  0
 85 88  1  0  0  0
 85177  1  0  0  0
 88178  1  0  0  0
 89 90  1  0  0  0
M  ISO  4   1 100  68 101  83 101  87 100
M  END
> <chiral flag>
0

> <version>
0

> <s_m_source_file>
/data/baiqing/PycharmProjects/Reinvent-master-3.2/result/LINK_invent/BTK/process_docking_weight1_custom_product_contain_oxygen_bond_distance_aromatic_linkinvent_7_9_3/rearranged_h_0191.sdf

> <i_m_source_file_index>
23

> <r_mmod_Potential_Energy-OPLS-2005>
291.747589111328

> <r_mmod_Stretch_Energy-OPLS-2005>
69.5449371337891

> <r_mmod_Bend_Energy-OPLS-2005>
188.837417602539

> <r_mmod_Torsional_Energy-OPLS-2005>
353.618469238281

> <r_mmod_Improper_Torsional_Energy-OPLS-2005>
11.5918750762939

> <r_mmod_Van_der_Waal_Energy-OPLS-2005>
120.72233581543

> <r_mmod_Electrostatic_Energy-OPLS-2005>
-308.039703369141

> <r_mmod_Solvation_Energy-OPLS-2005>
-190.055114746094

> <b_mmod_Minimization_Converged-OPLS-2005>
0

> <r_mmod_RMS_Derivative-OPLS-2005>
2.46194100379944

$$$$
24
                    3D
 Structure written by MMmdl.
170178  0  0  1  0            999 V2000
  -29.6173  -15.9762   20.9162 C   0  0  0  0  0  0
  -30.2474  -13.4628   19.7910 C   0  0  0  0  0  0
  -29.5482  -12.8538   18.5126 C   0  0  0  0  0  0
  -28.1498  -12.3311   18.8468 C   0  0  0  0  0  0
  -27.5094  -13.2959   19.8580 C   0  0  2  0  0  0
  -28.3556  -13.6199   21.0963 C   0  0  0  0  0  0
  -25.1807  -13.8132   20.5589 C   0  0  0  0  0  0
  -24.1331  -13.0323   20.9331 C   0  0  0  0  0  0
  -24.6053  -11.6841   20.8811 C   0  0  0  0  0  0
  -23.8873  -10.4208   21.0471 C   0  0  0  0  0  0
  -24.3513   -9.4149   21.9206 C   0  0  0  0  0  0
  -23.6237   -8.2165   22.0752 C   0  0  0  0  0  0
  -22.4210   -8.0198   21.3545 C   0  0  0  0  0  0
  -21.9816   -9.0153   20.4640 C   0  0  0  0  0  0
  -22.7099  -10.2044   20.3077 C   0  0  0  0  0  0
  -21.6821   -6.0697   22.5290 C   0  0  0  0  0  0
  -21.3995   -6.5613   23.8226 C   0  0  0  0  0  0
  -21.3660   -5.6778   24.9186 C   0  0  0  0  0  0
  -21.6045   -4.3047   24.7246 C   0  0  0  0  0  0
  -21.8819   -3.8120   23.4374 C   0  0  0  0  0  0
  -21.9185   -4.6928   22.3415 C   0  0  0  0  0  0
  -22.7436  -13.5135   21.2025 C   0  0  0  0  0  0
  -22.1649   -4.2124   21.0998 F   0  0  0  0  0  0
  -21.5644   -3.4523   25.7760 F   0  0  0  0  0  0
  -29.3838  -14.5184   20.6087 N   0  0  0  0  0  0
  -26.2019  -12.9340   20.2887 N   0  0  0  0  0  0
  -25.8894  -11.6472   20.5579 N   0  0  0  0  0  0
  -22.0080  -12.8146   22.0581 N   0  0  0  0  0  0
  -25.3538  -15.1853   20.3777 N   0  0  0  0  0  0
  -30.8577  -15.9929   20.6186 O   0  0  0  0  0  0
  -21.6594   -6.8800   21.4242 O   0  0  0  0  0  0
  -22.3263  -14.5519   20.6887 O   0  0  0  0  0  0
  -24.8481  -31.8919   23.3501 C   0  0  0  0  0  0
  -26.0703  -32.5493   23.9498 C   0  0  1  0  0  0
  -26.0906  -27.8856   18.9752 C   0  0  0  0  0  0
  -25.6946  -33.9134   24.3108 N   0  0  0  0  0  0
  -23.9436  -30.0506   22.0664 C   0  0  2  0  0  0
  -25.3457  -29.0339   20.8086 C   0  0  0  0  0  0
  -23.7596  -28.3844   22.5229 C   0  0  0  0  0  0
  -18.0898  -27.8524   22.7129 C   0  0  0  0  0  0
  -24.1531  -36.7432   23.2502 C   0  0  0  0  0  0
  -26.4304  -30.8810   21.5836 C   0  0  0  0  0  0
  -26.4125  -29.6753   20.6154 C   0  0  0  0  0  0
  -26.9895  -28.9805   19.5342 C   0  0  0  0  0  0
  -26.2818  -26.8879   19.8483 C   0  0  0  0  0  0
  -25.5139  -27.5022   20.8252 C   0  0  0  0  0  0
  -24.2117  -30.1001   20.6533 C   0  0  0  0  0  0
  -25.4129  -36.3351   24.0297 C   0  0  1  0  0  0
  -20.7906  -27.1655   22.4839 C   0  0  2  0  0  0
  -20.3878  -26.0562   21.6889 C   0  0  0  0  0  0
  -19.1116  -26.3841   21.0117 C   0  0  0  0  0  0
  -17.9653  -26.5492   21.9992 C   0  0  0  0  0  0
  -19.4213  -28.3025   22.9538 C   0  0  0  0  0  0
  -19.3166  -29.6594   23.5587 C   0  0  0  0  0  0
  -18.0988  -30.3623   23.8919 C   0  0  0  0  0  0
  -25.9227  -34.9746   23.5286 C   0  0  0  0  0  0
  -16.8476  -29.7973   23.6113 C   0  0  0  0  0  0
  -16.8680  -28.5283   23.0202 C   0  0  0  0  0  0
  -26.5482  -31.6972   25.1775 C   0  0  0  0  0  0
  -25.4344  -31.4023   26.2108 C   0  0  0  0  0  0
  -27.1494  -30.3300   24.7547 C   0  0  0  0  0  0
  -27.6844  -32.4662   25.8678 C   0  0  0  0  0  0
  -27.5593  -37.1969   24.8447 C   0  0  0  0  0  0
  -22.6309  -27.2749   22.1971 N   0  0  0  0  0  0
  -26.4305  -37.4034   23.9405 N   0  0  0  0  0  0
  -25.1061  -30.9294   22.4412 N   0  0  0  0  0  0
  -24.5323  -28.1758   23.4120 O   0  0  0  0  0  0
  -24.4990  -27.9315   18.9285 O   0  0  0  0  0  0
  -26.5375  -34.9041   22.4595 O   0  0  0  0  0  0
  -23.7247  -32.2144   23.7825 O   0  0  0  0  0  0
  -25.0955  -18.1062   21.8543 C   0  0  0  0  0  0
  -25.1561  -19.4129   22.2377 C   0  0  0  0  0  0
  -27.3216  -18.4826   21.7951 C   0  0  0  0  0  0
  -23.9343  -20.1978   22.5967 C   0  0  0  0  0  0
  -23.6622  -26.7813   25.8164 C   0  0  0  0  0  0
  -21.8370  -25.4833   25.0326 C   0  0  0  0  0  0
  -21.6367  -29.2429   21.6084 C   0  0  0  0  0  0
  -26.1685  -21.8325   22.7776 C   0  0  0  0  0  0
  -24.6317  -23.3047   23.3110 C   0  0  0  0  0  0
  -22.7939  -28.2485   19.8931 C   0  0  0  0  0  0
  -21.9274  -28.4818   24.0407 C   0  0  1  0  0  0
  -22.9390  -26.4277   24.4858 C   0  0  0  0  0  0
  -26.4727  -19.8911   22.2413 N   0  0  0  0  0  0
  -26.3284  -17.6169   21.6150 N   0  3  0  0  0  0
  -28.7906  -17.3864   21.3918 N   0  0  0  0  0  0
  -24.2021  -25.1565   23.7104 N   0  3  0  0  0  0
  -22.4646  -29.5308   24.8408 O   0  0  0  0  0  0
  -31.1755  -13.9243   19.4548 H   0  0  0  0  0  0
  -30.5815  -12.6601   20.4505 H   0  0  0  0  0  0
  -30.1619  -12.0665   18.0713 H   0  0  0  0  0  0
  -29.4626  -13.6380   17.7591 H   0  0  0  0  0  0
  -28.2426  -11.3382   19.2878 H   0  0  0  0  0  0
  -27.5387  -12.2278   17.9495 H   0  0  0  0  0  0
  -27.3863  -14.2174   19.2866 H   0  0  0  0  0  0
  -28.7240  -12.7250   21.5994 H   0  0  0  0  0  0
  -27.7649  -14.1599   21.8381 H   0  0  0  0  0  0
  -25.2645   -9.5669   22.4780 H   0  0  0  0  0  0
  -23.9967   -7.4553   22.7449 H   0  0  0  0  0  0
  -21.0754   -8.8638   19.8938 H   0  0  0  0  0  0
  -22.3531  -10.9588   19.6200 H   0  0  0  0  0  0
  -21.1966   -7.6119   23.9727 H   0  0  0  0  0  0
  -21.1488   -6.0499   25.9099 H   0  0  0  0  0  0
  -22.0597   -2.7583   23.2875 H   0  0  0  0  0  0
  -22.3655  -11.9754   22.4919 H   0  0  0  0  0  0
  -21.0724  -13.1215   22.2828 H   0  0  0  0  0  0
  -24.4415  -15.6188   20.2675 H   0  0  0  0  0  0
  -25.9105  -15.3561   19.5478 H   0  0  0  0  0  0
  -26.8946  -32.6208   23.2445 H   0  0  0  0  0  0
  -25.1328  -34.0292   25.1411 H   0  0  0  0  0  0
  -23.1302  -30.6790   22.3523 H   0  0  0  0  0  0
  -23.3833  -35.9734   23.3159 H   0  0  0  0  0  0
  -24.3648  -36.8977   22.1914 H   0  0  0  0  0  0
  -23.7212  -37.6632   23.6442 H   0  0  0  0  0  0
  -26.5481  -31.8047   21.0140 H   0  0  0  0  0  0
  -27.3307  -30.7723   22.1775 H   0  0  0  0  0  0
  -27.9695  -29.2075   19.1349 H   0  0  0  0  0  0
  -26.0436  -25.8560   19.6293 H   0  0  0  0  0  0
  -24.7944  -26.7574   21.1204 H   0  0  0  0  0  0
  -23.4549  -30.2876   19.8997 H   0  0  0  0  0  0
  -24.5530  -31.0769   20.2813 H   0  0  0  0  0  0
  -25.1221  -36.2292   25.0770 H   0  0  0  0  0  0
  -20.6368  -26.6471   23.4104 H   0  0  0  0  0  0
  -20.2517  -25.1299   22.2544 H   0  0  0  0  0  0
  -21.1245  -25.8035   20.9243 H   0  0  0  0  0  0
  -18.8638  -25.5696   20.3295 H   0  0  0  0  0  0
  -19.2133  -27.2664   20.3796 H   0  0  0  0  0  0
  -17.0251  -26.5160   21.4451 H   0  0  0  0  0  0
  -17.9129  -25.7232   22.7085 H   0  0  0  0  0  0
  -20.2120  -30.2191   23.7845 H   0  0  0  0  0  0
  -18.1386  -31.3371   24.3566 H   0  0  0  0  0  0
  -15.9205  -30.3018   23.8478 H   0  0  0  0  0  0
  -15.9195  -28.0665   22.7853 H   0  0  0  0  0  0
  -24.6921  -30.7048   25.8261 H   0  0  0  0  0  0
  -24.9159  -32.3135   26.5092 H   0  0  0  0  0  0
  -25.8383  -30.9485   27.1159 H   0  0  0  0  0  0
  -26.4415  -29.6731   24.2566 H   0  0  0  0  0  0
  -27.4916  -29.7803   25.6323 H   0  0  0  0  0  0
  -28.0315  -30.4443   24.1255 H   0  0  0  0  0  0
  -27.3413  -33.4022   26.3097 H   0  0  0  0  0  0
  -28.4882  -32.7072   25.1706 H   0  0  0  0  0  0
  -28.1288  -31.8816   26.6737 H   0  0  0  0  0  0
  -28.2608  -38.0276   24.7624 H   0  0  0  0  0  0
  -28.1131  -36.2846   24.6184 H   0  0  0  0  0  0
  -27.2318  -37.1472   25.8841 H   0  0  0  0  0  0
  -23.0141  -26.3441   22.2138 H   0  0  0  0  0  0
  -26.0190  -38.3109   24.1427 H   0  0  0  0  0  0
  -24.2277  -17.4723   21.7392 H   0  0  0  0  0  0
  -23.0453  -19.5812   22.4653 H   0  0  0  0  0  0
  -23.9675  -20.5000   23.6425 H   0  0  0  0  0  0
  -23.8133  -21.0557   21.9392 H   0  0  0  0  0  0
  -24.0614  -25.8896   26.3041 H   0  0  0  0  0  0
  -22.9840  -27.2421   26.5322 H   0  0  0  0  0  0
  -24.5006  -27.4644   25.6903 H   0  0  0  0  0  0
  -22.2206  -24.7728   25.7639 H   0  0  0  0  0  0
  -21.3951  -24.8650   24.2536 H   0  0  0  0  0  0
  -21.0473  -26.0467   25.5310 H   0  0  0  0  0  0
  -20.6529  -29.1027   21.1719 H   0  0  0  0  0  0
  -21.4849  -30.3163   21.4777 H   0  0  0  0  0  0
  -26.8376  -21.9058   23.6360 H   0  0  0  0  0  0
  -26.7219  -22.3532   21.9960 H   0  0  0  0  0  0
  -24.1400  -22.8355   24.1620 H   0  0  0  0  0  0
  -23.9333  -23.1747   22.4866 H   0  0  0  0  0  0
  -22.2624  -28.7059   19.0568 H   0  0  0  0  0  0
  -22.3680  -27.2479   19.8079 H   0  0  0  0  0  0
  -21.0464  -28.4021   24.6732 H   0  0  0  0  0  0
  -26.4382  -16.6591   21.2939 H   0  0  0  0  0  0
  -29.5720  -18.0227   21.4540 H   0  0  0  0  0  0
  -24.8796  -25.2528   24.4513 H   0  0  0  0  0  0
  -24.6550  -25.6713   22.9748 H   0  0  0  0  0  0
  -22.7517  -29.1617   25.6669 H   0  0  0  0  0  0
  1 25  1  0  0  0
  1 30  2  0  0  0
  1 85  1  0  0  0
  2  3  1  0  0  0
  2 25  1  0  0  0
  2 88  1  0  0  0
  2 89  1  0  0  0
  3  4  1  0  0  0
  3 90  1  0  0  0
  3 91  1  0  0  0
  4  5  1  0  0  0
  4 92  1  0  0  0
  4 93  1  0  0  0
  5  6  1  0  0  0
  5 26  1  0  0  0
  5 94  1  0  0  0
  6 25  1  0  0  0
  6 95  1  0  0  0
  6 96  1  0  0  0
  7  8  2  0  0  0
  7 26  1  0  0  0
  7 29  1  0  0  0
  8  9  1  0  0  0
  8 22  1  0  0  0
  9 10  1  0  0  0
  9 27  2  0  0  0
 10 11  2  0  0  0
 10 15  1  0  0  0
 11 12  1  0  0  0
 11 97  1  0  0  0
 12 13  2  0  0  0
 12 98  1  0  0  0
 13 14  1  0  0  0
 13 31  1  0  0  0
 14 15  2  0  0  0
 14 99  1  0  0  0
 15100  1  0  0  0
 16 17  2  0  0  0
 16 21  1  0  0  0
 16 31  1  0  0  0
 17 18  1  0  0  0
 17101  1  0  0  0
 18 19  2  0  0  0
 18102  1  0  0  0
 19 20  1  0  0  0
 19 24  1  0  0  0
 20 21  2  0  0  0
 20103  1  0  0  0
 21 23  1  0  0  0
 22 28  1  0  0  0
 22 32  2  0  0  0
 26 27  1  0  0  0
 28104  1  0  0  0
 28105  1  0  0  0
 29106  1  0  0  0
 29107  1  0  0  0
 33 34  1  0  0  0
 33 66  1  0  0  0
 33 70  2  0  0  0
 34 36  1  0  0  0
 34 59  1  0  0  0
 34108  1  0  0  0
 35 44  2  0  0  0
 35 45  1  0  0  0
 35 68  1  0  0  0
 36 56  1  0  0  0
 36109  1  0  0  0
 37 39  1  0  0  0
 37 47  1  0  0  0
 37 66  1  0  0  0
 37110  1  0  0  0
 38 43  2  0  0  0
 38 46  1  0  0  0
 38 47  1  0  0  0
 39 64  1  0  0  0
 39 67  2  0  0  0
 40 52  1  0  0  0
 40 53  2  0  0  0
 40 58  1  0  0  0
 41111  1  0  0  0
 41112  1  0  0  0
 41113  1  0  0  0
 41 48  1  0  0  0
 42 43  1  0  0  0
 42 66  1  0  0  0
 42114  1  0  0  0
 42115  1  0  0  0
 43 44  1  0  0  0
 44116  1  0  0  0
 45 46  2  0  0  0
 45117  1  0  0  0
 46118  1  0  0  0
 47119  1  0  0  0
 47120  1  0  0  0
 48 56  1  0  0  0
 48 65  1  0  0  0
 48121  1  0  0  0
 49 50  1  0  0  0
 49 53  1  0  0  0
 49 64  1  0  0  0
 49122  1  0  0  0
 50 51  1  0  0  0
 50123  1  0  0  0
 50124  1  0  0  0
 51 52  1  0  0  0
 51125  1  0  0  0
 51126  1  0  0  0
 52127  1  0  0  0
 52128  1  0  0  0
 53 54  1  0  0  0
 54 55  2  0  0  0
 54129  1  0  0  0
 55 57  1  0  0  0
 55130  1  0  0  0
 56 69  2  0  0  0
 57 58  2  0  0  0
 57131  1  0  0  0
 58132  1  0  0  0
 59 60  1  0  0  0
 59 61  1  0  0  0
 59 62  1  0  0  0
 60133  1  0  0  0
 60134  1  0  0  0
 60135  1  0  0  0
 61136  1  0  0  0
 61137  1  0  0  0
 61138  1  0  0  0
 62139  1  0  0  0
 62140  1  0  0  0
 62141  1  0  0  0
 63 65  1  0  0  0
 63142  1  0  0  0
 63143  1  0  0  0
 63144  1  0  0  0
 64145  1  0  0  0
 65146  1  0  0  0
 68 80  1  0  0  0
 71 72  2  0  0  0
 71 84  1  0  0  0
 71147  1  0  0  0
 72 74  1  0  0  0
 72 83  1  0  0  0
 73 83  1  0  0  0
 73 84  2  0  0  0
 73 85  1  0  0  0
 74148  1  0  0  0
 74149  1  0  0  0
 74150  1  0  0  0
 75151  1  0  0  0
 75152  1  0  0  0
 75153  1  0  0  0
 75 82  1  0  0  0
 76 82  1  0  0  0
 76154  1  0  0  0
 76155  1  0  0  0
 76156  1  0  0  0
 77 80  1  0  0  0
 77 81  1  0  0  0
 77157  1  0  0  0
 77158  1  0  0  0
 78 79  1  0  0  0
 78 83  1  0  0  0
 78159  1  0  0  0
 78160  1  0  0  0
 79 86  1  0  0  0
 79161  1  0  0  0
 79162  1  0  0  0
 80163  1  0  0  0
 80164  1  0  0  0
 81 82  1  0  0  0
 81 87  1  0  0  0
 81165  1  0  0  0
 82 86  1  0  0  0
 84166  1  0  0  0
 85167  1  0  0  0
 86168  1  0  0  0
 86169  1  0  0  0
 87170  1  0  0  0
M  CHG  2  84   1  86   1
M  ISO  4   1 100  68 101  80 101  85 100
M  END
> <chiral flag>
0

> <version>
0

> <s_m_source_file>
/data/baiqing/PycharmProjects/Reinvent-master-3.2/result/LINK_invent/BTK/process_docking_weight1_custom_product_contain_oxygen_bond_distance_aromatic_linkinvent_7_9_3/rearranged_h_0191.sdf

> <i_m_source_file_index>
24

> <r_mmod_Potential_Energy-OPLS-2005>
16298.0732421875

> <r_mmod_Stretch_Energy-OPLS-2005>
6574.89892578125

> <r_mmod_Bend_Energy-OPLS-2005>
2362.42358398438

> <r_mmod_Torsional_Energy-OPLS-2005>
683.993835449219

> <r_mmod_Improper_Torsional_Energy-OPLS-2005>
59.3511657714844

> <r_mmod_Van_der_Waal_Energy-OPLS-2005>
2085.48999023438

> <r_mmod_Electrostatic_Energy-OPLS-2005>
-72.1433334350586

> <r_mmod_Solvation_Energy-OPLS-2005>
-869.772399902344

> <b_mmod_Minimization_Converged-OPLS-2005>
0

> <r_mmod_RMS_Derivative-OPLS-2005>
6.36241006851196

$$$$
25
                    3D
 Structure written by MMmdl.
157165  0  0  1  0            999 V2000
  -30.5144  -15.0153   20.4155 C   0  0  0  0  0  0
  -30.4538  -12.6225   19.5144 C   0  0  0  0  0  0
  -29.5373  -12.5502   18.2683 C   0  0  0  0  0  0
  -28.0708  -12.3216   18.6801 C   0  0  0  0  0  0
  -27.6361  -13.2552   19.8380 C   0  0  2  0  0  0
  -28.6761  -13.3021   20.9775 C   0  0  0  0  0  0
  -25.2497  -13.8218   20.5721 C   0  0  0  0  0  0
  -24.1820  -13.0439   20.9233 C   0  0  0  0  0  0
  -24.6444  -11.6922   20.8746 C   0  0  0  0  0  0
  -23.9118  -10.4302   21.0416 C   0  0  0  0  0  0
  -24.3655   -9.4205   21.9190 C   0  0  0  0  0  0
  -23.6317   -8.2247   22.0764 C   0  0  0  0  0  0
  -22.4292   -8.0303   21.3560 C   0  0  0  0  0  0
  -21.9955   -9.0277   20.4651 C   0  0  0  0  0  0
  -22.7302  -10.2146   20.3054 C   0  0  0  0  0  0
  -21.6852   -6.0750   22.5290 C   0  0  0  0  0  0
  -21.4015   -6.5650   23.8228 C   0  0  0  0  0  0
  -21.3655   -5.6800   24.9188 C   0  0  0  0  0  0
  -21.6044   -4.3063   24.7229 C   0  0  0  0  0  0
  -21.8820   -3.8157   23.4346 C   0  0  0  0  0  0
  -21.9200   -4.6977   22.3409 C   0  0  0  0  0  0
  -22.7831  -13.5203   21.1888 C   0  0  0  0  0  0
  -22.1668   -4.2165   21.0988 F   0  0  0  0  0  0
  -21.5624   -3.4542   25.7737 F   0  0  0  0  0  0
  -29.9568  -13.7269   20.3948 N   0  0  0  0  0  0
  -26.2946  -12.9473   20.3238 N   0  0  0  0  0  0
  -25.9387  -11.6594   20.5728 N   0  0  0  0  0  0
  -22.0468  -12.8182   22.0419 N   0  0  0  0  0  0
  -25.4146  -15.1962   20.4177 N   0  0  0  0  0  0
  -31.7051  -15.0493   20.0881 O   0  0  0  0  0  0
  -21.6649   -6.8898   21.4257 O   0  0  0  0  0  0
  -22.3502  -14.5511   20.6743 O   0  0  0  0  0  0
  -24.6492  -31.8412   23.1824 C   0  0  0  0  0  0
  -25.9250  -32.4673   23.8233 C   0  0  1  0  0  0
  -27.2207  -27.0887   20.1560 C   0  0  0  0  0  0
  -25.5991  -33.8476   24.2174 N   0  0  0  0  0  0
  -23.4551  -30.4595   21.5287 C   0  0  2  0  0  0
  -24.9050  -28.8796   20.1098 C   0  0  0  0  0  0
  -22.7599  -29.4553   22.4832 C   0  0  0  0  0  0
  -18.0321  -28.1411   22.8464 C   0  0  0  0  0  0
  -24.1508  -36.7251   23.2636 C   0  0  0  0  0  0
  -26.0136  -30.7014   21.3853 C   0  0  0  0  0  0
  -26.0856  -29.3067   20.7303 C   0  0  0  0  0  0
  -27.2421  -28.4292   20.7353 C   0  0  0  0  0  0
  -26.0045  -26.7774   19.5028 C   0  0  0  0  0  0
  -24.8803  -27.6294   19.4796 C   0  0  0  0  0  0
  -23.6828  -29.7848   20.1500 C   0  0  0  0  0  0
  -25.4136  -36.3025   24.0312 C   0  0  1  0  0  0
  -20.5934  -28.3765   23.1203 C   0  0  2  0  0  0
  -20.6819  -26.9461   22.5390 C   0  0  0  0  0  0
  -19.5790  -26.6403   21.5204 C   0  0  0  0  0  0
  -18.1969  -26.7947   22.1613 C   0  0  0  0  0  0
  -19.1577  -28.8901   23.2823 C   0  0  0  0  0  0
  -18.9487  -30.1490   23.8860 C   0  0  0  0  0  0
  -17.6482  -30.6597   24.0568 C   0  0  0  0  0  0
  -25.9088  -34.9400   23.5057 C   0  0  0  0  0  0
  -16.5377  -29.9084   23.6337 C   0  0  0  0  0  0
  -16.7307  -28.6507   23.0357 C   0  0  0  0  0  0
  -26.4563  -31.6525   25.0671 C   0  0  0  0  0  0
  -25.3732  -31.3690   26.1345 C   0  0  0  0  0  0
  -27.0442  -30.2921   24.6253 C   0  0  0  0  0  0
  -27.6088  -32.4279   25.7474 C   0  0  0  0  0  0
  -27.5589  -37.1785   24.8466 C   0  0  0  0  0  0
  -21.4287  -29.3075   22.3569 N   0  0  0  0  0  0
  -26.4298  -37.3741   23.9405 N   0  0  0  0  0  0
  -24.7262  -31.0220   22.0885 N   0  0  0  0  0  0
  -23.4211  -28.8103   23.3015 O   0  0  0  0  0  0
  -28.2605  -26.0682   20.2429 O   0  0  0  0  0  0
  -26.5667  -34.8917   22.4633 O   0  0  0  0  0  0
  -23.5602  -32.1326   23.7011 O   0  0  0  0  0  0
  -30.0227  -18.0840   20.4864 C   0  0  0  0  0  0
  -31.2658  -18.7044   20.3485 C   0  0  0  0  0  0
  -29.4667  -20.5564   20.3648 C   0  0  0  0  0  0
  -28.9956  -23.2708   20.3681 C   0  0  0  0  0  0
  -33.7628  -18.8595   20.8841 C   0  0  0  0  0  0
  -32.9545  -17.7527   18.7707 C   0  0  0  0  0  0
  -28.1493  -24.5252   18.3226 C   0  0  0  0  0  0
  -29.6617  -16.4507   20.7170 C   0  0  0  0  0  0
  -32.6177  -18.0554   20.2385 C   0  0  0  0  0  0
  -28.0303  -24.5502   19.8591 C   0  0  2  0  0  0
  -29.0358  -19.2143   20.4776 N   0  0  0  0  0  0
  -28.6657  -21.8759   20.2559 N   0  0  0  0  0  0
  -30.0807  -23.5823   20.8651 O   0  0  0  0  0  0
  -31.2093  -20.4899   20.2074 S   0  0  0  0  0  0
  -31.4875  -12.7792   19.1997 H   0  0  0  0  0  0
  -30.4521  -11.6720   20.0511 H   0  0  0  0  0  0
  -29.8666  -11.7563   17.5964 H   0  0  0  0  0  0
  -29.6169  -13.4805   17.7038 H   0  0  0  0  0  0
  -27.9751  -11.2814   18.9909 H   0  0  0  0  0  0
  -27.4092  -12.4443   17.8221 H   0  0  0  0  0  0
  -27.5932  -14.2530   19.4006 H   0  0  0  0  0  0
  -28.7712  -12.3310   21.4647 H   0  0  0  0  0  0
  -28.3623  -14.0037   21.7513 H   0  0  0  0  0  0
  -25.2794   -9.5666   22.4768 H   0  0  0  0  0  0
  -24.0021   -7.4630   22.7478 H   0  0  0  0  0  0
  -21.0893   -8.8819   19.8932 H   0  0  0  0  0  0
  -22.3793  -10.9695   19.6154 H   0  0  0  0  0  0
  -21.2004   -7.6160   23.9741 H   0  0  0  0  0  0
  -21.1470   -6.0523   25.9097 H   0  0  0  0  0  0
  -22.0597   -2.7620   23.2848 H   0  0  0  0  0  0
  -22.4097  -11.9828   22.4775 H   0  0  0  0  0  0
  -21.1072  -13.1185   22.2591 H   0  0  0  0  0  0
  -24.6404  -15.8415   20.5320 H   0  0  0  0  0  0
  -26.2610  -15.6480   20.0957 H   0  0  0  0  0  0
  -26.7312  -32.5274   23.0960 H   0  0  0  0  0  0
  -25.0139  -33.9562   25.0326 H   0  0  0  0  0  0
  -22.7617  -31.2880   21.3682 H   0  0  0  0  0  0
  -23.3781  -35.9568   23.3260 H   0  0  0  0  0  0
  -24.3607  -36.8924   22.2059 H   0  0  0  0  0  0
  -23.7250  -37.6437   23.6685 H   0  0  0  0  0  0
  -26.1661  -31.4495   20.6061 H   0  0  0  0  0  0
  -26.8864  -30.7593   22.0233 H   0  0  0  0  0  0
  -28.1392  -28.7527   21.2441 H   0  0  0  0  0  0
  -25.8682  -25.8213   19.0250 H   0  0  0  0  0  0
  -23.9775  -27.2918   18.9893 H   0  0  0  0  0  0
  -23.8263  -30.5566   19.3936 H   0  0  0  0  0  0
  -22.7964  -29.2289   19.8373 H   0  0  0  0  0  0
  -25.1318  -36.1859   25.0798 H   0  0  0  0  0  0
  -21.0022  -28.3376   24.1328 H   0  0  0  0  0  0
  -20.5741  -26.2377   23.3620 H   0  0  0  0  0  0
  -21.6683  -26.7481   22.1173 H   0  0  0  0  0  0
  -19.6965  -25.6306   21.1255 H   0  0  0  0  0  0
  -19.6726  -27.3201   20.6718 H   0  0  0  0  0  0
  -17.4244  -26.6698   21.4014 H   0  0  0  0  0  0
  -18.0361  -26.0090   22.9006 H   0  0  0  0  0  0
  -19.7961  -30.7314   24.2217 H   0  0  0  0  0  0
  -17.5036  -31.6265   24.5197 H   0  0  0  0  0  0
  -15.5377  -30.2983   23.7671 H   0  0  0  0  0  0
  -15.8708  -28.0814   22.7086 H   0  0  0  0  0  0
  -24.5952  -30.7003   25.7643 H   0  0  0  0  0  0
  -24.8874  -32.2857   26.4689 H   0  0  0  0  0  0
  -25.8014  -30.8917   27.0168 H   0  0  0  0  0  0
  -26.3058  -29.6608   24.1294 H   0  0  0  0  0  0
  -27.4112  -29.7242   25.4816 H   0  0  0  0  0  0
  -27.8946  -30.4164   23.9542 H   0  0  0  0  0  0
  -27.2696  -33.3617   26.1965 H   0  0  0  0  0  0
  -28.3958  -32.6764   25.0339 H   0  0  0  0  0  0
  -28.0688  -31.8442   26.5464 H   0  0  0  0  0  0
  -28.2574  -38.0116   24.7532 H   0  0  0  0  0  0
  -28.1125  -36.2638   24.6270 H   0  0  0  0  0  0
  -27.2298  -37.1401   25.8869 H   0  0  0  0  0  0
  -20.9515  -29.8762   21.6711 H   0  0  0  0  0  0
  -26.0172  -38.2811   24.1409 H   0  0  0  0  0  0
  -33.5638  -19.0735   21.9344 H   0  0  0  0  0  0
  -33.9380  -19.8070   20.3735 H   0  0  0  0  0  0
  -34.7000  -18.3029   20.8403 H   0  0  0  0  0  0
  -32.1893  -17.1255   18.3114 H   0  0  0  0  0  0
  -33.9033  -17.2236   18.6849 H   0  0  0  0  0  0
  -33.0272  -18.6672   18.1798 H   0  0  0  0  0  0
  -27.7424  -23.6015   17.9103 H   0  0  0  0  0  0
  -29.1956  -24.5901   18.0204 H   0  0  0  0  0  0
  -27.6394  -25.3534   17.8380 H   0  0  0  0  0  0
  -28.7102  -16.2819   20.2151 H   0  0  0  0  0  0
  -29.4070  -16.3540   21.7722 H   0  0  0  0  0  0
  -32.5936  -17.1283   20.8025 H   0  0  0  0  0  0
  -27.0159  -24.2880   20.1603 H   0  0  0  0  0  0
  -27.7056  -21.7326   19.9801 H   0  0  0  0  0  0
  1 25  1  0  0  0
  1 30  2  0  0  0
  1 78  1  0  0  0
  2  3  1  0  0  0
  2 25  1  0  0  0
  2 85  1  0  0  0
  2 86  1  0  0  0
  3  4  1  0  0  0
  3 87  1  0  0  0
  3 88  1  0  0  0
  4  5  1  0  0  0
  4 89  1  0  0  0
  4 90  1  0  0  0
  5  6  1  0  0  0
  5 26  1  0  0  0
  5 91  1  0  0  0
  6 25  1  0  0  0
  6 92  1  0  0  0
  6 93  1  0  0  0
  7  8  2  0  0  0
  7 26  1  0  0  0
  7 29  1  0  0  0
  8  9  1  0  0  0
  8 22  1  0  0  0
  9 10  1  0  0  0
  9 27  2  0  0  0
 10 11  2  0  0  0
 10 15  1  0  0  0
 11 12  1  0  0  0
 11 94  1  0  0  0
 12 13  2  0  0  0
 12 95  1  0  0  0
 13 14  1  0  0  0
 13 31  1  0  0  0
 14 15  2  0  0  0
 14 96  1  0  0  0
 15 97  1  0  0  0
 16 17  2  0  0  0
 16 21  1  0  0  0
 16 31  1  0  0  0
 17 18  1  0  0  0
 17 98  1  0  0  0
 18 19  2  0  0  0
 18 99  1  0  0  0
 19 20  1  0  0  0
 19 24  1  0  0  0
 20 21  2  0  0  0
 20100  1  0  0  0
 21 23  1  0  0  0
 22 28  1  0  0  0
 22 32  2  0  0  0
 26 27  1  0  0  0
 28101  1  0  0  0
 28102  1  0  0  0
 29103  1  0  0  0
 29104  1  0  0  0
 33 34  1  0  0  0
 33 66  1  0  0  0
 33 70  2  0  0  0
 34 36  1  0  0  0
 34 59  1  0  0  0
 34105  1  0  0  0
 35 44  2  0  0  0
 35 45  1  0  0  0
 35 68  1  0  0  0
 36 56  1  0  0  0
 36106  1  0  0  0
 37 39  1  0  0  0
 37 47  1  0  0  0
 37 66  1  0  0  0
 37107  1  0  0  0
 38 43  2  0  0  0
 38 46  1  0  0  0
 38 47  1  0  0  0
 39 64  1  0  0  0
 39 67  2  0  0  0
 40 52  1  0  0  0
 40 53  2  0  0  0
 40 58  1  0  0  0
 41108  1  0  0  0
 41109  1  0  0  0
 41110  1  0  0  0
 41 48  1  0  0  0
 42 43  1  0  0  0
 42 66  1  0  0  0
 42111  1  0  0  0
 42112  1  0  0  0
 43 44  1  0  0  0
 44113  1  0  0  0
 45 46  2  0  0  0
 45114  1  0  0  0
 46115  1  0  0  0
 47116  1  0  0  0
 47117  1  0  0  0
 48 56  1  0  0  0
 48 65  1  0  0  0
 48118  1  0  0  0
 49 50  1  0  0  0
 49 53  1  0  0  0
 49 64  1  0  0  0
 49119  1  0  0  0
 50 51  1  0  0  0
 50120  1  0  0  0
 50121  1  0  0  0
 51 52  1  0  0  0
 51122  1  0  0  0
 51123  1  0  0  0
 52124  1  0  0  0
 52125  1  0  0  0
 53 54  1  0  0  0
 54 55  2  0  0  0
 54126  1  0  0  0
 55 57  1  0  0  0
 55127  1  0  0  0
 56 69  2  0  0  0
 57 58  2  0  0  0
 57128  1  0  0  0
 58129  1  0  0  0
 59 60  1  0  0  0
 59 61  1  0  0  0
 59 62  1  0  0  0
 60130  1  0  0  0
 60131  1  0  0  0
 60132  1  0  0  0
 61133  1  0  0  0
 61134  1  0  0  0
 61135  1  0  0  0
 62136  1  0  0  0
 62137  1  0  0  0
 62138  1  0  0  0
 63 65  1  0  0  0
 63139  1  0  0  0
 63140  1  0  0  0
 63141  1  0  0  0
 64142  1  0  0  0
 65143  1  0  0  0
 68 80  1  0  0  0
 71 72  2  0  0  0
 71 78  1  0  0  0
 71 81  1  0  0  0
 72 79  1  0  0  0
 72 84  1  0  0  0
 73 81  2  0  0  0
 73 82  1  0  0  0
 73 84  1  0  0  0
 74 80  1  0  0  0
 74 82  1  0  0  0
 74 83  2  0  0  0
 75144  1  0  0  0
 75145  1  0  0  0
 75146  1  0  0  0
 75 79  1  0  0  0
 76 79  1  0  0  0
 76147  1  0  0  0
 76148  1  0  0  0
 76149  1  0  0  0
 77150  1  0  0  0
 77151  1  0  0  0
 77152  1  0  0  0
 77 80  1  0  0  0
 78153  1  0  0  0
 78154  1  0  0  0
 79155  1  0  0  0
 80156  1  0  0  0
 82157  1  0  0  0
M  ISO  4   1 100  68 101  78 100  80 101
M  END
> <chiral flag>
0

> <version>
0

> <s_m_source_file>
/data/baiqing/PycharmProjects/Reinvent-master-3.2/result/LINK_invent/BTK/process_docking_weight1_custom_product_contain_oxygen_bond_distance_aromatic_linkinvent_7_9_3/rearranged_h_0191.sdf

> <i_m_source_file_index>
25

> <r_mmod_Potential_Energy-OPLS-2005>
555.289184570312

> <r_mmod_Stretch_Energy-OPLS-2005>
325.051208496094

> <r_mmod_Bend_Energy-OPLS-2005>
298.910827636719

> <r_mmod_Torsional_Energy-OPLS-2005>
164.550094604492

> <r_mmod_Improper_Torsional_Energy-OPLS-2005>
3.20714354515076

> <r_mmod_Van_der_Waal_Energy-OPLS-2005>
113.137306213379

> <r_mmod_Electrostatic_Energy-OPLS-2005>
-354.214599609375

> <r_mmod_Solvation_Energy-OPLS-2005>
-230.649505615234

> <b_mmod_Minimization_Converged-OPLS-2005>
0

> <r_mmod_RMS_Derivative-OPLS-2005>
2.10848712921143

$$$$
26
                    3D
 Structure written by MMmdl.
166174  0  0  1  0            999 V2000
  -30.7644  -14.3805   20.6770 C   0  0  0  0  0  0
  -30.4161  -12.3000   19.3875 C   0  0  0  0  0  0
  -29.4790  -12.5234   18.1860 C   0  0  0  0  0  0
  -28.0048  -12.3765   18.6077 C   0  0  0  0  0  0
  -27.6640  -13.2015   19.8770 C   0  0  2  0  0  0
  -28.7054  -12.9494   20.9892 C   0  0  0  0  0  0
  -25.2602  -13.8160   20.5670 C   0  0  0  0  0  0
  -24.1842  -13.0441   20.9165 C   0  0  0  0  0  0
  -24.6383  -11.6906   20.8718 C   0  0  0  0  0  0
  -23.9043  -10.4290   21.0388 C   0  0  0  0  0  0
  -24.3599   -9.4216   21.9176 C   0  0  0  0  0  0
  -23.6278   -8.2244   22.0750 C   0  0  0  0  0  0
  -22.4262   -8.0277   21.3539 C   0  0  0  0  0  0
  -21.9892   -9.0245   20.4645 C   0  0  0  0  0  0
  -22.7206  -10.2132   20.3052 C   0  0  0  0  0  0
  -21.6860   -6.0734   22.5272 C   0  0  0  0  0  0
  -21.4011   -6.5637   23.8204 C   0  0  0  0  0  0
  -21.3658   -5.6794   24.9171 C   0  0  0  0  0  0
  -21.6050   -4.3051   24.7226 C   0  0  0  0  0  0
  -21.8825   -3.8144   23.4343 C   0  0  0  0  0  0
  -21.9188   -4.6960   22.3399 C   0  0  0  0  0  0
  -22.7875  -13.5258   21.1837 C   0  0  0  0  0  0
  -22.1666   -4.2140   21.0978 F   0  0  0  0  0  0
  -21.5632   -3.4541   25.7740 F   0  0  0  0  0  0
  -30.0432  -13.2515   20.4466 N   0  0  0  0  0  0
  -26.3033  -12.9310   20.3379 N   0  0  0  0  0  0
  -25.9309  -11.6472   20.5752 N   0  0  0  0  0  0
  -22.0506  -12.8240   22.0388 N   0  0  0  0  0  0
  -25.4347  -15.1866   20.4082 N   0  0  0  0  0  0
  -31.8020  -14.6537   20.0694 O   0  0  0  0  0  0
  -21.6641   -6.8871   21.4228 O   0  0  0  0  0  0
  -22.3561  -14.5561   20.6690 O   0  0  0  0  0  0
  -24.6139  -31.8697   23.2098 C   0  0  0  0  0  0
  -25.9028  -32.4839   23.8420 C   0  0  1  0  0  0
  -27.2376  -27.4510   20.1028 C   0  0  0  0  0  0
  -25.5871  -33.8614   24.2359 N   0  0  0  0  0  0
  -23.4035  -30.4891   21.5523 C   0  0  2  0  0  0
  -24.8500  -28.9485   20.1258 C   0  0  0  0  0  0
  -22.7425  -29.4654   22.5031 C   0  0  0  0  0  0
  -18.0276  -28.1371   22.8502 C   0  0  0  0  0  0
  -24.1482  -36.7312   23.2631 C   0  0  0  0  0  0
  -25.9287  -30.8385   21.3603 C   0  0  0  0  0  0
  -26.0089  -29.4712   20.7156 C   0  0  0  0  0  0
  -27.2074  -28.7270   20.7025 C   0  0  0  0  0  0
  -26.0662  -26.9300   19.5171 C   0  0  0  0  0  0
  -24.8707  -27.6752   19.5248 C   0  0  0  0  0  0
  -23.6110  -29.8131   20.1710 C   0  0  0  0  0  0
  -25.4096  -36.3114   24.0345 C   0  0  1  0  0  0
  -20.5862  -28.3644   23.1332 C   0  0  2  0  0  0
  -20.6759  -26.9375   22.5428 C   0  0  0  0  0  0
  -19.5741  -26.6390   21.5207 C   0  0  0  0  0  0
  -18.1914  -26.7928   22.1613 C   0  0  0  0  0  0
  -19.1520  -28.8826   23.2915 C   0  0  0  0  0  0
  -18.9445  -30.1435   23.8908 C   0  0  0  0  0  0
  -17.6455  -30.6582   24.0554 C   0  0  0  0  0  0
  -25.9012  -34.9475   23.5161 C   0  0  0  0  0  0
  -16.5341  -29.9069   23.6333 C   0  0  0  0  0  0
  -16.7259  -28.6495   23.0354 C   0  0  0  0  0  0
  -26.4476  -31.6599   25.0728 C   0  0  0  0  0  0
  -25.3746  -31.3662   26.1487 C   0  0  0  0  0  0
  -27.0276  -30.3035   24.6065 C   0  0  0  0  0  0
  -27.6120  -32.4265   25.7445 C   0  0  0  0  0  0
  -27.5585  -37.1795   24.8456 C   0  0  0  0  0  0
  -21.4158  -29.3005   22.3755 N   0  0  0  0  0  0
  -26.4281  -37.3805   23.9413 N   0  0  0  0  0  0
  -24.6665  -31.0782   22.1014 N   0  0  0  0  0  0
  -23.4190  -28.8192   23.3073 O   0  0  0  0  0  0
  -28.4054  -26.7289   20.0683 O   0  0  0  0  0  0
  -26.5603  -34.8937   22.4739 O   0  0  0  0  0  0
  -23.5343  -32.1427   23.7506 O   0  0  0  0  0  0
  -30.5181  -17.5957   21.9058 C   0  0  0  0  0  0
  -29.5236  -19.7853   21.8463 C   0  0  0  0  0  0
  -31.4191  -23.3956   23.8601 C   0  0  0  0  0  0
  -27.5387  -22.8999   23.8840 C   0  0  0  0  0  0
  -31.0534  -16.2496   22.2942 C   0  0  0  0  0  0
  -30.0513  -22.8073   24.2506 C   0  0  0  0  0  0
  -28.2276  -22.9336   20.7135 C   0  0  0  0  0  0
  -28.4279  -25.5630   20.9005 C   0  0  0  0  0  0
  -28.9231  -23.1293   23.2426 C   0  0  1  0  0  0
  -29.0890  -22.3797   21.8870 C   0  0  1  0  0  0
  -28.6158  -24.2888   20.0492 C   0  0  2  0  0  0
  -31.1491  -18.4217   21.0536 N   0  0  0  0  0  0
  -30.5842  -19.6949   21.0336 N   0  0  0  0  0  0
  -28.8243  -20.9577   22.1010 N   0  0  0  0  0  0
  -30.3061  -15.1596   21.6635 N   0  0  0  0  0  0
  -29.9562  -24.2392   19.5882 O   0  0  0  0  0  0
  -29.0855  -18.2915   22.6610 S   0  0  0  0  0  0
  -31.4563  -12.4049   19.0737 H   0  0  0  0  0  0
  -30.3231  -11.2772   19.7557 H   0  0  0  0  0  0
  -29.7074  -11.8143   17.3891 H   0  0  0  0  0  0
  -29.6443  -13.5174   17.7679 H   0  0  0  0  0  0
  -27.8143  -11.3184   18.7898 H   0  0  0  0  0  0
  -27.3465  -12.6650   17.7863 H   0  0  0  0  0  0
  -27.7204  -14.2549   19.6019 H   0  0  0  0  0  0
  -28.6748  -11.9058   21.3065 H   0  0  0  0  0  0
  -28.4524  -13.5228   21.8799 H   0  0  0  0  0  0
  -25.2750   -9.5708   22.4745 H   0  0  0  0  0  0
  -24.0000   -7.4651   22.7479 H   0  0  0  0  0  0
  -21.0824   -8.8748   19.8961 H   0  0  0  0  0  0
  -22.3644  -10.9664   19.6165 H   0  0  0  0  0  0
  -21.1999   -7.6146   23.9699 H   0  0  0  0  0  0
  -21.1482   -6.0530   25.9074 H   0  0  0  0  0  0
  -22.0601   -2.7600   23.2847 H   0  0  0  0  0  0
  -22.4122  -11.9906   22.4779 H   0  0  0  0  0  0
  -21.1127  -13.1270   22.2602 H   0  0  0  0  0  0
  -24.6718  -15.8460   20.5209 H   0  0  0  0  0  0
  -26.2954  -15.6224   20.0992 H   0  0  0  0  0  0
  -26.7097  -32.5573   23.1200 H   0  0  0  0  0  0
  -25.0004  -33.9780   25.0494 H   0  0  0  0  0  0
  -22.6885  -31.3042   21.4106 H   0  0  0  0  0  0
  -23.3768  -35.9619   23.3283 H   0  0  0  0  0  0
  -24.3570  -36.8946   22.2045 H   0  0  0  0  0  0
  -23.7237  -37.6504   23.6670 H   0  0  0  0  0  0
  -26.0339  -31.6020   20.5890 H   0  0  0  0  0  0
  -26.8165  -30.8972   21.9772 H   0  0  0  0  0  0
  -28.1091  -29.1212   21.1505 H   0  0  0  0  0  0
  -26.0825  -25.9548   19.0493 H   0  0  0  0  0  0
  -23.9740  -27.2652   19.0773 H   0  0  0  0  0  0
  -23.7191  -30.5857   19.4083 H   0  0  0  0  0  0
  -22.7359  -29.2302   19.8809 H   0  0  0  0  0  0
  -25.1285  -36.1970   25.0839 H   0  0  0  0  0  0
  -20.9936  -28.3200   24.1457 H   0  0  0  0  0  0
  -20.5633  -26.2237   23.3593 H   0  0  0  0  0  0
  -21.6635  -26.7412   22.1220 H   0  0  0  0  0  0
  -19.6894  -25.6302   21.1211 H   0  0  0  0  0  0
  -19.6709  -27.3227   20.6747 H   0  0  0  0  0  0
  -17.4192  -26.6698   21.4005 H   0  0  0  0  0  0
  -18.0293  -26.0053   22.8979 H   0  0  0  0  0  0
  -19.7917  -30.7248   24.2283 H   0  0  0  0  0  0
  -17.5002  -31.6260   24.5162 H   0  0  0  0  0  0
  -15.5332  -30.2971   23.7673 H   0  0  0  0  0  0
  -15.8658  -28.0815   22.7067 H   0  0  0  0  0  0
  -24.6003  -30.6894   25.7863 H   0  0  0  0  0  0
  -24.8800  -32.2748   26.4900 H   0  0  0  0  0  0
  -25.8110  -30.8924   27.0285 H   0  0  0  0  0  0
  -26.2782  -29.6774   24.1209 H   0  0  0  0  0  0
  -27.4153  -29.7291   25.4490 H   0  0  0  0  0  0
  -27.8579  -30.4357   23.9130 H   0  0  0  0  0  0
  -27.2867  -33.3628   26.1985 H   0  0  0  0  0  0
  -28.3925  -32.6685   25.0220 H   0  0  0  0  0  0
  -28.0775  -31.8362   26.5349 H   0  0  0  0  0  0
  -28.2623  -38.0085   24.7540 H   0  0  0  0  0  0
  -28.1088  -36.2628   24.6260 H   0  0  0  0  0  0
  -27.2301  -37.1404   25.8860 H   0  0  0  0  0  0
  -20.9299  -29.8707   21.6965 H   0  0  0  0  0  0
  -26.0193  -38.2880   24.1454 H   0  0  0  0  0  0
  -32.1847  -23.1041   24.5799 H   0  0  0  0  0  0
  -31.3885  -24.4865   23.8409 H   0  0  0  0  0  0
  -31.7532  -23.0506   22.8822 H   0  0  0  0  0  0
  -27.3997  -23.5450   24.7509 H   0  0  0  0  0  0
  -27.4037  -21.8741   24.2257 H   0  0  0  0  0  0
  -26.7276  -23.1255   23.1940 H   0  0  0  0  0  0
  -30.9662  -16.1442   23.3753 H   0  0  0  0  0  0
  -32.1200  -16.2017   22.0703 H   0  0  0  0  0  0
  -29.7881  -23.2103   25.2295 H   0  0  0  0  0  0
  -30.1317  -21.7289   24.3891 H   0  0  0  0  0  0
  -27.1791  -22.9717   21.0034 H   0  0  0  0  0  0
  -28.2634  -22.1931   19.9121 H   0  0  0  0  0  0
  -29.2515  -25.6911   21.6017 H   0  0  0  0  0  0
  -27.5163  -25.4807   21.4983 H   0  0  0  0  0  0
  -28.9967  -24.1969   23.0667 H   0  0  0  0  0  0
  -30.1273  -22.4528   21.5643 H   0  0  0  0  0  0
  -27.9764  -24.3906   19.1725 H   0  0  0  0  0  0
  -28.0699  -20.8080   22.7600 H   0  0  0  0  0  0
  -29.4447  -14.8763   22.1028 H   0  0  0  0  0  0
  -30.1313  -25.0716   19.1545 H   0  0  0  0  0  0
  1 25  1  0  0  0
  1 30  2  0  0  0
  1 85  1  0  0  0
  2  3  1  0  0  0
  2 25  1  0  0  0
  2 88  1  0  0  0
  2 89  1  0  0  0
  3  4  1  0  0  0
  3 90  1  0  0  0
  3 91  1  0  0  0
  4  5  1  0  0  0
  4 92  1  0  0  0
  4 93  1  0  0  0
  5  6  1  0  0  0
  5 26  1  0  0  0
  5 94  1  0  0  0
  6 25  1  0  0  0
  6 95  1  0  0  0
  6 96  1  0  0  0
  7  8  2  0  0  0
  7 26  1  0  0  0
  7 29  1  0  0  0
  8  9  1  0  0  0
  8 22  1  0  0  0
  9 10  1  0  0  0
  9 27  2  0  0  0
 10 11  2  0  0  0
 10 15  1  0  0  0
 11 12  1  0  0  0
 11 97  1  0  0  0
 12 13  2  0  0  0
 12 98  1  0  0  0
 13 14  1  0  0  0
 13 31  1  0  0  0
 14 15  2  0  0  0
 14 99  1  0  0  0
 15100  1  0  0  0
 16 17  2  0  0  0
 16 21  1  0  0  0
 16 31  1  0  0  0
 17 18  1  0  0  0
 17101  1  0  0  0
 18 19  2  0  0  0
 18102  1  0  0  0
 19 20  1  0  0  0
 19 24  1  0  0  0
 20 21  2  0  0  0
 20103  1  0  0  0
 21 23  1  0  0  0
 22 28  1  0  0  0
 22 32  2  0  0  0
 26 27  1  0  0  0
 28104  1  0  0  0
 28105  1  0  0  0
 29106  1  0  0  0
 29107  1  0  0  0
 33 34  1  0  0  0
 33 66  1  0  0  0
 33 70  2  0  0  0
 34 36  1  0  0  0
 34 59  1  0  0  0
 34108  1  0  0  0
 35 44  2  0  0  0
 35 45  1  0  0  0
 35 68  1  0  0  0
 36 56  1  0  0  0
 36109  1  0  0  0
 37 39  1  0  0  0
 37 47  1  0  0  0
 37 66  1  0  0  0
 37110  1  0  0  0
 38 43  2  0  0  0
 38 46  1  0  0  0
 38 47  1  0  0  0
 39 64  1  0  0  0
 39 67  2  0  0  0
 40 52  1  0  0  0
 40 53  2  0  0  0
 40 58  1  0  0  0
 41111  1  0  0  0
 41112  1  0  0  0
 41113  1  0  0  0
 41 48  1  0  0  0
 42 43  1  0  0  0
 42 66  1  0  0  0
 42114  1  0  0  0
 42115  1  0  0  0
 43 44  1  0  0  0
 44116  1  0  0  0
 45 46  2  0  0  0
 45117  1  0  0  0
 46118  1  0  0  0
 47119  1  0  0  0
 47120  1  0  0  0
 48 56  1  0  0  0
 48 65  1  0  0  0
 48121  1  0  0  0
 49 50  1  0  0  0
 49 53  1  0  0  0
 49 64  1  0  0  0
 49122  1  0  0  0
 50 51  1  0  0  0
 50123  1  0  0  0
 50124  1  0  0  0
 51 52  1  0  0  0
 51125  1  0  0  0
 51126  1  0  0  0
 52127  1  0  0  0
 52128  1  0  0  0
 53 54  1  0  0  0
 54 55  2  0  0  0
 54129  1  0  0  0
 55 57  1  0  0  0
 55130  1  0  0  0
 56 69  2  0  0  0
 57 58  2  0  0  0
 57131  1  0  0  0
 58132  1  0  0  0
 59 60  1  0  0  0
 59 61  1  0  0  0
 59 62  1  0  0  0
 60133  1  0  0  0
 60134  1  0  0  0
 60135  1  0  0  0
 61136  1  0  0  0
 61137  1  0  0  0
 61138  1  0  0  0
 62139  1  0  0  0
 62140  1  0  0  0
 62141  1  0  0  0
 63 65  1  0  0  0
 63142  1  0  0  0
 63143  1  0  0  0
 63144  1  0  0  0
 64145  1  0  0  0
 65146  1  0  0  0
 68 78  1  0  0  0
 71 75  1  0  0  0
 71 82  2  0  0  0
 71 87  1  0  0  0
 72 83  2  0  0  0
 72 84  1  0  0  0
 72 87  1  0  0  0
 73 76  1  0  0  0
 73147  1  0  0  0
 73148  1  0  0  0
 73149  1  0  0  0
 74150  1  0  0  0
 74151  1  0  0  0
 74152  1  0  0  0
 74 79  1  0  0  0
 75 85  1  0  0  0
 75153  1  0  0  0
 75154  1  0  0  0
 76 79  1  0  0  0
 76155  1  0  0  0
 76156  1  0  0  0
 77 81  1  0  0  0
 77157  1  0  0  0
 77158  1  0  0  0
 77 80  1  0  0  0
 78 81  1  0  0  0
 78159  1  0  0  0
 78160  1  0  0  0
 79 80  1  0  0  0
 79161  1  0  0  0
 80 84  1  0  0  0
 80162  1  0  0  0
 81 86  1  0  0  0
 81163  1  0  0  0
 82 83  1  0  0  0
 84164  1  0  0  0
 85165  1  0  0  0
 86166  1  0  0  0
M  ISO  4   1 100  68 101  78 101  85 100
M  END
> <chiral flag>
0

> <version>
0

> <s_m_source_file>
/data/baiqing/PycharmProjects/Reinvent-master-3.2/result/LINK_invent/BTK/process_docking_weight1_custom_product_contain_oxygen_bond_distance_aromatic_linkinvent_7_9_3/rearranged_h_0191.sdf

> <i_m_source_file_index>
26

> <r_mmod_Potential_Energy-OPLS-2005>
-203.649353027344

> <r_mmod_Stretch_Energy-OPLS-2005>
34.9439277648926

> <r_mmod_Bend_Energy-OPLS-2005>
105.998405456543

> <r_mmod_Torsional_Energy-OPLS-2005>
249.668579101562

> <r_mmod_Improper_Torsional_Energy-OPLS-2005>
3.16204857826233

> <r_mmod_Van_der_Waal_Energy-OPLS-2005>
123.043510437012

> <r_mmod_Electrostatic_Energy-OPLS-2005>
-473.948394775391

> <r_mmod_Solvation_Energy-OPLS-2005>
-253.869598388672

> <b_mmod_Minimization_Converged-OPLS-2005>
0

> <r_mmod_RMS_Derivative-OPLS-2005>
3.38842749595642

$$$$
27
                    3D
 Structure written by MMmdl.
160168  0  0  1  0            999 V2000
  -28.7984  -14.7438   19.6761 C   0  0  0  0  0  0
  -30.3330  -12.7957   19.1442 C   0  0  0  0  0  0
  -29.3711  -12.1945   18.1037 C   0  0  0  0  0  0
  -28.1422  -11.5311   18.8035 C   0  0  0  0  0  0
  -27.8223  -12.2888   20.1120 C   0  0  2  0  0  0
  -28.9539  -12.6796   20.9884 C   0  0  0  0  0  0
  -26.2625  -13.5123   21.6193 C   0  0  0  0  0  0
  -24.9766  -13.4789   21.4138 C   0  0  0  0  0  0
  -24.9727  -11.8404   21.4036 C   0  0  0  0  0  0
  -24.0503  -10.5506   21.2946 C   0  0  0  0  0  0
  -24.3688   -9.4654   22.1448 C   0  0  0  0  0  0
  -23.6399   -8.2520   22.1767 C   0  0  0  0  0  0
  -22.4923   -8.0631   21.3765 C   0  0  0  0  0  0
  -22.1857   -9.0747   20.4484 C   0  0  0  0  0  0
  -23.0034  -10.2304   20.3486 C   0  0  0  0  0  0
  -21.6976   -6.0849   22.5062 C   0  0  0  0  0  0
  -21.4094   -6.5689   23.8002 C   0  0  0  0  0  0
  -21.3767   -5.6877   24.9007 C   0  0  0  0  0  0
  -21.6087   -4.3124   24.7085 C   0  0  0  0  0  0
  -21.8761   -3.8187   23.4188 C   0  0  0  0  0  0
  -21.9200   -4.7006   22.3227 C   0  0  0  0  0  0
  -23.0266  -15.1561   20.2657 C   0  0  0  0  0  0
  -22.1652   -4.2113   21.0829 F   0  0  0  0  0  0
  -21.5700   -3.4637   25.7630 F   0  0  0  0  0  0
  -29.4506  -13.5693   20.0573 N   0  0  0  0  0  0
  -26.6946  -12.4527   20.8329 N   0  0  0  0  0  0
  -26.0189  -11.3872   20.8535 N   0  0  0  0  0  0
  -21.6833  -15.0897   20.6998 N   0  0  0  0  0  0
  -26.9888  -14.5983   22.0073 N   0  0  0  0  0  0
  -29.8477  -15.4738   19.5984 O   0  0  0  0  0  0
  -21.7071   -6.9233   21.4102 O   0  0  0  0  0  0
  -22.9639  -15.6573   19.2034 O   0  0  0  0  0  0
  -24.6551  -31.8313   23.1811 C   0  0  0  0  0  0
  -25.9258  -32.4648   23.8229 C   0  0  1  0  0  0
  -26.8528  -26.7744   20.3815 C   0  0  0  0  0  0
  -25.5963  -33.8494   24.2118 N   0  0  0  0  0  0
  -23.4502  -30.4632   21.5339 C   0  0  2  0  0  0
  -24.8620  -28.8689   20.0836 C   0  0  0  0  0  0
  -22.7573  -29.4465   22.4766 C   0  0  0  0  0  0
  -18.0285  -28.1418   22.8452 C   0  0  0  0  0  0
  -24.1474  -36.7243   23.2628 C   0  0  0  0  0  0
  -26.0201  -30.5946   21.4322 C   0  0  0  0  0  0
  -26.0324  -29.1795   20.7900 C   0  0  0  0  0  0
  -27.0527  -28.1408   20.9218 C   0  0  0  0  0  0
  -25.7943  -26.6901   19.4703 C   0  0  0  0  0  0
  -24.7880  -27.6685   19.3727 C   0  0  0  0  0  0
  -23.6799  -29.8271   20.1371 C   0  0  0  0  0  0
  -25.4133  -36.3045   24.0298 C   0  0  1  0  0  0
  -20.5899  -28.3731   23.1218 C   0  0  2  0  0  0
  -20.6808  -26.9419   22.5438 C   0  0  0  0  0  0
  -19.5780  -26.6354   21.5257 C   0  0  0  0  0  0
  -18.1930  -26.7946   22.1617 C   0  0  0  0  0  0
  -19.1550  -28.8899   23.2810 C   0  0  0  0  0  0
  -18.9465  -30.1502   23.8818 C   0  0  0  0  0  0
  -17.6468  -30.6613   24.0544 C   0  0  0  0  0  0
  -25.9093  -34.9407   23.5037 C   0  0  0  0  0  0
  -16.5352  -29.9080   23.6372 C   0  0  0  0  0  0
  -16.7268  -28.6511   23.0355 C   0  0  0  0  0  0
  -26.4491  -31.6627   25.0763 C   0  0  0  0  0  0
  -25.3574  -31.3945   26.1397 C   0  0  0  0  0  0
  -27.0416  -30.2984   24.6597 C   0  0  0  0  0  0
  -27.6036  -32.4385   25.7528 C   0  0  0  0  0  0
  -27.5604  -37.1789   24.8461 C   0  0  0  0  0  0
  -21.4243  -29.3011   22.3540 N   0  0  0  0  0  0
  -26.4289  -37.3782   23.9428 N   0  0  0  0  0  0
  -24.7326  -30.9965   22.0993 N   0  0  0  0  0  0
  -23.4186  -28.8002   23.2928 O   0  0  0  0  0  0
  -27.4317  -25.4493   20.7318 O   0  0  0  0  0  0
  -26.5697  -34.8910   22.4617 O   0  0  0  0  0  0
  -23.5651  -32.1360   23.6914 O   0  0  0  0  0  0
  -22.8885  -12.9609   20.8758 C   0  0  0  0  0  0
  -23.1678  -14.2791   22.4482 C   0  0  0  0  0  0
  -24.4344  -15.7439   22.1130 C   0  0  0  0  0  0
  -25.4518  -14.6906   19.4830 C   0  0  0  0  0  0
  -26.0931  -19.1798   23.6306 C   0  0  0  0  0  0
  -24.3862  -17.5285   22.3260 C   0  0  0  0  0  0
  -25.5058  -20.7401   21.5161 C   0  0  0  0  0  0
  -26.5981  -23.9558   20.7048 C   0  0  0  0  0  0
  -25.5640  -18.9895   22.1842 C   0  0  1  0  0  0
  -26.5607  -22.2852   21.5489 C   0  0  2  0  0  0
  -24.1640  -13.3163   19.3548 N   0  0  0  0  0  0
  -25.3176  -15.7894   20.6847 N   0  0  0  0  0  0
  -22.2973  -14.3390   23.5361 N   0  0  0  0  0  0
  -27.1970  -14.9318   19.2447 N   0  0  0  0  0  0
  -27.8259  -21.7407   21.2237 O   0  0  0  0  0  0
  -31.0552  -13.4439   18.6480 H   0  0  0  0  0  0
  -30.9296  -12.0357   19.6486 H   0  0  0  0  0  0
  -29.8862  -11.4641   17.4787 H   0  0  0  0  0  0
  -29.0116  -12.9708   17.4275 H   0  0  0  0  0  0
  -28.4267  -10.5168   19.0897 H   0  0  0  0  0  0
  -27.3009  -11.3848   18.1111 H   0  0  0  0  0  0
  -27.3892  -12.8274   19.3253 H   0  0  0  0  0  0
  -29.5763  -11.8099   21.1997 H   0  0  0  0  0  0
  -28.8084  -13.1207   21.9698 H   0  0  0  0  0  0
  -25.2070   -9.5760   22.8181 H   0  0  0  0  0  0
  -23.9581   -7.4719   22.8531 H   0  0  0  0  0  0
  -21.3564   -8.9450   19.7691 H   0  0  0  0  0  0
  -22.7970  -10.8843   19.5145 H   0  0  0  0  0  0
  -21.2134   -7.6209   23.9458 H   0  0  0  0  0  0
  -21.1711   -6.0666   25.8902 H   0  0  0  0  0  0
  -22.0403   -2.7606   23.2771 H   0  0  0  0  0  0
  -21.5785  -14.8164   21.6846 H   0  0  0  0  0  0
  -20.9454  -15.5728   20.2082 H   0  0  0  0  0  0
  -26.5144  -15.3923   21.5411 H   0  0  0  0  0  0
  -27.9959  -14.6397   21.9313 H   0  0  0  0  0  0
  -26.7287  -32.5111   23.0903 H   0  0  0  0  0  0
  -25.0099  -33.9674   25.0257 H   0  0  0  0  0  0
  -22.7578  -31.2976   21.3995 H   0  0  0  0  0  0
  -23.3798  -35.9510   23.3241 H   0  0  0  0  0  0
  -24.3543  -36.8940   22.2051 H   0  0  0  0  0  0
  -23.7148  -37.6379   23.6711 H   0  0  0  0  0  0
  -26.2229  -31.3204   20.6437 H   0  0  0  0  0  0
  -26.8798  -30.6417   22.0854 H   0  0  0  0  0  0
  -27.8839  -28.3290   21.5879 H   0  0  0  0  0  0
  -25.6185  -25.7619   18.9463 H   0  0  0  0  0  0
  -23.9128  -27.4542   18.7704 H   0  0  0  0  0  0
  -23.8541  -30.6201   19.4100 H   0  0  0  0  0  0
  -22.7802  -29.3118   19.7931 H   0  0  0  0  0  0
  -25.1318  -36.1884   25.0797 H   0  0  0  0  0  0
  -20.9983  -28.3405   24.1344 H   0  0  0  0  0  0
  -20.5815  -26.2310   23.3664 H   0  0  0  0  0  0
  -21.6655  -26.7508   22.1160 H   0  0  0  0  0  0
  -19.6966  -25.6255   21.1305 H   0  0  0  0  0  0
  -19.6773  -27.3150   20.6780 H   0  0  0  0  0  0
  -17.4232  -26.6652   21.3990 H   0  0  0  0  0  0
  -18.0306  -26.0134   22.9054 H   0  0  0  0  0  0
  -19.7954  -30.7330   24.2126 H   0  0  0  0  0  0
  -17.5033  -31.6299   24.5149 H   0  0  0  0  0  0
  -15.5358  -30.2968   23.7802 H   0  0  0  0  0  0
  -15.8630  -28.0855   22.7111 H   0  0  0  0  0  0
  -24.5737  -30.7324   25.7687 H   0  0  0  0  0  0
  -24.8748  -32.3173   26.4642 H   0  0  0  0  0  0
  -25.7727  -30.9206   27.0300 H   0  0  0  0  0  0
  -26.3113  -29.6607   24.1607 H   0  0  0  0  0  0
  -27.3896  -29.7433   25.5324 H   0  0  0  0  0  0
  -27.9083  -30.4149   24.0084 H   0  0  0  0  0  0
  -27.2699  -33.3759   26.1994 H   0  0  0  0  0  0
  -28.3906  -32.6821   25.0372 H   0  0  0  0  0  0
  -28.0610  -31.8532   26.5520 H   0  0  0  0  0  0
  -28.2586  -38.0123   24.7595 H   0  0  0  0  0  0
  -28.1138  -36.2676   24.6182 H   0  0  0  0  0  0
  -27.2330  -37.1292   25.8853 H   0  0  0  0  0  0
  -20.9478  -29.8724   21.6719 H   0  0  0  0  0  0
  -26.0166  -38.2852   24.1442 H   0  0  0  0  0  0
  -22.0117  -12.3402   20.8192 H   0  0  0  0  0  0
  -26.3881  -18.2339   24.0861 H   0  0  0  0  0  0
  -25.3449  -19.6286   24.2911 H   0  0  0  0  0  0
  -26.9791  -19.8171   23.6614 H   0  0  0  0  0  0
  -23.8208  -17.6758   23.2460 H   0  0  0  0  0  0
  -23.6606  -17.7730   21.5513 H   0  0  0  0  0  0
  -24.5315  -21.1008   21.8486 H   0  0  0  0  0  0
  -25.3539  -20.5856   20.4481 H   0  0  0  0  0  0
  -25.5532  -24.2602   20.7736 H   0  0  0  0  0  0
  -26.7134  -23.6834   19.6552 H   0  0  0  0  0  0
  -26.3897  -18.5656   21.6076 H   0  0  0  0  0  0
  -26.5889  -22.5493   22.6093 H   0  0  0  0  0  0
  -21.9831  -13.4523   23.9243 H   0  0  0  0  0  0
  -22.5648  -14.9703   24.2887 H   0  0  0  0  0  0
  -27.2496  -15.8106   18.7508 H   0  0  0  0  0  0
  -28.0074  -21.0481   21.8510 H   0  0  0  0  0  0
  1 25  1  0  0  0
  1 30  2  0  0  0
  1 84  1  0  0  0
  2  3  1  0  0  0
  2 25  1  0  0  0
  2 86  1  0  0  0
  2 87  1  0  0  0
  3  4  1  0  0  0
  3 88  1  0  0  0
  3 89  1  0  0  0
  4  5  1  0  0  0
  4 90  1  0  0  0
  4 91  1  0  0  0
  5  6  1  0  0  0
  5 26  1  0  0  0
  5 92  1  0  0  0
  6 25  1  0  0  0
  6 93  1  0  0  0
  6 94  1  0  0  0
  7  8  2  0  0  0
  7 26  1  0  0  0
  7 29  1  0  0  0
  8  9  1  0  0  0
  8 22  1  0  0  0
  9 10  1  0  0  0
  9 27  2  0  0  0
 10 11  2  0  0  0
 10 15  1  0  0  0
 11 12  1  0  0  0
 11 95  1  0  0  0
 12 13  2  0  0  0
 12 96  1  0  0  0
 13 14  1  0  0  0
 13 31  1  0  0  0
 14 15  2  0  0  0
 14 97  1  0  0  0
 15 98  1  0  0  0
 16 17  2  0  0  0
 16 21  1  0  0  0
 16 31  1  0  0  0
 17 18  1  0  0  0
 17 99  1  0  0  0
 18 19  2  0  0  0
 18100  1  0  0  0
 19 20  1  0  0  0
 19 24  1  0  0  0
 20 21  2  0  0  0
 20101  1  0  0  0
 21 23  1  0  0  0
 22 28  1  0  0  0
 22 32  2  0  0  0
 26 27  1  0  0  0
 28102  1  0  0  0
 28103  1  0  0  0
 29104  1  0  0  0
 29105  1  0  0  0
 33 34  1  0  0  0
 33 66  1  0  0  0
 33 70  2  0  0  0
 34 36  1  0  0  0
 34 59  1  0  0  0
 34106  1  0  0  0
 35 44  2  0  0  0
 35 45  1  0  0  0
 35 68  1  0  0  0
 36 56  1  0  0  0
 36107  1  0  0  0
 37 39  1  0  0  0
 37 47  1  0  0  0
 37 66  1  0  0  0
 37108  1  0  0  0
 38 43  2  0  0  0
 38 46  1  0  0  0
 38 47  1  0  0  0
 39 64  1  0  0  0
 39 67  2  0  0  0
 40 52  1  0  0  0
 40 53  2  0  0  0
 40 58  1  0  0  0
 41109  1  0  0  0
 41110  1  0  0  0
 41111  1  0  0  0
 41 48  1  0  0  0
 42 43  1  0  0  0
 42 66  1  0  0  0
 42112  1  0  0  0
 42113  1  0  0  0
 43 44  1  0  0  0
 44114  1  0  0  0
 45 46  2  0  0  0
 45115  1  0  0  0
 46116  1  0  0  0
 47117  1  0  0  0
 47118  1  0  0  0
 48 56  1  0  0  0
 48 65  1  0  0  0
 48119  1  0  0  0
 49 50  1  0  0  0
 49 53  1  0  0  0
 49 64  1  0  0  0
 49120  1  0  0  0
 50 51  1  0  0  0
 50121  1  0  0  0
 50122  1  0  0  0
 51 52  1  0  0  0
 51123  1  0  0  0
 51124  1  0  0  0
 52125  1  0  0  0
 52126  1  0  0  0
 53 54  1  0  0  0
 54 55  2  0  0  0
 54127  1  0  0  0
 55 57  1  0  0  0
 55128  1  0  0  0
 56 69  2  0  0  0
 57 58  2  0  0  0
 57129  1  0  0  0
 58130  1  0  0  0
 59 60  1  0  0  0
 59 61  1  0  0  0
 59 62  1  0  0  0
 60131  1  0  0  0
 60132  1  0  0  0
 60133  1  0  0  0
 61134  1  0  0  0
 61135  1  0  0  0
 61136  1  0  0  0
 62137  1  0  0  0
 62138  1  0  0  0
 62139  1  0  0  0
 63 65  1  0  0  0
 63140  1  0  0  0
 63141  1  0  0  0
 63142  1  0  0  0
 64143  1  0  0  0
 65144  1  0  0  0
 68 78  1  0  0  0
 71 72  2  0  0  0
 71 81  1  0  0  0
 71145  1  0  0  0
 72 73  1  0  0  0
 72 83  1  0  0  0
 73 76  1  0  0  0
 73 82  2  0  0  0
 74 81  2  0  0  0
 74 82  1  0  0  0
 74 84  1  0  0  0
 75146  1  0  0  0
 75147  1  0  0  0
 75148  1  0  0  0
 75 79  1  0  0  0
 76 79  1  0  0  0
 76149  1  0  0  0
 76150  1  0  0  0
 77 79  1  0  0  0
 77 80  1  0  0  0
 77151  1  0  0  0
 77152  1  0  0  0
 78 80  1  0  0  0
 78153  1  0  0  0
 78154  1  0  0  0
 79155  1  0  0  0
 80 85  1  0  0  0
 80156  1  0  0  0
 83157  1  0  0  0
 83158  1  0  0  0
 84159  1  0  0  0
 85160  1  0  0  0
M  ISO  4   1 100  68 101  78 101  84 100
M  END
> <chiral flag>
0

> <version>
0

> <s_m_source_file>
/data/baiqing/PycharmProjects/Reinvent-master-3.2/result/LINK_invent/BTK/process_docking_weight1_custom_product_contain_oxygen_bond_distance_aromatic_linkinvent_7_9_3/rearranged_h_0191.sdf

> <i_m_source_file_index>
27

> <r_mmod_Potential_Energy-OPLS-2005>
16638.43359375

> <r_mmod_Stretch_Energy-OPLS-2005>
8057.74853515625

> <r_mmod_Bend_Energy-OPLS-2005>
1268.71240234375

> <r_mmod_Torsional_Energy-OPLS-2005>
578.099731445312

> <r_mmod_Improper_Torsional_Energy-OPLS-2005>
75.3224563598633

> <r_mmod_Van_der_Waal_Energy-OPLS-2005>
3376.85815429688

> <r_mmod_Electrostatic_Energy-OPLS-2005>
-661.586791992188

> <r_mmod_Solvation_Energy-OPLS-2005>
-248.675643920898

> <b_mmod_Minimization_Converged-OPLS-2005>
0

> <r_mmod_RMS_Derivative-OPLS-2005>
11.6496572494507

$$$$
28
                    3D
 Structure written by MMmdl.
170178  0  0  1  0            999 V2000
  -30.7105  -14.4959   20.4925 C   0  0  0  0  0  0
  -30.4202  -12.3035   19.4275 C   0  0  0  0  0  0
  -29.4954  -12.4943   18.2086 C   0  0  0  0  0  0
  -28.0212  -12.3604   18.6309 C   0  0  0  0  0  0
  -27.6666  -13.2127   19.8792 C   0  0  2  0  0  0
  -28.7128  -13.0307   21.0039 C   0  0  0  0  0  0
  -25.2631  -13.8166   20.5701 C   0  0  0  0  0  0
  -24.1857  -13.0452   20.9179 C   0  0  0  0  0  0
  -24.6415  -11.6922   20.8741 C   0  0  0  0  0  0
  -23.9082  -10.4329   21.0403 C   0  0  0  0  0  0
  -24.3641   -9.4232   21.9170 C   0  0  0  0  0  0
  -23.6304   -8.2289   22.0747 C   0  0  0  0  0  0
  -22.4266   -8.0326   21.3567 C   0  0  0  0  0  0
  -21.9921   -9.0305   20.4656 C   0  0  0  0  0  0
  -22.7270  -10.2166   20.3048 C   0  0  0  0  0  0
  -21.6879   -6.0741   22.5274 C   0  0  0  0  0  0
  -21.4043   -6.5630   23.8199 C   0  0  0  0  0  0
  -21.3659   -5.6778   24.9159 C   0  0  0  0  0  0
  -21.6036   -4.3041   24.7212 C   0  0  0  0  0  0
  -21.8834   -3.8143   23.4332 C   0  0  0  0  0  0
  -21.9216   -4.6969   22.3385 C   0  0  0  0  0  0
  -22.7895  -13.5250   21.1824 C   0  0  0  0  0  0
  -22.1659   -4.2130   21.0964 F   0  0  0  0  0  0
  -21.5614   -3.4524   25.7727 F   0  0  0  0  0  0
  -30.0458  -13.3072   20.4378 N   0  0  0  0  0  0
  -26.3070  -12.9352   20.3432 N   0  0  0  0  0  0
  -25.9351  -11.6500   20.5800 N   0  0  0  0  0  0
  -22.0556  -12.8234   22.0365 N   0  0  0  0  0  0
  -25.4390  -15.1899   20.4144 N   0  0  0  0  0  0
  -31.8458  -14.6484   20.0367 O   0  0  0  0  0  0
  -21.6647   -6.8907   21.4245 O   0  0  0  0  0  0
  -22.3604  -14.5584   20.6697 O   0  0  0  0  0  0
  -24.6181  -31.8710   23.2060 C   0  0  0  0  0  0
  -25.9082  -32.4822   23.8374 C   0  0  1  0  0  0
  -27.2150  -27.3970   20.1178 C   0  0  0  0  0  0
  -25.5967  -33.8615   24.2329 N   0  0  0  0  0  0
  -23.4026  -30.4923   21.5497 C   0  0  2  0  0  0
  -24.8459  -28.9558   20.1154 C   0  0  0  0  0  0
  -22.7416  -29.4682   22.4983 C   0  0  0  0  0  0
  -18.0296  -28.1332   22.8490 C   0  0  0  0  0  0
  -24.1492  -36.7291   23.2624 C   0  0  0  0  0  0
  -25.9339  -30.8308   21.3573 C   0  0  0  0  0  0
  -26.0109  -29.4603   20.7072 C   0  0  0  0  0  0
  -27.2020  -28.6902   20.6999 C   0  0  0  0  0  0
  -26.0372  -26.9300   19.4962 C   0  0  0  0  0  0
  -24.8547  -27.6919   19.5030 C   0  0  0  0  0  0
  -23.6101  -29.8208   20.1657 C   0  0  0  0  0  0
  -25.4123  -36.3079   24.0315 C   0  0  1  0  0  0
  -20.5878  -28.3669   23.1307 C   0  0  2  0  0  0
  -20.6808  -26.9404   22.5412 C   0  0  0  0  0  0
  -19.5784  -26.6384   21.5215 C   0  0  0  0  0  0
  -18.1957  -26.7879   22.1637 C   0  0  0  0  0  0
  -19.1540  -28.8806   23.2898 C   0  0  0  0  0  0
  -18.9443  -30.1407   23.8923 C   0  0  0  0  0  0
  -17.6434  -30.6538   24.0560 C   0  0  0  0  0  0
  -25.9042  -34.9466   23.5118 C   0  0  0  0  0  0
  -16.5341  -29.9014   23.6328 C   0  0  0  0  0  0
  -16.7283  -28.6446   23.0326 C   0  0  0  0  0  0
  -26.4524  -31.6588   25.0702 C   0  0  0  0  0  0
  -25.3776  -31.3734   26.1431 C   0  0  0  0  0  0
  -27.0348  -30.3014   24.6107 C   0  0  0  0  0  0
  -27.6101  -32.4286   25.7489 C   0  0  0  0  0  0
  -27.5594  -37.1809   24.8471 C   0  0  0  0  0  0
  -21.4149  -29.3032   22.3727 N   0  0  0  0  0  0
  -26.4305  -37.3772   23.9388 N   0  0  0  0  0  0
  -24.6699  -31.0800   22.0958 N   0  0  0  0  0  0
  -23.4189  -28.8207   23.3032 O   0  0  0  0  0  0
  -28.3434  -26.5954   20.1745 O   0  0  0  0  0  0
  -26.5567  -34.8928   22.4644 O   0  0  0  0  0  0
  -23.5378  -32.1419   23.7490 O   0  0  0  0  0  0
  -29.3926  -19.0877   20.4191 C   0  0  0  0  0  0
  -29.9730  -18.9914   19.1685 C   0  0  0  0  0  0
  -29.9833  -16.8551   20.4283 C   0  0  0  0  0  0
  -25.3662  -20.4102   23.0428 C   0  0  0  0  0  0
  -27.5659  -21.3808   23.7282 C   0  0  0  0  0  0
  -27.2620  -18.8955   23.7158 C   0  0  0  0  0  0
  -29.2523  -21.7421   20.7749 C   0  0  0  0  0  0
  -28.1996  -22.6544   20.0680 C   0  0  0  0  0  0
  -27.3069  -20.0941   21.4973 C   0  0  0  0  0  0
  -28.1124  -25.2338   20.6404 C   0  0  0  0  0  0
  -28.8236  -20.2790   21.1933 C   0  0  2  0  0  0
  -28.6134  -24.1153   19.6700 C   0  0  2  0  0  0
  -26.8920  -20.2051   22.9886 C   0  0  0  0  0  0
  -29.3875  -17.8470   21.0949 N   0  0  0  0  0  0
  -30.1283  -19.9665   18.1877 N   0  0  0  0  0  0
  -30.0115  -15.5386   20.9735 N   0  0  0  0  0  0
  -27.9941  -24.3503   18.4140 O   0  0  0  0  0  0
  -30.5782  -17.3717   18.8517 S   0  0  0  0  0  0
  -31.4657  -12.3841   19.1288 H   0  0  0  0  0  0
  -30.3093  -11.2976   19.8332 H   0  0  0  0  0  0
  -29.7356  -11.7551   17.4428 H   0  0  0  0  0  0
  -29.6681  -13.4727   17.7564 H   0  0  0  0  0  0
  -27.8477  -11.3055   18.8453 H   0  0  0  0  0  0
  -27.3598  -12.6169   17.8025 H   0  0  0  0  0  0
  -27.7049  -14.2561   19.5678 H   0  0  0  0  0  0
  -28.6811  -12.0164   21.3999 H   0  0  0  0  0  0
  -28.4848  -13.6791   21.8512 H   0  0  0  0  0  0
  -25.2814   -9.5669   22.4690 H   0  0  0  0  0  0
  -24.0017   -7.4680   22.7462 H   0  0  0  0  0  0
  -21.0840   -8.8860   19.8951 H   0  0  0  0  0  0
  -22.3775  -10.9705   19.6124 H   0  0  0  0  0  0
  -21.2055   -7.6136   23.9702 H   0  0  0  0  0  0
  -21.1442   -6.0496   25.9047 H   0  0  0  0  0  0
  -22.0620   -2.7602   23.2842 H   0  0  0  0  0  0
  -22.4224  -11.9950   22.4790 H   0  0  0  0  0  0
  -21.1192  -13.1252   22.2621 H   0  0  0  0  0  0
  -24.6899  -15.8558   20.5628 H   0  0  0  0  0  0
  -26.3024  -15.6313   20.1269 H   0  0  0  0  0  0
  -26.7173  -32.5531   23.1156 H   0  0  0  0  0  0
  -25.0223  -33.9760   25.0557 H   0  0  0  0  0  0
  -22.6909  -31.3085   21.4107 H   0  0  0  0  0  0
  -23.3739  -35.9630   23.3286 H   0  0  0  0  0  0
  -24.3601  -36.8912   22.2040 H   0  0  0  0  0  0
  -23.7279  -37.6517   23.6632 H   0  0  0  0  0  0
  -26.0446  -31.5913   20.5820 H   0  0  0  0  0  0
  -26.8254  -30.8893   21.9718 H   0  0  0  0  0  0
  -28.0973  -29.0716   21.1729 H   0  0  0  0  0  0
  -26.0200  -25.9604   19.0197 H   0  0  0  0  0  0
  -23.9561  -27.2973   19.0483 H   0  0  0  0  0  0
  -23.7097  -30.5880   19.3982 H   0  0  0  0  0  0
  -22.7355  -29.2312   19.8835 H   0  0  0  0  0  0
  -25.1308  -36.1925   25.0807 H   0  0  0  0  0  0
  -20.9986  -28.3248   24.1417 H   0  0  0  0  0  0
  -20.5718  -26.2265   23.3585 H   0  0  0  0  0  0
  -21.6691  -26.7484   22.1198 H   0  0  0  0  0  0
  -19.6963  -25.6323   21.1167 H   0  0  0  0  0  0
  -19.6712  -27.3273   20.6793 H   0  0  0  0  0  0
  -17.4200  -26.6616   21.4060 H   0  0  0  0  0  0
  -18.0405  -26.0015   22.9032 H   0  0  0  0  0  0
  -19.7919  -30.7233   24.2266 H   0  0  0  0  0  0
  -17.4975  -31.6200   24.5181 H   0  0  0  0  0  0
  -15.5319  -30.2909   23.7602 H   0  0  0  0  0  0
  -15.8708  -28.0755   22.6992 H   0  0  0  0  0  0
  -24.5961  -30.7067   25.7781 H   0  0  0  0  0  0
  -24.8944  -32.2903   26.4801 H   0  0  0  0  0  0
  -25.8102  -30.8979   27.0236 H   0  0  0  0  0  0
  -26.2911  -29.6776   24.1129 H   0  0  0  0  0  0
  -27.4074  -29.7258   25.4594 H   0  0  0  0  0  0
  -27.8759  -30.4307   23.9285 H   0  0  0  0  0  0
  -27.2739  -33.3581   26.2088 H   0  0  0  0  0  0
  -28.3925  -32.6849   25.0332 H   0  0  0  0  0  0
  -28.0735  -31.8379   26.5403 H   0  0  0  0  0  0
  -28.2609  -38.0110   24.7497 H   0  0  0  0  0  0
  -28.1091  -36.2640   24.6290 H   0  0  0  0  0  0
  -27.2307  -37.1463   25.8877 H   0  0  0  0  0  0
  -20.9295  -29.8729   21.6936 H   0  0  0  0  0  0
  -26.0179  -38.2847   24.1357 H   0  0  0  0  0  0
  -24.9926  -20.4286   24.0675 H   0  0  0  0  0  0
  -24.8314  -19.6219   22.5125 H   0  0  0  0  0  0
  -25.0839  -21.3577   22.5788 H   0  0  0  0  0  0
  -27.1669  -21.4802   24.7382 H   0  0  0  0  0  0
  -27.4242  -22.3305   23.2132 H   0  0  0  0  0  0
  -28.6384  -21.2339   23.8517 H   0  0  0  0  0  0
  -26.9993  -18.9405   24.7703 H   0  0  0  0  0  0
  -28.3324  -18.6973   23.6638 H   0  0  0  0  0  0
  -26.7568  -18.0330   23.2801 H   0  0  0  0  0  0
  -29.5281  -22.2601   21.6929 H   0  0  0  0  0  0
  -30.1777  -21.7078   20.1974 H   0  0  0  0  0  0
  -27.3156  -22.7360   20.7021 H   0  0  0  0  0  0
  -27.8723  -22.1075   19.1812 H   0  0  0  0  0  0
  -26.9877  -19.1076   21.1607 H   0  0  0  0  0  0
  -26.7011  -20.7334   20.8664 H   0  0  0  0  0  0
  -28.6393  -25.1280   21.5925 H   0  0  0  0  0  0
  -27.0672  -25.0578   20.9024 H   0  0  0  0  0  0
  -29.3375  -20.1455   22.1434 H   0  0  0  0  0  0
  -29.6959  -24.1915   19.5391 H   0  0  0  0  0  0
  -29.7083  -20.8904   18.2538 H   0  0  0  0  0  0
  -30.5679  -19.7888   17.2912 H   0  0  0  0  0  0
  -29.2460  -15.3113   21.5823 H   0  0  0  0  0  0
  -28.4203  -23.7950   17.7712 H   0  0  0  0  0  0
  1 25  1  0  0  0
  1 30  2  0  0  0
  1 86  1  0  0  0
  2  3  1  0  0  0
  2 25  1  0  0  0
  2 89  1  0  0  0
  2 90  1  0  0  0
  3  4  1  0  0  0
  3 91  1  0  0  0
  3 92  1  0  0  0
  4  5  1  0  0  0
  4 93  1  0  0  0
  4 94  1  0  0  0
  5  6  1  0  0  0
  5 26  1  0  0  0
  5 95  1  0  0  0
  6 25  1  0  0  0
  6 96  1  0  0  0
  6 97  1  0  0  0
  7  8  2  0  0  0
  7 26  1  0  0  0
  7 29  1  0  0  0
  8  9  1  0  0  0
  8 22  1  0  0  0
  9 10  1  0  0  0
  9 27  2  0  0  0
 10 11  2  0  0  0
 10 15  1  0  0  0
 11 12  1  0  0  0
 11 98  1  0  0  0
 12 13  2  0  0  0
 12 99  1  0  0  0
 13 14  1  0  0  0
 13 31  1  0  0  0
 14 15  2  0  0  0
 14100  1  0  0  0
 15101  1  0  0  0
 16 17  2  0  0  0
 16 21  1  0  0  0
 16 31  1  0  0  0
 17 18  1  0  0  0
 17102  1  0  0  0
 18 19  2  0  0  0
 18103  1  0  0  0
 19 20  1  0  0  0
 19 24  1  0  0  0
 20 21  2  0  0  0
 20104  1  0  0  0
 21 23  1  0  0  0
 22 28  1  0  0  0
 22 32  2  0  0  0
 26 27  1  0  0  0
 28105  1  0  0  0
 28106  1  0  0  0
 29107  1  0  0  0
 29108  1  0  0  0
 33 34  1  0  0  0
 33 66  1  0  0  0
 33 70  2  0  0  0
 34 36  1  0  0  0
 34 59  1  0  0  0
 34109  1  0  0  0
 35 44  2  0  0  0
 35 45  1  0  0  0
 35 68  1  0  0  0
 36 56  1  0  0  0
 36110  1  0  0  0
 37 39  1  0  0  0
 37 47  1  0  0  0
 37 66  1  0  0  0
 37111  1  0  0  0
 38 43  2  0  0  0
 38 46  1  0  0  0
 38 47  1  0  0  0
 39 64  1  0  0  0
 39 67  2  0  0  0
 40 52  1  0  0  0
 40 53  2  0  0  0
 40 58  1  0  0  0
 41112  1  0  0  0
 41113  1  0  0  0
 41114  1  0  0  0
 41 48  1  0  0  0
 42 43  1  0  0  0
 42 66  1  0  0  0
 42115  1  0  0  0
 42116  1  0  0  0
 43 44  1  0  0  0
 44117  1  0  0  0
 45 46  2  0  0  0
 45118  1  0  0  0
 46119  1  0  0  0
 47120  1  0  0  0
 47121  1  0  0  0
 48 56  1  0  0  0
 48 65  1  0  0  0
 48122  1  0  0  0
 49 50  1  0  0  0
 49 53  1  0  0  0
 49 64  1  0  0  0
 49123  1  0  0  0
 50 51  1  0  0  0
 50124  1  0  0  0
 50125  1  0  0  0
 51 52  1  0  0  0
 51126  1  0  0  0
 51127  1  0  0  0
 52128  1  0  0  0
 52129  1  0  0  0
 53 54  1  0  0  0
 54 55  2  0  0  0
 54130  1  0  0  0
 55 57  1  0  0  0
 55131  1  0  0  0
 56 69  2  0  0  0
 57 58  2  0  0  0
 57132  1  0  0  0
 58133  1  0  0  0
 59 60  1  0  0  0
 59 61  1  0  0  0
 59 62  1  0  0  0
 60134  1  0  0  0
 60135  1  0  0  0
 60136  1  0  0  0
 61137  1  0  0  0
 61138  1  0  0  0
 61139  1  0  0  0
 62140  1  0  0  0
 62141  1  0  0  0
 62142  1  0  0  0
 63 65  1  0  0  0
 63143  1  0  0  0
 63144  1  0  0  0
 63145  1  0  0  0
 64146  1  0  0  0
 65147  1  0  0  0
 68 80  1  0  0  0
 71 72  2  0  0  0
 71 81  1  0  0  0
 71 84  1  0  0  0
 72 85  1  0  0  0
 72 88  1  0  0  0
 73 84  2  0  0  0
 73 86  1  0  0  0
 73 88  1  0  0  0
 74148  1  0  0  0
 74149  1  0  0  0
 74150  1  0  0  0
 74 83  1  0  0  0
 75 83  1  0  0  0
 75151  1  0  0  0
 75152  1  0  0  0
 75153  1  0  0  0
 76 83  1  0  0  0
 76154  1  0  0  0
 76155  1  0  0  0
 76156  1  0  0  0
 77 78  1  0  0  0
 77157  1  0  0  0
 77158  1  0  0  0
 77 81  1  0  0  0
 78 82  1  0  0  0
 78159  1  0  0  0
 78160  1  0  0  0
 79 81  1  0  0  0
 79 83  1  0  0  0
 79161  1  0  0  0
 79162  1  0  0  0
 80 82  1  0  0  0
 80163  1  0  0  0
 80164  1  0  0  0
 81165  1  0  0  0
 82 87  1  0  0  0
 82166  1  0  0  0
 85167  1  0  0  0
 85168  1  0  0  0
 86169  1  0  0  0
 87170  1  0  0  0
M  ISO  4   1 100  68 101  80 101  86 100
M  END
> <chiral flag>
0

> <version>
0

> <s_m_source_file>
/data/baiqing/PycharmProjects/Reinvent-master-3.2/result/LINK_invent/BTK/process_docking_weight1_custom_product_contain_oxygen_bond_distance_aromatic_linkinvent_7_9_3/rearranged_h_0191.sdf

> <i_m_source_file_index>
28

> <r_mmod_Potential_Energy-OPLS-2005>
37.2338066101074

> <r_mmod_Stretch_Energy-OPLS-2005>
48.0229530334473

> <r_mmod_Bend_Energy-OPLS-2005>
136.639389038086

> <r_mmod_Torsional_Energy-OPLS-2005>
280.732940673828

> <r_mmod_Improper_Torsional_Energy-OPLS-2005>
4.22396373748779

> <r_mmod_Van_der_Waal_Energy-OPLS-2005>
133.028884887695

> <r_mmod_Electrostatic_Energy-OPLS-2005>
-363.236022949219

> <r_mmod_Solvation_Energy-OPLS-2005>
-223.683242797852

> <b_mmod_Minimization_Converged-OPLS-2005>
0

> <r_mmod_RMS_Derivative-OPLS-2005>
5.63216924667358

$$$$
29
                    3D
 Structure written by MMmdl.
155163  0  0  1  0            999 V2000
  -30.2194  -14.4962   19.4342 C   0  0  0  0  0  0
  -30.7610  -12.2156   19.4244 C   0  0  0  0  0  0
  -29.6736  -11.8455   18.4386 C   0  0  0  0  0  0
  -28.3851  -11.8168   19.2882 C   0  0  0  0  0  0
  -28.1456  -13.0015   20.4914 C   0  0  2  0  0  0
  -29.3552  -13.0987   21.2710 C   0  0  0  0  0  0
  -25.9842  -14.1668   20.9542 C   0  0  0  0  0  0
  -24.2029  -13.5813   20.6722 C   0  0  0  0  0  0
  -23.9862  -12.3343   20.2847 C   0  0  0  0  0  0
  -23.6175  -10.8266   20.8255 C   0  0  0  0  0  0
  -24.1895   -9.8303   21.7423 C   0  0  0  0  0  0
  -23.6120   -8.5335   21.9998 C   0  0  0  0  0  0
  -22.4313   -8.1348   21.3233 C   0  0  0  0  0  0
  -21.9159   -9.0460   20.3868 C   0  0  0  0  0  0
  -22.4957  -10.3122   20.1531 C   0  0  0  0  0  0
  -21.7600   -6.1099   22.5271 C   0  0  0  0  0  0
  -21.4736   -6.5938   23.8230 C   0  0  0  0  0  0
  -21.3991   -5.6997   24.9135 C   0  0  0  0  0  0
  -21.6042   -4.3202   24.7160 C   0  0  0  0  0  0
  -21.8664   -3.8314   23.4262 C   0  0  0  0  0  0
  -21.9377   -4.7214   22.3382 C   0  0  0  0  0  0
  -22.6269  -13.9167   21.0852 C   0  0  0  0  0  0
  -22.1668   -4.2332   21.0972 F   0  0  0  0  0  0
  -21.5507   -3.4644   25.7648 F   0  0  0  0  0  0
  -30.2703  -13.3654   20.1684 N   0  0  0  0  0  0
  -26.8526  -13.6654   21.0994 N   0  0  0  0  0  0
  -24.9545  -13.4805   20.6477 N   0  0  0  0  0  0
  -21.9974  -13.1046   21.9611 N   0  0  0  0  0  0
  -26.8920  -15.3141   21.2040 N   0  0  0  0  0  0
  -31.2523  -15.1731   19.5528 O   0  0  0  0  0  0
  -21.7655   -6.9221   21.4141 O   0  0  0  0  0  0
  -22.0398  -14.8482   20.5689 O   0  0  0  0  0  0
  -24.6917  -31.7962   23.1562 C   0  0  0  0  0  0
  -25.9478  -32.4473   23.8046 C   0  0  1  0  0  0
  -26.7023  -26.3857   20.3032 C   0  0  0  0  0  0
  -25.6074  -33.8338   24.1878 N   0  0  0  0  0  0
  -23.4995  -30.4264   21.5252 C   0  0  2  0  0  0
  -24.8692  -28.7477   20.0885 C   0  0  0  0  0  0
  -22.7677  -29.4297   22.4625 C   0  0  0  0  0  0
  -18.0352  -28.1456   22.8440 C   0  0  0  0  0  0
  -24.1480  -36.7194   23.2611 C   0  0  0  0  0  0
  -26.0795  -30.3997   21.4665 C   0  0  0  0  0  0
  -26.0463  -28.9496   20.8143 C   0  0  0  0  0  0
  -26.9836  -27.7775   20.9004 C   0  0  0  0  0  0
  -25.6518  -26.5032   19.3992 C   0  0  0  0  0  0
  -24.7373  -27.5717   19.3411 C   0  0  0  0  0  0
  -23.7417  -29.7822   20.1358 C   0  0  0  0  0  0
  -25.4149  -36.2915   24.0224 C   0  0  1  0  0  0
  -20.5986  -28.3836   23.1054 C   0  0  2  0  0  0
  -20.6847  -26.9448   22.5383 C   0  0  0  0  0  0
  -19.5810  -26.6366   21.5231 C   0  0  0  0  0  0
  -18.1985  -26.7997   22.1604 C   0  0  0  0  0  0
  -19.1608  -28.8976   23.2755 C   0  0  0  0  0  0
  -18.9483  -30.1560   23.8809 C   0  0  0  0  0  0
  -17.6464  -30.6623   24.0574 C   0  0  0  0  0  0
  -25.9189  -34.9341   23.4885 C   0  0  0  0  0  0
  -16.5372  -29.9083   23.6372 C   0  0  0  0  0  0
  -16.7320  -28.6522   23.0353 C   0  0  0  0  0  0
  -26.4607  -31.6629   25.0760 C   0  0  0  0  0  0
  -25.3546  -31.4094   26.1306 C   0  0  0  0  0  0
  -27.0591  -30.2960   24.6800 C   0  0  0  0  0  0
  -27.6067  -32.4539   25.7534 C   0  0  0  0  0  0
  -27.5611  -37.1722   24.8417 C   0  0  0  0  0  0
  -21.4336  -29.3066   22.3329 N   0  0  0  0  0  0
  -26.4260  -37.3701   23.9449 N   0  0  0  0  0  0
  -24.7892  -30.9198   22.0973 N   0  0  0  0  0  0
  -23.4102  -28.7814   23.2936 O   0  0  0  0  0  0
  -27.1437  -24.8825   20.4988 O   0  0  0  0  0  0
  -26.5773  -34.8950   22.4467 O   0  0  0  0  0  0
  -23.5928  -32.1173   23.6414 O   0  0  0  0  0  0
  -26.1527  -11.6552   20.5951 C   0  0  0  0  0  0
  -26.1714  -13.3379   18.8232 C   0  0  0  0  0  0
  -25.4143  -12.6106   22.6077 C   0  0  0  0  0  0
  -24.6449  -15.9761   20.9609 C   0  0  0  0  0  0
  -27.5935  -13.9917   17.9968 C   0  0  0  0  0  0
  -25.3861  -19.3236   20.4236 C   0  0  0  0  0  0
  -26.3665  -23.1938   20.2065 C   0  0  0  0  0  0
  -26.0659  -21.2414   20.8860 C   0  0  1  0  0  0
  -25.2693  -15.2345   19.1517 N   0  0  0  0  0  0
  -24.7214  -14.6852   22.6743 N   0  0  0  0  0  0
  -25.4566  -11.9239   23.8093 N   0  0  0  0  0  0
  -24.9536  -17.6827   21.1414 N   0  0  0  0  0  0
  -29.0880  -14.6759   18.4784 N   0  0  0  0  0  0
  -25.3727  -21.5121   21.9950 F   0  0  0  0  0  0
  -31.7054  -12.4344   18.9162 H   0  0  0  0  0  0
  -30.9866  -11.3943   20.1039 H   0  0  0  0  0  0
  -29.8727  -10.8379   18.0515 H   0  0  0  0  0  0
  -29.6731  -12.4665   17.5487 H   0  0  0  0  0  0
  -28.5447  -10.9087   19.8680 H   0  0  0  0  0  0
  -27.5928  -11.4795   18.6227 H   0  0  0  0  0  0
  -28.1438  -13.9159   20.1612 H   0  0  0  0  0  0
  -29.5912  -12.1679   21.7878 H   0  0  0  0  0  0
  -29.3565  -13.9271   21.9862 H   0  0  0  0  0  0
  -25.1082  -10.0266   22.2659 H   0  0  0  0  0  0
  -24.0962   -7.8715   22.7092 H   0  0  0  0  0  0
  -21.0401   -8.7623   19.8234 H   0  0  0  0  0  0
  -22.0137  -10.9314   19.4102 H   0  0  0  0  0  0
  -21.3125   -7.6521   23.9821 H   0  0  0  0  0  0
  -21.1972   -6.0758   25.9069 H   0  0  0  0  0  0
  -22.0055   -2.7717   23.2691 H   0  0  0  0  0  0
  -22.4974  -12.3554   22.4065 H   0  0  0  0  0  0
  -21.0452  -13.2926   22.2443 H   0  0  0  0  0  0
  -26.8121  -15.8422   20.3329 H   0  0  0  0  0  0
  -27.8570  -15.0954   21.4073 H   0  0  0  0  0  0
  -26.7552  -32.4817   23.0749 H   0  0  0  0  0  0
  -25.0121  -33.9387   24.9970 H   0  0  0  0  0  0
  -22.8243  -31.2704   21.3713 H   0  0  0  0  0  0
  -23.3809  -35.9439   23.3015 H   0  0  0  0  0  0
  -24.3571  -36.9147   22.2086 H   0  0  0  0  0  0
  -23.7128  -37.6248   23.6863 H   0  0  0  0  0  0
  -26.3223  -31.0825   20.6483 H   0  0  0  0  0  0
  -26.9324  -30.4355   22.1339 H   0  0  0  0  0  0
  -27.8264  -27.8705   21.5733 H   0  0  0  0  0  0
  -25.3710  -25.6076   18.8640 H   0  0  0  0  0  0
  -23.8569  -27.4264   18.7313 H   0  0  0  0  0  0
  -23.9888  -30.5664   19.4212 H   0  0  0  0  0  0
  -22.8134  -29.3421   19.7711 H   0  0  0  0  0  0
  -25.1302  -36.1600   25.0682 H   0  0  0  0  0  0
  -21.0127  -28.3576   24.1168 H   0  0  0  0  0  0
  -20.5818  -26.2425   23.3675 H   0  0  0  0  0  0
  -21.6670  -26.7453   22.1095 H   0  0  0  0  0  0
  -19.6932  -25.6252   21.1320 H   0  0  0  0  0  0
  -19.6804  -27.3131   20.6725 H   0  0  0  0  0  0
  -17.4257  -26.6742   21.4000 H   0  0  0  0  0  0
  -18.0304  -26.0233   22.9063 H   0  0  0  0  0  0
  -19.7968  -30.7413   24.2085 H   0  0  0  0  0  0
  -17.5021  -31.6290   24.5177 H   0  0  0  0  0  0
  -15.5365  -30.2920   23.7804 H   0  0  0  0  0  0
  -15.8724  -28.0843   22.7053 H   0  0  0  0  0  0
  -24.5662  -30.7573   25.7528 H   0  0  0  0  0  0
  -24.8818  -32.3410   26.4473 H   0  0  0  0  0  0
  -25.7519  -30.9350   27.0282 H   0  0  0  0  0  0
  -26.3396  -29.6627   24.1641 H   0  0  0  0  0  0
  -27.3727  -29.7332   25.5596 H   0  0  0  0  0  0
  -27.9452  -30.4103   24.0524 H   0  0  0  0  0  0
  -27.2665  -33.4008   26.1741 H   0  0  0  0  0  0
  -28.4025  -32.6872   25.0439 H   0  0  0  0  0  0
  -28.0579  -31.8935   26.5736 H   0  0  0  0  0  0
  -28.2369  -38.0254   24.7734 H   0  0  0  0  0  0
  -28.1330  -36.2808   24.5829 H   0  0  0  0  0  0
  -27.2400  -37.0865   25.8810 H   0  0  0  0  0  0
  -20.9558  -29.8842   21.6544 H   0  0  0  0  0  0
  -26.0036  -38.2697   24.1576 H   0  0  0  0  0  0
  -26.6013  -10.6714   20.5747 H   0  0  0  0  0  0
  -27.1477  -14.8478   17.4921 H   0  0  0  0  0  0
  -27.7818  -13.3361   17.1513 H   0  0  0  0  0  0
  -26.1024  -19.0131   19.6629 H   0  0  0  0  0  0
  -24.5030  -19.5494   19.8072 H   0  0  0  0  0  0
  -26.8154  -22.9990   19.2192 H   0  0  0  0  0  0
  -25.3541  -23.5073   19.9087 H   0  0  0  0  0  0
  -27.0600  -21.0088   21.2974 H   0  0  0  0  0  0
  -26.2994  -11.3841   23.9343 H   0  0  0  0  0  0
  -25.2536  -12.4583   24.6380 H   0  0  0  0  0  0
  -24.8410  -17.8505   22.1467 H   0  0  0  0  0  0
  -29.2563  -15.5147   17.9442 H   0  0  0  0  0  0
  1 25  1  0  0  0
  1 30  2  0  0  0
  1 83  1  0  0  0
  2  3  1  0  0  0
  2 25  1  0  0  0
  2 85  1  0  0  0
  2 86  1  0  0  0
  3  4  1  0  0  0
  3 87  1  0  0  0
  3 88  1  0  0  0
  4  5  1  0  0  0
  4 89  1  0  0  0
  4 90  1  0  0  0
  5  6  1  0  0  0
  5 26  1  0  0  0
  5 91  1  0  0  0
  6 25  1  0  0  0
  6 92  1  0  0  0
  6 93  1  0  0  0
  7  8  2  0  0  0
  7 26  1  0  0  0
  7 29  1  0  0  0
  8  9  1  0  0  0
  8 22  1  0  0  0
  9 10  1  0  0  0
  9 27  2  0  0  0
 10 11  2  0  0  0
 10 15  1  0  0  0
 11 12  1  0  0  0
 11 94  1  0  0  0
 12 13  2  0  0  0
 12 95  1  0  0  0
 13 14  1  0  0  0
 13 31  1  0  0  0
 14 15  2  0  0  0
 14 96  1  0  0  0
 15 97  1  0  0  0
 16 17  2  0  0  0
 16 21  1  0  0  0
 16 31  1  0  0  0
 17 18  1  0  0  0
 17 98  1  0  0  0
 18 19  2  0  0  0
 18 99  1  0  0  0
 19 20  1  0  0  0
 19 24  1  0  0  0
 20 21  2  0  0  0
 20100  1  0  0  0
 21 23  1  0  0  0
 22 28  1  0  0  0
 22 32  2  0  0  0
 26 27  1  0  0  0
 28101  1  0  0  0
 28102  1  0  0  0
 29103  1  0  0  0
 29104  1  0  0  0
 33 34  1  0  0  0
 33 66  1  0  0  0
 33 70  2  0  0  0
 34 36  1  0  0  0
 34 59  1  0  0  0
 34105  1  0  0  0
 35 44  2  0  0  0
 35 45  1  0  0  0
 35 68  1  0  0  0
 36 56  1  0  0  0
 36106  1  0  0  0
 37 39  1  0  0  0
 37 47  1  0  0  0
 37 66  1  0  0  0
 37107  1  0  0  0
 38 43  2  0  0  0
 38 46  1  0  0  0
 38 47  1  0  0  0
 39 64  1  0  0  0
 39 67  2  0  0  0
 40 52  1  0  0  0
 40 53  2  0  0  0
 40 58  1  0  0  0
 41108  1  0  0  0
 41109  1  0  0  0
 41110  1  0  0  0
 41 48  1  0  0  0
 42 43  1  0  0  0
 42 66  1  0  0  0
 42111  1  0  0  0
 42112  1  0  0  0
 43 44  1  0  0  0
 44113  1  0  0  0
 45 46  2  0  0  0
 45114  1  0  0  0
 46115  1  0  0  0
 47116  1  0  0  0
 47117  1  0  0  0
 48 56  1  0  0  0
 48 65  1  0  0  0
 48118  1  0  0  0
 49 50  1  0  0  0
 49 53  1  0  0  0
 49 64  1  0  0  0
 49119  1  0  0  0
 50 51  1  0  0  0
 50120  1  0  0  0
 50121  1  0  0  0
 51 52  1  0  0  0
 51122  1  0  0  0
 51123  1  0  0  0
 52124  1  0  0  0
 52125  1  0  0  0
 53 54  1  0  0  0
 54 55  2  0  0  0
 54126  1  0  0  0
 55 57  1  0  0  0
 55127  1  0  0  0
 56 69  2  0  0  0
 57 58  2  0  0  0
 57128  1  0  0  0
 58129  1  0  0  0
 59 60  1  0  0  0
 59 61  1  0  0  0
 59 62  1  0  0  0
 60130  1  0  0  0
 60131  1  0  0  0
 60132  1  0  0  0
 61133  1  0  0  0
 61134  1  0  0  0
 61135  1  0  0  0
 62136  1  0  0  0
 62137  1  0  0  0
 62138  1  0  0  0
 63 65  1  0  0  0
 63139  1  0  0  0
 63140  1  0  0  0
 63141  1  0  0  0
 64142  1  0  0  0
 65143  1  0  0  0
 68 77  1  0  0  0
 71 72  2  0  0  0
 71 73  1  0  0  0
 71144  1  0  0  0
 72 75  1  0  0  0
 72 79  1  0  0  0
 73 80  2  0  0  0
 73 81  1  0  0  0
 74 79  2  0  0  0
 74 80  1  0  0  0
 74 82  1  0  0  0
 75 83  1  0  0  0
 75145  1  0  0  0
 75146  1  0  0  0
 76 78  1  0  0  0
 76 82  1  0  0  0
 76147  1  0  0  0
 76148  1  0  0  0
 77 78  1  0  0  0
 77149  1  0  0  0
 77150  1  0  0  0
 78 84  1  0  0  0
 78151  1  0  0  0
 81152  1  0  0  0
 81153  1  0  0  0
 82154  1  0  0  0
 83155  1  0  0  0
M  ISO  4   1 100  68 101  77 101  83 100
M  END
> <chiral flag>
0

> <version>
0

> <s_m_source_file>
/data/baiqing/PycharmProjects/Reinvent-master-3.2/result/LINK_invent/BTK/process_docking_weight1_custom_product_contain_oxygen_bond_distance_aromatic_linkinvent_7_9_3/rearranged_h_0191.sdf

> <i_m_source_file_index>
29

> <r_mmod_Potential_Energy-OPLS-2005>
22466.3046875

> <r_mmod_Stretch_Energy-OPLS-2005>
12880.931640625

> <r_mmod_Bend_Energy-OPLS-2005>
2655.14697265625

> <r_mmod_Torsional_Energy-OPLS-2005>
612.520935058594

> <r_mmod_Improper_Torsional_Energy-OPLS-2005>
89.8247604370117

> <r_mmod_Van_der_Waal_Energy-OPLS-2005>
4764.70654296875

> <r_mmod_Electrostatic_Energy-OPLS-2005>
-920.915832519531

> <r_mmod_Solvation_Energy-OPLS-2005>
-308.783843994141

> <b_mmod_Minimization_Converged-OPLS-2005>
0

> <r_mmod_RMS_Derivative-OPLS-2005>
19.0862560272217

$$$$
30
                    3D
 Structure written by MMmdl.
172180  0  0  1  0            999 V2000
  -30.6877  -14.4896   20.5715 C   0  0  0  0  0  0
  -30.4281  -12.3165   19.4252 C   0  0  0  0  0  0
  -29.4962  -12.5088   18.2093 C   0  0  0  0  0  0
  -28.0166  -12.3684   18.6192 C   0  0  0  0  0  0
  -27.6623  -13.2053   19.8775 C   0  0  2  0  0  0
  -28.7044  -12.9855   20.9979 C   0  0  0  0  0  0
  -25.2593  -13.8156   20.5671 C   0  0  0  0  0  0
  -24.1844  -13.0438   20.9173 C   0  0  0  0  0  0
  -24.6397  -11.6905   20.8741 C   0  0  0  0  0  0
  -23.9062  -10.4293   21.0412 C   0  0  0  0  0  0
  -24.3620   -9.4207   21.9187 C   0  0  0  0  0  0
  -23.6295   -8.2246   22.0760 C   0  0  0  0  0  0
  -22.4275   -8.0284   21.3553 C   0  0  0  0  0  0
  -21.9908   -9.0255   20.4653 C   0  0  0  0  0  0
  -22.7237  -10.2135   20.3062 C   0  0  0  0  0  0
  -21.6854   -6.0738   22.5281 C   0  0  0  0  0  0
  -21.4010   -6.5644   23.8213 C   0  0  0  0  0  0
  -21.3658   -5.6797   24.9173 C   0  0  0  0  0  0
  -21.6045   -4.3060   24.7224 C   0  0  0  0  0  0
  -21.8817   -3.8154   23.4346 C   0  0  0  0  0  0
  -21.9191   -4.6966   22.3403 C   0  0  0  0  0  0
  -22.7868  -13.5242   21.1835 C   0  0  0  0  0  0
  -22.1661   -4.2153   21.0979 F   0  0  0  0  0  0
  -21.5631   -3.4542   25.7737 F   0  0  0  0  0  0
  -30.0359  -13.2985   20.4498 N   0  0  0  0  0  0
  -26.3029  -12.9321   20.3379 N   0  0  0  0  0  0
  -25.9324  -11.6483   20.5787 N   0  0  0  0  0  0
  -22.0509  -12.8240   22.0392 N   0  0  0  0  0  0
  -25.4318  -15.1872   20.4036 N   0  0  0  0  0  0
  -31.8151  -14.6717   20.0986 O   0  0  0  0  0  0
  -21.6647   -6.8879   21.4242 O   0  0  0  0  0  0
  -22.3564  -14.5554   20.6688 O   0  0  0  0  0  0
  -24.6160  -31.8668   23.2070 C   0  0  0  0  0  0
  -25.9051  -32.4820   23.8367 C   0  0  1  0  0  0
  -27.2387  -27.4193   20.0903 C   0  0  0  0  0  0
  -25.5916  -33.8617   24.2292 N   0  0  0  0  0  0
  -23.4030  -30.4904   21.5480 C   0  0  2  0  0  0
  -24.8464  -28.9483   20.1147 C   0  0  0  0  0  0
  -22.7410  -29.4660   22.4982 C   0  0  0  0  0  0
  -18.0274  -28.1393   22.8502 C   0  0  0  0  0  0
  -24.1491  -36.7309   23.2642 C   0  0  0  0  0  0
  -25.9318  -30.8283   21.3562 C   0  0  0  0  0  0
  -26.0054  -29.4582   20.7078 C   0  0  0  0  0  0
  -27.1975  -28.6996   20.6946 C   0  0  0  0  0  0
  -26.0512  -26.9146   19.5133 C   0  0  0  0  0  0
  -24.8634  -27.6734   19.5199 C   0  0  0  0  0  0
  -23.6099  -29.8197   20.1625 C   0  0  0  0  0  0
  -25.4115  -36.3098   24.0331 C   0  0  1  0  0  0
  -20.5870  -28.3672   23.1326 C   0  0  2  0  0  0
  -20.6771  -26.9409   22.5419 C   0  0  0  0  0  0
  -19.5750  -26.6387   21.5224 C   0  0  0  0  0  0
  -18.1925  -26.7949   22.1621 C   0  0  0  0  0  0
  -19.1532  -28.8849   23.2917 C   0  0  0  0  0  0
  -18.9461  -30.1470   23.8907 C   0  0  0  0  0  0
  -17.6468  -30.6600   24.0584 C   0  0  0  0  0  0
  -25.9051  -34.9473   23.5106 C   0  0  0  0  0  0
  -16.5352  -29.9108   23.6333 C   0  0  0  0  0  0
  -16.7264  -28.6535   23.0328 C   0  0  0  0  0  0
  -26.4472  -31.6621   25.0705 C   0  0  0  0  0  0
  -25.3748  -31.3755   26.1476 C   0  0  0  0  0  0
  -27.0294  -30.3072   24.6068 C   0  0  0  0  0  0
  -27.6059  -32.4339   25.7449 C   0  0  0  0  0  0
  -27.5585  -37.1795   24.8463 C   0  0  0  0  0  0
  -21.4141  -29.3041   22.3730 N   0  0  0  0  0  0
  -26.4287  -37.3790   23.9427 N   0  0  0  0  0  0
  -24.6692  -31.0766   22.0966 N   0  0  0  0  0  0
  -23.4195  -28.8200   23.3013 O   0  0  0  0  0  0
  -28.4451  -26.7386   20.1145 O   0  0  0  0  0  0
  -26.5606  -34.8943   22.4662 O   0  0  0  0  0  0
  -23.5352  -32.1409   23.7474 O   0  0  0  0  0  0
  -31.1615  -18.8862   20.4571 C   0  0  0  0  0  0
  -29.0325  -17.6745   21.5651 C   0  0  0  0  0  0
  -30.0888  -19.6505   20.9808 C   0  0  0  0  0  0
  -30.1049  -16.8941   21.0505 C   0  0  0  0  0  0
  -32.4066  -23.4634   21.2053 C   0  0  0  0  0  0
  -29.8489  -21.5907   23.5284 C   0  0  0  0  0  0
  -27.9251  -22.2743   18.4695 C   0  0  0  0  0  0
  -28.5053  -25.5908   17.9152 C   0  0  0  0  0  0
  -31.2602  -23.2210   22.1992 C   0  0  0  0  0  0
  -28.1273  -24.2139   20.1428 C   0  0  0  0  0  0
  -30.1428  -21.1928   20.9850 C   0  0  2  0  0  0
  -30.7688  -21.7547   22.2992 C   0  0  2  0  0  0
  -28.7303  -22.8513   19.6502 C   0  0  1  0  0  0
  -28.7007  -25.4885   19.4401 C   0  0  2  0  0  0
  -29.0080  -19.0352   21.5258 N   0  0  0  0  0  0
  -31.1696  -17.5285   20.4887 N   0  0  0  0  0  0
  -29.9644  -15.4735   21.1476 N   0  0  0  0  0  0
  -28.8120  -21.8093   20.7210 N   0  3  0  0  0  0
  -31.4710  -12.4230   19.1210 H   0  0  0  0  0  0
  -30.3398  -11.3047   19.8242 H   0  0  0  0  0  0
  -29.7383  -11.7812   17.4325 H   0  0  0  0  0  0
  -29.6604  -13.4937   17.7682 H   0  0  0  0  0  0
  -27.8243  -11.3119   18.8091 H   0  0  0  0  0  0
  -27.3678  -12.6503   17.7886 H   0  0  0  0  0  0
  -27.7057  -14.2541   19.5819 H   0  0  0  0  0  0
  -28.6849  -11.9481   21.3356 H   0  0  0  0  0  0
  -28.4596  -13.5777   21.8802 H   0  0  0  0  0  0
  -25.2766   -9.5687   22.4754 H   0  0  0  0  0  0
  -24.0008   -7.4637   22.7475 H   0  0  0  0  0  0
  -21.0841   -8.8765   19.8961 H   0  0  0  0  0  0
  -22.3691  -10.9670   19.6173 H   0  0  0  0  0  0
  -21.1999   -7.6147   23.9715 H   0  0  0  0  0  0
  -21.1483   -6.0529   25.9077 H   0  0  0  0  0  0
  -22.0599   -2.7613   23.2843 H   0  0  0  0  0  0
  -22.4124  -11.9898   22.4775 H   0  0  0  0  0  0
  -21.1131  -13.1274   22.2598 H   0  0  0  0  0  0
  -24.6571  -15.8363   20.4889 H   0  0  0  0  0  0
  -26.2656  -15.6168   20.0244 H   0  0  0  0  0  0
  -26.7120  -32.5506   23.1127 H   0  0  0  0  0  0
  -25.0121  -33.9781   25.0477 H   0  0  0  0  0  0
  -22.6929  -31.3075   21.4070 H   0  0  0  0  0  0
  -23.3758  -35.9635   23.3282 H   0  0  0  0  0  0
  -24.3603  -36.8937   22.2065 H   0  0  0  0  0  0
  -23.7228  -37.6500   23.6676 H   0  0  0  0  0  0
  -26.0358  -31.5874   20.5796 H   0  0  0  0  0  0
  -26.8242  -30.8893   21.9666 H   0  0  0  0  0  0
  -28.0951  -29.0955   21.1490 H   0  0  0  0  0  0
  -26.0137  -25.9335   19.0691 H   0  0  0  0  0  0
  -23.9669  -27.2637   19.0756 H   0  0  0  0  0  0
  -23.7242  -30.5941   19.4040 H   0  0  0  0  0  0
  -22.7314  -29.2458   19.8619 H   0  0  0  0  0  0
  -25.1282  -36.1944   25.0819 H   0  0  0  0  0  0
  -20.9971  -28.3230   24.1442 H   0  0  0  0  0  0
  -20.5688  -26.2274   23.3601 H   0  0  0  0  0  0
  -21.6641  -26.7464   22.1194 H   0  0  0  0  0  0
  -19.6917  -25.6299   21.1239 H   0  0  0  0  0  0
  -19.6701  -27.3211   20.6775 H   0  0  0  0  0  0
  -17.4200  -26.6713   21.4014 H   0  0  0  0  0  0
  -18.0315  -26.0085   22.9008 H   0  0  0  0  0  0
  -19.7947  -30.7295   24.2243 H   0  0  0  0  0  0
  -17.5027  -31.6274   24.5193 H   0  0  0  0  0  0
  -15.5358  -30.3017   23.7676 H   0  0  0  0  0  0
  -15.8662  -28.0886   22.6995 H   0  0  0  0  0  0
  -24.5910  -30.7104   25.7835 H   0  0  0  0  0  0
  -24.8970  -32.2928   26.4925 H   0  0  0  0  0  0
  -25.8112  -30.8933   27.0233 H   0  0  0  0  0  0
  -26.2809  -29.6821   24.1188 H   0  0  0  0  0  0
  -27.4152  -29.7320   25.4491 H   0  0  0  0  0  0
  -27.8599  -30.4400   23.9134 H   0  0  0  0  0  0
  -27.2715  -33.3680   26.1976 H   0  0  0  0  0  0
  -28.3899  -32.6826   25.0283 H   0  0  0  0  0  0
  -28.0696  -31.8490   26.5400 H   0  0  0  0  0  0
  -28.2573  -38.0121   24.7542 H   0  0  0  0  0  0
  -28.1095  -36.2650   24.6220 H   0  0  0  0  0  0
  -27.2317  -37.1360   25.8867 H   0  0  0  0  0  0
  -20.9292  -29.8776   21.6972 H   0  0  0  0  0  0
  -26.0160  -38.2850   24.1468 H   0  0  0  0  0  0
  -32.0278  -19.3633   20.0206 H   0  0  0  0  0  0
  -28.1718  -17.1988   22.0139 H   0  0  0  0  0  0
  -32.7658  -24.4904   21.2826 H   0  0  0  0  0  0
  -32.0979  -23.3141   20.1711 H   0  0  0  0  0  0
  -33.2550  -22.8073   21.4036 H   0  0  0  0  0  0
  -30.3574  -21.8998   24.4420 H   0  0  0  0  0  0
  -29.5473  -20.5543   23.6787 H   0  0  0  0  0  0
  -28.9434  -22.1926   23.4494 H   0  0  0  0  0  0
  -27.8533  -22.9700   17.6366 H   0  0  0  0  0  0
  -26.9051  -22.0283   18.7675 H   0  0  0  0  0  0
  -28.3871  -21.3643   18.0829 H   0  0  0  0  0  0
  -29.1154  -24.8535   17.3941 H   0  0  0  0  0  0
  -28.8229  -26.5672   17.5478 H   0  0  0  0  0  0
  -27.4751  -25.4363   17.6005 H   0  0  0  0  0  0
  -30.4341  -23.8910   21.9690 H   0  0  0  0  0  0
  -31.6132  -23.5363   23.1829 H   0  0  0  0  0  0
  -28.3349  -24.3284   21.2062 H   0  0  0  0  0  0
  -27.0402  -24.1869   20.0749 H   0  0  0  0  0  0
  -30.8114  -21.4239   20.1565 H   0  0  0  0  0  0
  -31.6607  -21.1578   22.5001 H   0  0  0  0  0  0
  -29.7393  -23.0619   19.2915 H   0  0  0  0  0  0
  -29.7810  -25.4066   19.5665 H   0  0  0  0  0  0
  -29.0987  -15.1596   21.5561 H   0  0  0  0  0  0
  -28.4692  -22.1672   21.5967 H   0  0  0  0  0  0
  -28.2106  -21.0377   20.4749 H   0  0  0  0  0  0
  1 25  1  0  0  0
  1 30  2  0  0  0
  1 87  1  0  0  0
  2  3  1  0  0  0
  2 25  1  0  0  0
  2 89  1  0  0  0
  2 90  1  0  0  0
  3  4  1  0  0  0
  3 91  1  0  0  0
  3 92  1  0  0  0
  4  5  1  0  0  0
  4 93  1  0  0  0
  4 94  1  0  0  0
  5  6  1  0  0  0
  5 26  1  0  0  0
  5 95  1  0  0  0
  6 25  1  0  0  0
  6 96  1  0  0  0
  6 97  1  0  0  0
  7  8  2  0  0  0
  7 26  1  0  0  0
  7 29  1  0  0  0
  8  9  1  0  0  0
  8 22  1  0  0  0
  9 10  1  0  0  0
  9 27  2  0  0  0
 10 11  2  0  0  0
 10 15  1  0  0  0
 11 12  1  0  0  0
 11 98  1  0  0  0
 12 13  2  0  0  0
 12 99  1  0  0  0
 13 14  1  0  0  0
 13 31  1  0  0  0
 14 15  2  0  0  0
 14100  1  0  0  0
 15101  1  0  0  0
 16 17  2  0  0  0
 16 21  1  0  0  0
 16 31  1  0  0  0
 17 18  1  0  0  0
 17102  1  0  0  0
 18 19  2  0  0  0
 18103  1  0  0  0
 19 20  1  0  0  0
 19 24  1  0  0  0
 20 21  2  0  0  0
 20104  1  0  0  0
 21 23  1  0  0  0
 22 28  1  0  0  0
 22 32  2  0  0  0
 26 27  1  0  0  0
 28105  1  0  0  0
 28106  1  0  0  0
 29107  1  0  0  0
 29108  1  0  0  0
 33 34  1  0  0  0
 33 66  1  0  0  0
 33 70  2  0  0  0
 34 36  1  0  0  0
 34 59  1  0  0  0
 34109  1  0  0  0
 35 44  2  0  0  0
 35 45  1  0  0  0
 35 68  1  0  0  0
 36 56  1  0  0  0
 36110  1  0  0  0
 37 39  1  0  0  0
 37 47  1  0  0  0
 37 66  1  0  0  0
 37111  1  0  0  0
 38 43  2  0  0  0
 38 46  1  0  0  0
 38 47  1  0  0  0
 39 64  1  0  0  0
 39 67  2  0  0  0
 40 52  1  0  0  0
 40 53  2  0  0  0
 40 58  1  0  0  0
 41112  1  0  0  0
 41113  1  0  0  0
 41114  1  0  0  0
 41 48  1  0  0  0
 42 43  1  0  0  0
 42 66  1  0  0  0
 42115  1  0  0  0
 42116  1  0  0  0
 43 44  1  0  0  0
 44117  1  0  0  0
 45 46  2  0  0  0
 45118  1  0  0  0
 46119  1  0  0  0
 47120  1  0  0  0
 47121  1  0  0  0
 48 56  1  0  0  0
 48 65  1  0  0  0
 48122  1  0  0  0
 49 50  1  0  0  0
 49 53  1  0  0  0
 49 64  1  0  0  0
 49123  1  0  0  0
 50 51  1  0  0  0
 50124  1  0  0  0
 50125  1  0  0  0
 51 52  1  0  0  0
 51126  1  0  0  0
 51127  1  0  0  0
 52128  1  0  0  0
 52129  1  0  0  0
 53 54  1  0  0  0
 54 55  2  0  0  0
 54130  1  0  0  0
 55 57  1  0  0  0
 55131  1  0  0  0
 56 69  2  0  0  0
 57 58  2  0  0  0
 57132  1  0  0  0
 58133  1  0  0  0
 59 60  1  0  0  0
 59 61  1  0  0  0
 59 62  1  0  0  0
 60134  1  0  0  0
 60135  1  0  0  0
 60136  1  0  0  0
 61137  1  0  0  0
 61138  1  0  0  0
 61139  1  0  0  0
 62140  1  0  0  0
 62141  1  0  0  0
 62142  1  0  0  0
 63 65  1  0  0  0
 63143  1  0  0  0
 63144  1  0  0  0
 63145  1  0  0  0
 64146  1  0  0  0
 65147  1  0  0  0
 68 84  1  0  0  0
 71 73  2  0  0  0
 71 86  1  0  0  0
 71148  1  0  0  0
 72 74  1  0  0  0
 72 85  2  0  0  0
 72149  1  0  0  0
 73 81  1  0  0  0
 73 85  1  0  0  0
 74 86  2  0  0  0
 74 87  1  0  0  0
 75 79  1  0  0  0
 75150  1  0  0  0
 75151  1  0  0  0
 75152  1  0  0  0
 76153  1  0  0  0
 76154  1  0  0  0
 76155  1  0  0  0
 76 82  1  0  0  0
 77156  1  0  0  0
 77157  1  0  0  0
 77158  1  0  0  0
 77 83  1  0  0  0
 78159  1  0  0  0
 78160  1  0  0  0
 78161  1  0  0  0
 78 84  1  0  0  0
 79 82  1  0  0  0
 79162  1  0  0  0
 79163  1  0  0  0
 80 83  1  0  0  0
 80 84  1  0  0  0
 80164  1  0  0  0
 80165  1  0  0  0
 81 82  1  0  0  0
 81 88  1  0  0  0
 81166  1  0  0  0
 82167  1  0  0  0
 83 88  1  0  0  0
 83168  1  0  0  0
 84169  1  0  0  0
 87170  1  0  0  0
 88171  1  0  0  0
 88172  1  0  0  0
M  CHG  1  88   1
M  ISO  4   1 100  68 101  84 101  87 100
M  END
> <chiral flag>
0

> <version>
0

> <s_m_source_file>
/data/baiqing/PycharmProjects/Reinvent-master-3.2/result/LINK_invent/BTK/process_docking_weight1_custom_product_contain_oxygen_bond_distance_aromatic_linkinvent_7_9_3/rearranged_h_0191.sdf

> <i_m_source_file_index>
30

> <r_mmod_Potential_Energy-OPLS-2005>
-133.714218139648

> <r_mmod_Stretch_Energy-OPLS-2005>
47.6153678894043

> <r_mmod_Bend_Energy-OPLS-2005>
137.951812744141

> <r_mmod_Torsional_Energy-OPLS-2005>
232.124328613281

> <r_mmod_Improper_Torsional_Energy-OPLS-2005>
3.45863652229309

> <r_mmod_Van_der_Waal_Energy-OPLS-2005>
150.626998901367

> <r_mmod_Electrostatic_Energy-OPLS-2005>
-258.471221923828

> <r_mmod_Solvation_Energy-OPLS-2005>
-461.427276611328

> <b_mmod_Minimization_Converged-OPLS-2005>
0

> <r_mmod_RMS_Derivative-OPLS-2005>
1.74375522136688

$$$$
31
                    3D
 Structure written by MMmdl.
162170  0  0  1  0            999 V2000
  -30.6276  -14.6500   20.5000 C   0  0  0  0  0  0
  -30.4461  -12.3934   19.4536 C   0  0  0  0  0  0
  -29.5151  -12.5102   18.2261 C   0  0  0  0  0  0
  -28.0379  -12.3446   18.6337 C   0  0  0  0  0  0
  -27.6579  -13.2164   19.8600 C   0  0  2  0  0  0
  -28.7065  -13.0861   20.9890 C   0  0  0  0  0  0
  -25.2633  -13.8162   20.5727 C   0  0  0  0  0  0
  -24.1883  -13.0445   20.9230 C   0  0  0  0  0  0
  -24.6430  -11.6905   20.8747 C   0  0  0  0  0  0
  -23.9078  -10.4297   21.0399 C   0  0  0  0  0  0
  -24.3622   -9.4212   21.9190 C   0  0  0  0  0  0
  -23.6301   -8.2245   22.0750 C   0  0  0  0  0  0
  -22.4285   -8.0289   21.3554 C   0  0  0  0  0  0
  -21.9933   -9.0247   20.4653 C   0  0  0  0  0  0
  -22.7242  -10.2133   20.3055 C   0  0  0  0  0  0
  -21.6860   -6.0741   22.5287 C   0  0  0  0  0  0
  -21.3992   -6.5641   23.8212 C   0  0  0  0  0  0
  -21.3669   -5.6791   24.9185 C   0  0  0  0  0  0
  -21.6064   -4.3050   24.7229 C   0  0  0  0  0  0
  -21.8818   -3.8153   23.4340 C   0  0  0  0  0  0
  -21.9197   -4.6977   22.3404 C   0  0  0  0  0  0
  -22.7913  -13.5260   21.1861 C   0  0  0  0  0  0
  -22.1673   -4.2168   21.0975 F   0  0  0  0  0  0
  -21.5650   -3.4530   25.7732 F   0  0  0  0  0  0
  -30.0201  -13.4211   20.4251 N   0  0  0  0  0  0
  -26.3039  -12.9334   20.3318 N   0  0  0  0  0  0
  -25.9369  -11.6493   20.5755 N   0  0  0  0  0  0
  -22.0502  -12.8285   22.0393 N   0  0  0  0  0  0
  -25.4376  -15.1866   20.4152 N   0  0  0  0  0  0
  -31.7881  -14.7945   20.1018 O   0  0  0  0  0  0
  -21.6658   -6.8882   21.4243 O   0  0  0  0  0  0
  -22.3637  -14.5561   20.6679 O   0  0  0  0  0  0
  -24.6230  -31.8601   23.2021 C   0  0  0  0  0  0
  -25.9082  -32.4769   23.8355 C   0  0  1  0  0  0
  -27.2389  -27.3576   20.1021 C   0  0  0  0  0  0
  -25.5903  -33.8572   24.2282 N   0  0  0  0  0  0
  -23.4159  -30.4785   21.5435 C   0  0  2  0  0  0
  -24.8613  -28.9273   20.1135 C   0  0  0  0  0  0
  -22.7473  -29.4608   22.4962 C   0  0  0  0  0  0
  -18.0284  -28.1420   22.8486 C   0  0  0  0  0  0
  -24.1468  -36.7292   23.2645 C   0  0  0  0  0  0
  -25.9487  -30.7997   21.3656 C   0  0  0  0  0  0
  -26.0245  -29.4245   20.7162 C   0  0  0  0  0  0
  -27.2150  -28.6502   20.6976 C   0  0  0  0  0  0
  -26.0560  -26.8876   19.4953 C   0  0  0  0  0  0
  -24.8775  -27.6651   19.4933 C   0  0  0  0  0  0
  -23.6278  -29.8045   20.1607 C   0  0  0  0  0  0
  -25.4091  -36.3069   24.0337 C   0  0  1  0  0  0
  -20.5881  -28.3695   23.1318 C   0  0  2  0  0  0
  -20.6765  -26.9423   22.5437 C   0  0  0  0  0  0
  -19.5743  -26.6400   21.5242 C   0  0  0  0  0  0
  -18.1921  -26.7963   22.1633 C   0  0  0  0  0  0
  -19.1536  -28.8875   23.2897 C   0  0  0  0  0  0
  -18.9458  -30.1480   23.8906 C   0  0  0  0  0  0
  -17.6458  -30.6616   24.0571 C   0  0  0  0  0  0
  -25.9038  -34.9446   23.5103 C   0  0  0  0  0  0
  -16.5349  -29.9114   23.6337 C   0  0  0  0  0  0
  -16.7270  -28.6539   23.0344 C   0  0  0  0  0  0
  -26.4486  -31.6568   25.0712 C   0  0  0  0  0  0
  -25.3739  -31.3681   26.1445 C   0  0  0  0  0  0
  -27.0348  -30.3023   24.6106 C   0  0  0  0  0  0
  -27.6069  -32.4293   25.7461 C   0  0  0  0  0  0
  -27.5565  -37.1783   24.8474 C   0  0  0  0  0  0
  -21.4185  -29.3043   22.3724 N   0  0  0  0  0  0
  -26.4269  -37.3774   23.9420 N   0  0  0  0  0  0
  -24.6818  -31.0629   22.0960 N   0  0  0  0  0  0
  -23.4206  -28.8157   23.3044 O   0  0  0  0  0  0
  -28.4114  -26.6086   20.0425 O   0  0  0  0  0  0
  -26.5622  -34.8913   22.4679 O   0  0  0  0  0  0
  -23.5413  -32.1387   23.7357 O   0  0  0  0  0  0
  -29.9394  -19.2584   19.4750 C   0  0  0  0  0  0
  -29.5324  -19.4533   20.7289 C   0  0  0  0  0  0
  -30.3165  -17.8656   19.3509 C   0  0  0  0  0  0
  -28.6834  -21.8683   21.1294 C   0  0  0  0  0  0
  -29.3151  -18.2276   16.4779 C   0  0  0  0  0  0
  -31.8008  -18.8462   16.8012 C   0  0  0  0  0  0
  -29.8342  -15.9153   21.0316 C   0  0  0  0  0  0
  -29.0976  -22.6456   19.8438 C   0  0  0  0  0  0
  -28.3767  -24.0351   19.5220 C   0  0  0  0  0  0
  -28.4503  -25.2331   20.5463 C   0  0  0  0  0  0
  -30.7062  -17.7730   16.9668 C   0  0  0  0  0  0
  -30.6674  -17.1813   18.3042 N   0  0  0  0  0  0
  -30.2079  -17.3115   20.6333 N   0  0  0  0  0  0
  -28.9869  -20.5653   21.4287 N   0  0  0  0  0  0
  -28.0581  -22.5034   21.9791 O   0  0  0  0  0  0
  -29.6512  -18.3279   21.5187 O   0  0  0  0  0  0
  -31.4867  -12.5124   19.1466 H   0  0  0  0  0  0
  -30.3806  -11.3973   19.8938 H   0  0  0  0  0  0
  -29.7799  -11.7610   17.4795 H   0  0  0  0  0  0
  -29.6582  -13.4814   17.7493 H   0  0  0  0  0  0
  -27.8803  -11.2898   18.8603 H   0  0  0  0  0  0
  -27.3852  -12.5745   17.7908 H   0  0  0  0  0  0
  -27.6677  -14.2476   19.5078 H   0  0  0  0  0  0
  -28.7238  -12.0686   21.3808 H   0  0  0  0  0  0
  -28.4583  -13.7247   21.8375 H   0  0  0  0  0  0
  -25.2744   -9.5718   22.4795 H   0  0  0  0  0  0
  -24.0036   -7.4640   22.7461 H   0  0  0  0  0  0
  -21.0879   -8.8741   19.8949 H   0  0  0  0  0  0
  -22.3672  -10.9680   19.6187 H   0  0  0  0  0  0
  -21.1926   -7.6140   23.9723 H   0  0  0  0  0  0
  -21.1525   -6.0517   25.9092 H   0  0  0  0  0  0
  -22.0584   -2.7622   23.2830 H   0  0  0  0  0  0
  -22.4090  -11.9958   22.4830 H   0  0  0  0  0  0
  -21.1103  -13.1340   22.2483 H   0  0  0  0  0  0
  -24.6719  -15.8400   20.5239 H   0  0  0  0  0  0
  -26.2881  -15.6262   20.0863 H   0  0  0  0  0  0
  -26.7140  -32.5439   23.1109 H   0  0  0  0  0  0
  -25.0022  -33.9716   25.0395 H   0  0  0  0  0  0
  -22.7079  -31.2967   21.3988 H   0  0  0  0  0  0
  -23.3734  -35.9629   23.3316 H   0  0  0  0  0  0
  -24.3573  -36.8915   22.2068 H   0  0  0  0  0  0
  -23.7224  -37.6490   23.6670 H   0  0  0  0  0  0
  -26.0705  -31.5556   20.5875 H   0  0  0  0  0  0
  -26.8367  -30.8583   21.9838 H   0  0  0  0  0  0
  -28.1191  -29.0367   21.1462 H   0  0  0  0  0  0
  -26.0483  -25.9304   18.9951 H   0  0  0  0  0  0
  -23.9891  -27.2907   19.0028 H   0  0  0  0  0  0
  -23.7414  -30.5757   19.3997 H   0  0  0  0  0  0
  -22.7485  -29.2297   19.8629 H   0  0  0  0  0  0
  -25.1267  -36.1926   25.0840 H   0  0  0  0  0  0
  -20.9956  -28.3256   24.1442 H   0  0  0  0  0  0
  -20.5698  -26.2299   23.3633 H   0  0  0  0  0  0
  -21.6624  -26.7467   22.1203 H   0  0  0  0  0  0
  -19.6900  -25.6311   21.1270 H   0  0  0  0  0  0
  -19.6689  -27.3209   20.6783 H   0  0  0  0  0  0
  -17.4192  -26.6736   21.4028 H   0  0  0  0  0  0
  -18.0283  -26.0131   22.9047 H   0  0  0  0  0  0
  -19.7938  -30.7311   24.2267 H   0  0  0  0  0  0
  -17.5011  -31.6286   24.5194 H   0  0  0  0  0  0
  -15.5350  -30.3013   23.7682 H   0  0  0  0  0  0
  -15.8665  -28.0870   22.7040 H   0  0  0  0  0  0
  -24.5909  -30.7043   25.7754 H   0  0  0  0  0  0
  -24.8926  -32.2840   26.4892 H   0  0  0  0  0  0
  -25.8075  -30.8824   27.0194 H   0  0  0  0  0  0
  -26.2901  -29.6740   24.1206 H   0  0  0  0  0  0
  -27.4202  -29.7300   25.4552 H   0  0  0  0  0  0
  -27.8688  -30.4386   23.9222 H   0  0  0  0  0  0
  -27.2710  -33.3599   26.2052 H   0  0  0  0  0  0
  -28.3852  -32.6844   25.0253 H   0  0  0  0  0  0
  -28.0764  -31.8408   26.5350 H   0  0  0  0  0  0
  -28.2572  -38.0085   24.7497 H   0  0  0  0  0  0
  -28.1058  -36.2607   24.6300 H   0  0  0  0  0  0
  -27.2291  -37.1445   25.8883 H   0  0  0  0  0  0
  -20.9386  -29.8761   21.6899 H   0  0  0  0  0  0
  -26.0147  -38.2841   24.1454 H   0  0  0  0  0  0
  -29.9349  -20.0204   18.7151 H   0  0  0  0  0  0
  -29.3419  -18.5047   15.4242 H   0  0  0  0  0  0
  -28.9336  -19.0960   17.0121 H   0  0  0  0  0  0
  -28.5827  -17.4262   16.5801 H   0  0  0  0  0  0
  -31.8793  -19.1473   15.7558 H   0  0  0  0  0  0
  -32.7811  -18.4763   17.1005 H   0  0  0  0  0  0
  -31.6089  -19.7517   17.3718 H   0  0  0  0  0  0
  -28.7804  -15.8063   20.7823 H   0  0  0  0  0  0
  -29.8962  -15.8721   22.1187 H   0  0  0  0  0  0
  -28.9483  -21.9922   18.9825 H   0  0  0  0  0  0
  -30.1728  -22.8177   19.9043 H   0  0  0  0  0  0
  -27.3303  -23.8415   19.2860 H   0  0  0  0  0  0
  -28.8127  -24.3889   18.5868 H   0  0  0  0  0  0
  -29.4142  -25.1489   21.0484 H   0  0  0  0  0  0
  -27.7025  -25.1049   21.3310 H   0  0  0  0  0  0
  -30.9987  -16.9695   16.2884 H   0  0  0  0  0  0
  -28.6888  -20.3204   22.3599 H   0  0  0  0  0  0
  1 25  1  0  0  0
  1 30  2  0  0  0
  1 77  1  0  0  0
  2  3  1  0  0  0
  2 25  1  0  0  0
  2 87  1  0  0  0
  2 88  1  0  0  0
  3  4  1  0  0  0
  3 89  1  0  0  0
  3 90  1  0  0  0
  4  5  1  0  0  0
  4 91  1  0  0  0
  4 92  1  0  0  0
  5  6  1  0  0  0
  5 26  1  0  0  0
  5 93  1  0  0  0
  6 25  1  0  0  0
  6 94  1  0  0  0
  6 95  1  0  0  0
  7  8  2  0  0  0
  7 26  1  0  0  0
  7 29  1  0  0  0
  8  9  1  0  0  0
  8 22  1  0  0  0
  9 10  1  0  0  0
  9 27  2  0  0  0
 10 11  2  0  0  0
 10 15  1  0  0  0
 11 12  1  0  0  0
 11 96  1  0  0  0
 12 13  2  0  0  0
 12 97  1  0  0  0
 13 14  1  0  0  0
 13 31  1  0  0  0
 14 15  2  0  0  0
 14 98  1  0  0  0
 15 99  1  0  0  0
 16 17  2  0  0  0
 16 21  1  0  0  0
 16 31  1  0  0  0
 17 18  1  0  0  0
 17100  1  0  0  0
 18 19  2  0  0  0
 18101  1  0  0  0
 19 20  1  0  0  0
 19 24  1  0  0  0
 20 21  2  0  0  0
 20102  1  0  0  0
 21 23  1  0  0  0
 22 28  1  0  0  0
 22 32  2  0  0  0
 26 27  1  0  0  0
 28103  1  0  0  0
 28104  1  0  0  0
 29105  1  0  0  0
 29106  1  0  0  0
 33 34  1  0  0  0
 33 66  1  0  0  0
 33 70  2  0  0  0
 34 36  1  0  0  0
 34 59  1  0  0  0
 34107  1  0  0  0
 35 44  2  0  0  0
 35 45  1  0  0  0
 35 68  1  0  0  0
 36 56  1  0  0  0
 36108  1  0  0  0
 37 39  1  0  0  0
 37 47  1  0  0  0
 37 66  1  0  0  0
 37109  1  0  0  0
 38 43  2  0  0  0
 38 46  1  0  0  0
 38 47  1  0  0  0
 39 64  1  0  0  0
 39 67  2  0  0  0
 40 52  1  0  0  0
 40 53  2  0  0  0
 40 58  1  0  0  0
 41110  1  0  0  0
 41111  1  0  0  0
 41112  1  0  0  0
 41 48  1  0  0  0
 42 43  1  0  0  0
 42 66  1  0  0  0
 42113  1  0  0  0
 42114  1  0  0  0
 43 44  1  0  0  0
 44115  1  0  0  0
 45 46  2  0  0  0
 45116  1  0  0  0
 46117  1  0  0  0
 47118  1  0  0  0
 47119  1  0  0  0
 48 56  1  0  0  0
 48 65  1  0  0  0
 48120  1  0  0  0
 49 50  1  0  0  0
 49 53  1  0  0  0
 49 64  1  0  0  0
 49121  1  0  0  0
 50 51  1  0  0  0
 50122  1  0  0  0
 50123  1  0  0  0
 51 52  1  0  0  0
 51124  1  0  0  0
 51125  1  0  0  0
 52126  1  0  0  0
 52127  1  0  0  0
 53 54  1  0  0  0
 54 55  2  0  0  0
 54128  1  0  0  0
 55 57  1  0  0  0
 55129  1  0  0  0
 56 69  2  0  0  0
 57 58  2  0  0  0
 57130  1  0  0  0
 58131  1  0  0  0
 59 60  1  0  0  0
 59 61  1  0  0  0
 59 62  1  0  0  0
 60132  1  0  0  0
 60133  1  0  0  0
 60134  1  0  0  0
 61135  1  0  0  0
 61136  1  0  0  0
 61137  1  0  0  0
 62138  1  0  0  0
 62139  1  0  0  0
 62140  1  0  0  0
 63 65  1  0  0  0
 63141  1  0  0  0
 63142  1  0  0  0
 63143  1  0  0  0
 64144  1  0  0  0
 65145  1  0  0  0
 68 80  1  0  0  0
 71 72  2  0  0  0
 71 73  1  0  0  0
 71146  1  0  0  0
 72 84  1  0  0  0
 72 86  1  0  0  0
 73 82  2  0  0  0
 73 83  1  0  0  0
 74 78  1  0  0  0
 74 84  1  0  0  0
 74 85  2  0  0  0
 75147  1  0  0  0
 75148  1  0  0  0
 75149  1  0  0  0
 75 81  1  0  0  0
 76 81  1  0  0  0
 76150  1  0  0  0
 76151  1  0  0  0
 76152  1  0  0  0
 77 83  1  0  0  0
 77153  1  0  0  0
 77154  1  0  0  0
 78 79  1  0  0  0
 78155  1  0  0  0
 78156  1  0  0  0
 79 80  1  0  0  0
 79157  1  0  0  0
 79158  1  0  0  0
 80159  1  0  0  0
 80160  1  0  0  0
 81 82  1  0  0  0
 81161  1  0  0  0
 83 86  1  0  0  0
 84162  1  0  0  0
M  ISO  4   1 100  68 101  77 100  80 101
M  END
> <chiral flag>
0

> <version>
0

> <s_m_source_file>
/data/baiqing/PycharmProjects/Reinvent-master-3.2/result/LINK_invent/BTK/process_docking_weight1_custom_product_contain_oxygen_bond_distance_aromatic_linkinvent_7_9_3/rearranged_h_0191.sdf

> <i_m_source_file_index>
31

> <r_mmod_Potential_Energy-OPLS-2005>
6.68960857391357

> <r_mmod_Stretch_Energy-OPLS-2005>
69.4932632446289

> <r_mmod_Bend_Energy-OPLS-2005>
244.031433105469

> <r_mmod_Torsional_Energy-OPLS-2005>
178.087768554688

> <r_mmod_Improper_Torsional_Energy-OPLS-2005>
5.74948358535767

> <r_mmod_Van_der_Waal_Energy-OPLS-2005>
116.055694580078

> <r_mmod_Electrostatic_Energy-OPLS-2005>
-422.953369140625

> <r_mmod_Solvation_Energy-OPLS-2005>
-222.378204345703

> <b_mmod_Minimization_Converged-OPLS-2005>
0

> <r_mmod_RMS_Derivative-OPLS-2005>
4.09201717376709

$$$$
32
                    3D
 Structure written by MMmdl.
154162  0  0  1  0            999 V2000
  -30.7161  -14.5275   20.5610 C   0  0  0  0  0  0
  -30.4167  -12.3407   19.4423 C   0  0  0  0  0  0
  -29.4984  -12.5146   18.2165 C   0  0  0  0  0  0
  -28.0186  -12.3752   18.6210 C   0  0  0  0  0  0
  -27.6578  -13.2236   19.8697 C   0  0  2  0  0  0
  -28.7010  -13.0553   20.9992 C   0  0  0  0  0  0
  -25.2573  -13.8187   20.5721 C   0  0  0  0  0  0
  -24.1842  -13.0438   20.9197 C   0  0  0  0  0  0
  -24.6421  -11.6921   20.8736 C   0  0  0  0  0  0
  -23.9098  -10.4305   21.0386 C   0  0  0  0  0  0
  -24.3654   -9.4215   21.9163 C   0  0  0  0  0  0
  -23.6333   -8.2252   22.0713 C   0  0  0  0  0  0
  -22.4297   -8.0305   21.3530 C   0  0  0  0  0  0
  -21.9952   -9.0290   20.4614 C   0  0  0  0  0  0
  -22.7280  -10.2163   20.3023 C   0  0  0  0  0  0
  -21.6864   -6.0759   22.5290 C   0  0  0  0  0  0
  -21.4019   -6.5651   23.8229 C   0  0  0  0  0  0
  -21.3660   -5.6792   24.9189 C   0  0  0  0  0  0
  -21.6051   -4.3060   24.7217 C   0  0  0  0  0  0
  -21.8828   -3.8152   23.4336 C   0  0  0  0  0  0
  -21.9193   -4.6985   22.3399 C   0  0  0  0  0  0
  -22.7865  -13.5218   21.1882 C   0  0  0  0  0  0
  -22.1653   -4.2169   21.0978 F   0  0  0  0  0  0
  -21.5637   -3.4536   25.7725 F   0  0  0  0  0  0
  -30.0303  -13.3509   20.4428 N   0  0  0  0  0  0
  -26.3024  -12.9395   20.3364 N   0  0  0  0  0  0
  -25.9357  -11.6543   20.5776 N   0  0  0  0  0  0
  -22.0500  -12.8209   22.0426 N   0  0  0  0  0  0
  -25.4289  -15.1920   20.4219 N   0  0  0  0  0  0
  -31.8425  -14.6751   20.0807 O   0  0  0  0  0  0
  -21.6632   -6.8915   21.4253 O   0  0  0  0  0  0
  -22.3551  -14.5537   20.6736 O   0  0  0  0  0  0
  -24.6170  -31.8620   23.2025 C   0  0  0  0  0  0
  -25.9042  -32.4807   23.8331 C   0  0  1  0  0  0
  -27.2407  -27.3863   20.1194 C   0  0  0  0  0  0
  -25.5901  -33.8601   24.2269 N   0  0  0  0  0  0
  -23.4106  -30.4794   21.5416 C   0  0  2  0  0  0
  -24.8635  -28.9293   20.1239 C   0  0  0  0  0  0
  -22.7433  -29.4624   22.4942 C   0  0  0  0  0  0
  -18.0283  -28.1400   22.8494 C   0  0  0  0  0  0
  -24.1491  -36.7305   23.2623 C   0  0  0  0  0  0
  -25.9406  -30.8161   21.3607 C   0  0  0  0  0  0
  -26.0243  -29.4405   20.7204 C   0  0  0  0  0  0
  -27.2180  -28.6752   20.7137 C   0  0  0  0  0  0
  -26.0640  -26.8948   19.5223 C   0  0  0  0  0  0
  -24.8795  -27.6573   19.5226 C   0  0  0  0  0  0
  -23.6274  -29.8000   20.1620 C   0  0  0  0  0  0
  -25.4118  -36.3099   24.0311 C   0  0  1  0  0  0
  -20.5873  -28.3691   23.1312 C   0  0  2  0  0  0
  -20.6792  -26.9424   22.5426 C   0  0  0  0  0  0
  -19.5765  -26.6398   21.5231 C   0  0  0  0  0  0
  -18.1940  -26.7948   22.1634 C   0  0  0  0  0  0
  -19.1534  -28.8859   23.2893 C   0  0  0  0  0  0
  -18.9465  -30.1476   23.8896 C   0  0  0  0  0  0
  -17.6464  -30.6600   24.0588 C   0  0  0  0  0  0
  -25.9045  -34.9466   23.5082 C   0  0  0  0  0  0
  -16.5349  -29.9120   23.6329 C   0  0  0  0  0  0
  -16.7271  -28.6537   23.0336 C   0  0  0  0  0  0
  -26.4473  -31.6603   25.0668 C   0  0  0  0  0  0
  -25.3734  -31.3744   26.1412 C   0  0  0  0  0  0
  -27.0309  -30.3047   24.6061 C   0  0  0  0  0  0
  -27.6038  -32.4323   25.7455 C   0  0  0  0  0  0
  -27.5592  -37.1795   24.8444 C   0  0  0  0  0  0
  -21.4144  -29.3040   22.3697 N   0  0  0  0  0  0
  -26.4292  -37.3797   23.9414 N   0  0  0  0  0  0
  -24.6745  -31.0678   22.0948 N   0  0  0  0  0  0
  -23.4183  -28.8159   23.2990 O   0  0  0  0  0  0
  -28.4015  -26.6374   20.0528 O   0  0  0  0  0  0
  -26.5606  -34.8932   22.4650 O   0  0  0  0  0  0
  -23.5345  -32.1364   23.7410 O   0  0  0  0  0  0
  -28.8524  -17.7051   19.3968 C   0  0  0  0  0  0
  -29.7075  -18.0012   20.4285 C   0  0  0  0  0  0
  -28.9821  -20.1288   19.8549 C   0  0  0  0  0  0
  -30.2869  -22.7917   21.3004 C   0  0  0  0  0  0
  -30.5354  -16.9786   21.2078 C   0  0  0  0  0  0
  -28.4938  -24.0483   19.8986 C   0  0  0  0  0  0
  -28.4422  -25.3683   20.7560 C   0  0  0  0  0  0
  -28.8908  -22.7215   20.6624 C   0  0  1  0  0  0
  -29.7511  -19.4007   20.6927 N   0  0  0  0  0  0
  -28.7819  -21.5232   19.8065 N   0  0  0  0  0  0
  -30.0584  -15.5729   21.1102 N   0  0  0  0  0  0
  -28.1299  -19.1261   18.6904 S   0  0  0  0  0  0
  -31.4603  -12.4285   19.1412 H   0  0  0  0  0  0
  -30.3084  -11.3385   19.8606 H   0  0  0  0  0  0
  -29.7483  -11.7803   17.4502 H   0  0  0  0  0  0
  -29.6688  -13.4960   17.7673 H   0  0  0  0  0  0
  -27.8254  -11.3205   18.8197 H   0  0  0  0  0  0
  -27.3741  -12.6485   17.7837 H   0  0  0  0  0  0
  -27.6850  -14.2663   19.5519 H   0  0  0  0  0  0
  -28.6809  -12.0381   21.3972 H   0  0  0  0  0  0
  -28.4540  -13.7042   21.8406 H   0  0  0  0  0  0
  -25.2800   -9.5682   22.4746 H   0  0  0  0  0  0
  -24.0049   -7.4613   22.7410 H   0  0  0  0  0  0
  -21.0880   -8.8825   19.8920 H   0  0  0  0  0  0
  -22.3746  -10.9723   19.6130 H   0  0  0  0  0  0
  -21.2005   -7.6154   23.9752 H   0  0  0  0  0  0
  -21.1476   -6.0500   25.9102 H   0  0  0  0  0  0
  -22.0597   -2.7611   23.2817 H   0  0  0  0  0  0
  -22.4124  -11.9884   22.4847 H   0  0  0  0  0  0
  -21.1111  -13.1213   22.2630 H   0  0  0  0  0  0
  -24.6707  -15.8507   20.5618 H   0  0  0  0  0  0
  -26.3003  -15.6405   20.1665 H   0  0  0  0  0  0
  -26.7112  -32.5526   23.1091 H   0  0  0  0  0  0
  -25.0123  -33.9756   25.0468 H   0  0  0  0  0  0
  -22.6998  -31.2939   21.3914 H   0  0  0  0  0  0
  -23.3766  -35.9625   23.3265 H   0  0  0  0  0  0
  -24.3575  -36.8950   22.2038 H   0  0  0  0  0  0
  -23.7234  -37.6492   23.6669 H   0  0  0  0  0  0
  -26.0386  -31.5736   20.5816 H   0  0  0  0  0  0
  -26.8317  -30.8884   21.9720 H   0  0  0  0  0  0
  -28.1162  -29.0638   21.1734 H   0  0  0  0  0  0
  -26.0730  -25.9227   19.0501 H   0  0  0  0  0  0
  -23.9901  -27.2551   19.0559 H   0  0  0  0  0  0
  -23.7420  -30.5668   19.3944 H   0  0  0  0  0  0
  -22.7550  -29.2143   19.8646 H   0  0  0  0  0  0
  -25.1304  -36.1920   25.0803 H   0  0  0  0  0  0
  -20.9966  -28.3281   24.1433 H   0  0  0  0  0  0
  -20.5737  -26.2292   23.3615 H   0  0  0  0  0  0
  -21.6659  -26.7502   22.1193 H   0  0  0  0  0  0
  -19.6942  -25.6312   21.1260 H   0  0  0  0  0  0
  -19.6719  -27.3216   20.6769 H   0  0  0  0  0  0
  -17.4221  -26.6697   21.4029 H   0  0  0  0  0  0
  -18.0336  -26.0089   22.9026 H   0  0  0  0  0  0
  -19.7937  -30.7305   24.2242 H   0  0  0  0  0  0
  -17.5022  -31.6262   24.5220 H   0  0  0  0  0  0
  -15.5362  -30.3033   23.7636 H   0  0  0  0  0  0
  -15.8675  -28.0880   22.7021 H   0  0  0  0  0  0
  -24.5889  -30.7114   25.7744 H   0  0  0  0  0  0
  -24.8961  -32.2934   26.4824 H   0  0  0  0  0  0
  -25.8064  -30.8922   27.0182 H   0  0  0  0  0  0
  -26.2864  -29.6800   24.1117 H   0  0  0  0  0  0
  -27.4080  -29.7269   25.4502 H   0  0  0  0  0  0
  -27.8686  -30.4346   23.9209 H   0  0  0  0  0  0
  -27.2654  -33.3620   26.2033 H   0  0  0  0  0  0
  -28.3881  -32.6880   25.0322 H   0  0  0  0  0  0
  -28.0681  -31.8449   26.5379 H   0  0  0  0  0  0
  -28.2559  -38.0139   24.7571 H   0  0  0  0  0  0
  -28.1136  -36.2674   24.6187 H   0  0  0  0  0  0
  -27.2302  -37.1331   25.8837 H   0  0  0  0  0  0
  -20.9303  -29.8753   21.6915 H   0  0  0  0  0  0
  -26.0157  -38.2850   24.1500 H   0  0  0  0  0  0
  -28.6187  -16.7332   18.9869 H   0  0  0  0  0  0
  -30.3903  -23.6339   21.9841 H   0  0  0  0  0  0
  -31.0684  -22.8710   20.5439 H   0  0  0  0  0  0
  -30.4846  -21.8981   21.8933 H   0  0  0  0  0  0
  -30.5558  -17.2441   22.2656 H   0  0  0  0  0  0
  -31.5779  -17.0407   20.8861 H   0  0  0  0  0  0
  -29.1730  -24.1927   19.0566 H   0  0  0  0  0  0
  -27.5091  -23.9035   19.4495 H   0  0  0  0  0  0
  -29.3676  -25.4398   21.3226 H   0  0  0  0  0  0
  -27.6512  -25.2998   21.5052 H   0  0  0  0  0  0
  -28.1685  -22.5888   21.4699 H   0  0  0  0  0  0
  -28.2678  -21.7397   18.9584 H   0  0  0  0  0  0
  -29.1449  -15.3900   21.4967 H   0  0  0  0  0  0
  1 25  1  0  0  0
  1 30  2  0  0  0
  1 81  1  0  0  0
  2  3  1  0  0  0
  2 25  1  0  0  0
  2 83  1  0  0  0
  2 84  1  0  0  0
  3  4  1  0  0  0
  3 85  1  0  0  0
  3 86  1  0  0  0
  4  5  1  0  0  0
  4 87  1  0  0  0
  4 88  1  0  0  0
  5  6  1  0  0  0
  5 26  1  0  0  0
  5 89  1  0  0  0
  6 25  1  0  0  0
  6 90  1  0  0  0
  6 91  1  0  0  0
  7  8  2  0  0  0
  7 26  1  0  0  0
  7 29  1  0  0  0
  8  9  1  0  0  0
  8 22  1  0  0  0
  9 10  1  0  0  0
  9 27  2  0  0  0
 10 11  2  0  0  0
 10 15  1  0  0  0
 11 12  1  0  0  0
 11 92  1  0  0  0
 12 13  2  0  0  0
 12 93  1  0  0  0
 13 14  1  0  0  0
 13 31  1  0  0  0
 14 15  2  0  0  0
 14 94  1  0  0  0
 15 95  1  0  0  0
 16 17  2  0  0  0
 16 21  1  0  0  0
 16 31  1  0  0  0
 17 18  1  0  0  0
 17 96  1  0  0  0
 18 19  2  0  0  0
 18 97  1  0  0  0
 19 20  1  0  0  0
 19 24  1  0  0  0
 20 21  2  0  0  0
 20 98  1  0  0  0
 21 23  1  0  0  0
 22 28  1  0  0  0
 22 32  2  0  0  0
 26 27  1  0  0  0
 28 99  1  0  0  0
 28100  1  0  0  0
 29101  1  0  0  0
 29102  1  0  0  0
 33 34  1  0  0  0
 33 66  1  0  0  0
 33 70  2  0  0  0
 34 36  1  0  0  0
 34 59  1  0  0  0
 34103  1  0  0  0
 35 44  2  0  0  0
 35 45  1  0  0  0
 35 68  1  0  0  0
 36 56  1  0  0  0
 36104  1  0  0  0
 37 39  1  0  0  0
 37 47  1  0  0  0
 37 66  1  0  0  0
 37105  1  0  0  0
 38 43  2  0  0  0
 38 46  1  0  0  0
 38 47  1  0  0  0
 39 64  1  0  0  0
 39 67  2  0  0  0
 40 52  1  0  0  0
 40 53  2  0  0  0
 40 58  1  0  0  0
 41106  1  0  0  0
 41107  1  0  0  0
 41108  1  0  0  0
 41 48  1  0  0  0
 42 43  1  0  0  0
 42 66  1  0  0  0
 42109  1  0  0  0
 42110  1  0  0  0
 43 44  1  0  0  0
 44111  1  0  0  0
 45 46  2  0  0  0
 45112  1  0  0  0
 46113  1  0  0  0
 47114  1  0  0  0
 47115  1  0  0  0
 48 56  1  0  0  0
 48 65  1  0  0  0
 48116  1  0  0  0
 49 50  1  0  0  0
 49 53  1  0  0  0
 49 64  1  0  0  0
 49117  1  0  0  0
 50 51  1  0  0  0
 50118  1  0  0  0
 50119  1  0  0  0
 51 52  1  0  0  0
 51120  1  0  0  0
 51121  1  0  0  0
 52122  1  0  0  0
 52123  1  0  0  0
 53 54  1  0  0  0
 54 55  2  0  0  0
 54124  1  0  0  0
 55 57  1  0  0  0
 55125  1  0  0  0
 56 69  2  0  0  0
 57 58  2  0  0  0
 57126  1  0  0  0
 58127  1  0  0  0
 59 60  1  0  0  0
 59 61  1  0  0  0
 59 62  1  0  0  0
 60128  1  0  0  0
 60129  1  0  0  0
 60130  1  0  0  0
 61131  1  0  0  0
 61132  1  0  0  0
 61133  1  0  0  0
 62134  1  0  0  0
 62135  1  0  0  0
 62136  1  0  0  0
 63 65  1  0  0  0
 63137  1  0  0  0
 63138  1  0  0  0
 63139  1  0  0  0
 64140  1  0  0  0
 65141  1  0  0  0
 68 77  1  0  0  0
 71 72  2  0  0  0
 71 82  1  0  0  0
 71142  1  0  0  0
 72 75  1  0  0  0
 72 79  1  0  0  0
 73 79  2  0  0  0
 73 80  1  0  0  0
 73 82  1  0  0  0
 74143  1  0  0  0
 74144  1  0  0  0
 74145  1  0  0  0
 74 78  1  0  0  0
 75 81  1  0  0  0
 75146  1  0  0  0
 75147  1  0  0  0
 76 77  1  0  0  0
 76 78  1  0  0  0
 76148  1  0  0  0
 76149  1  0  0  0
 77150  1  0  0  0
 77151  1  0  0  0
 78 80  1  0  0  0
 78152  1  0  0  0
 80153  1  0  0  0
 81154  1  0  0  0
M  ISO  4   1 100  68 101  77 101  81 100
M  END
> <chiral flag>
0

> <version>
0

> <s_m_source_file>
/data/baiqing/PycharmProjects/Reinvent-master-3.2/result/LINK_invent/BTK/process_docking_weight1_custom_product_contain_oxygen_bond_distance_aromatic_linkinvent_7_9_3/rearranged_h_0191.sdf

> <i_m_source_file_index>
32

> <r_mmod_Potential_Energy-OPLS-2005>
-229.664703369141

> <r_mmod_Stretch_Energy-OPLS-2005>
48.4233322143555

> <r_mmod_Bend_Energy-OPLS-2005>
115.47469329834

> <r_mmod_Torsional_Energy-OPLS-2005>
205.761657714844

> <r_mmod_Improper_Torsional_Energy-OPLS-2005>
3.26727962493896

> <r_mmod_Van_der_Waal_Energy-OPLS-2005>
116.989936828613

> <r_mmod_Electrostatic_Energy-OPLS-2005>
-508.628356933594

> <r_mmod_Solvation_Energy-OPLS-2005>
-230.907867431641

> <b_mmod_Minimization_Converged-OPLS-2005>
0

> <r_mmod_RMS_Derivative-OPLS-2005>
4.07384014129639

$$$$
33
                    3D
 Structure written by MMmdl.
160168  0  0  1  0            999 V2000
  -30.6997  -14.5288   20.4833 C   0  0  0  0  0  0
  -30.4188  -12.3148   19.4547 C   0  0  0  0  0  0
  -29.5001  -12.4613   18.2237 C   0  0  0  0  0  0
  -28.0233  -12.3154   18.6345 C   0  0  0  0  0  0
  -27.6511  -13.2111   19.8479 C   0  0  2  0  0  0
  -28.6919  -13.0769   20.9836 C   0  0  0  0  0  0
  -25.2572  -13.8188   20.5641 C   0  0  0  0  0  0
  -24.1828  -13.0462   20.9170 C   0  0  0  0  0  0
  -24.6383  -11.6933   20.8733 C   0  0  0  0  0  0
  -23.9056  -10.4314   21.0397 C   0  0  0  0  0  0
  -24.3645   -9.4234   21.9162 C   0  0  0  0  0  0
  -23.6339   -8.2257   22.0728 C   0  0  0  0  0  0
  -22.4310   -8.0289   21.3534 C   0  0  0  0  0  0
  -21.9925   -9.0258   20.4644 C   0  0  0  0  0  0
  -22.7226  -10.2150   20.3046 C   0  0  0  0  0  0
  -21.6867   -6.0750   22.5283 C   0  0  0  0  0  0
  -21.4024   -6.5654   23.8216 C   0  0  0  0  0  0
  -21.3654   -5.6805   24.9176 C   0  0  0  0  0  0
  -21.6043   -4.3066   24.7226 C   0  0  0  0  0  0
  -21.8827   -3.8154   23.4347 C   0  0  0  0  0  0
  -21.9207   -4.6976   22.3403 C   0  0  0  0  0  0
  -22.7851  -13.5250   21.1837 C   0  0  0  0  0  0
  -22.1667   -4.2163   21.0980 F   0  0  0  0  0  0
  -21.5619   -3.4542   25.7733 F   0  0  0  0  0  0
  -30.0227  -13.3482   20.4225 N   0  0  0  0  0  0
  -26.2976  -12.9357   20.3246 N   0  0  0  0  0  0
  -25.9309  -11.6520   20.5736 N   0  0  0  0  0  0
  -22.0523  -12.8253   22.0428 N   0  0  0  0  0  0
  -25.4318  -15.1901   20.4050 N   0  0  0  0  0  0
  -31.8923  -14.6175   20.1847 O   0  0  0  0  0  0
  -21.6666   -6.8892   21.4237 O   0  0  0  0  0  0
  -22.3514  -14.5526   20.6657 O   0  0  0  0  0  0
  -24.6149  -31.8697   23.2108 C   0  0  0  0  0  0
  -25.9037  -32.4844   23.8404 C   0  0  1  0  0  0
  -27.2283  -27.4160   20.0971 C   0  0  0  0  0  0
  -25.5890  -33.8646   24.2301 N   0  0  0  0  0  0
  -23.4055  -30.4942   21.5530 C   0  0  2  0  0  0
  -24.8517  -28.9718   20.1120 C   0  0  0  0  0  0
  -22.7417  -29.4634   22.4960 C   0  0  0  0  0  0
  -18.0250  -28.1382   22.8477 C   0  0  0  0  0  0
  -24.1503  -36.7315   23.2632 C   0  0  0  0  0  0
  -25.9425  -30.8289   21.3754 C   0  0  0  0  0  0
  -26.0174  -29.4674   20.7105 C   0  0  0  0  0  0
  -27.2090  -28.7006   20.6957 C   0  0  0  0  0  0
  -26.0414  -26.9559   19.4738 C   0  0  0  0  0  0
  -24.8613  -27.7151   19.4905 C   0  0  0  0  0  0
  -23.6158  -29.8390   20.1653 C   0  0  0  0  0  0
  -25.4128  -36.3117   24.0321 C   0  0  1  0  0  0
  -20.5848  -28.3642   23.1315 C   0  0  2  0  0  0
  -20.6743  -26.9375   22.5410 C   0  0  0  0  0  0
  -19.5730  -26.6378   21.5196 C   0  0  0  0  0  0
  -18.1902  -26.7928   22.1602 C   0  0  0  0  0  0
  -19.1505  -28.8828   23.2894 C   0  0  0  0  0  0
  -18.9439  -30.1437   23.8904 C   0  0  0  0  0  0
  -17.6439  -30.6583   24.0561 C   0  0  0  0  0  0
  -25.9056  -34.9485   23.5098 C   0  0  0  0  0  0
  -16.5326  -29.9086   23.6334 C   0  0  0  0  0  0
  -16.7239  -28.6512   23.0341 C   0  0  0  0  0  0
  -26.4432  -31.6644   25.0762 C   0  0  0  0  0  0
  -25.3673  -31.3811   26.1505 C   0  0  0  0  0  0
  -27.0213  -30.3046   24.6214 C   0  0  0  0  0  0
  -27.6016  -32.4371   25.7495 C   0  0  0  0  0  0
  -27.5601  -37.1802   24.8447 C   0  0  0  0  0  0
  -21.4130  -29.3009   22.3726 N   0  0  0  0  0  0
  -26.4312  -37.3802   23.9396 N   0  0  0  0  0  0
  -24.6719  -31.0791   22.1025 N   0  0  0  0  0  0
  -23.4197  -28.8144   23.2976 O   0  0  0  0  0  0
  -28.3757  -26.6362   20.1479 O   0  0  0  0  0  0
  -26.5631  -34.8930   22.4673 O   0  0  0  0  0  0
  -23.5328  -32.1447   23.7483 O   0  0  0  0  0  0
  -30.8195  -18.3069   18.2277 C   0  0  0  0  0  0
  -30.5091  -19.4506   18.9788 C   0  0  0  0  0  0
  -30.6195  -17.0370   18.7910 C   0  0  0  0  0  0
  -29.9903  -19.2988   20.2751 C   0  0  0  0  0  0
  -30.1524  -16.9340   20.1301 C   0  0  0  0  0  0
  -28.8591  -22.4058   18.7617 C   0  0  0  0  0  0
  -31.5016  -22.0004   20.6571 C   0  0  0  0  0  0
  -29.3221  -24.2886   20.4511 C   0  0  0  0  0  0
  -28.1843  -25.2177   19.9524 C   0  0  0  0  0  0
  -29.0174  -22.7611   20.2519 C   0  0  2  0  0  0
  -30.0109  -21.8030   20.9974 C   0  0  1  0  0  0
  -29.8171  -18.0662   20.8256 N   0  0  0  0  0  0
  -29.9456  -15.6314   20.7009 N   0  0  0  0  0  0
  -29.5805  -20.3867   21.0754 N   0  0  0  0  0  0
  -30.8450  -15.9443   18.0209 F   0  0  0  0  0  0
  -31.4662  -12.3993   19.1590 H   0  0  0  0  0  0
  -30.3055  -11.3252   19.9010 H   0  0  0  0  0  0
  -29.7567  -11.7023   17.4824 H   0  0  0  0  0  0
  -29.6586  -13.4281   17.7433 H   0  0  0  0  0  0
  -27.8601  -11.2673   18.8888 H   0  0  0  0  0  0
  -27.3659  -12.5214   17.7886 H   0  0  0  0  0  0
  -27.6692  -14.2388   19.4864 H   0  0  0  0  0  0
  -28.6661  -12.0714   21.4041 H   0  0  0  0  0  0
  -28.4547  -13.7523   21.8074 H   0  0  0  0  0  0
  -25.2806   -9.5737   22.4715 H   0  0  0  0  0  0
  -24.0078   -7.4658   22.7442 H   0  0  0  0  0  0
  -21.0842   -8.8769   19.8974 H   0  0  0  0  0  0
  -22.3659  -10.9692   19.6167 H   0  0  0  0  0  0
  -21.2009   -7.6165   23.9724 H   0  0  0  0  0  0
  -21.1459   -6.0526   25.9079 H   0  0  0  0  0  0
  -22.0607   -2.7616   23.2845 H   0  0  0  0  0  0
  -22.4175  -11.9979   22.4909 H   0  0  0  0  0  0
  -21.1112  -13.1212   22.2571 H   0  0  0  0  0  0
  -24.6743  -15.8533   20.5233 H   0  0  0  0  0  0
  -26.2865  -15.6300   20.0883 H   0  0  0  0  0  0
  -26.7119  -32.5533   23.1170 H   0  0  0  0  0  0
  -25.0004  -33.9831   25.0419 H   0  0  0  0  0  0
  -22.6915  -31.3092   21.4193 H   0  0  0  0  0  0
  -23.3783  -35.9633   23.3295 H   0  0  0  0  0  0
  -24.3601  -36.8945   22.2053 H   0  0  0  0  0  0
  -23.7250  -37.6505   23.6667 H   0  0  0  0  0  0
  -26.0824  -31.6031   20.6192 H   0  0  0  0  0  0
  -26.8201  -30.8613   22.0114 H   0  0  0  0  0  0
  -28.1081  -29.0819   21.1604 H   0  0  0  0  0  0
  -25.9927  -26.0035   18.9677 H   0  0  0  0  0  0
  -23.9715  -27.3234   19.0173 H   0  0  0  0  0  0
  -23.7281  -30.6233   19.4158 H   0  0  0  0  0  0
  -22.7394  -29.2636   19.8612 H   0  0  0  0  0  0
  -25.1316  -36.1970   25.0818 H   0  0  0  0  0  0
  -20.9936  -28.3213   24.1440 H   0  0  0  0  0  0
  -20.5618  -26.2237   23.3590 H   0  0  0  0  0  0
  -21.6615  -26.7398   22.1214 H   0  0  0  0  0  0
  -19.6876  -25.6289   21.1232 H   0  0  0  0  0  0
  -19.6706  -27.3185   20.6736 H   0  0  0  0  0  0
  -17.4161  -26.6643   21.4025 H   0  0  0  0  0  0
  -18.0313  -26.0085   22.9016 H   0  0  0  0  0  0
  -19.7921  -30.7242   24.2285 H   0  0  0  0  0  0
  -17.4999  -31.6275   24.5139 H   0  0  0  0  0  0
  -15.5328  -30.2980   23.7678 H   0  0  0  0  0  0
  -15.8636  -28.0847   22.7039 H   0  0  0  0  0  0
  -24.5861  -30.7126   25.7869 H   0  0  0  0  0  0
  -24.8840  -32.2983   26.4879 H   0  0  0  0  0  0
  -25.8007  -30.9058   27.0310 H   0  0  0  0  0  0
  -26.2765  -29.6889   24.1162 H   0  0  0  0  0  0
  -27.3763  -29.7241   25.4733 H   0  0  0  0  0  0
  -27.8718  -30.4280   23.9511 H   0  0  0  0  0  0
  -27.2621  -33.3617   26.2172 H   0  0  0  0  0  0
  -28.3747  -32.7040   25.0282 H   0  0  0  0  0  0
  -28.0786  -31.8467   26.5320 H   0  0  0  0  0  0
  -28.2605  -38.0112   24.7512 H   0  0  0  0  0  0
  -28.1102  -36.2641   24.6237 H   0  0  0  0  0  0
  -27.2324  -37.1418   25.8850 H   0  0  0  0  0  0
  -20.9248  -29.8790   21.7032 H   0  0  0  0  0  0
  -26.0199  -38.2874   24.1425 H   0  0  0  0  0  0
  -31.1939  -18.4002   17.2195 H   0  0  0  0  0  0
  -30.6462  -20.4111   18.5133 H   0  0  0  0  0  0
  -28.0956  -23.0016   18.2667 H   0  0  0  0  0  0
  -28.5437  -21.3708   18.6382 H   0  0  0  0  0  0
  -29.7859  -22.5576   18.2105 H   0  0  0  0  0  0
  -31.8372  -22.9937   20.9550 H   0  0  0  0  0  0
  -31.7200  -21.9085   19.5961 H   0  0  0  0  0  0
  -32.1269  -21.2869   21.1958 H   0  0  0  0  0  0
  -29.4689  -24.4873   21.5140 H   0  0  0  0  0  0
  -30.2548  -24.5581   19.9564 H   0  0  0  0  0  0
  -27.2783  -24.8977   20.4696 H   0  0  0  0  0  0
  -28.0228  -25.0616   18.8868 H   0  0  0  0  0  0
  -28.0438  -22.5921   20.7138 H   0  0  0  0  0  0
  -29.9425  -22.1121   22.0417 H   0  0  0  0  0  0
  -29.0478  -15.4810   21.1259 H   0  0  0  0  0  0
  -29.1282  -20.1339   21.9470 H   0  0  0  0  0  0
  1 25  1  0  0  0
  1 30  2  0  0  0
  1 83  1  0  0  0
  2  3  1  0  0  0
  2 25  1  0  0  0
  2 86  1  0  0  0
  2 87  1  0  0  0
  3  4  1  0  0  0
  3 88  1  0  0  0
  3 89  1  0  0  0
  4  5  1  0  0  0
  4 90  1  0  0  0
  4 91  1  0  0  0
  5  6  1  0  0  0
  5 26  1  0  0  0
  5 92  1  0  0  0
  6 25  1  0  0  0
  6 93  1  0  0  0
  6 94  1  0  0  0
  7  8  2  0  0  0
  7 26  1  0  0  0
  7 29  1  0  0  0
  8  9  1  0  0  0
  8 22  1  0  0  0
  9 10  1  0  0  0
  9 27  2  0  0  0
 10 11  2  0  0  0
 10 15  1  0  0  0
 11 12  1  0  0  0
 11 95  1  0  0  0
 12 13  2  0  0  0
 12 96  1  0  0  0
 13 14  1  0  0  0
 13 31  1  0  0  0
 14 15  2  0  0  0
 14 97  1  0  0  0
 15 98  1  0  0  0
 16 17  2  0  0  0
 16 21  1  0  0  0
 16 31  1  0  0  0
 17 18  1  0  0  0
 17 99  1  0  0  0
 18 19  2  0  0  0
 18100  1  0  0  0
 19 20  1  0  0  0
 19 24  1  0  0  0
 20 21  2  0  0  0
 20101  1  0  0  0
 21 23  1  0  0  0
 22 28  1  0  0  0
 22 32  2  0  0  0
 26 27  1  0  0  0
 28102  1  0  0  0
 28103  1  0  0  0
 29104  1  0  0  0
 29105  1  0  0  0
 33 34  1  0  0  0
 33 66  1  0  0  0
 33 70  2  0  0  0
 34 36  1  0  0  0
 34 59  1  0  0  0
 34106  1  0  0  0
 35 44  2  0  0  0
 35 45  1  0  0  0
 35 68  1  0  0  0
 36 56  1  0  0  0
 36107  1  0  0  0
 37 39  1  0  0  0
 37 47  1  0  0  0
 37 66  1  0  0  0
 37108  1  0  0  0
 38 43  2  0  0  0
 38 46  1  0  0  0
 38 47  1  0  0  0
 39 64  1  0  0  0
 39 67  2  0  0  0
 40 52  1  0  0  0
 40 53  2  0  0  0
 40 58  1  0  0  0
 41109  1  0  0  0
 41110  1  0  0  0
 41111  1  0  0  0
 41 48  1  0  0  0
 42 43  1  0  0  0
 42 66  1  0  0  0
 42112  1  0  0  0
 42113  1  0  0  0
 43 44  1  0  0  0
 44114  1  0  0  0
 45 46  2  0  0  0
 45115  1  0  0  0
 46116  1  0  0  0
 47117  1  0  0  0
 47118  1  0  0  0
 48 56  1  0  0  0
 48 65  1  0  0  0
 48119  1  0  0  0
 49 50  1  0  0  0
 49 53  1  0  0  0
 49 64  1  0  0  0
 49120  1  0  0  0
 50 51  1  0  0  0
 50121  1  0  0  0
 50122  1  0  0  0
 51 52  1  0  0  0
 51123  1  0  0  0
 51124  1  0  0  0
 52125  1  0  0  0
 52126  1  0  0  0
 53 54  1  0  0  0
 54 55  2  0  0  0
 54127  1  0  0  0
 55 57  1  0  0  0
 55128  1  0  0  0
 56 69  2  0  0  0
 57 58  2  0  0  0
 57129  1  0  0  0
 58130  1  0  0  0
 59 60  1  0  0  0
 59 61  1  0  0  0
 59 62  1  0  0  0
 60131  1  0  0  0
 60132  1  0  0  0
 60133  1  0  0  0
 61134  1  0  0  0
 61135  1  0  0  0
 61136  1  0  0  0
 62137  1  0  0  0
 62138  1  0  0  0
 62139  1  0  0  0
 63 65  1  0  0  0
 63140  1  0  0  0
 63141  1  0  0  0
 63142  1  0  0  0
 64143  1  0  0  0
 65144  1  0  0  0
 68 79  1  0  0  0
 71 72  2  0  0  0
 71 73  1  0  0  0
 71145  1  0  0  0
 72 74  1  0  0  0
 72146  1  0  0  0
 73 75  2  0  0  0
 73 85  1  0  0  0
 74 82  2  0  0  0
 74 84  1  0  0  0
 75 82  1  0  0  0
 75 83  1  0  0  0
 76147  1  0  0  0
 76148  1  0  0  0
 76149  1  0  0  0
 76 80  1  0  0  0
 77150  1  0  0  0
 77151  1  0  0  0
 77152  1  0  0  0
 77 81  1  0  0  0
 78 79  1  0  0  0
 78 80  1  0  0  0
 78153  1  0  0  0
 78154  1  0  0  0
 79155  1  0  0  0
 79156  1  0  0  0
 80 81  1  0  0  0
 80157  1  0  0  0
 81 84  1  0  0  0
 81158  1  0  0  0
 83159  1  0  0  0
 84160  1  0  0  0
M  ISO  4   1 100  68 101  79 101  83 100
M  END
> <chiral flag>
0

> <version>
0

> <s_m_source_file>
/data/baiqing/PycharmProjects/Reinvent-master-3.2/result/LINK_invent/BTK/process_docking_weight1_custom_product_contain_oxygen_bond_distance_aromatic_linkinvent_7_9_3/rearranged_h_0191.sdf

> <i_m_source_file_index>
33

> <r_mmod_Potential_Energy-OPLS-2005>
-192.480041503906

> <r_mmod_Stretch_Energy-OPLS-2005>
46.1007614135742

> <r_mmod_Bend_Energy-OPLS-2005>
130.699142456055

> <r_mmod_Torsional_Energy-OPLS-2005>
243.228271484375

> <r_mmod_Improper_Torsional_Energy-OPLS-2005>
5.70747756958008

> <r_mmod_Van_der_Waal_Energy-OPLS-2005>
166.937469482422

> <r_mmod_Electrostatic_Energy-OPLS-2005>
-592.003112792969

> <r_mmod_Solvation_Energy-OPLS-2005>
-220.541473388672

> <b_mmod_Minimization_Converged-OPLS-2005>
0

> <r_mmod_RMS_Derivative-OPLS-2005>
3.07762742042542

$$$$
35
                    3D
 Structure written by MMmdl.
158166  0  0  1  0            999 V2000
  -30.6822  -14.5229   20.5549 C   0  0  0  0  0  0
  -30.4285  -12.3333   19.4280 C   0  0  0  0  0  0
  -29.4992  -12.5159   18.2098 C   0  0  0  0  0  0
  -28.0190  -12.3745   18.6206 C   0  0  0  0  0  0
  -27.6626  -13.2160   19.8758 C   0  0  2  0  0  0
  -28.7084  -13.0014   20.9926 C   0  0  0  0  0  0
  -25.2591  -13.8185   20.5700 C   0  0  0  0  0  0
  -24.1853  -13.0431   20.9170 C   0  0  0  0  0  0
  -24.6422  -11.6906   20.8718 C   0  0  0  0  0  0
  -23.9085  -10.4283   21.0377 C   0  0  0  0  0  0
  -24.3632   -9.4199   21.9158 C   0  0  0  0  0  0
  -23.6301   -8.2233   22.0743 C   0  0  0  0  0  0
  -22.4279   -8.0276   21.3533 C   0  0  0  0  0  0
  -21.9916   -9.0249   20.4629 C   0  0  0  0  0  0
  -22.7253  -10.2122   20.3032 C   0  0  0  0  0  0
  -21.6857   -6.0729   22.5270 C   0  0  0  0  0  0
  -21.4014   -6.5636   23.8200 C   0  0  0  0  0  0
  -21.3659   -5.6788   24.9165 C   0  0  0  0  0  0
  -21.6045   -4.3050   24.7214 C   0  0  0  0  0  0
  -21.8819   -3.8141   23.4337 C   0  0  0  0  0  0
  -21.9194   -4.6955   22.3396 C   0  0  0  0  0  0
  -22.7865  -13.5199   21.1841 C   0  0  0  0  0  0
  -22.1666   -4.2143   21.0972 F   0  0  0  0  0  0
  -21.5624   -3.4534   25.7730 F   0  0  0  0  0  0
  -30.0305  -13.3274   20.4394 N   0  0  0  0  0  0
  -26.3044  -12.9376   20.3390 N   0  0  0  0  0  0
  -25.9359  -11.6524   20.5756 N   0  0  0  0  0  0
  -22.0525  -12.8171   22.0401 N   0  0  0  0  0  0
  -25.4266  -15.1906   20.4142 N   0  0  0  0  0  0
  -31.8199  -14.6679   20.0949 O   0  0  0  0  0  0
  -21.6641   -6.8880   21.4237 O   0  0  0  0  0  0
  -22.3531  -14.5497   20.6692 O   0  0  0  0  0  0
  -24.6160  -31.8667   23.2079 C   0  0  0  0  0  0
  -25.9046  -32.4809   23.8379 C   0  0  1  0  0  0
  -27.2302  -27.4076   20.1105 C   0  0  0  0  0  0
  -25.5909  -33.8613   24.2314 N   0  0  0  0  0  0
  -23.4069  -30.4890   21.5480 C   0  0  2  0  0  0
  -24.8571  -28.9574   20.1090 C   0  0  0  0  0  0
  -22.7427  -29.4641   22.4961 C   0  0  0  0  0  0
  -18.0273  -28.1379   22.8480 C   0  0  0  0  0  0
  -24.1493  -36.7307   23.2638 C   0  0  0  0  0  0
  -25.9388  -30.8251   21.3679 C   0  0  0  0  0  0
  -26.0192  -29.4602   20.7097 C   0  0  0  0  0  0
  -27.2130  -28.6948   20.7045 C   0  0  0  0  0  0
  -26.0557  -26.9361   19.4856 C   0  0  0  0  0  0
  -24.8720  -27.6966   19.4900 C   0  0  0  0  0  0
  -23.6183  -29.8242   20.1616 C   0  0  0  0  0  0
  -25.4113  -36.3113   24.0333 C   0  0  1  0  0  0
  -20.5863  -28.3680   23.1299 C   0  0  2  0  0  0
  -20.6764  -26.9411   22.5415 C   0  0  0  0  0  0
  -19.5749  -26.6392   21.5197 C   0  0  0  0  0  0
  -18.1928  -26.7925   22.1605 C   0  0  0  0  0  0
  -19.1524  -28.8841   23.2884 C   0  0  0  0  0  0
  -18.9452  -30.1443   23.8905 C   0  0  0  0  0  0
  -17.6459  -30.6589   24.0561 C   0  0  0  0  0  0
  -25.9040  -34.9472   23.5121 C   0  0  0  0  0  0
  -16.5350  -29.9093   23.6330 C   0  0  0  0  0  0
  -16.7262  -28.6507   23.0352 C   0  0  0  0  0  0
  -26.4472  -31.6596   25.0713 C   0  0  0  0  0  0
  -25.3735  -31.3704   26.1458 C   0  0  0  0  0  0
  -27.0299  -30.3029   24.6113 C   0  0  0  0  0  0
  -27.6039  -32.4324   25.7475 C   0  0  0  0  0  0
  -27.5591  -37.1810   24.8466 C   0  0  0  0  0  0
  -21.4152  -29.3038   22.3699 N   0  0  0  0  0  0
  -26.4300  -37.3798   23.9407 N   0  0  0  0  0  0
  -24.6713  -31.0743   22.0996 N   0  0  0  0  0  0
  -23.4190  -28.8186   23.3013 O   0  0  0  0  0  0
  -28.3511  -26.5957   20.1486 O   0  0  0  0  0  0
  -26.5604  -34.8928   22.4685 O   0  0  0  0  0  0
  -23.5341  -32.1426   23.7457 O   0  0  0  0  0  0
  -29.9819  -17.0398   18.8561 C   0  0  0  0  0  0
  -29.9379  -17.0176   20.2329 C   0  0  0  0  0  0
  -29.6812  -19.2816   19.8210 C   0  0  0  0  0  0
  -27.0553  -22.2928   20.3527 C   0  0  0  0  0  0
  -30.7372  -21.9265   21.7381 C   0  0  0  0  0  0
  -29.9850  -15.7889   21.1536 C   0  0  0  0  0  0
  -28.9016  -24.0828   20.3351 C   0  0  0  0  0  0
  -28.1411  -25.3465   20.8575 C   0  0  0  0  0  0
  -28.3820  -22.7515   20.9921 C   0  0  2  0  0  0
  -29.3617  -21.5350   21.1817 C   0  0  1  0  0  0
  -29.7628  -18.3237   20.7631 N   0  0  0  0  0  0
  -29.4930  -20.6555   20.0209 N   0  0  0  0  0  0
  -29.8244  -18.6462   18.1928 S   0  0  0  0  0  0
  -31.4717  -12.4324   19.1255 H   0  0  0  0  0  0
  -30.3322  -11.3252   19.8340 H   0  0  0  0  0  0
  -29.7428  -11.7852   17.4384 H   0  0  0  0  0  0
  -29.6649  -13.4992   17.7659 H   0  0  0  0  0  0
  -27.8311  -11.3183   18.8193 H   0  0  0  0  0  0
  -27.3697  -12.6473   17.7886 H   0  0  0  0  0  0
  -27.7016  -14.2644   19.5777 H   0  0  0  0  0  0
  -28.6955  -11.9610   21.3203 H   0  0  0  0  0  0
  -28.4712  -13.5742   21.8881 H   0  0  0  0  0  0
  -25.2780   -9.5671   22.4731 H   0  0  0  0  0  0
  -24.0004   -7.4627   22.7466 H   0  0  0  0  0  0
  -21.0845   -8.8775   19.8939 H   0  0  0  0  0  0
  -22.3710  -10.9667   19.6143 H   0  0  0  0  0  0
  -21.2008   -7.6145   23.9701 H   0  0  0  0  0  0
  -21.1488   -6.0523   25.9073 H   0  0  0  0  0  0
  -22.0600   -2.7600   23.2842 H   0  0  0  0  0  0
  -22.4189  -11.9859   22.4807 H   0  0  0  0  0  0
  -21.1123  -13.1148   22.2586 H   0  0  0  0  0  0
  -24.6569  -15.8423   20.5245 H   0  0  0  0  0  0
  -26.2798  -15.6381   20.1033 H   0  0  0  0  0  0
  -26.7115  -32.5523   23.1137 H   0  0  0  0  0  0
  -25.0063  -33.9770   25.0465 H   0  0  0  0  0  0
  -22.6964  -31.3061   21.4066 H   0  0  0  0  0  0
  -23.3770  -35.9630   23.3294 H   0  0  0  0  0  0
  -24.3587  -36.8930   22.2057 H   0  0  0  0  0  0
  -23.7228  -37.6498   23.6656 H   0  0  0  0  0  0
  -26.0590  -31.5959   20.6047 H   0  0  0  0  0  0
  -26.8210  -30.8720   21.9944 H   0  0  0  0  0  0
  -28.1057  -29.0729   21.1842 H   0  0  0  0  0  0
  -26.0503  -25.9657   19.0087 H   0  0  0  0  0  0
  -23.9810  -27.3060   19.0179 H   0  0  0  0  0  0
  -23.7245  -30.6005   19.4027 H   0  0  0  0  0  0
  -22.7436  -29.2431   19.8643 H   0  0  0  0  0  0
  -25.1286  -36.1978   25.0824 H   0  0  0  0  0  0
  -20.9934  -28.3255   24.1425 H   0  0  0  0  0  0
  -20.5656  -26.2290   23.3606 H   0  0  0  0  0  0
  -21.6636  -26.7455   22.1220 H   0  0  0  0  0  0
  -19.6928  -25.6304   21.1231 H   0  0  0  0  0  0
  -19.6697  -27.3195   20.6720 H   0  0  0  0  0  0
  -17.4195  -26.6670   21.4006 H   0  0  0  0  0  0
  -18.0332  -26.0055   22.8991 H   0  0  0  0  0  0
  -19.7930  -30.7239   24.2300 H   0  0  0  0  0  0
  -17.5023  -31.6270   24.5172 H   0  0  0  0  0  0
  -15.5353  -30.3009   23.7644 H   0  0  0  0  0  0
  -15.8658  -28.0833   22.7074 H   0  0  0  0  0  0
  -24.5918  -30.7040   25.7797 H   0  0  0  0  0  0
  -24.8916  -32.2859   26.4900 H   0  0  0  0  0  0
  -25.8087  -30.8886   27.0222 H   0  0  0  0  0  0
  -26.2843  -29.6794   24.1168 H   0  0  0  0  0  0
  -27.4043  -29.7262   25.4581 H   0  0  0  0  0  0
  -27.8696  -30.4318   23.9279 H   0  0  0  0  0  0
  -27.2652  -33.3619   26.2062 H   0  0  0  0  0  0
  -28.3843  -32.6898   25.0300 H   0  0  0  0  0  0
  -28.0720  -31.8450   26.5384 H   0  0  0  0  0  0
  -28.2611  -38.0113   24.7530 H   0  0  0  0  0  0
  -28.1086  -36.2640   24.6269 H   0  0  0  0  0  0
  -27.2310  -37.1441   25.8873 H   0  0  0  0  0  0
  -20.9320  -29.8775   21.6923 H   0  0  0  0  0  0
  -26.0193  -38.2877   24.1416 H   0  0  0  0  0  0
  -30.0965  -16.2032   18.1796 H   0  0  0  0  0  0
  -26.3021  -23.0798   20.3627 H   0  0  0  0  0  0
  -26.6335  -21.4427   20.8903 H   0  0  0  0  0  0
  -27.1923  -21.9899   19.3146 H   0  0  0  0  0  0
  -30.6384  -22.5975   22.5922 H   0  0  0  0  0  0
  -31.3532  -22.4271   20.9910 H   0  0  0  0  0  0
  -31.2837  -21.0469   22.0811 H   0  0  0  0  0  0
  -28.9684  -15.5717   21.4682 H   0  0  0  0  0  0
  -30.5201  -16.0354   22.0704 H   0  0  0  0  0  0
  -29.9613  -24.2270   20.5402 H   0  0  0  0  0  0
  -28.8146  -24.0140   19.2502 H   0  0  0  0  0  0
  -28.4310  -25.5172   21.8946 H   0  0  0  0  0  0
  -27.0816  -25.1004   20.9197 H   0  0  0  0  0  0
  -28.1369  -23.0335   22.0181 H   0  0  0  0  0  0
  -28.9002  -20.9050   21.9442 H   0  0  0  0  0  0
  -29.4057  -21.1567   19.1436 H   0  0  0  0  0  0
  1 25  1  0  0  0
  1 30  2  0  0  0
  1 76  1  0  0  0
  2  3  1  0  0  0
  2 25  1  0  0  0
  2 84  1  0  0  0
  2 85  1  0  0  0
  3  4  1  0  0  0
  3 86  1  0  0  0
  3 87  1  0  0  0
  4  5  1  0  0  0
  4 88  1  0  0  0
  4 89  1  0  0  0
  5  6  1  0  0  0
  5 26  1  0  0  0
  5 90  1  0  0  0
  6 25  1  0  0  0
  6 91  1  0  0  0
  6 92  1  0  0  0
  7  8  2  0  0  0
  7 26  1  0  0  0
  7 29  1  0  0  0
  8  9  1  0  0  0
  8 22  1  0  0  0
  9 10  1  0  0  0
  9 27  2  0  0  0
 10 11  2  0  0  0
 10 15  1  0  0  0
 11 12  1  0  0  0
 11 93  1  0  0  0
 12 13  2  0  0  0
 12 94  1  0  0  0
 13 14  1  0  0  0
 13 31  1  0  0  0
 14 15  2  0  0  0
 14 95  1  0  0  0
 15 96  1  0  0  0
 16 17  2  0  0  0
 16 21  1  0  0  0
 16 31  1  0  0  0
 17 18  1  0  0  0
 17 97  1  0  0  0
 18 19  2  0  0  0
 18 98  1  0  0  0
 19 20  1  0  0  0
 19 24  1  0  0  0
 20 21  2  0  0  0
 20 99  1  0  0  0
 21 23  1  0  0  0
 22 28  1  0  0  0
 22 32  2  0  0  0
 26 27  1  0  0  0
 28100  1  0  0  0
 28101  1  0  0  0
 29102  1  0  0  0
 29103  1  0  0  0
 33 34  1  0  0  0
 33 66  1  0  0  0
 33 70  2  0  0  0
 34 36  1  0  0  0
 34 59  1  0  0  0
 34104  1  0  0  0
 35 44  2  0  0  0
 35 45  1  0  0  0
 35 68  1  0  0  0
 36 56  1  0  0  0
 36105  1  0  0  0
 37 39  1  0  0  0
 37 47  1  0  0  0
 37 66  1  0  0  0
 37106  1  0  0  0
 38 43  2  0  0  0
 38 46  1  0  0  0
 38 47  1  0  0  0
 39 64  1  0  0  0
 39 67  2  0  0  0
 40 52  1  0  0  0
 40 53  2  0  0  0
 40 58  1  0  0  0
 41107  1  0  0  0
 41108  1  0  0  0
 41109  1  0  0  0
 41 48  1  0  0  0
 42 43  1  0  0  0
 42 66  1  0  0  0
 42110  1  0  0  0
 42111  1  0  0  0
 43 44  1  0  0  0
 44112  1  0  0  0
 45 46  2  0  0  0
 45113  1  0  0  0
 46114  1  0  0  0
 47115  1  0  0  0
 47116  1  0  0  0
 48 56  1  0  0  0
 48 65  1  0  0  0
 48117  1  0  0  0
 49 50  1  0  0  0
 49 53  1  0  0  0
 49 64  1  0  0  0
 49118  1  0  0  0
 50 51  1  0  0  0
 50119  1  0  0  0
 50120  1  0  0  0
 51 52  1  0  0  0
 51121  1  0  0  0
 51122  1  0  0  0
 52123  1  0  0  0
 52124  1  0  0  0
 53 54  1  0  0  0
 54 55  2  0  0  0
 54125  1  0  0  0
 55 57  1  0  0  0
 55126  1  0  0  0
 56 69  2  0  0  0
 57 58  2  0  0  0
 57127  1  0  0  0
 58128  1  0  0  0
 59 60  1  0  0  0
 59 61  1  0  0  0
 59 62  1  0  0  0
 60129  1  0  0  0
 60130  1  0  0  0
 60131  1  0  0  0
 61132  1  0  0  0
 61133  1  0  0  0
 61134  1  0  0  0
 62135  1  0  0  0
 62136  1  0  0  0
 62137  1  0  0  0
 63 65  1  0  0  0
 63138  1  0  0  0
 63139  1  0  0  0
 63140  1  0  0  0
 64141  1  0  0  0
 65142  1  0  0  0
 68 78  1  0  0  0
 71 72  2  0  0  0
 71 83  1  0  0  0
 71143  1  0  0  0
 72 76  1  0  0  0
 72 81  1  0  0  0
 73 81  2  0  0  0
 73 82  1  0  0  0
 73 83  1  0  0  0
 74144  1  0  0  0
 74145  1  0  0  0
 74146  1  0  0  0
 74 79  1  0  0  0
 75147  1  0  0  0
 75148  1  0  0  0
 75149  1  0  0  0
 75 80  1  0  0  0
 76150  1  0  0  0
 76151  1  0  0  0
 77 78  1  0  0  0
 77 79  1  0  0  0
 77152  1  0  0  0
 77153  1  0  0  0
 78154  1  0  0  0
 78155  1  0  0  0
 79 80  1  0  0  0
 79156  1  0  0  0
 80 82  1  0  0  0
 80157  1  0  0  0
 82158  1  0  0  0
M  ISO  4   1 100  68 101  76 100  78 101
M  END
> <chiral flag>
0

> <version>
0

> <s_m_source_file>
/data/baiqing/PycharmProjects/Reinvent-master-3.2/result/LINK_invent/BTK/process_docking_weight1_custom_product_contain_oxygen_bond_distance_aromatic_linkinvent_7_9_3/rearranged_h_0191.sdf

> <i_m_source_file_index>
34

> <r_mmod_Potential_Energy-OPLS-2005>
-65.1426544189453

> <r_mmod_Stretch_Energy-OPLS-2005>
46.8190116882324

> <r_mmod_Bend_Energy-OPLS-2005>
113.135543823242

> <r_mmod_Torsional_Energy-OPLS-2005>
209.999771118164

> <r_mmod_Improper_Torsional_Energy-OPLS-2005>
2.72906017303467

> <r_mmod_Van_der_Waal_Energy-OPLS-2005>
123.788452148438

> <r_mmod_Electrostatic_Energy-OPLS-2005>
-377.550445556641

> <r_mmod_Solvation_Energy-OPLS-2005>
-203.892807006836

> <b_mmod_Minimization_Converged-OPLS-2005>
0

> <r_mmod_RMS_Derivative-OPLS-2005>
1.60189688205719

$$$$
36
                    3D
 Structure written by MMmdl.
158166  0  0  1  0            999 V2000
  -30.6792  -14.5411   20.5450 C   0  0  0  0  0  0
  -30.4293  -12.3392   19.4479 C   0  0  0  0  0  0
  -29.5034  -12.5064   18.2230 C   0  0  0  0  0  0
  -28.0228  -12.3611   18.6292 C   0  0  0  0  0  0
  -27.6584  -13.2135   19.8739 C   0  0  2  0  0  0
  -28.7017  -13.0292   21.0009 C   0  0  0  0  0  0
  -25.2578  -13.8157   20.5709 C   0  0  0  0  0  0
  -24.1839  -13.0437   20.9197 C   0  0  0  0  0  0
  -24.6394  -11.6894   20.8744 C   0  0  0  0  0  0
  -23.9062  -10.4291   21.0421 C   0  0  0  0  0  0
  -24.3629   -9.4204   21.9202 C   0  0  0  0  0  0
  -23.6311   -8.2233   22.0757 C   0  0  0  0  0  0
  -22.4290   -8.0284   21.3542 C   0  0  0  0  0  0
  -21.9934   -9.0251   20.4634 C   0  0  0  0  0  0
  -22.7248  -10.2135   20.3056 C   0  0  0  0  0  0
  -21.6852   -6.0753   22.5295 C   0  0  0  0  0  0
  -21.4015   -6.5654   23.8230 C   0  0  0  0  0  0
  -21.3656   -5.6801   24.9187 C   0  0  0  0  0  0
  -21.6046   -4.3062   24.7235 C   0  0  0  0  0  0
  -21.8817   -3.8160   23.4352 C   0  0  0  0  0  0
  -21.9191   -4.6983   22.3413 C   0  0  0  0  0  0
  -22.7860  -13.5229   21.1851 C   0  0  0  0  0  0
  -22.1662   -4.2168   21.0987 F   0  0  0  0  0  0
  -21.5628   -3.4538   25.7744 F   0  0  0  0  0  0
  -30.0279  -13.3437   20.4502 N   0  0  0  0  0  0
  -26.3017  -12.9340   20.3378 N   0  0  0  0  0  0
  -25.9333  -11.6492   20.5790 N   0  0  0  0  0  0
  -22.0504  -12.8212   22.0398 N   0  0  0  0  0  0
  -25.4298  -15.1896   20.4145 N   0  0  0  0  0  0
  -31.8030  -14.7000   20.0602 O   0  0  0  0  0  0
  -21.6637   -6.8893   21.4249 O   0  0  0  0  0  0
  -22.3547  -14.5555   20.6715 O   0  0  0  0  0  0
  -24.6154  -31.8664   23.2066 C   0  0  0  0  0  0
  -25.9029  -32.4821   23.8382 C   0  0  1  0  0  0
  -27.2341  -27.4051   20.1093 C   0  0  0  0  0  0
  -25.5882  -33.8624   24.2309 N   0  0  0  0  0  0
  -23.4072  -30.4872   21.5481 C   0  0  2  0  0  0
  -24.8577  -28.9520   20.1113 C   0  0  0  0  0  0
  -22.7422  -29.4652   22.4978 C   0  0  0  0  0  0
  -18.0270  -28.1365   22.8487 C   0  0  0  0  0  0
  -24.1490  -36.7318   23.2647 C   0  0  0  0  0  0
  -25.9388  -30.8242   21.3646 C   0  0  0  0  0  0
  -26.0202  -29.4578   20.7091 C   0  0  0  0  0  0
  -27.2159  -28.6950   20.7000 C   0  0  0  0  0  0
  -26.0593  -26.9284   19.4910 C   0  0  0  0  0  0
  -24.8750  -27.6893   19.4946 C   0  0  0  0  0  0
  -23.6179  -29.8184   20.1633 C   0  0  0  0  0  0
  -25.4116  -36.3122   24.0341 C   0  0  1  0  0  0
  -20.5862  -28.3658   23.1308 C   0  0  2  0  0  0
  -20.6754  -26.9393   22.5416 C   0  0  0  0  0  0
  -19.5738  -26.6377   21.5204 C   0  0  0  0  0  0
  -18.1918  -26.7914   22.1616 C   0  0  0  0  0  0
  -19.1519  -28.8828   23.2895 C   0  0  0  0  0  0
  -18.9454  -30.1430   23.8911 C   0  0  0  0  0  0
  -17.6459  -30.6584   24.0555 C   0  0  0  0  0  0
  -25.9041  -34.9486   23.5134 C   0  0  0  0  0  0
  -16.5347  -29.9088   23.6316 C   0  0  0  0  0  0
  -16.7260  -28.6498   23.0349 C   0  0  0  0  0  0
  -26.4448  -31.6608   25.0723 C   0  0  0  0  0  0
  -25.3706  -31.3719   26.1464 C   0  0  0  0  0  0
  -27.0272  -30.3050   24.6111 C   0  0  0  0  0  0
  -27.6025  -32.4326   25.7479 C   0  0  0  0  0  0
  -27.5586  -37.1810   24.8459 C   0  0  0  0  0  0
  -21.4150  -29.3030   22.3720 N   0  0  0  0  0  0
  -26.4298  -37.3807   23.9410 N   0  0  0  0  0  0
  -24.6720  -31.0730   22.0981 N   0  0  0  0  0  0
  -23.4184  -28.8205   23.3040 O   0  0  0  0  0  0
  -28.3606  -26.6001   20.1314 O   0  0  0  0  0  0
  -26.5616  -34.8936   22.4704 O   0  0  0  0  0  0
  -23.5342  -32.1432   23.7440 O   0  0  0  0  0  0
  -28.2182  -19.0897   21.6729 C   0  0  0  0  0  0
  -29.4435  -19.3466   21.1078 C   0  0  0  0  0  0
  -28.5273  -21.4782   21.1162 C   0  0  0  0  0  0
  -30.3798  -24.1359   20.3270 C   0  0  0  0  0  0
  -29.4388  -17.1387   19.0890 C   0  0  0  0  0  0
  -30.5904  -18.3338   20.9681 C   0  0  0  0  0  0
  -30.0154  -15.8181   21.1405 C   0  0  0  0  0  0
  -28.2053  -25.3743   20.8970 C   0  0  0  0  0  0
  -28.8473  -24.0662   20.3086 C   0  0  2  0  0  0
  -29.5868  -20.7236   20.7613 N   0  0  0  0  0  0
  -28.3472  -22.8698   21.0164 N   0  0  0  0  0  0
  -30.3086  -17.0217   20.2845 N   0  3  1  0  0  0
  -27.2371  -20.5227   21.8349 S   0  0  0  0  0  0
  -31.4740  -12.4344   19.1473 H   0  0  0  0  0  0
  -30.3334  -11.3354   19.8644 H   0  0  0  0  0  0
  -29.7574  -11.7739   17.4556 H   0  0  0  0  0  0
  -29.6649  -13.4861   17.7725 H   0  0  0  0  0  0
  -27.8416  -11.3061   18.8378 H   0  0  0  0  0  0
  -27.3770  -12.6176   17.7889 H   0  0  0  0  0  0
  -27.6895  -14.2563   19.5579 H   0  0  0  0  0  0
  -28.6907  -11.9986   21.3615 H   0  0  0  0  0  0
  -28.4558  -13.6392   21.8703 H   0  0  0  0  0  0
  -25.2788   -9.5684   22.4762 H   0  0  0  0  0  0
  -24.0039   -7.4623   22.7471 H   0  0  0  0  0  0
  -21.0869   -8.8771   19.8936 H   0  0  0  0  0  0
  -22.3727  -10.9679   19.6170 H   0  0  0  0  0  0
  -21.2002   -7.6165   23.9740 H   0  0  0  0  0  0
  -21.1487   -6.0530   25.9093 H   0  0  0  0  0  0
  -22.0595   -2.7625   23.2845 H   0  0  0  0  0  0
  -22.4112  -11.9881   22.4803 H   0  0  0  0  0  0
  -21.1112  -13.1214   22.2582 H   0  0  0  0  0  0
  -24.6575  -15.8392   20.5211 H   0  0  0  0  0  0
  -26.2725  -15.6315   20.0746 H   0  0  0  0  0  0
  -26.7106  -32.5534   23.1148 H   0  0  0  0  0  0
  -24.9964  -33.9780   25.0409 H   0  0  0  0  0  0
  -22.6983  -31.3055   21.4069 H   0  0  0  0  0  0
  -23.3758  -35.9640   23.3310 H   0  0  0  0  0  0
  -24.3576  -36.8935   22.2058 H   0  0  0  0  0  0
  -23.7218  -37.6520   23.6654 H   0  0  0  0  0  0
  -26.0543  -31.5930   20.5986 H   0  0  0  0  0  0
  -26.8245  -30.8767   21.9868 H   0  0  0  0  0  0
  -28.1120  -29.0799   21.1664 H   0  0  0  0  0  0
  -26.0580  -25.9544   19.0188 H   0  0  0  0  0  0
  -23.9833  -27.2955   19.0262 H   0  0  0  0  0  0
  -23.7212  -30.5920   19.4011 H   0  0  0  0  0  0
  -22.7432  -29.2341   19.8711 H   0  0  0  0  0  0
  -25.1290  -36.1999   25.0831 H   0  0  0  0  0  0
  -20.9941  -28.3215   24.1434 H   0  0  0  0  0  0
  -20.5626  -26.2274   23.3605 H   0  0  0  0  0  0
  -21.6628  -26.7423   22.1232 H   0  0  0  0  0  0
  -19.6906  -25.6292   21.1225 H   0  0  0  0  0  0
  -19.6676  -27.3189   20.6734 H   0  0  0  0  0  0
  -17.4185  -26.6647   21.4020 H   0  0  0  0  0  0
  -18.0332  -26.0048   22.9008 H   0  0  0  0  0  0
  -19.7937  -30.7221   24.2308 H   0  0  0  0  0  0
  -17.5028  -31.6269   24.5146 H   0  0  0  0  0  0
  -15.5349  -30.3005   23.7631 H   0  0  0  0  0  0
  -15.8650  -28.0822   22.7064 H   0  0  0  0  0  0
  -24.5852  -30.7108   25.7781 H   0  0  0  0  0  0
  -24.8921  -32.2877   26.4946 H   0  0  0  0  0  0
  -25.8040  -30.8842   27.0202 H   0  0  0  0  0  0
  -26.2821  -29.6824   24.1144 H   0  0  0  0  0  0
  -27.4012  -29.7277   25.4575 H   0  0  0  0  0  0
  -27.8671  -30.4369   23.9285 H   0  0  0  0  0  0
  -27.2646  -33.3609   26.2094 H   0  0  0  0  0  0
  -28.3800  -32.6915   25.0281 H   0  0  0  0  0  0
  -28.0725  -31.8425   26.5353 H   0  0  0  0  0  0
  -28.2609  -38.0111   24.7533 H   0  0  0  0  0  0
  -28.1082  -36.2639   24.6257 H   0  0  0  0  0  0
  -27.2303  -37.1433   25.8865 H   0  0  0  0  0  0
  -20.9311  -29.8769   21.6953 H   0  0  0  0  0  0
  -26.0198  -38.2891   24.1414 H   0  0  0  0  0  0
  -27.8410  -18.1460   22.0458 H   0  0  0  0  0  0
  -30.7331  -25.0075   19.7738 H   0  0  0  0  0  0
  -30.8252  -23.2567   19.8593 H   0  0  0  0  0  0
  -30.7689  -24.2086   21.3437 H   0  0  0  0  0  0
  -29.7657  -17.9568   18.4462 H   0  0  0  0  0  0
  -28.4000  -17.3209   19.3633 H   0  0  0  0  0  0
  -29.4719  -16.2252   18.4923 H   0  0  0  0  0  0
  -31.0343  -18.1470   21.9467 H   0  0  0  0  0  0
  -31.3913  -18.7977   20.3940 H   0  0  0  0  0  0
  -28.9393  -15.7173   21.2703 H   0  0  0  0  0  0
  -30.4397  -15.9540   22.1354 H   0  0  0  0  0  0
  -28.6259  -25.5688   21.8838 H   0  0  0  0  0  0
  -27.1487  -25.1740   21.0867 H   0  0  0  0  0  0
  -28.5193  -23.9764   19.2731 H   0  0  0  0  0  0
  -27.5077  -23.1144   21.5304 H   0  0  0  0  0  0
  -31.2149  -16.7658   19.9127 H   0  0  0  0  0  0
  1 25  1  0  0  0
  1 30  2  0  0  0
  1 77  1  0  0  0
  2  3  1  0  0  0
  2 25  1  0  0  0
  2 84  1  0  0  0
  2 85  1  0  0  0
  3  4  1  0  0  0
  3 86  1  0  0  0
  3 87  1  0  0  0
  4  5  1  0  0  0
  4 88  1  0  0  0
  4 89  1  0  0  0
  5  6  1  0  0  0
  5 26  1  0  0  0
  5 90  1  0  0  0
  6 25  1  0  0  0
  6 91  1  0  0  0
  6 92  1  0  0  0
  7  8  2  0  0  0
  7 26  1  0  0  0
  7 29  1  0  0  0
  8  9  1  0  0  0
  8 22  1  0  0  0
  9 10  1  0  0  0
  9 27  2  0  0  0
 10 11  2  0  0  0
 10 15  1  0  0  0
 11 12  1  0  0  0
 11 93  1  0  0  0
 12 13  2  0  0  0
 12 94  1  0  0  0
 13 14  1  0  0  0
 13 31  1  0  0  0
 14 15  2  0  0  0
 14 95  1  0  0  0
 15 96  1  0  0  0
 16 17  2  0  0  0
 16 21  1  0  0  0
 16 31  1  0  0  0
 17 18  1  0  0  0
 17 97  1  0  0  0
 18 19  2  0  0  0
 18 98  1  0  0  0
 19 20  1  0  0  0
 19 24  1  0  0  0
 20 21  2  0  0  0
 20 99  1  0  0  0
 21 23  1  0  0  0
 22 28  1  0  0  0
 22 32  2  0  0  0
 26 27  1  0  0  0
 28100  1  0  0  0
 28101  1  0  0  0
 29102  1  0  0  0
 29103  1  0  0  0
 33 34  1  0  0  0
 33 66  1  0  0  0
 33 70  2  0  0  0
 34 36  1  0  0  0
 34 59  1  0  0  0
 34104  1  0  0  0
 35 44  2  0  0  0
 35 45  1  0  0  0
 35 68  1  0  0  0
 36 56  1  0  0  0
 36105  1  0  0  0
 37 39  1  0  0  0
 37 47  1  0  0  0
 37 66  1  0  0  0
 37106  1  0  0  0
 38 43  2  0  0  0
 38 46  1  0  0  0
 38 47  1  0  0  0
 39 64  1  0  0  0
 39 67  2  0  0  0
 40 52  1  0  0  0
 40 53  2  0  0  0
 40 58  1  0  0  0
 41107  1  0  0  0
 41108  1  0  0  0
 41109  1  0  0  0
 41 48  1  0  0  0
 42 43  1  0  0  0
 42 66  1  0  0  0
 42110  1  0  0  0
 42111  1  0  0  0
 43 44  1  0  0  0
 44112  1  0  0  0
 45 46  2  0  0  0
 45113  1  0  0  0
 46114  1  0  0  0
 47115  1  0  0  0
 47116  1  0  0  0
 48 56  1  0  0  0
 48 65  1  0  0  0
 48117  1  0  0  0
 49 50  1  0  0  0
 49 53  1  0  0  0
 49 64  1  0  0  0
 49118  1  0  0  0
 50 51  1  0  0  0
 50119  1  0  0  0
 50120  1  0  0  0
 51 52  1  0  0  0
 51121  1  0  0  0
 51122  1  0  0  0
 52123  1  0  0  0
 52124  1  0  0  0
 53 54  1  0  0  0
 54 55  2  0  0  0
 54125  1  0  0  0
 55 57  1  0  0  0
 55126  1  0  0  0
 56 69  2  0  0  0
 57 58  2  0  0  0
 57127  1  0  0  0
 58128  1  0  0  0
 59 60  1  0  0  0
 59 61  1  0  0  0
 59 62  1  0  0  0
 60129  1  0  0  0
 60130  1  0  0  0
 60131  1  0  0  0
 61132  1  0  0  0
 61133  1  0  0  0
 61134  1  0  0  0
 62135  1  0  0  0
 62136  1  0  0  0
 62137  1  0  0  0
 63 65  1  0  0  0
 63138  1  0  0  0
 63139  1  0  0  0
 63140  1  0  0  0
 64141  1  0  0  0
 65142  1  0  0  0
 68 78  1  0  0  0
 71 72  2  0  0  0
 71 83  1  0  0  0
 71143  1  0  0  0
 72 76  1  0  0  0
 72 80  1  0  0  0
 73 80  2  0  0  0
 73 81  1  0  0  0
 73 83  1  0  0  0
 74144  1  0  0  0
 74145  1  0  0  0
 74146  1  0  0  0
 74 79  1  0  0  0
 75147  1  0  0  0
 75148  1  0  0  0
 75149  1  0  0  0
 75 82  1  0  0  0
 76 82  1  0  0  0
 76150  1  0  0  0
 76151  1  0  0  0
 77 82  1  0  0  0
 77152  1  0  0  0
 77153  1  0  0  0
 78 79  1  0  0  0
 78154  1  0  0  0
 78155  1  0  0  0
 79 81  1  0  0  0
 79156  1  0  0  0
 81157  1  0  0  0
 82158  1  0  0  0
M  CHG  1  82   1
M  ISO  4   1 100  68 101  77 100  78 101
M  END
> <chiral flag>
0

> <version>
0

> <s_m_source_file>
/data/baiqing/PycharmProjects/Reinvent-master-3.2/result/LINK_invent/BTK/process_docking_weight1_custom_product_contain_oxygen_bond_distance_aromatic_linkinvent_7_9_3/rearranged_h_0191.sdf

> <i_m_source_file_index>
35

> <r_mmod_Potential_Energy-OPLS-2005>
-359.276519775391

> <r_mmod_Stretch_Energy-OPLS-2005>
48.7198448181152

> <r_mmod_Bend_Energy-OPLS-2005>
125.818336486816

> <r_mmod_Torsional_Energy-OPLS-2005>
196.953216552734

> <r_mmod_Improper_Torsional_Energy-OPLS-2005>
3.48060369491577

> <r_mmod_Van_der_Waal_Energy-OPLS-2005>
115.581565856934

> <r_mmod_Electrostatic_Energy-OPLS-2005>
-410.772399902344

> <r_mmod_Solvation_Energy-OPLS-2005>
-460.311614990234

> <b_mmod_Minimization_Converged-OPLS-2005>
0

> <r_mmod_RMS_Derivative-OPLS-2005>
2.37659978866577

$$$$
37
                    3D
 Structure written by MMmdl.
156164  0  0  1  0            999 V2000
  -30.7436  -14.4544   20.5422 C   0  0  0  0  0  0
  -30.4004  -12.3013   19.4227 C   0  0  0  0  0  0
  -29.4800  -12.5093   18.2032 C   0  0  0  0  0  0
  -28.0023  -12.3886   18.6181 C   0  0  0  0  0  0
  -27.6540  -13.2267   19.8784 C   0  0  2  0  0  0
  -28.7001  -13.0327   21.0013 C   0  0  0  0  0  0
  -25.2526  -13.8230   20.5752 C   0  0  0  0  0  0
  -24.1799  -13.0469   20.9213 C   0  0  0  0  0  0
  -24.6375  -11.6953   20.8755 C   0  0  0  0  0  0
  -23.9055  -10.4313   21.0417 C   0  0  0  0  0  0
  -24.3612   -9.4221   21.9183 C   0  0  0  0  0  0
  -23.6301   -8.2248   22.0734 C   0  0  0  0  0  0
  -22.4269   -8.0286   21.3553 C   0  0  0  0  0  0
  -21.9922   -9.0254   20.4639 C   0  0  0  0  0  0
  -22.7237  -10.2141   20.3065 C   0  0  0  0  0  0
  -21.6847   -6.0724   22.5266 C   0  0  0  0  0  0
  -21.4003   -6.5632   23.8197 C   0  0  0  0  0  0
  -21.3662   -5.6787   24.9163 C   0  0  0  0  0  0
  -21.6056   -4.3058   24.7215 C   0  0  0  0  0  0
  -21.8829   -3.8144   23.4338 C   0  0  0  0  0  0
  -21.9193   -4.6949   22.3392 C   0  0  0  0  0  0
  -22.7812  -13.5248   21.1868 C   0  0  0  0  0  0
  -22.1665   -4.2155   21.0963 F   0  0  0  0  0  0
  -21.5638   -3.4526   25.7723 F   0  0  0  0  0  0
  -30.0300  -13.3019   20.4347 N   0  0  0  0  0  0
  -26.2989  -12.9444   20.3431 N   0  0  0  0  0  0
  -25.9313  -11.6581   20.5807 N   0  0  0  0  0  0
  -22.0450  -12.8225   22.0409 N   0  0  0  0  0  0
  -25.4266  -15.1925   20.4154 N   0  0  0  0  0  0
  -31.9006  -14.5515   20.1195 O   0  0  0  0  0  0
  -21.6652   -6.8873   21.4235 O   0  0  0  0  0  0
  -22.3511  -14.5551   20.6684 O   0  0  0  0  0  0
  -24.6171  -31.8685   23.2078 C   0  0  0  0  0  0
  -25.9076  -32.4837   23.8365 C   0  0  1  0  0  0
  -27.2180  -27.4010   20.1072 C   0  0  0  0  0  0
  -25.5932  -33.8626   24.2316 N   0  0  0  0  0  0
  -23.4040  -30.4870   21.5582 C   0  0  2  0  0  0
  -24.8388  -28.9570   20.1122 C   0  0  0  0  0  0
  -22.7399  -29.4653   22.5095 C   0  0  0  0  0  0
  -18.0201  -28.1338   22.8521 C   0  0  0  0  0  0
  -24.1487  -36.7288   23.2632 C   0  0  0  0  0  0
  -25.9344  -30.8196   21.3656 C   0  0  0  0  0  0
  -26.0025  -29.4547   20.7106 C   0  0  0  0  0  0
  -27.1919  -28.6861   20.7002 C   0  0  0  0  0  0
  -26.0216  -26.9211   19.5147 C   0  0  0  0  0  0
  -24.8459  -27.6906   19.5097 C   0  0  0  0  0  0
  -23.6047  -29.8219   20.1708 C   0  0  0  0  0  0
  -25.4124  -36.3106   24.0320 C   0  0  1  0  0  0
  -20.5810  -28.3607   23.1286 C   0  0  2  0  0  0
  -20.6788  -26.9422   22.5204 C   0  0  0  0  0  0
  -19.5620  -26.6215   21.5257 C   0  0  0  0  0  0
  -18.1790  -26.7900   22.1649 C   0  0  0  0  0  0
  -19.1478  -28.8779   23.2888 C   0  0  0  0  0  0
  -18.9380  -30.1354   23.8958 C   0  0  0  0  0  0
  -17.6383  -30.6510   24.0563 C   0  0  0  0  0  0
  -25.9069  -34.9480   23.5125 C   0  0  0  0  0  0
  -16.5267  -29.9027   23.6317 C   0  0  0  0  0  0
  -16.7190  -28.6435   23.0380 C   0  0  0  0  0  0
  -26.4451  -31.6616   25.0700 C   0  0  0  0  0  0
  -25.3679  -31.3722   26.1421 C   0  0  0  0  0  0
  -27.0269  -30.3060   24.6070 C   0  0  0  0  0  0
  -27.6032  -32.4338   25.7466 C   0  0  0  0  0  0
  -27.5584  -37.1802   24.8473 C   0  0  0  0  0  0
  -21.4125  -29.3018   22.3786 N   0  0  0  0  0  0
  -26.4305  -37.3806   23.9401 N   0  0  0  0  0  0
  -24.6711  -31.0759   22.0996 N   0  0  0  0  0  0
  -23.4150  -28.8247   23.3204 O   0  0  0  0  0  0
  -28.4009  -26.6787   20.1333 O   0  0  0  0  0  0
  -26.5648  -34.8925   22.4683 O   0  0  0  0  0  0
  -23.5380  -32.1537   23.7414 O   0  0  0  0  0  0
  -30.1831  -19.3208   20.0259 C   0  0  0  0  0  0
  -28.1830  -19.3560   21.8202 C   0  0  0  0  0  0
  -29.8258  -18.1533   20.7457 C   0  0  0  0  0  0
  -28.5527  -20.5400   21.1163 C   0  0  0  0  0  0
  -26.3571  -22.8961   19.8429 C   0  0  0  0  0  0
  -30.6632  -16.8859   20.5743 C   0  0  0  0  0  0
  -28.4401  -25.3077   19.6840 C   0  0  0  0  0  0
  -27.8178  -22.8287   20.3321 C   0  0  1  0  0  0
  -28.3234  -24.2368   20.8196 C   0  0  1  0  0  0
  -28.8113  -18.1619   21.6415 N   0  0  0  0  0  0
  -29.5504  -20.5082   20.2019 N   0  0  0  0  0  0
  -27.9157  -21.7759   21.3647 N   0  0  0  0  0  0
  -30.0826  -15.5679   20.9015 N   0  0  0  0  0  0
  -29.9557  -24.0673   21.5354 Cl  0  0  0  0  0  0
  -31.4455  -12.3694   19.1191 H   0  0  0  0  0  0
  -30.2817  -11.2975   19.8289 H   0  0  0  0  0  0
  -29.7102  -11.7778   17.4269 H   0  0  0  0  0  0
  -29.6628  -13.4916   17.7626 H   0  0  0  0  0  0
  -27.7942  -11.3318   18.7981 H   0  0  0  0  0  0
  -27.3590  -12.6842   17.7893 H   0  0  0  0  0  0
  -27.6910  -14.2742   19.5804 H   0  0  0  0  0  0
  -28.6655  -12.0118   21.3817 H   0  0  0  0  0  0
  -28.4817  -13.6766   21.8548 H   0  0  0  0  0  0
  -25.2748   -9.5681   22.4761 H   0  0  0  0  0  0
  -24.0005   -7.4627   22.7434 H   0  0  0  0  0  0
  -21.0861   -8.8773   19.8923 H   0  0  0  0  0  0
  -22.3700  -10.9681   19.6176 H   0  0  0  0  0  0
  -21.1984   -7.6138   23.9701 H   0  0  0  0  0  0
  -21.1483   -6.0512   25.9070 H   0  0  0  0  0  0
  -22.0604   -2.7605   23.2825 H   0  0  0  0  0  0
  -22.4082  -11.9917   22.4868 H   0  0  0  0  0  0
  -21.1036  -13.1193   22.2552 H   0  0  0  0  0  0
  -24.6664  -15.8547   20.5305 H   0  0  0  0  0  0
  -26.2918  -15.6263   20.1177 H   0  0  0  0  0  0
  -26.7150  -32.5551   23.1134 H   0  0  0  0  0  0
  -25.0031  -33.9802   25.0426 H   0  0  0  0  0  0
  -22.6843  -31.2957   21.4235 H   0  0  0  0  0  0
  -23.3763  -35.9619   23.3342 H   0  0  0  0  0  0
  -24.3552  -36.8862   22.2035 H   0  0  0  0  0  0
  -23.7216  -37.6479   23.6643 H   0  0  0  0  0  0
  -26.0535  -31.5766   20.5902 H   0  0  0  0  0  0
  -26.8187  -30.8728   21.9872 H   0  0  0  0  0  0
  -28.0867  -29.0740   21.1646 H   0  0  0  0  0  0
  -25.9461  -25.9502   19.0586 H   0  0  0  0  0  0
  -23.9475  -27.2917   19.0556 H   0  0  0  0  0  0
  -23.7129  -30.5916   19.4045 H   0  0  0  0  0  0
  -22.7266  -29.2308   19.8998 H   0  0  0  0  0  0
  -25.1299  -36.1964   25.0818 H   0  0  0  0  0  0
  -20.9834  -28.2983   24.1413 H   0  0  0  0  0  0
  -20.6175  -26.2176   23.3312 H   0  0  0  0  0  0
  -21.6531  -26.7741   22.0582 H   0  0  0  0  0  0
  -19.6761  -25.6045   21.1514 H   0  0  0  0  0  0
  -19.6592  -27.2783   20.6597 H   0  0  0  0  0  0
  -17.4166  -26.6898   21.3938 H   0  0  0  0  0  0
  -17.9905  -26.0009   22.8948 H   0  0  0  0  0  0
  -19.7825  -30.7110   24.2477 H   0  0  0  0  0  0
  -17.4936  -31.6168   24.5204 H   0  0  0  0  0  0
  -15.5262  -30.2949   23.7629 H   0  0  0  0  0  0
  -15.8590  -28.0695   22.7152 H   0  0  0  0  0  0
  -24.5873  -30.7072   25.7703 H   0  0  0  0  0  0
  -24.8849  -32.2885   26.4833 H   0  0  0  0  0  0
  -25.7975  -30.8879   27.0203 H   0  0  0  0  0  0
  -26.2819  -29.6848   24.1092 H   0  0  0  0  0  0
  -27.3999  -29.7251   25.4500 H   0  0  0  0  0  0
  -27.8667  -30.4356   23.9248 H   0  0  0  0  0  0
  -27.2663  -33.3647   26.2047 H   0  0  0  0  0  0
  -28.3833  -32.6901   25.0284 H   0  0  0  0  0  0
  -28.0743  -31.8482   26.5374 H   0  0  0  0  0  0
  -28.2625  -38.0082   24.7520 H   0  0  0  0  0  0
  -28.1066  -36.2597   24.6339 H   0  0  0  0  0  0
  -27.2293  -37.1501   25.8881 H   0  0  0  0  0  0
  -20.9352  -29.8626   21.6869 H   0  0  0  0  0  0
  -26.0185  -38.2885   24.1410 H   0  0  0  0  0  0
  -30.9927  -19.3071   19.3095 H   0  0  0  0  0  0
  -27.3807  -19.3510   22.5420 H   0  0  0  0  0  0
  -25.7219  -23.4081   20.5642 H   0  0  0  0  0  0
  -25.9345  -21.9050   19.6684 H   0  0  0  0  0  0
  -26.2634  -23.4268   18.8966 H   0  0  0  0  0  0
  -31.5901  -17.0213   21.1342 H   0  0  0  0  0  0
  -30.9515  -16.8652   19.5196 H   0  0  0  0  0  0
  -27.7589  -25.1150   18.8594 H   0  0  0  0  0  0
  -29.4156  -25.1834   19.2176 H   0  0  0  0  0  0
  -28.4103  -22.5421   19.4645 H   0  0  0  0  0  0
  -27.6824  -24.6104   21.6197 H   0  0  0  0  0  0
  -27.2083  -21.7771   22.0945 H   0  0  0  0  0  0
  -29.1338  -15.5205   21.2483 H   0  0  0  0  0  0
  1 25  1  0  0  0
  1 30  2  0  0  0
  1 83  1  0  0  0
  2  3  1  0  0  0
  2 25  1  0  0  0
  2 85  1  0  0  0
  2 86  1  0  0  0
  3  4  1  0  0  0
  3 87  1  0  0  0
  3 88  1  0  0  0
  4  5  1  0  0  0
  4 89  1  0  0  0
  4 90  1  0  0  0
  5  6  1  0  0  0
  5 26  1  0  0  0
  5 91  1  0  0  0
  6 25  1  0  0  0
  6 92  1  0  0  0
  6 93  1  0  0  0
  7  8  2  0  0  0
  7 26  1  0  0  0
  7 29  1  0  0  0
  8  9  1  0  0  0
  8 22  1  0  0  0
  9 10  1  0  0  0
  9 27  2  0  0  0
 10 11  2  0  0  0
 10 15  1  0  0  0
 11 12  1  0  0  0
 11 94  1  0  0  0
 12 13  2  0  0  0
 12 95  1  0  0  0
 13 14  1  0  0  0
 13 31  1  0  0  0
 14 15  2  0  0  0
 14 96  1  0  0  0
 15 97  1  0  0  0
 16 17  2  0  0  0
 16 21  1  0  0  0
 16 31  1  0  0  0
 17 18  1  0  0  0
 17 98  1  0  0  0
 18 19  2  0  0  0
 18 99  1  0  0  0
 19 20  1  0  0  0
 19 24  1  0  0  0
 20 21  2  0  0  0
 20100  1  0  0  0
 21 23  1  0  0  0
 22 28  1  0  0  0
 22 32  2  0  0  0
 26 27  1  0  0  0
 28101  1  0  0  0
 28102  1  0  0  0
 29103  1  0  0  0
 29104  1  0  0  0
 33 34  1  0  0  0
 33 66  1  0  0  0
 33 70  2  0  0  0
 34 36  1  0  0  0
 34 59  1  0  0  0
 34105  1  0  0  0
 35 44  2  0  0  0
 35 45  1  0  0  0
 35 68  1  0  0  0
 36 56  1  0  0  0
 36106  1  0  0  0
 37 39  1  0  0  0
 37 47  1  0  0  0
 37 66  1  0  0  0
 37107  1  0  0  0
 38 43  2  0  0  0
 38 46  1  0  0  0
 38 47  1  0  0  0
 39 64  1  0  0  0
 39 67  2  0  0  0
 40 52  1  0  0  0
 40 53  2  0  0  0
 40 58  1  0  0  0
 41108  1  0  0  0
 41109  1  0  0  0
 41110  1  0  0  0
 41 48  1  0  0  0
 42 43  1  0  0  0
 42 66  1  0  0  0
 42111  1  0  0  0
 42112  1  0  0  0
 43 44  1  0  0  0
 44113  1  0  0  0
 45 46  2  0  0  0
 45114  1  0  0  0
 46115  1  0  0  0
 47116  1  0  0  0
 47117  1  0  0  0
 48 56  1  0  0  0
 48 65  1  0  0  0
 48118  1  0  0  0
 49 50  1  0  0  0
 49 53  1  0  0  0
 49 64  1  0  0  0
 49119  1  0  0  0
 50 51  1  0  0  0
 50120  1  0  0  0
 50121  1  0  0  0
 51 52  1  0  0  0
 51122  1  0  0  0
 51123  1  0  0  0
 52124  1  0  0  0
 52125  1  0  0  0
 53 54  1  0  0  0
 54 55  2  0  0  0
 54126  1  0  0  0
 55 57  1  0  0  0
 55127  1  0  0  0
 56 69  2  0  0  0
 57 58  2  0  0  0
 57128  1  0  0  0
 58129  1  0  0  0
 59 60  1  0  0  0
 59 61  1  0  0  0
 59 62  1  0  0  0
 60130  1  0  0  0
 60131  1  0  0  0
 60132  1  0  0  0
 61133  1  0  0  0
 61134  1  0  0  0
 61135  1  0  0  0
 62136  1  0  0  0
 62137  1  0  0  0
 62138  1  0  0  0
 63 65  1  0  0  0
 63139  1  0  0  0
 63140  1  0  0  0
 63141  1  0  0  0
 64142  1  0  0  0
 65143  1  0  0  0
 68 77  1  0  0  0
 71 73  2  0  0  0
 71 81  1  0  0  0
 71144  1  0  0  0
 72 74  1  0  0  0
 72 80  2  0  0  0
 72145  1  0  0  0
 73 76  1  0  0  0
 73 80  1  0  0  0
 74 81  2  0  0  0
 74 82  1  0  0  0
 75146  1  0  0  0
 75147  1  0  0  0
 75148  1  0  0  0
 75 78  1  0  0  0
 76 83  1  0  0  0
 76149  1  0  0  0
 76150  1  0  0  0
 77 79  1  0  0  0
 77151  1  0  0  0
 77152  1  0  0  0
 78 79  1  0  0  0
 78 82  1  0  0  0
 78153  1  0  0  0
 79 84  1  0  0  0
 79154  1  0  0  0
 82155  1  0  0  0
 83156  1  0  0  0
M  ISO  4   1 100  68 101  77 101  83 100
M  END
> <chiral flag>
0

> <version>
0

> <s_m_source_file>
/data/baiqing/PycharmProjects/Reinvent-master-3.2/result/LINK_invent/BTK/process_docking_weight1_custom_product_contain_oxygen_bond_distance_aromatic_linkinvent_7_9_3/rearranged_h_0191.sdf

> <i_m_source_file_index>
36

> <r_mmod_Potential_Energy-OPLS-2005>
-32.776008605957

> <r_mmod_Stretch_Energy-OPLS-2005>
44.1430740356445

> <r_mmod_Bend_Energy-OPLS-2005>
123.783470153809

> <r_mmod_Torsional_Energy-OPLS-2005>
208.444473266602

> <r_mmod_Improper_Torsional_Energy-OPLS-2005>
7.27087545394897

> <r_mmod_Van_der_Waal_Energy-OPLS-2005>
165.874114990234

> <r_mmod_Electrostatic_Energy-OPLS-2005>
-372.129852294922

> <r_mmod_Solvation_Energy-OPLS-2005>
-228.816314697266

> <b_mmod_Minimization_Converged-OPLS-2005>
0

> <r_mmod_RMS_Derivative-OPLS-2005>
5.96538591384888

$$$$
38
                    3D
 Structure written by MMmdl.
166174  0  0  1  0            999 V2000
  -30.7137  -14.4548   20.5831 C   0  0  0  0  0  0
  -30.4189  -12.2991   19.4201 C   0  0  0  0  0  0
  -29.4922  -12.5056   18.2046 C   0  0  0  0  0  0
  -28.0132  -12.3696   18.6159 C   0  0  0  0  0  0
  -27.6617  -13.2061   19.8753 C   0  0  2  0  0  0
  -28.7025  -12.9828   20.9967 C   0  0  0  0  0  0
  -25.2584  -13.8158   20.5671 C   0  0  0  0  0  0
  -24.1837  -13.0434   20.9175 C   0  0  0  0  0  0
  -24.6390  -11.6902   20.8729 C   0  0  0  0  0  0
  -23.9055  -10.4289   21.0398 C   0  0  0  0  0  0
  -24.3611   -9.4209   21.9178 C   0  0  0  0  0  0
  -23.6290   -8.2243   22.0752 C   0  0  0  0  0  0
  -22.4273   -8.0276   21.3541 C   0  0  0  0  0  0
  -21.9904   -9.0249   20.4646 C   0  0  0  0  0  0
  -22.7226  -10.2130   20.3052 C   0  0  0  0  0  0
  -21.6855   -6.0731   22.5277 C   0  0  0  0  0  0
  -21.4015   -6.5638   23.8209 C   0  0  0  0  0  0
  -21.3660   -5.6791   24.9174 C   0  0  0  0  0  0
  -21.6045   -4.3054   24.7227 C   0  0  0  0  0  0
  -21.8819   -3.8144   23.4349 C   0  0  0  0  0  0
  -21.9194   -4.6959   22.3402 C   0  0  0  0  0  0
  -22.7862  -13.5235   21.1843 C   0  0  0  0  0  0
  -22.1663   -4.2143   21.0980 F   0  0  0  0  0  0
  -21.5630   -3.4539   25.7742 F   0  0  0  0  0  0
  -30.0364  -13.2817   20.4469 N   0  0  0  0  0  0
  -26.3021  -12.9328   20.3361 N   0  0  0  0  0  0
  -25.9316  -11.6489   20.5760 N   0  0  0  0  0  0
  -22.0509  -12.8223   22.0403 N   0  0  0  0  0  0
  -25.4297  -15.1876   20.4069 N   0  0  0  0  0  0
  -31.8363  -14.6223   20.0958 O   0  0  0  0  0  0
  -21.6640   -6.8873   21.4237 O   0  0  0  0  0  0
  -22.3549  -14.5546   20.6700 O   0  0  0  0  0  0
  -24.6117  -31.8696   23.2128 C   0  0  0  0  0  0
  -25.9022  -32.4830   23.8415 C   0  0  1  0  0  0
  -27.2342  -27.4479   20.1047 C   0  0  0  0  0  0
  -25.5893  -33.8627   24.2348 N   0  0  0  0  0  0
  -23.4006  -30.4924   21.5510 C   0  0  2  0  0  0
  -24.8516  -28.9602   20.1160 C   0  0  0  0  0  0
  -22.7401  -29.4654   22.4990 C   0  0  0  0  0  0
  -18.0270  -28.1368   22.8488 C   0  0  0  0  0  0
  -24.1492  -36.7323   23.2638 C   0  0  0  0  0  0
  -25.9274  -30.8365   21.3686 C   0  0  0  0  0  0
  -26.0069  -29.4691   20.7242 C   0  0  0  0  0  0
  -27.2021  -28.7154   20.7281 C   0  0  0  0  0  0
  -26.0755  -26.9621   19.4683 C   0  0  0  0  0  0
  -24.8786  -27.7024   19.4878 C   0  0  0  0  0  0
  -23.6118  -29.8247   20.1649 C   0  0  0  0  0  0
  -25.4106  -36.3118   24.0342 C   0  0  1  0  0  0
  -20.5856  -28.3654   23.1318 C   0  0  2  0  0  0
  -20.6758  -26.9390   22.5417 C   0  0  0  0  0  0
  -19.5740  -26.6377   21.5207 C   0  0  0  0  0  0
  -18.1918  -26.7914   22.1620 C   0  0  0  0  0  0
  -19.1517  -28.8828   23.2901 C   0  0  0  0  0  0
  -18.9452  -30.1434   23.8912 C   0  0  0  0  0  0
  -17.6455  -30.6580   24.0560 C   0  0  0  0  0  0
  -25.9029  -34.9478   23.5143 C   0  0  0  0  0  0
  -16.5344  -29.9084   23.6317 C   0  0  0  0  0  0
  -16.7259  -28.6497   23.0338 C   0  0  0  0  0  0
  -26.4458  -31.6591   25.0727 C   0  0  0  0  0  0
  -25.3729  -31.3693   26.1483 C   0  0  0  0  0  0
  -27.0289  -30.3037   24.6077 C   0  0  0  0  0  0
  -27.6050  -32.4296   25.7479 C   0  0  0  0  0  0
  -27.5586  -37.1810   24.8461 C   0  0  0  0  0  0
  -21.4128  -29.3029   22.3735 N   0  0  0  0  0  0
  -26.4297  -37.3795   23.9407 N   0  0  0  0  0  0
  -24.6640  -31.0807   22.1025 N   0  0  0  0  0  0
  -23.4185  -28.8189   23.3016 O   0  0  0  0  0  0
  -28.3735  -26.6828   20.0483 O   0  0  0  0  0  0
  -26.5591  -34.8925   22.4704 O   0  0  0  0  0  0
  -23.5315  -32.1443   23.7526 O   0  0  0  0  0  0
  -31.4744  -18.7758   20.9172 C   0  0  0  0  0  0
  -30.2151  -19.3224   21.0109 C   0  0  0  0  0  0
  -30.2799  -16.8472   21.1352 C   0  0  0  0  0  0
  -31.6389  -23.4323   22.4283 C   0  0  0  0  0  0
  -33.5604  -25.1049   22.8027 C   0  0  0  0  0  0
  -26.8148  -24.8838   22.2334 C   0  0  0  0  0  0
  -29.8447  -20.7765   20.8560 C   0  0  0  0  0  0
  -32.1370  -24.8728   22.2654 C   0  0  0  0  0  0
  -29.0902  -23.8394   22.5211 C   0  0  0  0  0  0
  -28.8388  -26.1199   21.2785 C   0  0  0  0  0  0
  -30.2597  -23.0655   21.8352 C   0  0  2  0  0  0
  -28.2102  -24.7297   21.5936 C   0  0  2  0  0  0
  -31.5017  -17.3788   21.0068 N   0  0  0  0  0  0
  -30.0211  -15.4476   21.1752 N   0  0  0  0  0  0
  -30.1621  -21.5975   22.0455 N   0  3  0  0  0  0
  -32.3435  -22.5964   23.0093 O   0  0  0  0  0  0
  -29.0107  -18.0684   21.2454 S   0  0  0  0  0  0
  -31.4638  -12.3898   19.1179 H   0  0  0  0  0  0
  -30.3130  -11.2874   19.8147 H   0  0  0  0  0  0
  -29.7293  -11.7824   17.4230 H   0  0  0  0  0  0
  -29.6642  -13.4919   17.7703 H   0  0  0  0  0  0
  -27.8187  -11.3133   18.8065 H   0  0  0  0  0  0
  -27.3647  -12.6512   17.7855 H   0  0  0  0  0  0
  -27.7068  -14.2547   19.5806 H   0  0  0  0  0  0
  -28.6752  -11.9470   21.3384 H   0  0  0  0  0  0
  -28.4625  -13.5814   21.8766 H   0  0  0  0  0  0
  -25.2760   -9.5689   22.4746 H   0  0  0  0  0  0
  -24.0005   -7.4637   22.7471 H   0  0  0  0  0  0
  -21.0836   -8.8761   19.8954 H   0  0  0  0  0  0
  -22.3680  -10.9666   19.6160 H   0  0  0  0  0  0
  -21.2006   -7.6147   23.9710 H   0  0  0  0  0  0
  -21.1483   -6.0525   25.9076 H   0  0  0  0  0  0
  -22.0599   -2.7605   23.2851 H   0  0  0  0  0  0
  -22.4133  -11.9885   22.4782 H   0  0  0  0  0  0
  -21.1125  -13.1238   22.2613 H   0  0  0  0  0  0
  -24.6570  -15.8377   20.5032 H   0  0  0  0  0  0
  -26.2733  -15.6264   20.0600 H   0  0  0  0  0  0
  -26.7092  -32.5556   23.1187 H   0  0  0  0  0  0
  -25.0040  -33.9787   25.0491 H   0  0  0  0  0  0
  -22.6877  -31.3077   21.4111 H   0  0  0  0  0  0
  -23.3748  -35.9666   23.3307 H   0  0  0  0  0  0
  -24.3593  -36.8927   22.2051 H   0  0  0  0  0  0
  -23.7251  -37.6536   23.6643 H   0  0  0  0  0  0
  -26.0364  -31.5991   20.5964 H   0  0  0  0  0  0
  -26.8164  -30.8946   21.9844 H   0  0  0  0  0  0
  -28.0952  -29.1059   21.1959 H   0  0  0  0  0  0
  -26.0986  -26.0003   18.9756 H   0  0  0  0  0  0
  -23.9930  -27.3073   19.0093 H   0  0  0  0  0  0
  -23.7201  -30.6002   19.4054 H   0  0  0  0  0  0
  -22.7377  -29.2418   19.8688 H   0  0  0  0  0  0
  -25.1276  -36.1999   25.0835 H   0  0  0  0  0  0
  -20.9940  -28.3227   24.1440 H   0  0  0  0  0  0
  -20.5653  -26.2262   23.3601 H   0  0  0  0  0  0
  -21.6629  -26.7427   22.1215 H   0  0  0  0  0  0
  -19.6902  -25.6289   21.1229 H   0  0  0  0  0  0
  -19.6689  -27.3196   20.6744 H   0  0  0  0  0  0
  -17.4183  -26.6660   21.4025 H   0  0  0  0  0  0
  -18.0323  -26.0053   22.9012 H   0  0  0  0  0  0
  -19.7935  -30.7231   24.2299 H   0  0  0  0  0  0
  -17.5019  -31.6264   24.5159 H   0  0  0  0  0  0
  -15.5349  -30.2994   23.7634 H   0  0  0  0  0  0
  -15.8653  -28.0830   22.7038 H   0  0  0  0  0  0
  -24.5903  -30.7034   25.7825 H   0  0  0  0  0  0
  -24.8915  -32.2845   26.4937 H   0  0  0  0  0  0
  -25.8089  -30.8862   27.0236 H   0  0  0  0  0  0
  -26.2831  -29.6800   24.1132 H   0  0  0  0  0  0
  -27.4074  -29.7262   25.4521 H   0  0  0  0  0  0
  -27.8659  -30.4362   23.9217 H   0  0  0  0  0  0
  -27.2687  -33.3590   26.2084 H   0  0  0  0  0  0
  -28.3847  -32.6854   25.0293 H   0  0  0  0  0  0
  -28.0725  -31.8391   26.5367 H   0  0  0  0  0  0
  -28.2593  -38.0117   24.7513 H   0  0  0  0  0  0
  -28.1092  -36.2646   24.6280 H   0  0  0  0  0  0
  -27.2303  -37.1450   25.8863 H   0  0  0  0  0  0
  -20.9287  -29.8784   21.6985 H   0  0  0  0  0  0
  -26.0198  -38.2878   24.1413 H   0  0  0  0  0  0
  -32.4042  -19.3056   20.7589 H   0  0  0  0  0  0
  -33.8679  -26.1381   22.6424 H   0  0  0  0  0  0
  -34.2875  -24.4650   22.3011 H   0  0  0  0  0  0
  -33.6186  -24.9060   23.8739 H   0  0  0  0  0  0
  -26.3569  -23.9137   22.4312 H   0  0  0  0  0  0
  -26.1215  -25.4222   21.5934 H   0  0  0  0  0  0
  -26.8696  -25.4209   23.1811 H   0  0  0  0  0  0
  -28.7827  -20.8779   20.6288 H   0  0  0  0  0  0
  -30.3770  -21.1745   19.9908 H   0  0  0  0  0  0
  -31.4479  -25.5411   22.7810 H   0  0  0  0  0  0
  -32.1012  -25.1309   21.2070 H   0  0  0  0  0  0
  -29.4475  -24.4409   23.3592 H   0  0  0  0  0  0
  -28.4411  -23.1015   22.9943 H   0  0  0  0  0  0
  -29.9118  -26.0054   21.1427 H   0  0  0  0  0  0
  -28.7176  -26.8085   22.1167 H   0  0  0  0  0  0
  -30.2802  -23.2869   20.7682 H   0  0  0  0  0  0
  -28.0788  -24.1961   20.6507 H   0  0  0  0  0  0
  -29.1022  -15.1855   21.4944 H   0  0  0  0  0  0
  -31.0963  -21.3733   22.3682 H   0  0  0  0  0  0
  -29.5333  -21.3895   22.8021 H   0  0  0  0  0  0
  1 25  1  0  0  0
  1 30  2  0  0  0
  1 84  1  0  0  0
  2  3  1  0  0  0
  2 25  1  0  0  0
  2 88  1  0  0  0
  2 89  1  0  0  0
  3  4  1  0  0  0
  3 90  1  0  0  0
  3 91  1  0  0  0
  4  5  1  0  0  0
  4 92  1  0  0  0
  4 93  1  0  0  0
  5  6  1  0  0  0
  5 26  1  0  0  0
  5 94  1  0  0  0
  6 25  1  0  0  0
  6 95  1  0  0  0
  6 96  1  0  0  0
  7  8  2  0  0  0
  7 26  1  0  0  0
  7 29  1  0  0  0
  8  9  1  0  0  0
  8 22  1  0  0  0
  9 10  1  0  0  0
  9 27  2  0  0  0
 10 11  2  0  0  0
 10 15  1  0  0  0
 11 12  1  0  0  0
 11 97  1  0  0  0
 12 13  2  0  0  0
 12 98  1  0  0  0
 13 14  1  0  0  0
 13 31  1  0  0  0
 14 15  2  0  0  0
 14 99  1  0  0  0
 15100  1  0  0  0
 16 17  2  0  0  0
 16 21  1  0  0  0
 16 31  1  0  0  0
 17 18  1  0  0  0
 17101  1  0  0  0
 18 19  2  0  0  0
 18102  1  0  0  0
 19 20  1  0  0  0
 19 24  1  0  0  0
 20 21  2  0  0  0
 20103  1  0  0  0
 21 23  1  0  0  0
 22 28  1  0  0  0
 22 32  2  0  0  0
 26 27  1  0  0  0
 28104  1  0  0  0
 28105  1  0  0  0
 29106  1  0  0  0
 29107  1  0  0  0
 33 34  1  0  0  0
 33 66  1  0  0  0
 33 70  2  0  0  0
 34 36  1  0  0  0
 34 59  1  0  0  0
 34108  1  0  0  0
 35 44  2  0  0  0
 35 45  1  0  0  0
 35 68  1  0  0  0
 36 56  1  0  0  0
 36109  1  0  0  0
 37 39  1  0  0  0
 37 47  1  0  0  0
 37 66  1  0  0  0
 37110  1  0  0  0
 38 43  2  0  0  0
 38 46  1  0  0  0
 38 47  1  0  0  0
 39 64  1  0  0  0
 39 67  2  0  0  0
 40 52  1  0  0  0
 40 53  2  0  0  0
 40 58  1  0  0  0
 41111  1  0  0  0
 41112  1  0  0  0
 41113  1  0  0  0
 41 48  1  0  0  0
 42 43  1  0  0  0
 42 66  1  0  0  0
 42114  1  0  0  0
 42115  1  0  0  0
 43 44  1  0  0  0
 44116  1  0  0  0
 45 46  2  0  0  0
 45117  1  0  0  0
 46118  1  0  0  0
 47119  1  0  0  0
 47120  1  0  0  0
 48 56  1  0  0  0
 48 65  1  0  0  0
 48121  1  0  0  0
 49 50  1  0  0  0
 49 53  1  0  0  0
 49 64  1  0  0  0
 49122  1  0  0  0
 50 51  1  0  0  0
 50123  1  0  0  0
 50124  1  0  0  0
 51 52  1  0  0  0
 51125  1  0  0  0
 51126  1  0  0  0
 52127  1  0  0  0
 52128  1  0  0  0
 53 54  1  0  0  0
 54 55  2  0  0  0
 54129  1  0  0  0
 55 57  1  0  0  0
 55130  1  0  0  0
 56 69  2  0  0  0
 57 58  2  0  0  0
 57131  1  0  0  0
 58132  1  0  0  0
 59 60  1  0  0  0
 59 61  1  0  0  0
 59 62  1  0  0  0
 60133  1  0  0  0
 60134  1  0  0  0
 60135  1  0  0  0
 61136  1  0  0  0
 61137  1  0  0  0
 61138  1  0  0  0
 62139  1  0  0  0
 62140  1  0  0  0
 62141  1  0  0  0
 63 65  1  0  0  0
 63142  1  0  0  0
 63143  1  0  0  0
 63144  1  0  0  0
 64145  1  0  0  0
 65146  1  0  0  0
 68 80  1  0  0  0
 71 72  2  0  0  0
 71 83  1  0  0  0
 71147  1  0  0  0
 72 77  1  0  0  0
 72 87  1  0  0  0
 73 83  2  0  0  0
 73 84  1  0  0  0
 73 87  1  0  0  0
 74 78  1  0  0  0
 74 81  1  0  0  0
 74 86  2  0  0  0
 75 78  1  0  0  0
 75148  1  0  0  0
 75149  1  0  0  0
 75150  1  0  0  0
 76151  1  0  0  0
 76152  1  0  0  0
 76153  1  0  0  0
 76 82  1  0  0  0
 77 85  1  0  0  0
 77154  1  0  0  0
 77155  1  0  0  0
 78156  1  0  0  0
 78157  1  0  0  0
 79 82  1  0  0  0
 79158  1  0  0  0
 79159  1  0  0  0
 79 81  1  0  0  0
 80 82  1  0  0  0
 80160  1  0  0  0
 80161  1  0  0  0
 81 85  1  0  0  0
 81162  1  0  0  0
 82163  1  0  0  0
 84164  1  0  0  0
 85165  1  0  0  0
 85166  1  0  0  0
M  CHG  1  85   1
M  ISO  4   1 100  68 101  80 101  84 100
M  END
> <chiral flag>
0

> <version>
0

> <s_m_source_file>
/data/baiqing/PycharmProjects/Reinvent-master-3.2/result/LINK_invent/BTK/process_docking_weight1_custom_product_contain_oxygen_bond_distance_aromatic_linkinvent_7_9_3/rearranged_h_0191.sdf

> <i_m_source_file_index>
37

> <r_mmod_Potential_Energy-OPLS-2005>
-363.835662841797

> <r_mmod_Stretch_Energy-OPLS-2005>
36.1509094238281

> <r_mmod_Bend_Energy-OPLS-2005>
105.600151062012

> <r_mmod_Torsional_Energy-OPLS-2005>
247.168518066406

> <r_mmod_Improper_Torsional_Energy-OPLS-2005>
3.76829361915588

> <r_mmod_Van_der_Waal_Energy-OPLS-2005>
132.423950195312

> <r_mmod_Electrostatic_Energy-OPLS-2005>
-404.264526367188

> <r_mmod_Solvation_Energy-OPLS-2005>
-495.274322509766

> <b_mmod_Minimization_Converged-OPLS-2005>
0

> <r_mmod_RMS_Derivative-OPLS-2005>
0.801668763160706

$$$$
39
                    3D
 Structure written by MMmdl.
167175  0  0  1  0            999 V2000
  -30.6750  -14.4999   20.5266 C   0  0  0  0  0  0
  -30.4438  -12.3100   19.4209 C   0  0  0  0  0  0
  -29.5066  -12.4809   18.2064 C   0  0  0  0  0  0
  -28.0285  -12.3392   18.6164 C   0  0  0  0  0  0
  -27.6564  -13.1939   19.8572 C   0  0  2  0  0  0
  -28.7062  -13.0238   20.9795 C   0  0  0  0  0  0
  -25.2580  -13.8107   20.5692 C   0  0  0  0  0  0
  -24.1822  -13.0439   20.9248 C   0  0  0  0  0  0
  -24.6320  -11.6888   20.8768 C   0  0  0  0  0  0
  -23.8991  -10.4297   21.0449 C   0  0  0  0  0  0
  -24.3554   -9.4242   21.9234 C   0  0  0  0  0  0
  -23.6257   -8.2261   22.0776 C   0  0  0  0  0  0
  -22.4229   -8.0289   21.3569 C   0  0  0  0  0  0
  -21.9865   -9.0258   20.4670 C   0  0  0  0  0  0
  -22.7168  -10.2159   20.3099 C   0  0  0  0  0  0
  -21.6835   -6.0734   22.5285 C   0  0  0  0  0  0
  -21.4005   -6.5619   23.8221 C   0  0  0  0  0  0
  -21.3660   -5.6784   24.9193 C   0  0  0  0  0  0
  -21.6022   -4.3034   24.7237 C   0  0  0  0  0  0
  -21.8808   -3.8143   23.4339 C   0  0  0  0  0  0
  -21.9164   -4.6974   22.3411 C   0  0  0  0  0  0
  -22.7829  -13.5260   21.1880 C   0  0  0  0  0  0
  -22.1657   -4.2161   21.0988 F   0  0  0  0  0  0
  -21.5641   -3.4498   25.7753 F   0  0  0  0  0  0
  -30.0279  -13.3137   20.4035 N   0  0  0  0  0  0
  -26.2988  -12.9233   20.3282 N   0  0  0  0  0  0
  -25.9234  -11.6407   20.5718 N   0  0  0  0  0  0
  -22.0400  -12.8328   22.0410 N   0  0  0  0  0  0
  -25.4282  -15.1843   20.4006 N   0  0  0  0  0  0
  -31.8778  -14.6559   20.3072 O   0  0  0  0  0  0
  -21.6628   -6.8848   21.4231 O   0  0  0  0  0  0
  -22.3572  -14.5542   20.6649 O   0  0  0  0  0  0
  -24.6205  -31.8735   23.2140 C   0  0  0  0  0  0
  -25.9095  -32.4853   23.8448 C   0  0  1  0  0  0
  -27.1989  -27.4116   20.1114 C   0  0  0  0  0  0
  -25.5982  -33.8642   24.2386 N   0  0  0  0  0  0
  -23.4045  -30.5031   21.5503 C   0  0  2  0  0  0
  -24.8475  -28.9876   20.1003 C   0  0  0  0  0  0
  -22.7440  -29.4723   22.4944 C   0  0  0  0  0  0
  -18.0306  -28.1442   22.8570 C   0  0  0  0  0  0
  -24.1499  -36.7292   23.2614 C   0  0  0  0  0  0
  -25.9387  -30.8370   21.3763 C   0  0  0  0  0  0
  -26.0131  -29.4774   20.7075 C   0  0  0  0  0  0
  -27.1961  -28.6944   20.7089 C   0  0  0  0  0  0
  -26.0289  -26.9805   19.4431 C   0  0  0  0  0  0
  -24.8531  -27.7449   19.4501 C   0  0  0  0  0  0
  -23.6096  -29.8472   20.1588 C   0  0  0  0  0  0
  -25.4111  -36.3103   24.0300 C   0  0  1  0  0  0
  -20.5860  -28.3809   23.1332 C   0  0  2  0  0  0
  -20.6770  -26.9561   22.5519 C   0  0  0  0  0  0
  -19.5808  -26.6577   21.5280 C   0  0  0  0  0  0
  -18.2056  -26.7940   22.1850 C   0  0  0  0  0  0
  -19.1526  -28.8984   23.2904 C   0  0  0  0  0  0
  -18.9426  -30.1595   23.8858 C   0  0  0  0  0  0
  -17.6411  -30.6644   24.0688 C   0  0  0  0  0  0
  -25.9005  -34.9476   23.5105 C   0  0  0  0  0  0
  -16.5322  -29.9087   23.6470 C   0  0  0  0  0  0
  -16.7281  -28.6509   23.0478 C   0  0  0  0  0  0
  -26.4545  -31.6593   25.0778 C   0  0  0  0  0  0
  -25.3845  -31.3651   26.1533 C   0  0  0  0  0  0
  -27.0330  -30.3042   24.6130 C   0  0  0  0  0  0
  -27.6155  -32.4285   25.7534 C   0  0  0  0  0  0
  -27.5568  -37.1795   24.8455 C   0  0  0  0  0  0
  -21.4167  -29.3161   22.3736 N   0  0  0  0  0  0
  -26.4333  -37.3786   23.9360 N   0  0  0  0  0  0
  -24.6714  -31.0825   22.1049 N   0  0  0  0  0  0
  -23.4238  -28.8187   23.2919 O   0  0  0  0  0  0
  -28.2834  -26.5574   20.2265 O   0  0  0  0  0  0
  -26.5557  -34.8944   22.4661 O   0  0  0  0  0  0
  -23.5388  -32.1497   23.7531 O   0  0  0  0  0  0
  -29.6697  -17.0082   22.3230 C   0  0  0  0  0  0
  -29.6535  -16.7583   20.9736 C   0  0  0  0  0  0
  -28.8662  -18.8178   21.2599 C   0  0  0  0  0  0
  -25.5785  -20.2806   20.4048 C   0  0  0  0  0  0
  -27.8563  -18.3056   24.6311 C   0  0  0  0  0  0
  -26.6750  -20.0419   21.4559 C   0  0  0  0  0  0
  -28.8851  -24.1051   20.9388 C   0  0  0  0  0  0
  -28.8992  -21.4378   21.1505 C   0  0  0  0  0  0
  -28.9355  -18.9726   23.7662 C   0  0  0  0  0  0
  -27.8781  -25.2846   20.8014 C   0  0  0  0  0  0
  -28.1244  -20.0987   20.8972 C   0  0  1  0  0  0
  -28.2019  -22.7293   20.6316 C   0  0  2  0  0  0
  -29.1596  -18.2861   22.4746 N   0  0  0  0  0  0
  -29.1865  -17.8814   20.3579 N   0  3  0  0  0  0
  -29.8562  -15.5323   20.2757 N   0  0  0  0  0  0
  -28.0839  -22.6421   19.2226 O   0  0  0  0  0  0
  -31.4863  -12.4254   19.1167 H   0  0  0  0  0  0
  -30.3560  -11.3101   19.8513 H   0  0  0  0  0  0
  -29.7602  -11.7499   17.4370 H   0  0  0  0  0  0
  -29.6575  -13.4671   17.7594 H   0  0  0  0  0  0
  -27.8522  -11.2872   18.8392 H   0  0  0  0  0  0
  -27.3727  -12.5910   17.7822 H   0  0  0  0  0  0
  -27.6675  -14.2330   19.5343 H   0  0  0  0  0  0
  -28.6875  -12.0047   21.3700 H   0  0  0  0  0  0
  -28.4826  -13.6905   21.8152 H   0  0  0  0  0  0
  -25.2687   -9.5734   22.4821 H   0  0  0  0  0  0
  -23.9953   -7.4637   22.7494 H   0  0  0  0  0  0
  -21.0778   -8.8765   19.8971 H   0  0  0  0  0  0
  -22.3597  -10.9706   19.6221 H   0  0  0  0  0  0
  -21.2018   -7.6131   23.9745 H   0  0  0  0  0  0
  -21.1493   -6.0503   25.9093 H   0  0  0  0  0  0
  -22.0586   -2.7603   23.2843 H   0  0  0  0  0  0
  -22.3895  -11.9991   22.4910 H   0  0  0  0  0  0
  -21.1059  -13.1497   22.2541 H   0  0  0  0  0  0
  -24.6341  -15.8111   20.4757 H   0  0  0  0  0  0
  -26.2283  -15.6092   19.9489 H   0  0  0  0  0  0
  -26.7189  -32.5617   23.1222 H   0  0  0  0  0  0
  -25.0252  -33.9846   25.0604 H   0  0  0  0  0  0
  -22.6980  -31.3229   21.4181 H   0  0  0  0  0  0
  -23.3784  -35.9614   23.3304 H   0  0  0  0  0  0
  -24.3606  -36.8876   22.2028 H   0  0  0  0  0  0
  -23.7218  -37.6484   23.6626 H   0  0  0  0  0  0
  -26.0587  -31.6194   20.6274 H   0  0  0  0  0  0
  -26.8242  -30.8803   21.9984 H   0  0  0  0  0  0
  -28.0933  -29.0444   21.2009 H   0  0  0  0  0  0
  -26.0048  -26.0353   18.9158 H   0  0  0  0  0  0
  -23.9662  -27.3823   18.9496 H   0  0  0  0  0  0
  -23.7085  -30.6274   19.4000 H   0  0  0  0  0  0
  -22.7383  -29.2525   19.8756 H   0  0  0  0  0  0
  -25.1291  -36.1984   25.0805 H   0  0  0  0  0  0
  -21.0054  -28.3438   24.1431 H   0  0  0  0  0  0
  -20.5507  -26.2495   23.3691 H   0  0  0  0  0  0
  -21.6706  -26.7535   22.1499 H   0  0  0  0  0  0
  -19.7117  -25.6552   21.1214 H   0  0  0  0  0  0
  -19.6613  -27.3503   20.6921 H   0  0  0  0  0  0
  -17.4226  -26.6601   21.4357 H   0  0  0  0  0  0
  -18.0818  -26.0102   22.9353 H   0  0  0  0  0  0
  -19.7969  -30.7357   24.2241 H   0  0  0  0  0  0
  -17.4978  -31.6262   24.5429 H   0  0  0  0  0  0
  -15.5290  -30.2900   23.7875 H   0  0  0  0  0  0
  -15.8667  -28.0788   22.7234 H   0  0  0  0  0  0
  -24.6138  -30.6871   25.7870 H   0  0  0  0  0  0
  -24.8955  -32.2771   26.4975 H   0  0  0  0  0  0
  -25.8289  -30.8903   27.0283 H   0  0  0  0  0  0
  -26.2839  -29.6867   24.1209 H   0  0  0  0  0  0
  -27.4049  -29.7249   25.4554 H   0  0  0  0  0  0
  -27.8709  -30.4282   23.9286 H   0  0  0  0  0  0
  -27.2816  -33.3572   26.2163 H   0  0  0  0  0  0
  -28.3976  -32.6811   25.0370 H   0  0  0  0  0  0
  -28.0856  -31.8404   26.5420 H   0  0  0  0  0  0
  -28.2591  -38.0093   24.7517 H   0  0  0  0  0  0
  -28.1072  -36.2605   24.6294 H   0  0  0  0  0  0
  -27.2307  -37.1455   25.8883 H   0  0  0  0  0  0
  -20.9363  -29.9106   21.7164 H   0  0  0  0  0  0
  -26.0206  -38.2875   24.1416 H   0  0  0  0  0  0
  -29.9276  -16.3830   23.1696 H   0  0  0  0  0  0
  -24.5887  -20.2572   20.8518 H   0  0  0  0  0  0
  -25.5952  -19.4984   19.6455 H   0  0  0  0  0  0
  -25.6871  -21.2357   19.9008 H   0  0  0  0  0  0
  -27.7218  -18.8559   25.5652 H   0  0  0  0  0  0
  -28.1359  -17.2873   24.8975 H   0  0  0  0  0  0
  -26.8878  -18.2668   24.1280 H   0  0  0  0  0  0
  -26.4780  -19.0441   21.8529 H   0  0  0  0  0  0
  -26.5540  -20.7187   22.3044 H   0  0  0  0  0  0
  -29.2579  -24.1057   21.9661 H   0  0  0  0  0  0
  -29.7687  -24.2431   20.3107 H   0  0  0  0  0  0
  -29.0960  -21.5567   22.2148 H   0  0  0  0  0  0
  -29.8767  -21.3638   20.6762 H   0  0  0  0  0  0
  -29.8843  -18.9935   24.3052 H   0  0  0  0  0  0
  -28.6515  -20.0075   23.5938 H   0  0  0  0  0  0
  -27.4426  -25.4762   21.7836 H   0  0  0  0  0  0
  -27.0562  -24.8720   20.2278 H   0  0  0  0  0  0
  -28.0403  -20.0207   19.8115 H   0  0  0  0  0  0
  -27.2060  -22.7537   21.0804 H   0  0  0  0  0  0
  -29.0411  -17.9831   19.3605 H   0  0  0  0  0  0
  -29.3617  -15.4298   19.3978 H   0  0  0  0  0  0
  -27.3375  -22.0892   19.0163 H   0  0  0  0  0  0
  1 25  1  0  0  0
  1 30  2  0  0  0
  1 85  1  0  0  0
  2  3  1  0  0  0
  2 25  1  0  0  0
  2 87  1  0  0  0
  2 88  1  0  0  0
  3  4  1  0  0  0
  3 89  1  0  0  0
  3 90  1  0  0  0
  4  5  1  0  0  0
  4 91  1  0  0  0
  4 92  1  0  0  0
  5  6  1  0  0  0
  5 26  1  0  0  0
  5 93  1  0  0  0
  6 25  1  0  0  0
  6 94  1  0  0  0
  6 95  1  0  0  0
  7  8  2  0  0  0
  7 26  1  0  0  0
  7 29  1  0  0  0
  8  9  1  0  0  0
  8 22  1  0  0  0
  9 10  1  0  0  0
  9 27  2  0  0  0
 10 11  2  0  0  0
 10 15  1  0  0  0
 11 12  1  0  0  0
 11 96  1  0  0  0
 12 13  2  0  0  0
 12 97  1  0  0  0
 13 14  1  0  0  0
 13 31  1  0  0  0
 14 15  2  0  0  0
 14 98  1  0  0  0
 15 99  1  0  0  0
 16 17  2  0  0  0
 16 21  1  0  0  0
 16 31  1  0  0  0
 17 18  1  0  0  0
 17100  1  0  0  0
 18 19  2  0  0  0
 18101  1  0  0  0
 19 20  1  0  0  0
 19 24  1  0  0  0
 20 21  2  0  0  0
 20102  1  0  0  0
 21 23  1  0  0  0
 22 28  1  0  0  0
 22 32  2  0  0  0
 26 27  1  0  0  0
 28103  1  0  0  0
 28104  1  0  0  0
 29105  1  0  0  0
 29106  1  0  0  0
 33 34  1  0  0  0
 33 66  1  0  0  0
 33 70  2  0  0  0
 34 36  1  0  0  0
 34 59  1  0  0  0
 34107  1  0  0  0
 35 44  2  0  0  0
 35 45  1  0  0  0
 35 68  1  0  0  0
 36 56  1  0  0  0
 36108  1  0  0  0
 37 39  1  0  0  0
 37 47  1  0  0  0
 37 66  1  0  0  0
 37109  1  0  0  0
 38 43  2  0  0  0
 38 46  1  0  0  0
 38 47  1  0  0  0
 39 64  1  0  0  0
 39 67  2  0  0  0
 40 52  1  0  0  0
 40 53  2  0  0  0
 40 58  1  0  0  0
 41110  1  0  0  0
 41111  1  0  0  0
 41112  1  0  0  0
 41 48  1  0  0  0
 42 43  1  0  0  0
 42 66  1  0  0  0
 42113  1  0  0  0
 42114  1  0  0  0
 43 44  1  0  0  0
 44115  1  0  0  0
 45 46  2  0  0  0
 45116  1  0  0  0
 46117  1  0  0  0
 47118  1  0  0  0
 47119  1  0  0  0
 48 56  1  0  0  0
 48 65  1  0  0  0
 48120  1  0  0  0
 49 50  1  0  0  0
 49 53  1  0  0  0
 49 64  1  0  0  0
 49121  1  0  0  0
 50 51  1  0  0  0
 50122  1  0  0  0
 50123  1  0  0  0
 51 52  1  0  0  0
 51124  1  0  0  0
 51125  1  0  0  0
 52126  1  0  0  0
 52127  1  0  0  0
 53 54  1  0  0  0
 54 55  2  0  0  0
 54128  1  0  0  0
 55 57  1  0  0  0
 55129  1  0  0  0
 56 69  2  0  0  0
 57 58  2  0  0  0
 57130  1  0  0  0
 58131  1  0  0  0
 59 60  1  0  0  0
 59 61  1  0  0  0
 59 62  1  0  0  0
 60132  1  0  0  0
 60133  1  0  0  0
 60134  1  0  0  0
 61135  1  0  0  0
 61136  1  0  0  0
 61137  1  0  0  0
 62138  1  0  0  0
 62139  1  0  0  0
 62140  1  0  0  0
 63 65  1  0  0  0
 63141  1  0  0  0
 63142  1  0  0  0
 63143  1  0  0  0
 64144  1  0  0  0
 65145  1  0  0  0
 68 80  1  0  0  0
 71 72  2  0  0  0
 71 83  1  0  0  0
 71146  1  0  0  0
 72 84  1  0  0  0
 72 85  1  0  0  0
 73 81  1  0  0  0
 73 83  1  0  0  0
 73 84  2  0  0  0
 74 76  1  0  0  0
 74147  1  0  0  0
 74148  1  0  0  0
 74149  1  0  0  0
 75 79  1  0  0  0
 75150  1  0  0  0
 75151  1  0  0  0
 75152  1  0  0  0
 76153  1  0  0  0
 76154  1  0  0  0
 76 81  1  0  0  0
 77 80  1  0  0  0
 77 82  1  0  0  0
 77155  1  0  0  0
 77156  1  0  0  0
 78 81  1  0  0  0
 78 82  1  0  0  0
 78157  1  0  0  0
 78158  1  0  0  0
 79 83  1  0  0  0
 79159  1  0  0  0
 79160  1  0  0  0
 80161  1  0  0  0
 80162  1  0  0  0
 81163  1  0  0  0
 82 86  1  0  0  0
 82164  1  0  0  0
 84165  1  0  0  0
 85166  1  0  0  0
 86167  1  0  0  0
M  CHG  1  84   1
M  ISO  4   1 100  68 101  80 101  85 100
M  END
> <chiral flag>
0

> <version>
0

> <s_m_source_file>
/data/baiqing/PycharmProjects/Reinvent-master-3.2/result/LINK_invent/BTK/process_docking_weight1_custom_product_contain_oxygen_bond_distance_aromatic_linkinvent_7_9_3/rearranged_h_0191.sdf

> <i_m_source_file_index>
38

> <r_mmod_Potential_Energy-OPLS-2005>
44.7599792480469

> <r_mmod_Stretch_Energy-OPLS-2005>
43.0801239013672

> <r_mmod_Bend_Energy-OPLS-2005>
129.001068115234

> <r_mmod_Torsional_Energy-OPLS-2005>
346.395812988281

> <r_mmod_Improper_Torsional_Energy-OPLS-2005>
23.8623275756836

> <r_mmod_Van_der_Waal_Energy-OPLS-2005>
126.963874816895

> <r_mmod_Electrostatic_Energy-OPLS-2005>
-204.808776855469

> <r_mmod_Solvation_Energy-OPLS-2005>
-454.317138671875

> <b_mmod_Minimization_Converged-OPLS-2005>
0

> <r_mmod_RMS_Derivative-OPLS-2005>
8.36042499542236

$$$$
40
                    3D
 Structure written by MMmdl.
157165  0  0  1  0            999 V2000
  -30.6413  -14.5218   20.5803 C   0  0  0  0  0  0
  -30.4214  -12.3392   19.4247 C   0  0  0  0  0  0
  -29.4957  -12.5329   18.2056 C   0  0  0  0  0  0
  -28.0144  -12.3777   18.6077 C   0  0  0  0  0  0
  -27.6524  -13.2060   19.8707 C   0  0  2  0  0  0
  -28.6894  -12.9900   20.9923 C   0  0  0  0  0  0
  -25.2549  -13.8153   20.5661 C   0  0  0  0  0  0
  -24.1811  -13.0427   20.9176 C   0  0  0  0  0  0
  -24.6380  -11.6888   20.8734 C   0  0  0  0  0  0
  -23.9064  -10.4286   21.0410 C   0  0  0  0  0  0
  -24.3608   -9.4204   21.9198 C   0  0  0  0  0  0
  -23.6295   -8.2243   22.0772 C   0  0  0  0  0  0
  -22.4288   -8.0279   21.3544 C   0  0  0  0  0  0
  -21.9940   -9.0237   20.4624 C   0  0  0  0  0  0
  -22.7258  -10.2118   20.3035 C   0  0  0  0  0  0
  -21.6846   -6.0746   22.5285 C   0  0  0  0  0  0
  -21.4000   -6.5649   23.8209 C   0  0  0  0  0  0
  -21.3659   -5.6801   24.9179 C   0  0  0  0  0  0
  -21.6046   -4.3066   24.7231 C   0  0  0  0  0  0
  -21.8811   -3.8163   23.4347 C   0  0  0  0  0  0
  -21.9189   -4.6976   22.3402 C   0  0  0  0  0  0
  -22.7840  -13.5215   21.1847 C   0  0  0  0  0  0
  -22.1656   -4.2168   21.0971 F   0  0  0  0  0  0
  -21.5634   -3.4543   25.7745 F   0  0  0  0  0  0
  -30.0097  -13.3209   20.4409 N   0  0  0  0  0  0
  -26.2960  -12.9310   20.3318 N   0  0  0  0  0  0
  -25.9292  -11.6469   20.5737 N   0  0  0  0  0  0
  -22.0468  -12.8163   22.0345 N   0  0  0  0  0  0
  -25.4282  -15.1875   20.4045 N   0  0  0  0  0  0
  -31.8002  -14.6991   20.1857 O   0  0  0  0  0  0
  -21.6625   -6.8898   21.4251 O   0  0  0  0  0  0
  -22.3533  -14.5565   20.6744 O   0  0  0  0  0  0
  -24.6132  -31.8676   23.2056 C   0  0  0  0  0  0
  -25.9028  -32.4815   23.8378 C   0  0  1  0  0  0
  -27.2417  -27.4092   20.1383 C   0  0  0  0  0  0
  -25.5878  -33.8618   24.2299 N   0  0  0  0  0  0
  -23.4021  -30.4853   21.5460 C   0  0  2  0  0  0
  -24.8541  -28.9459   20.1110 C   0  0  0  0  0  0
  -22.7390  -29.4659   22.5000 C   0  0  0  0  0  0
  -18.0239  -28.1361   22.8508 C   0  0  0  0  0  0
  -24.1463  -36.7317   23.2651 C   0  0  0  0  0  0
  -25.9284  -30.8292   21.3602 C   0  0  0  0  0  0
  -26.0077  -29.4603   20.7121 C   0  0  0  0  0  0
  -27.1993  -28.7016   20.7161 C   0  0  0  0  0  0
  -26.0725  -26.9112   19.5215 C   0  0  0  0  0  0
  -24.8870  -27.6756   19.5038 C   0  0  0  0  0  0
  -23.6119  -29.8098   20.1608 C   0  0  0  0  0  0
  -25.4105  -36.3110   24.0315 C   0  0  1  0  0  0
  -20.5833  -28.3677   23.1297 C   0  0  2  0  0  0
  -20.6749  -26.9414   22.5409 C   0  0  0  0  0  0
  -19.5712  -26.6367   21.5225 C   0  0  0  0  0  0
  -18.1880  -26.7905   22.1616 C   0  0  0  0  0  0
  -19.1496  -28.8833   23.2885 C   0  0  0  0  0  0
  -18.9438  -30.1443   23.8892 C   0  0  0  0  0  0
  -17.6452  -30.6588   24.0557 C   0  0  0  0  0  0
  -25.9041  -34.9478   23.5113 C   0  0  0  0  0  0
  -16.5343  -29.9096   23.6338 C   0  0  0  0  0  0
  -16.7234  -28.6492   23.0387 C   0  0  0  0  0  0
  -26.4468  -31.6620   25.0732 C   0  0  0  0  0  0
  -25.3717  -31.3601   26.1440 C   0  0  0  0  0  0
  -27.0451  -30.3126   24.6115 C   0  0  0  0  0  0
  -27.5947  -32.4440   25.7565 C   0  0  0  0  0  0
  -27.5552  -37.1847   24.8447 C   0  0  0  0  0  0
  -21.4121  -29.3045   22.3725 N   0  0  0  0  0  0
  -26.4268  -37.3817   23.9392 N   0  0  0  0  0  0
  -24.6657  -31.0763   22.0957 N   0  0  0  0  0  0
  -23.4158  -28.8231   23.3069 O   0  0  0  0  0  0
  -28.4342  -26.7128   20.2237 O   0  0  0  0  0  0
  -26.5618  -34.8922   22.4693 O   0  0  0  0  0  0
  -23.5322  -32.1453   23.7439 O   0  0  0  0  0  0
  -29.4349  -18.0510   20.7728 C   0  0  0  0  0  0
  -30.1900  -16.9053   21.2490 C   0  0  0  0  0  0
  -30.0595  -19.2409   21.0883 C   0  0  0  0  0  0
  -28.6609  -24.6986   22.2883 C   0  0  0  0  0  0
  -28.3542  -21.3916   22.4138 C   0  0  0  0  0  0
  -29.1782  -22.9305   20.4904 C   0  0  0  0  0  0
  -28.5873  -25.3414   19.8078 C   0  0  0  0  0  0
  -28.3306  -24.2028   20.8603 C   0  0  2  0  0  0
  -28.7799  -21.4765   20.9434 C   0  0  1  0  0  0
  -31.2339  -17.1824   22.0069 N   0  0  0  0  0  0
  -29.8326  -15.5499   20.9517 N   0  0  0  0  0  0
  -29.9065  -20.5732   20.6424 N   0  0  0  0  0  0
  -31.4284  -18.8504   22.0848 S   0  0  0  0  0  0
  -31.4672  -12.4529   19.1337 H   0  0  0  0  0  0
  -30.3295  -11.3244   19.8178 H   0  0  0  0  0  0
  -29.7504  -11.8297   17.4120 H   0  0  0  0  0  0
  -29.6524  -13.5293   17.7888 H   0  0  0  0  0  0
  -27.8261  -11.3201   18.7888 H   0  0  0  0  0  0
  -27.3704  -12.6644   17.7754 H   0  0  0  0  0  0
  -27.6907  -14.2537   19.5717 H   0  0  0  0  0  0
  -28.6780  -11.9507   21.3229 H   0  0  0  0  0  0
  -28.4488  -13.5826   21.8766 H   0  0  0  0  0  0
  -25.2743   -9.5679   22.4786 H   0  0  0  0  0  0
  -23.9990   -7.4643   22.7502 H   0  0  0  0  0  0
  -21.0888   -8.8738   19.8913 H   0  0  0  0  0  0
  -22.3741  -10.9642   19.6124 H   0  0  0  0  0  0
  -21.1983   -7.6152   23.9733 H   0  0  0  0  0  0
  -21.1487   -6.0523   25.9079 H   0  0  0  0  0  0
  -22.0596   -2.7632   23.2842 H   0  0  0  0  0  0
  -22.4052  -11.9733   22.4601 H   0  0  0  0  0  0
  -21.1073  -13.1154   22.2566 H   0  0  0  0  0  0
  -24.6557  -15.8388   20.4867 H   0  0  0  0  0  0
  -26.2684  -15.6234   20.0497 H   0  0  0  0  0  0
  -26.7102  -32.5526   23.1141 H   0  0  0  0  0  0
  -25.0059  -33.9810   25.0458 H   0  0  0  0  0  0
  -22.6891  -31.2996   21.4015 H   0  0  0  0  0  0
  -23.3724  -35.9651   23.3295 H   0  0  0  0  0  0
  -24.3533  -36.8995   22.2071 H   0  0  0  0  0  0
  -23.7216  -37.6499   23.6720 H   0  0  0  0  0  0
  -26.0407  -31.5939   20.5912 H   0  0  0  0  0  0
  -26.8147  -30.8858   21.9801 H   0  0  0  0  0  0
  -28.0904  -29.0966   21.1835 H   0  0  0  0  0  0
  -26.0516  -25.9338   19.0647 H   0  0  0  0  0  0
  -23.9998  -27.2766   19.0327 H   0  0  0  0  0  0
  -23.7127  -30.5823   19.3972 H   0  0  0  0  0  0
  -22.7366  -29.2275   19.8662 H   0  0  0  0  0  0
  -25.1298  -36.1971   25.0808 H   0  0  0  0  0  0
  -20.9926  -28.3256   24.1415 H   0  0  0  0  0  0
  -20.5697  -26.2301   23.3614 H   0  0  0  0  0  0
  -21.6618  -26.7476   22.1188 H   0  0  0  0  0  0
  -19.6903  -25.6283   21.1251 H   0  0  0  0  0  0
  -19.6614  -27.3187   20.6766 H   0  0  0  0  0  0
  -17.4174  -26.6681   21.3981 H   0  0  0  0  0  0
  -18.0225  -26.0008   22.8962 H   0  0  0  0  0  0
  -19.7925  -30.7244   24.2260 H   0  0  0  0  0  0
  -17.5015  -31.6269   24.5166 H   0  0  0  0  0  0
  -15.5353  -30.3020   23.7661 H   0  0  0  0  0  0
  -15.8611  -28.0830   22.7140 H   0  0  0  0  0  0
  -24.5890  -30.6995   25.7676 H   0  0  0  0  0  0
  -24.8906  -32.2712   26.5014 H   0  0  0  0  0  0
  -25.8066  -30.8629   27.0125 H   0  0  0  0  0  0
  -26.3082  -29.6778   24.1183 H   0  0  0  0  0  0
  -27.4331  -29.7441   25.4578 H   0  0  0  0  0  0
  -27.8798  -30.4555   23.9245 H   0  0  0  0  0  0
  -27.2491  -33.3790   26.1986 H   0  0  0  0  0  0
  -28.3848  -32.6956   25.0479 H   0  0  0  0  0  0
  -28.0493  -31.8686   26.5635 H   0  0  0  0  0  0
  -28.2507  -38.0200   24.7605 H   0  0  0  0  0  0
  -28.1122  -36.2744   24.6197 H   0  0  0  0  0  0
  -27.2250  -37.1397   25.8833 H   0  0  0  0  0  0
  -20.9313  -29.8793   21.6944 H   0  0  0  0  0  0
  -26.0125  -38.2887   24.1392 H   0  0  0  0  0  0
  -28.5570  -17.9574   20.1510 H   0  0  0  0  0  0
  -28.4694  -23.9513   23.0555 H   0  0  0  0  0  0
  -28.0577  -25.5671   22.5521 H   0  0  0  0  0  0
  -29.7082  -24.9864   22.3802 H   0  0  0  0  0  0
  -27.4774  -22.0151   22.5928 H   0  0  0  0  0  0
  -29.1482  -21.7192   23.0852 H   0  0  0  0  0  0
  -28.0687  -20.3776   22.6956 H   0  0  0  0  0  0
  -30.1976  -23.1345   20.8222 H   0  0  0  0  0  0
  -29.2410  -22.8948   19.4015 H   0  0  0  0  0  0
  -28.0659  -25.1344   18.8744 H   0  0  0  0  0  0
  -29.6447  -25.2939   19.5438 H   0  0  0  0  0  0
  -27.2694  -23.9532   20.8258 H   0  0  0  0  0  0
  -27.9289  -21.1611   20.3360 H   0  0  0  0  0  0
  -28.8533  -15.3255   21.0154 H   0  0  0  0  0  0
  -30.8011  -21.0562   20.6767 H   0  0  0  0  0  0
  1 25  1  0  0  0
  1 30  2  0  0  0
  1 81  1  0  0  0
  2  3  1  0  0  0
  2 25  1  0  0  0
  2 84  1  0  0  0
  2 85  1  0  0  0
  3  4  1  0  0  0
  3 86  1  0  0  0
  3 87  1  0  0  0
  4  5  1  0  0  0
  4 88  1  0  0  0
  4 89  1  0  0  0
  5  6  1  0  0  0
  5 26  1  0  0  0
  5 90  1  0  0  0
  6 25  1  0  0  0
  6 91  1  0  0  0
  6 92  1  0  0  0
  7  8  2  0  0  0
  7 26  1  0  0  0
  7 29  1  0  0  0
  8  9  1  0  0  0
  8 22  1  0  0  0
  9 10  1  0  0  0
  9 27  2  0  0  0
 10 11  2  0  0  0
 10 15  1  0  0  0
 11 12  1  0  0  0
 11 93  1  0  0  0
 12 13  2  0  0  0
 12 94  1  0  0  0
 13 14  1  0  0  0
 13 31  1  0  0  0
 14 15  2  0  0  0
 14 95  1  0  0  0
 15 96  1  0  0  0
 16 17  2  0  0  0
 16 21  1  0  0  0
 16 31  1  0  0  0
 17 18  1  0  0  0
 17 97  1  0  0  0
 18 19  2  0  0  0
 18 98  1  0  0  0
 19 20  1  0  0  0
 19 24  1  0  0  0
 20 21  2  0  0  0
 20 99  1  0  0  0
 21 23  1  0  0  0
 22 28  1  0  0  0
 22 32  2  0  0  0
 26 27  1  0  0  0
 28100  1  0  0  0
 28101  1  0  0  0
 29102  1  0  0  0
 29103  1  0  0  0
 33 34  1  0  0  0
 33 66  1  0  0  0
 33 70  2  0  0  0
 34 36  1  0  0  0
 34 59  1  0  0  0
 34104  1  0  0  0
 35 44  2  0  0  0
 35 45  1  0  0  0
 35 68  1  0  0  0
 36 56  1  0  0  0
 36105  1  0  0  0
 37 39  1  0  0  0
 37 47  1  0  0  0
 37 66  1  0  0  0
 37106  1  0  0  0
 38 43  2  0  0  0
 38 46  1  0  0  0
 38 47  1  0  0  0
 39 64  1  0  0  0
 39 67  2  0  0  0
 40 52  1  0  0  0
 40 53  2  0  0  0
 40 58  1  0  0  0
 41107  1  0  0  0
 41108  1  0  0  0
 41109  1  0  0  0
 41 48  1  0  0  0
 42 43  1  0  0  0
 42 66  1  0  0  0
 42110  1  0  0  0
 42111  1  0  0  0
 43 44  1  0  0  0
 44112  1  0  0  0
 45 46  2  0  0  0
 45113  1  0  0  0
 46114  1  0  0  0
 47115  1  0  0  0
 47116  1  0  0  0
 48 56  1  0  0  0
 48 65  1  0  0  0
 48117  1  0  0  0
 49 50  1  0  0  0
 49 53  1  0  0  0
 49 64  1  0  0  0
 49118  1  0  0  0
 50 51  1  0  0  0
 50119  1  0  0  0
 50120  1  0  0  0
 51 52  1  0  0  0
 51121  1  0  0  0
 51122  1  0  0  0
 52123  1  0  0  0
 52124  1  0  0  0
 53 54  1  0  0  0
 54 55  2  0  0  0
 54125  1  0  0  0
 55 57  1  0  0  0
 55126  1  0  0  0
 56 69  2  0  0  0
 57 58  2  0  0  0
 57127  1  0  0  0
 58128  1  0  0  0
 59 60  1  0  0  0
 59 61  1  0  0  0
 59 62  1  0  0  0
 60129  1  0  0  0
 60130  1  0  0  0
 60131  1  0  0  0
 61132  1  0  0  0
 61133  1  0  0  0
 61134  1  0  0  0
 62135  1  0  0  0
 62136  1  0  0  0
 62137  1  0  0  0
 63 65  1  0  0  0
 63138  1  0  0  0
 63139  1  0  0  0
 63140  1  0  0  0
 64141  1  0  0  0
 65142  1  0  0  0
 68 77  1  0  0  0
 71 72  1  0  0  0
 71 73  2  0  0  0
 71143  1  0  0  0
 72 80  2  0  0  0
 72 81  1  0  0  0
 73 82  1  0  0  0
 73 83  1  0  0  0
 74144  1  0  0  0
 74145  1  0  0  0
 74146  1  0  0  0
 74 78  1  0  0  0
 75147  1  0  0  0
 75148  1  0  0  0
 75149  1  0  0  0
 75 79  1  0  0  0
 76 78  1  0  0  0
 76 79  1  0  0  0
 76150  1  0  0  0
 76151  1  0  0  0
 77 78  1  0  0  0
 77152  1  0  0  0
 77153  1  0  0  0
 78154  1  0  0  0
 79 82  1  0  0  0
 79155  1  0  0  0
 80 83  1  0  0  0
 81156  1  0  0  0
 82157  1  0  0  0
M  ISO  4   1 100  68 101  77 101  81 100
M  END
> <chiral flag>
0

> <version>
0

> <s_m_source_file>
/data/baiqing/PycharmProjects/Reinvent-master-3.2/result/LINK_invent/BTK/process_docking_weight1_custom_product_contain_oxygen_bond_distance_aromatic_linkinvent_7_9_3/rearranged_h_0191.sdf

> <i_m_source_file_index>
39

> <r_mmod_Potential_Energy-OPLS-2005>
-20.8224792480469

> <r_mmod_Stretch_Energy-OPLS-2005>
45.5860176086426

> <r_mmod_Bend_Energy-OPLS-2005>
143.075820922852

> <r_mmod_Torsional_Energy-OPLS-2005>
244.40559387207

> <r_mmod_Improper_Torsional_Energy-OPLS-2005>
9.78815174102783

> <r_mmod_Van_der_Waal_Energy-OPLS-2005>
125.13941192627

> <r_mmod_Electrostatic_Energy-OPLS-2005>
-380.559967041016

> <r_mmod_Solvation_Energy-OPLS-2005>
-229.619125366211

> <b_mmod_Minimization_Converged-OPLS-2005>
0

> <r_mmod_RMS_Derivative-OPLS-2005>
3.6564028263092

$$$$
41
                    3D
 Structure written by MMmdl.
158166  0  0  1  0            999 V2000
  -30.7016  -14.4095   20.6181 C   0  0  0  0  0  0
  -30.4297  -12.2834   19.4020 C   0  0  0  0  0  0
  -29.4969  -12.5143   18.1960 C   0  0  0  0  0  0
  -28.0205  -12.3703   18.6104 C   0  0  0  0  0  0
  -27.6689  -13.1925   19.8785 C   0  0  2  0  0  0
  -28.7059  -12.9230   20.9916 C   0  0  0  0  0  0
  -25.2625  -13.8126   20.5620 C   0  0  0  0  0  0
  -24.1846  -13.0426   20.9107 C   0  0  0  0  0  0
  -24.6389  -11.6888   20.8711 C   0  0  0  0  0  0
  -23.9056  -10.4291   21.0402 C   0  0  0  0  0  0
  -24.3609   -9.4212   21.9184 C   0  0  0  0  0  0
  -23.6269   -8.2260   22.0773 C   0  0  0  0  0  0
  -22.4250   -8.0298   21.3564 C   0  0  0  0  0  0
  -21.9884   -9.0272   20.4668 C   0  0  0  0  0  0
  -22.7230  -10.2134   20.3058 C   0  0  0  0  0  0
  -21.6859   -6.0736   22.5289 C   0  0  0  0  0  0
  -21.4023   -6.5645   23.8219 C   0  0  0  0  0  0
  -21.3648   -5.6795   24.9175 C   0  0  0  0  0  0
  -21.6022   -4.3057   24.7221 C   0  0  0  0  0  0
  -21.8816   -3.8140   23.4351 C   0  0  0  0  0  0
  -21.9185   -4.6957   22.3407 C   0  0  0  0  0  0
  -22.7879  -13.5267   21.1802 C   0  0  0  0  0  0
  -22.1644   -4.2138   21.0982 F   0  0  0  0  0  0
  -21.5626   -3.4543   25.7739 F   0  0  0  0  0  0
  -30.0428  -13.2341   20.4538 N   0  0  0  0  0  0
  -26.3045  -12.9262   20.3320 N   0  0  0  0  0  0
  -25.9305  -11.6441   20.5711 N   0  0  0  0  0  0
  -22.0487  -12.8302   22.0359 N   0  0  0  0  0  0
  -25.4367  -15.1853   20.4106 N   0  0  0  0  0  0
  -31.8029  -14.6425   20.1102 O   0  0  0  0  0  0
  -21.6631   -6.8880   21.4253 O   0  0  0  0  0  0
  -22.3596  -14.5594   20.6688 O   0  0  0  0  0  0
  -24.6136  -31.8717   23.2143 C   0  0  0  0  0  0
  -25.9050  -32.4839   23.8408 C   0  0  1  0  0  0
  -27.2349  -27.4603   20.0868 C   0  0  0  0  0  0
  -25.5965  -33.8643   24.2323 N   0  0  0  0  0  0
  -23.3994  -30.4966   21.5555 C   0  0  2  0  0  0
  -24.8442  -28.9675   20.1135 C   0  0  0  0  0  0
  -22.7380  -29.4715   22.5028 C   0  0  0  0  0  0
  -18.0253  -28.1372   22.8495 C   0  0  0  0  0  0
  -24.1457  -36.7324   23.2622 C   0  0  0  0  0  0
  -25.9252  -30.8457   21.3602 C   0  0  0  0  0  0
  -26.0034  -29.4834   20.7056 C   0  0  0  0  0  0
  -27.2025  -28.7360   20.6881 C   0  0  0  0  0  0
  -26.0593  -26.9629   19.4769 C   0  0  0  0  0  0
  -24.8650  -27.7054   19.4975 C   0  0  0  0  0  0
  -23.6022  -29.8279   20.1700 C   0  0  0  0  0  0
  -25.4091  -36.3111   24.0297 C   0  0  1  0  0  0
  -20.5847  -28.3694   23.1312 C   0  0  2  0  0  0
  -20.6767  -26.9437   22.5406 C   0  0  0  0  0  0
  -19.5732  -26.6379   21.5224 C   0  0  0  0  0  0
  -18.1910  -26.7915   22.1632 C   0  0  0  0  0  0
  -19.1499  -28.8842   23.2902 C   0  0  0  0  0  0
  -18.9418  -30.1441   23.8922 C   0  0  0  0  0  0
  -17.6423  -30.6573   24.0585 C   0  0  0  0  0  0
  -25.9054  -34.9486   23.5074 C   0  0  0  0  0  0
  -16.5311  -29.9064   23.6368 C   0  0  0  0  0  0
  -16.7244  -28.6491   23.0364 C   0  0  0  0  0  0
  -26.4469  -31.6590   25.0715 C   0  0  0  0  0  0
  -25.3769  -31.3754   26.1513 C   0  0  0  0  0  0
  -27.0174  -30.2995   24.6079 C   0  0  0  0  0  0
  -27.6095  -32.4280   25.7460 C   0  0  0  0  0  0
  -27.5530  -37.1839   24.8469 C   0  0  0  0  0  0
  -21.4105  -29.3101   22.3765 N   0  0  0  0  0  0
  -26.4259  -37.3794   23.9385 N   0  0  0  0  0  0
  -24.6645  -31.0868   22.1030 N   0  0  0  0  0  0
  -23.4159  -28.8225   23.3046 O   0  0  0  0  0  0
  -28.4044  -26.7280   20.1136 O   0  0  0  0  0  0
  -26.5570  -34.8924   22.4608 O   0  0  0  0  0  0
  -23.5339  -32.1429   23.7584 O   0  0  0  0  0  0
  -29.5087  -18.8172   20.9831 C   0  0  0  0  0  0
  -30.1822  -16.7259   21.2124 C   0  0  0  0  0  0
  -28.2324  -22.3203   21.3469 C   0  0  0  0  0  0
  -30.0409  -25.7526   22.1000 C   0  0  0  0  0  0
  -28.5020  -19.9338   20.7663 C   0  0  0  0  0  0
  -28.2556  -25.3128   20.2849 C   0  0  0  0  0  0
  -28.7732  -23.5261   22.1347 C   0  0  1  0  0  0
  -29.3175  -24.6916   21.2380 C   0  0  2  0  0  0
  -29.1275  -17.5315   21.1257 N   0  0  0  0  0  0
  -30.8384  -19.0544   21.0343 N   0  0  0  0  0  0
  -30.0017  -15.3323   21.2925 N   0  0  0  0  0  0
  -28.9082  -21.1682   21.4266 N   0  0  0  0  0  0
  -27.7205  -23.9872   23.0563 N   0  3  0  0  0  0
  -27.1808  -22.4230   20.7113 O   0  0  0  0  0  0
  -31.6835  -17.5966   21.1957 S   0  0  0  0  0  0
  -31.4758  -12.3871   19.1051 H   0  0  0  0  0  0
  -30.3293  -11.2602   19.7706 H   0  0  0  0  0  0
  -29.7345  -11.8118   17.3973 H   0  0  0  0  0  0
  -29.6695  -13.5105   17.7855 H   0  0  0  0  0  0
  -27.8317  -11.3103   18.7983 H   0  0  0  0  0  0
  -27.3665  -12.6561   17.7871 H   0  0  0  0  0  0
  -27.7306  -14.2439   19.6029 H   0  0  0  0  0  0
  -28.6816  -11.8710   21.2801 H   0  0  0  0  0  0
  -28.4561  -13.4700   21.9023 H   0  0  0  0  0  0
  -25.2746   -9.5674   22.4774 H   0  0  0  0  0  0
  -23.9947   -7.4656   22.7519 H   0  0  0  0  0  0
  -21.0804   -8.8832   19.8994 H   0  0  0  0  0  0
  -22.3704  -10.9691   19.6189 H   0  0  0  0  0  0
  -21.2035   -7.6156   23.9724 H   0  0  0  0  0  0
  -21.1464   -6.0525   25.9081 H   0  0  0  0  0  0
  -22.0594   -2.7602   23.2868 H   0  0  0  0  0  0
  -22.4056  -11.9937   22.4742 H   0  0  0  0  0  0
  -21.1154  -13.1443   22.2610 H   0  0  0  0  0  0
  -24.6721  -15.8427   20.5260 H   0  0  0  0  0  0
  -26.3010  -15.6334   20.1324 H   0  0  0  0  0  0
  -26.7127  -32.5522   23.1189 H   0  0  0  0  0  0
  -25.0204  -33.9839   25.0509 H   0  0  0  0  0  0
  -22.6912  -31.3160   21.4212 H   0  0  0  0  0  0
  -23.3684  -35.9687   23.3299 H   0  0  0  0  0  0
  -24.3563  -36.8933   22.2044 H   0  0  0  0  0  0
  -23.7225  -37.6535   23.6627 H   0  0  0  0  0  0
  -26.0327  -31.6117   20.5922 H   0  0  0  0  0  0
  -26.8164  -30.8969   21.9746 H   0  0  0  0  0  0
  -28.0993  -29.1253   21.1484 H   0  0  0  0  0  0
  -26.0559  -26.0042   18.9790 H   0  0  0  0  0  0
  -23.9762  -27.3025   19.0317 H   0  0  0  0  0  0
  -23.7019  -30.6009   19.4072 H   0  0  0  0  0  0
  -22.7269  -29.2427   19.8823 H   0  0  0  0  0  0
  -25.1254  -36.1968   25.0788 H   0  0  0  0  0  0
  -20.9947  -28.3259   24.1424 H   0  0  0  0  0  0
  -20.5688  -26.2286   23.3571 H   0  0  0  0  0  0
  -21.6638  -26.7527   22.1188 H   0  0  0  0  0  0
  -19.6897  -25.6283   21.1271 H   0  0  0  0  0  0
  -19.6642  -27.3192   20.6761 H   0  0  0  0  0  0
  -17.4180  -26.6638   21.4031 H   0  0  0  0  0  0
  -18.0321  -26.0055   22.9039 H   0  0  0  0  0  0
  -19.7891  -30.7257   24.2285 H   0  0  0  0  0  0
  -17.4981  -31.6250   24.5188 H   0  0  0  0  0  0
  -15.5305  -30.2972   23.7666 H   0  0  0  0  0  0
  -15.8646  -28.0822   22.7055 H   0  0  0  0  0  0
  -24.5907  -30.7099   25.7934 H   0  0  0  0  0  0
  -24.9018  -32.2945   26.4983 H   0  0  0  0  0  0
  -25.8169  -30.8976   27.0264 H   0  0  0  0  0  0
  -26.2652  -29.6882   24.1074 H   0  0  0  0  0  0
  -27.3761  -29.7155   25.4562 H   0  0  0  0  0  0
  -27.8615  -30.4180   23.9290 H   0  0  0  0  0  0
  -27.2738  -33.3516   26.2229 H   0  0  0  0  0  0
  -28.3802  -32.6917   25.0215 H   0  0  0  0  0  0
  -28.0839  -31.8290   26.5237 H   0  0  0  0  0  0
  -28.2582  -38.0086   24.7418 H   0  0  0  0  0  0
  -28.0932  -36.2604   24.6347 H   0  0  0  0  0  0
  -27.2255  -37.1594   25.8875 H   0  0  0  0  0  0
  -20.9257  -29.8866   21.7029 H   0  0  0  0  0  0
  -26.0116  -38.2845   24.1410 H   0  0  0  0  0  0
  -30.5770  -26.4695   21.4743 H   0  0  0  0  0  0
  -30.7759  -25.2920   22.7618 H   0  0  0  0  0  0
  -29.3417  -26.3160   22.7190 H   0  0  0  0  0  0
  -27.5200  -19.6191   21.1268 H   0  0  0  0  0  0
  -28.4045  -20.1016   19.6934 H   0  0  0  0  0  0
  -28.2975  -24.8289   19.3065 H   0  0  0  0  0  0
  -27.2697  -25.0862   20.6870 H   0  0  0  0  0  0
  -29.5949  -23.1657   22.7578 H   0  0  0  0  0  0
  -30.0907  -24.2647   20.5958 H   0  0  0  0  0  0
  -29.1033  -15.0217   21.6232 H   0  0  0  0  0  0
  -29.7536  -21.1161   21.9832 H   0  0  0  0  0  0
  -26.9052  -24.2580   22.5332 H   0  0  0  0  0  0
  -28.0348  -24.7513   23.6235 H   0  0  0  0  0  0
  -27.4574  -23.2265   23.6573 H   0  0  0  0  0  0
  1 25  1  0  0  0
  1 30  2  0  0  0
  1 81  1  0  0  0
  2  3  1  0  0  0
  2 25  1  0  0  0
  2 86  1  0  0  0
  2 87  1  0  0  0
  3  4  1  0  0  0
  3 88  1  0  0  0
  3 89  1  0  0  0
  4  5  1  0  0  0
  4 90  1  0  0  0
  4 91  1  0  0  0
  5  6  1  0  0  0
  5 26  1  0  0  0
  5 92  1  0  0  0
  6 25  1  0  0  0
  6 93  1  0  0  0
  6 94  1  0  0  0
  7  8  2  0  0  0
  7 26  1  0  0  0
  7 29  1  0  0  0
  8  9  1  0  0  0
  8 22  1  0  0  0
  9 10  1  0  0  0
  9 27  2  0  0  0
 10 11  2  0  0  0
 10 15  1  0  0  0
 11 12  1  0  0  0
 11 95  1  0  0  0
 12 13  2  0  0  0
 12 96  1  0  0  0
 13 14  1  0  0  0
 13 31  1  0  0  0
 14 15  2  0  0  0
 14 97  1  0  0  0
 15 98  1  0  0  0
 16 17  2  0  0  0
 16 21  1  0  0  0
 16 31  1  0  0  0
 17 18  1  0  0  0
 17 99  1  0  0  0
 18 19  2  0  0  0
 18100  1  0  0  0
 19 20  1  0  0  0
 19 24  1  0  0  0
 20 21  2  0  0  0
 20101  1  0  0  0
 21 23  1  0  0  0
 22 28  1  0  0  0
 22 32  2  0  0  0
 26 27  1  0  0  0
 28102  1  0  0  0
 28103  1  0  0  0
 29104  1  0  0  0
 29105  1  0  0  0
 33 34  1  0  0  0
 33 66  1  0  0  0
 33 70  2  0  0  0
 34 36  1  0  0  0
 34 59  1  0  0  0
 34106  1  0  0  0
 35 44  2  0  0  0
 35 45  1  0  0  0
 35 68  1  0  0  0
 36 56  1  0  0  0
 36107  1  0  0  0
 37 39  1  0  0  0
 37 47  1  0  0  0
 37 66  1  0  0  0
 37108  1  0  0  0
 38 43  2  0  0  0
 38 46  1  0  0  0
 38 47  1  0  0  0
 39 64  1  0  0  0
 39 67  2  0  0  0
 40 52  1  0  0  0
 40 53  2  0  0  0
 40 58  1  0  0  0
 41109  1  0  0  0
 41110  1  0  0  0
 41111  1  0  0  0
 41 48  1  0  0  0
 42 43  1  0  0  0
 42 66  1  0  0  0
 42112  1  0  0  0
 42113  1  0  0  0
 43 44  1  0  0  0
 44114  1  0  0  0
 45 46  2  0  0  0
 45115  1  0  0  0
 46116  1  0  0  0
 47117  1  0  0  0
 47118  1  0  0  0
 48 56  1  0  0  0
 48 65  1  0  0  0
 48119  1  0  0  0
 49 50  1  0  0  0
 49 53  1  0  0  0
 49 64  1  0  0  0
 49120  1  0  0  0
 50 51  1  0  0  0
 50121  1  0  0  0
 50122  1  0  0  0
 51 52  1  0  0  0
 51123  1  0  0  0
 51124  1  0  0  0
 52125  1  0  0  0
 52126  1  0  0  0
 53 54  1  0  0  0
 54 55  2  0  0  0
 54127  1  0  0  0
 55 57  1  0  0  0
 55128  1  0  0  0
 56 69  2  0  0  0
 57 58  2  0  0  0
 57129  1  0  0  0
 58130  1  0  0  0
 59 60  1  0  0  0
 59 61  1  0  0  0
 59 62  1  0  0  0
 60131  1  0  0  0
 60132  1  0  0  0
 60133  1  0  0  0
 61134  1  0  0  0
 61135  1  0  0  0
 61136  1  0  0  0
 62137  1  0  0  0
 62138  1  0  0  0
 62139  1  0  0  0
 63 65  1  0  0  0
 63140  1  0  0  0
 63141  1  0  0  0
 63142  1  0  0  0
 64143  1  0  0  0
 65144  1  0  0  0
 68 76  1  0  0  0
 71 75  1  0  0  0
 71 79  1  0  0  0
 71 80  2  0  0  0
 72 79  2  0  0  0
 72 81  1  0  0  0
 72 85  1  0  0  0
 73 77  1  0  0  0
 73 82  1  0  0  0
 73 84  2  0  0  0
 74145  1  0  0  0
 74146  1  0  0  0
 74147  1  0  0  0
 74 78  1  0  0  0
 75 82  1  0  0  0
 75148  1  0  0  0
 75149  1  0  0  0
 76 78  1  0  0  0
 76150  1  0  0  0
 76151  1  0  0  0
 77 78  1  0  0  0
 77 83  1  0  0  0
 77152  1  0  0  0
 78153  1  0  0  0
 80 85  1  0  0  0
 81154  1  0  0  0
 82155  1  0  0  0
 83156  1  0  0  0
 83157  1  0  0  0
 83158  1  0  0  0
M  CHG  1  83   1
M  ISO  4   1 100  68 101  76 101  81 100
M  END
> <chiral flag>
0

> <version>
0

> <s_m_source_file>
/data/baiqing/PycharmProjects/Reinvent-master-3.2/result/LINK_invent/BTK/process_docking_weight1_custom_product_contain_oxygen_bond_distance_aromatic_linkinvent_7_9_3/rearranged_h_0191.sdf

> <i_m_source_file_index>
40

> <r_mmod_Potential_Energy-OPLS-2005>
-555.501525878906

> <r_mmod_Stretch_Energy-OPLS-2005>
35.8127899169922

> <r_mmod_Bend_Energy-OPLS-2005>
111.297798156738

> <r_mmod_Torsional_Energy-OPLS-2005>
226.361114501953

> <r_mmod_Improper_Torsional_Energy-OPLS-2005>
3.87785243988037

> <r_mmod_Van_der_Waal_Energy-OPLS-2005>
142.425216674805

> <r_mmod_Electrostatic_Energy-OPLS-2005>
-586.573303222656

> <r_mmod_Solvation_Energy-OPLS-2005>
-498.05029296875

> <b_mmod_Minimization_Converged-OPLS-2005>
0

> <r_mmod_RMS_Derivative-OPLS-2005>
4.12147283554077

$$$$
42
                    3D
 Structure written by MMmdl.
169177  0  0  1  0            999 V2000
  -30.6801  -14.5068   20.5424 C   0  0  0  0  0  0
  -30.4232  -12.3165   19.4336 C   0  0  0  0  0  0
  -29.4995  -12.5050   18.2118 C   0  0  0  0  0  0
  -28.0194  -12.3634   18.6214 C   0  0  0  0  0  0
  -27.6593  -13.2090   19.8725 C   0  0  2  0  0  0
  -28.7000  -13.0068   20.9974 C   0  0  0  0  0  0
  -25.2583  -13.8165   20.5685 C   0  0  0  0  0  0
  -24.1835  -13.0441   20.9186 C   0  0  0  0  0  0
  -24.6391  -11.6909   20.8736 C   0  0  0  0  0  0
  -23.9062  -10.4294   21.0407 C   0  0  0  0  0  0
  -24.3617   -9.4211   21.9184 C   0  0  0  0  0  0
  -23.6293   -8.2244   22.0753 C   0  0  0  0  0  0
  -22.4274   -8.0281   21.3547 C   0  0  0  0  0  0
  -21.9910   -9.0253   20.4651 C   0  0  0  0  0  0
  -22.7236  -10.2132   20.3057 C   0  0  0  0  0  0
  -21.6854   -6.0737   22.5283 C   0  0  0  0  0  0
  -21.4011   -6.5641   23.8215 C   0  0  0  0  0  0
  -21.3658   -5.6794   24.9177 C   0  0  0  0  0  0
  -21.6047   -4.3056   24.7230 C   0  0  0  0  0  0
  -21.8817   -3.8148   23.4350 C   0  0  0  0  0  0
  -21.9191   -4.6965   22.3408 C   0  0  0  0  0  0
  -22.7860  -13.5240   21.1851 C   0  0  0  0  0  0
  -22.1662   -4.2148   21.0987 F   0  0  0  0  0  0
  -21.5629   -3.4541   25.7745 F   0  0  0  0  0  0
  -30.0292  -13.3127   20.4439 N   0  0  0  0  0  0
  -26.3012  -12.9337   20.3347 N   0  0  0  0  0  0
  -25.9316  -11.6499   20.5762 N   0  0  0  0  0  0
  -22.0498  -12.8233   22.0404 N   0  0  0  0  0  0
  -25.4314  -15.1884   20.4098 N   0  0  0  0  0  0
  -31.8284  -14.6543   20.1115 O   0  0  0  0  0  0
  -21.6643   -6.8877   21.4245 O   0  0  0  0  0  0
  -22.3556  -14.5552   20.6699 O   0  0  0  0  0  0
  -24.6158  -31.8649   23.2083 C   0  0  0  0  0  0
  -25.9045  -32.4802   23.8380 C   0  0  1  0  0  0
  -27.2358  -27.4158   20.0882 C   0  0  0  0  0  0
  -25.5901  -33.8606   24.2308 N   0  0  0  0  0  0
  -23.4040  -30.4879   21.5501 C   0  0  2  0  0  0
  -24.8474  -28.9482   20.1149 C   0  0  0  0  0  0
  -22.7409  -29.4645   22.4996 C   0  0  0  0  0  0
  -18.0266  -28.1376   22.8494 C   0  0  0  0  0  0
  -24.1487  -36.7311   23.2640 C   0  0  0  0  0  0
  -25.9335  -30.8233   21.3635 C   0  0  0  0  0  0
  -26.0077  -29.4562   20.7107 C   0  0  0  0  0  0
  -27.1988  -28.6944   20.6979 C   0  0  0  0  0  0
  -26.0506  -26.9193   19.4984 C   0  0  0  0  0  0
  -24.8643  -27.6798   19.5095 C   0  0  0  0  0  0
  -23.6100  -29.8177   20.1651 C   0  0  0  0  0  0
  -25.4113  -36.3102   24.0329 C   0  0  1  0  0  0
  -20.5855  -28.3663   23.1321 C   0  0  2  0  0  0
  -20.6761  -26.9399   22.5422 C   0  0  0  0  0  0
  -19.5739  -26.6383   21.5220 C   0  0  0  0  0  0
  -18.1919  -26.7921   22.1627 C   0  0  0  0  0  0
  -19.1515  -28.8838   23.2899 C   0  0  0  0  0  0
  -18.9442  -30.1444   23.8908 C   0  0  0  0  0  0
  -17.6443  -30.6584   24.0571 C   0  0  0  0  0  0
  -25.9039  -34.9465   23.5117 C   0  0  0  0  0  0
  -16.5335  -29.9088   23.6325 C   0  0  0  0  0  0
  -16.7255  -28.6502   23.0351 C   0  0  0  0  0  0
  -26.4471  -31.6600   25.0724 C   0  0  0  0  0  0
  -25.3729  -31.3713   26.1469 C   0  0  0  0  0  0
  -27.0295  -30.3036   24.6118 C   0  0  0  0  0  0
  -27.6051  -32.4325   25.7480 C   0  0  0  0  0  0
  -27.5579  -37.1811   24.8456 C   0  0  0  0  0  0
  -21.4136  -29.3032   22.3735 N   0  0  0  0  0  0
  -26.4291  -37.3792   23.9401 N   0  0  0  0  0  0
  -24.6696  -31.0735   22.0991 N   0  0  0  0  0  0
  -23.4173  -28.8182   23.3039 O   0  0  0  0  0  0
  -28.4260  -26.7100   20.1124 O   0  0  0  0  0  0
  -26.5606  -34.8917   22.4679 O   0  0  0  0  0  0
  -23.5348  -32.1416   23.7469 O   0  0  0  0  0  0
  -31.1420  -18.9056   20.2567 C   0  0  0  0  0  0
  -30.0019  -19.4485   20.8133 C   0  0  0  0  0  0
  -30.1193  -16.9466   20.8616 C   0  0  0  0  0  0
  -28.9886  -22.9286   19.4277 C   0  0  0  0  0  0
  -32.2871  -19.6557   19.6469 C   0  0  0  0  0  0
  -31.4155  -20.4628   23.5602 C   0  0  0  0  0  0
  -31.2031  -22.9196   23.0315 C   0  0  0  0  0  0
  -29.7894  -21.8813   24.8065 C   0  0  0  0  0  0
  -28.3708  -24.1711   20.1171 C   0  0  0  0  0  0
  -28.6714  -21.5011   19.9381 C   0  0  0  0  0  0
  -29.2962  -21.3402   22.4144 C   0  0  0  0  0  0
  -28.6083  -25.5055   19.3419 C   0  0  0  0  0  0
  -29.6966  -20.9386   20.9668 C   0  0  1  0  0  0
  -30.4345  -21.6418   23.4281 C   0  0  0  0  0  0
  -31.1979  -17.5048   20.3009 N   0  0  0  0  0  0
  -29.9318  -15.5327   21.0122 N   0  0  0  0  0  0
  -29.7429  -23.0564   18.4595 O   0  0  0  0  0  0
  -28.9286  -18.1602   21.3589 S   0  0  0  0  0  0
  -31.4696  -12.4094   19.1374 H   0  0  0  0  0  0
  -30.3203  -11.3086   19.8391 H   0  0  0  0  0  0
  -29.7447  -11.7754   17.4387 H   0  0  0  0  0  0
  -29.6668  -13.4882   17.7683 H   0  0  0  0  0  0
  -27.8338  -11.3078   18.8230 H   0  0  0  0  0  0
  -27.3693  -12.6309   17.7876 H   0  0  0  0  0  0
  -27.6975  -14.2541   19.5648 H   0  0  0  0  0  0
  -28.6804  -11.9759   21.3545 H   0  0  0  0  0  0
  -28.4608  -13.6196   21.8677 H   0  0  0  0  0  0
  -25.2762   -9.5691   22.4759 H   0  0  0  0  0  0
  -24.0009   -7.4639   22.7469 H   0  0  0  0  0  0
  -21.0840   -8.8770   19.8958 H   0  0  0  0  0  0
  -22.3695  -10.9671   19.6165 H   0  0  0  0  0  0
  -21.2000   -7.6147   23.9720 H   0  0  0  0  0  0
  -21.1482   -6.0524   25.9082 H   0  0  0  0  0  0
  -22.0597   -2.7609   23.2854 H   0  0  0  0  0  0
  -22.4100  -11.9888   22.4791 H   0  0  0  0  0  0
  -21.1115  -13.1262   22.2603 H   0  0  0  0  0  0
  -24.6626  -15.8422   20.5132 H   0  0  0  0  0  0
  -26.2786  -15.6269   20.0712 H   0  0  0  0  0  0
  -26.7115  -32.5492   23.1141 H   0  0  0  0  0  0
  -25.0057  -33.9767   25.0458 H   0  0  0  0  0  0
  -22.6947  -31.3059   21.4102 H   0  0  0  0  0  0
  -23.3741  -35.9649   23.3305 H   0  0  0  0  0  0
  -24.3582  -36.8928   22.2053 H   0  0  0  0  0  0
  -23.7243  -37.6519   23.6655 H   0  0  0  0  0  0
  -26.0489  -31.5889   20.5949 H   0  0  0  0  0  0
  -26.8210  -30.8749   21.9831 H   0  0  0  0  0  0
  -28.0954  -29.0851   21.1582 H   0  0  0  0  0  0
  -26.0161  -25.9440   19.0366 H   0  0  0  0  0  0
  -23.9680  -27.2796   19.0554 H   0  0  0  0  0  0
  -23.7170  -30.5907   19.4033 H   0  0  0  0  0  0
  -22.7338  -29.2366   19.8713 H   0  0  0  0  0  0
  -25.1296  -36.1967   25.0822 H   0  0  0  0  0  0
  -20.9948  -28.3223   24.1440 H   0  0  0  0  0  0
  -20.5674  -26.2269   23.3604 H   0  0  0  0  0  0
  -21.6630  -26.7455   22.1205 H   0  0  0  0  0  0
  -19.6903  -25.6299   21.1239 H   0  0  0  0  0  0
  -19.6677  -27.3203   20.6755 H   0  0  0  0  0  0
  -17.4192  -26.6668   21.4027 H   0  0  0  0  0  0
  -18.0317  -26.0062   22.9016 H   0  0  0  0  0  0
  -19.7916  -30.7262   24.2291 H   0  0  0  0  0  0
  -17.4993  -31.6267   24.5171 H   0  0  0  0  0  0
  -15.5336  -30.2995   23.7650 H   0  0  0  0  0  0
  -15.8647  -28.0827   22.7071 H   0  0  0  0  0  0
  -24.5907  -30.7055   25.7806 H   0  0  0  0  0  0
  -24.8911  -32.2862   26.4921 H   0  0  0  0  0  0
  -25.8075  -30.8881   27.0225 H   0  0  0  0  0  0
  -26.2834  -29.6807   24.1172 H   0  0  0  0  0  0
  -27.4045  -29.7279   25.4590 H   0  0  0  0  0  0
  -27.8680  -30.4346   23.9276 H   0  0  0  0  0  0
  -27.2683  -33.3627   26.2070 H   0  0  0  0  0  0
  -28.3852  -32.6888   25.0299 H   0  0  0  0  0  0
  -28.0723  -31.8436   26.5382 H   0  0  0  0  0  0
  -28.2609  -38.0103   24.7516 H   0  0  0  0  0  0
  -28.1067  -36.2638   24.6271 H   0  0  0  0  0  0
  -27.2293  -37.1450   25.8859 H   0  0  0  0  0  0
  -20.9299  -29.8757   21.6957 H   0  0  0  0  0  0
  -26.0175  -38.2865   24.1410 H   0  0  0  0  0  0
  -31.9433  -20.3193   18.8532 H   0  0  0  0  0  0
  -33.0270  -18.9842   19.2113 H   0  0  0  0  0  0
  -32.7995  -20.2688   20.3880 H   0  0  0  0  0  0
  -32.1233  -20.6235   24.3742 H   0  0  0  0  0  0
  -32.0037  -20.3220   22.6549 H   0  0  0  0  0  0
  -30.8894  -19.5291   23.7628 H   0  0  0  0  0  0
  -31.9472  -23.1827   23.7843 H   0  0  0  0  0  0
  -30.5319  -23.7737   22.9312 H   0  0  0  0  0  0
  -31.7372  -22.8110   22.0881 H   0  0  0  0  0  0
  -30.5368  -22.1220   25.5635 H   0  0  0  0  0  0
  -29.2514  -20.9979   25.1532 H   0  0  0  0  0  0
  -29.0771  -22.7071   24.7796 H   0  0  0  0  0  0
  -28.8224  -24.2494   21.1053 H   0  0  0  0  0  0
  -27.3049  -24.0060   20.2708 H   0  0  0  0  0  0
  -28.6831  -20.8635   19.0538 H   0  0  0  0  0  0
  -27.6553  -21.4513   20.3282 H   0  0  0  0  0  0
  -28.6203  -20.5880   22.8221 H   0  0  0  0  0  0
  -28.6836  -22.2410   22.3668 H   0  0  0  0  0  0
  -28.0491  -25.5231   18.4058 H   0  0  0  0  0  0
  -29.6531  -25.5468   19.0332 H   0  0  0  0  0  0
  -30.6277  -21.4590   20.7487 H   0  0  0  0  0  0
  -29.0370  -15.2599   21.3862 H   0  0  0  0  0  0
  1 25  1  0  0  0
  1 30  2  0  0  0
  1 86  1  0  0  0
  2  3  1  0  0  0
  2 25  1  0  0  0
  2 89  1  0  0  0
  2 90  1  0  0  0
  3  4  1  0  0  0
  3 91  1  0  0  0
  3 92  1  0  0  0
  4  5  1  0  0  0
  4 93  1  0  0  0
  4 94  1  0  0  0
  5  6  1  0  0  0
  5 26  1  0  0  0
  5 95  1  0  0  0
  6 25  1  0  0  0
  6 96  1  0  0  0
  6 97  1  0  0  0
  7  8  2  0  0  0
  7 26  1  0  0  0
  7 29  1  0  0  0
  8  9  1  0  0  0
  8 22  1  0  0  0
  9 10  1  0  0  0
  9 27  2  0  0  0
 10 11  2  0  0  0
 10 15  1  0  0  0
 11 12  1  0  0  0
 11 98  1  0  0  0
 12 13  2  0  0  0
 12 99  1  0  0  0
 13 14  1  0  0  0
 13 31  1  0  0  0
 14 15  2  0  0  0
 14100  1  0  0  0
 15101  1  0  0  0
 16 17  2  0  0  0
 16 21  1  0  0  0
 16 31  1  0  0  0
 17 18  1  0  0  0
 17102  1  0  0  0
 18 19  2  0  0  0
 18103  1  0  0  0
 19 20  1  0  0  0
 19 24  1  0  0  0
 20 21  2  0  0  0
 20104  1  0  0  0
 21 23  1  0  0  0
 22 28  1  0  0  0
 22 32  2  0  0  0
 26 27  1  0  0  0
 28105  1  0  0  0
 28106  1  0  0  0
 29107  1  0  0  0
 29108  1  0  0  0
 33 34  1  0  0  0
 33 66  1  0  0  0
 33 70  2  0  0  0
 34 36  1  0  0  0
 34 59  1  0  0  0
 34109  1  0  0  0
 35 44  2  0  0  0
 35 45  1  0  0  0
 35 68  1  0  0  0
 36 56  1  0  0  0
 36110  1  0  0  0
 37 39  1  0  0  0
 37 47  1  0  0  0
 37 66  1  0  0  0
 37111  1  0  0  0
 38 43  2  0  0  0
 38 46  1  0  0  0
 38 47  1  0  0  0
 39 64  1  0  0  0
 39 67  2  0  0  0
 40 52  1  0  0  0
 40 53  2  0  0  0
 40 58  1  0  0  0
 41112  1  0  0  0
 41113  1  0  0  0
 41114  1  0  0  0
 41 48  1  0  0  0
 42 43  1  0  0  0
 42 66  1  0  0  0
 42115  1  0  0  0
 42116  1  0  0  0
 43 44  1  0  0  0
 44117  1  0  0  0
 45 46  2  0  0  0
 45118  1  0  0  0
 46119  1  0  0  0
 47120  1  0  0  0
 47121  1  0  0  0
 48 56  1  0  0  0
 48 65  1  0  0  0
 48122  1  0  0  0
 49 50  1  0  0  0
 49 53  1  0  0  0
 49 64  1  0  0  0
 49123  1  0  0  0
 50 51  1  0  0  0
 50124  1  0  0  0
 50125  1  0  0  0
 51 52  1  0  0  0
 51126  1  0  0  0
 51127  1  0  0  0
 52128  1  0  0  0
 52129  1  0  0  0
 53 54  1  0  0  0
 54 55  2  0  0  0
 54130  1  0  0  0
 55 57  1  0  0  0
 55131  1  0  0  0
 56 69  2  0  0  0
 57 58  2  0  0  0
 57132  1  0  0  0
 58133  1  0  0  0
 59 60  1  0  0  0
 59 61  1  0  0  0
 59 62  1  0  0  0
 60134  1  0  0  0
 60135  1  0  0  0
 60136  1  0  0  0
 61137  1  0  0  0
 61138  1  0  0  0
 61139  1  0  0  0
 62140  1  0  0  0
 62141  1  0  0  0
 62142  1  0  0  0
 63 65  1  0  0  0
 63143  1  0  0  0
 63144  1  0  0  0
 63145  1  0  0  0
 64146  1  0  0  0
 65147  1  0  0  0
 68 82  1  0  0  0
 71 72  2  0  0  0
 71 75  1  0  0  0
 71 85  1  0  0  0
 72 83  1  0  0  0
 72 88  1  0  0  0
 73 85  2  0  0  0
 73 86  1  0  0  0
 73 88  1  0  0  0
 74 79  1  0  0  0
 74 80  1  0  0  0
 74 87  2  0  0  0
 75148  1  0  0  0
 75149  1  0  0  0
 75150  1  0  0  0
 76151  1  0  0  0
 76152  1  0  0  0
 76153  1  0  0  0
 76 84  1  0  0  0
 77 84  1  0  0  0
 77154  1  0  0  0
 77155  1  0  0  0
 77156  1  0  0  0
 78 84  1  0  0  0
 78157  1  0  0  0
 78158  1  0  0  0
 78159  1  0  0  0
 79 82  1  0  0  0
 79160  1  0  0  0
 79161  1  0  0  0
 80162  1  0  0  0
 80163  1  0  0  0
 80 83  1  0  0  0
 81 83  1  0  0  0
 81 84  1  0  0  0
 81164  1  0  0  0
 81165  1  0  0  0
 82166  1  0  0  0
 82167  1  0  0  0
 83168  1  0  0  0
 86169  1  0  0  0
M  ISO  4   1 100  68 101  82 101  86 100
M  END
> <chiral flag>
0

> <version>
0

> <s_m_source_file>
/data/baiqing/PycharmProjects/Reinvent-master-3.2/result/LINK_invent/BTK/process_docking_weight1_custom_product_contain_oxygen_bond_distance_aromatic_linkinvent_7_9_3/rearranged_h_0191.sdf

> <i_m_source_file_index>
41

> <r_mmod_Potential_Energy-OPLS-2005>
-127.956916809082

> <r_mmod_Stretch_Energy-OPLS-2005>
42.9008331298828

> <r_mmod_Bend_Energy-OPLS-2005>
126.492874145508

> <r_mmod_Torsional_Energy-OPLS-2005>
191.54866027832

> <r_mmod_Improper_Torsional_Energy-OPLS-2005>
3.6138379573822

> <r_mmod_Van_der_Waal_Energy-OPLS-2005>
125.27555847168

> <r_mmod_Electrostatic_Energy-OPLS-2005>
-406.880798339844

> <r_mmod_Solvation_Energy-OPLS-2005>
-227.414749145508

> <b_mmod_Minimization_Converged-OPLS-2005>
0

> <r_mmod_RMS_Derivative-OPLS-2005>
1.00456178188324

$$$$
43
                    3D
 Structure written by MMmdl.
170178  0  0  1  0            999 V2000
  -30.6415  -14.4412   20.6641 C   0  0  0  0  0  0
  -30.4430  -12.3194   19.3849 C   0  0  0  0  0  0
  -29.4919  -12.5354   18.1856 C   0  0  0  0  0  0
  -28.0111  -12.3859   18.5972 C   0  0  0  0  0  0
  -27.6670  -13.1835   19.8825 C   0  0  2  0  0  0
  -28.7032  -12.8623   20.9785 C   0  0  0  0  0  0
  -25.2625  -13.8112   20.5633 C   0  0  0  0  0  0
  -24.1836  -13.0431   20.9155 C   0  0  0  0  0  0
  -24.6364  -11.6876   20.8712 C   0  0  0  0  0  0
  -23.9026  -10.4288   21.0400 C   0  0  0  0  0  0
  -24.3593   -9.4202   21.9182 C   0  0  0  0  0  0
  -23.6270   -8.2245   22.0760 C   0  0  0  0  0  0
  -22.4255   -8.0273   21.3551 C   0  0  0  0  0  0
  -21.9881   -9.0249   20.4656 C   0  0  0  0  0  0
  -22.7201  -10.2128   20.3053 C   0  0  0  0  0  0
  -21.6845   -6.0718   22.5274 C   0  0  0  0  0  0
  -21.4018   -6.5634   23.8209 C   0  0  0  0  0  0
  -21.3660   -5.6786   24.9170 C   0  0  0  0  0  0
  -21.6028   -4.3055   24.7225 C   0  0  0  0  0  0
  -21.8822   -3.8140   23.4350 C   0  0  0  0  0  0
  -21.9191   -4.6954   22.3400 C   0  0  0  0  0  0
  -22.7881  -13.5253   21.1821 C   0  0  0  0  0  0
  -22.1652   -4.2125   21.0979 F   0  0  0  0  0  0
  -21.5628   -3.4545   25.7745 F   0  0  0  0  0  0
  -30.0384  -13.2350   20.4619 N   0  0  0  0  0  0
  -26.3030  -12.9229   20.3364 N   0  0  0  0  0  0
  -25.9274  -11.6410   20.5729 N   0  0  0  0  0  0
  -22.0483  -12.8278   22.0368 N   0  0  0  0  0  0
  -25.4379  -15.1819   20.4007 N   0  0  0  0  0  0
  -31.7065  -14.7688   20.1236 O   0  0  0  0  0  0
  -21.6637   -6.8865   21.4239 O   0  0  0  0  0  0
  -22.3550  -14.5544   20.6629 O   0  0  0  0  0  0
  -24.6142  -31.8676   23.2073 C   0  0  0  0  0  0
  -25.9013  -32.4834   23.8372 C   0  0  1  0  0  0
  -27.2394  -27.4311   20.1141 C   0  0  0  0  0  0
  -25.5875  -33.8648   24.2297 N   0  0  0  0  0  0
  -23.4054  -30.4915   21.5426 C   0  0  2  0  0  0
  -24.8555  -28.9502   20.1136 C   0  0  0  0  0  0
  -22.7427  -29.4670   22.4929 C   0  0  0  0  0  0
  -18.0286  -28.1424   22.8508 C   0  0  0  0  0  0
  -24.1484  -36.7275   23.2638 C   0  0  0  0  0  0
  -25.9332  -30.8322   21.3589 C   0  0  0  0  0  0
  -26.0120  -29.4637   20.7141 C   0  0  0  0  0  0
  -27.2094  -28.7123   20.7108 C   0  0  0  0  0  0
  -26.0706  -26.9269   19.5082 C   0  0  0  0  0  0
  -24.8779  -27.6804   19.5061 C   0  0  0  0  0  0
  -23.6183  -29.8188   20.1579 C   0  0  0  0  0  0
  -25.4103  -36.3128   24.0361 C   0  0  1  0  0  0
  -20.5901  -28.3681   23.1306 C   0  0  2  0  0  0
  -20.6801  -26.9413   22.5439 C   0  0  0  0  0  0
  -19.5765  -26.6418   21.5249 C   0  0  0  0  0  0
  -18.1924  -26.7973   22.1630 C   0  0  0  0  0  0
  -19.1553  -28.8860   23.2929 C   0  0  0  0  0  0
  -18.9490  -30.1481   23.8928 C   0  0  0  0  0  0
  -17.6491  -30.6642   24.0583 C   0  0  0  0  0  0
  -25.9050  -34.9514   23.5128 C   0  0  0  0  0  0
  -16.5368  -29.9155   23.6349 C   0  0  0  0  0  0
  -16.7271  -28.6574   23.0360 C   0  0  0  0  0  0
  -26.4446  -31.6632   25.0686 C   0  0  0  0  0  0
  -25.3731  -31.3787   26.1464 C   0  0  0  0  0  0
  -27.0235  -30.3072   24.6027 C   0  0  0  0  0  0
  -27.6040  -32.4357   25.7415 C   0  0  0  0  0  0
  -27.5587  -37.1796   24.8467 C   0  0  0  0  0  0
  -21.4148  -29.3062   22.3690 N   0  0  0  0  0  0
  -26.4281  -37.3820   23.9431 N   0  0  0  0  0  0
  -24.6689  -31.0783   22.0940 N   0  0  0  0  0  0
  -23.4196  -28.8212   23.2970 O   0  0  0  0  0  0
  -28.3895  -26.6733   20.1159 O   0  0  0  0  0  0
  -26.5613  -34.8980   22.4696 O   0  0  0  0  0  0
  -23.5332  -32.1377   23.7492 O   0  0  0  0  0  0
  -28.9967  -18.7759   22.4994 C   0  0  0  0  0  0
  -30.2505  -18.8225   21.9362 C   0  0  0  0  0  0
  -29.7616  -16.6017   21.6813 C   0  0  0  0  0  0
  -29.6064  -22.4656   23.0162 C   0  0  0  0  0  0
  -33.2105  -18.7226   22.7578 C   0  0  0  0  0  0
  -33.1421  -19.5130   20.3780 C   0  0  0  0  0  0
  -33.4320  -21.1399   22.2672 C   0  0  0  0  0  0
  -28.2405  -24.2547   20.7499 C   0  0  0  0  0  0
  -29.5135  -23.3616   20.6356 C   0  0  0  0  0  0
  -28.4720  -25.7261   21.1937 C   0  0  0  0  0  0
  -31.1476  -20.0632   21.9571 C   0  0  1  0  0  0
  -29.5438  -22.0721   21.5180 C   0  0  1  0  0  0
  -32.7035  -19.8476   21.8237 C   0  0  0  0  0  0
  -30.6312  -17.5781   21.3791 N   0  0  0  0  0  0
  -29.9424  -15.2062   21.5199 N   0  0  0  0  0  0
  -30.6625  -21.1672   21.0768 N   0  3  0  0  0  0
  -28.3117  -17.1784   22.4833 S   0  0  0  0  0  0
  -31.4802  -12.4763   19.0832 H   0  0  0  0  0  0
  -30.3889  -11.2853   19.7301 H   0  0  0  0  0  0
  -29.7325  -11.8336   17.3843 H   0  0  0  0  0  0
  -29.6520  -13.5332   17.7717 H   0  0  0  0  0  0
  -27.8173  -11.3248   18.7573 H   0  0  0  0  0  0
  -27.3583  -12.6940   17.7791 H   0  0  0  0  0  0
  -27.7410  -14.2447   19.6436 H   0  0  0  0  0  0
  -28.6878  -11.7926   21.1951 H   0  0  0  0  0  0
  -28.4324  -13.3258   21.9268 H   0  0  0  0  0  0
  -25.2745   -9.5674   22.4740 H   0  0  0  0  0  0
  -23.9977   -7.4635   22.7473 H   0  0  0  0  0  0
  -21.0821   -8.8761   19.8957 H   0  0  0  0  0  0
  -22.3669  -10.9663   19.6151 H   0  0  0  0  0  0
  -21.2020   -7.6139   23.9695 H   0  0  0  0  0  0
  -21.1466   -6.0531   25.9070 H   0  0  0  0  0  0
  -22.0596   -2.7601   23.2863 H   0  0  0  0  0  0
  -22.4108  -11.9994   22.4853 H   0  0  0  0  0  0
  -21.1067  -13.1272   22.2472 H   0  0  0  0  0  0
  -24.6741  -15.8394   20.5095 H   0  0  0  0  0  0
  -26.2838  -15.6162   20.0544 H   0  0  0  0  0  0
  -26.7074  -32.5521   23.1147 H   0  0  0  0  0  0
  -25.0091  -33.9812   25.0476 H   0  0  0  0  0  0
  -22.6976  -31.3112   21.4020 H   0  0  0  0  0  0
  -23.3795  -35.9553   23.3316 H   0  0  0  0  0  0
  -24.3581  -36.8869   22.2037 H   0  0  0  0  0  0
  -23.7196  -37.6473   23.6636 H   0  0  0  0  0  0
  -26.0503  -31.5880   20.5828 H   0  0  0  0  0  0
  -26.8223  -30.8842   21.9778 H   0  0  0  0  0  0
  -28.1007  -29.1048   21.1780 H   0  0  0  0  0  0
  -26.0816  -25.9480   19.0514 H   0  0  0  0  0  0
  -23.9875  -27.2767   19.0446 H   0  0  0  0  0  0
  -23.7367  -30.5951   19.3997 H   0  0  0  0  0  0
  -22.7420  -29.2423   19.8585 H   0  0  0  0  0  0
  -25.1309  -36.1986   25.0851 H   0  0  0  0  0  0
  -21.0007  -28.3277   24.1424 H   0  0  0  0  0  0
  -20.5739  -26.2275   23.3640 H   0  0  0  0  0  0
  -21.6658  -26.7501   22.1197 H   0  0  0  0  0  0
  -19.6924  -25.6331   21.1273 H   0  0  0  0  0  0
  -19.6754  -27.3248   20.6806 H   0  0  0  0  0  0
  -17.4238  -26.6781   21.3988 H   0  0  0  0  0  0
  -18.0267  -26.0136   22.9022 H   0  0  0  0  0  0
  -19.7968  -30.7322   24.2269 H   0  0  0  0  0  0
  -17.5059  -31.6310   24.5225 H   0  0  0  0  0  0
  -15.5371  -30.3114   23.7674 H   0  0  0  0  0  0
  -15.8656  -28.0960   22.7025 H   0  0  0  0  0  0
  -24.5923  -30.7110   25.7840 H   0  0  0  0  0  0
  -24.8896  -32.2956   26.4831 H   0  0  0  0  0  0
  -25.8100  -30.9050   27.0261 H   0  0  0  0  0  0
  -26.2715  -29.6898   24.1083 H   0  0  0  0  0  0
  -27.4021  -29.7282   25.4460 H   0  0  0  0  0  0
  -27.8587  -30.4413   23.9157 H   0  0  0  0  0  0
  -27.2669  -33.3671   26.1966 H   0  0  0  0  0  0
  -28.3817  -32.6865   25.0211 H   0  0  0  0  0  0
  -28.0721  -31.8488   26.5329 H   0  0  0  0  0  0
  -28.2634  -38.0071   24.7536 H   0  0  0  0  0  0
  -28.1082  -36.2619   24.6284 H   0  0  0  0  0  0
  -27.2316  -37.1403   25.8878 H   0  0  0  0  0  0
  -20.9292  -29.8722   21.6895 H   0  0  0  0  0  0
  -26.0201  -38.2911   24.1485 H   0  0  0  0  0  0
  -28.4460  -19.5733   22.9794 H   0  0  0  0  0  0
  -28.8775  -23.2370   23.2604 H   0  0  0  0  0  0
  -30.5862  -22.8577   23.2903 H   0  0  0  0  0  0
  -29.3704  -21.6307   23.6787 H   0  0  0  0  0  0
  -34.2962  -18.7466   22.8623 H   0  0  0  0  0  0
  -32.9634  -17.7274   22.3905 H   0  0  0  0  0  0
  -32.7835  -18.8140   23.7575 H   0  0  0  0  0  0
  -34.2258  -19.4009   20.3127 H   0  0  0  0  0  0
  -32.8665  -20.2905   19.6661 H   0  0  0  0  0  0
  -32.7059  -18.5793   20.0235 H   0  0  0  0  0  0
  -34.5130  -21.0363   22.1739 H   0  0  0  0  0  0
  -33.2269  -21.3816   23.3125 H   0  0  0  0  0  0
  -33.1515  -22.0084   21.6724 H   0  0  0  0  0  0
  -27.5374  -23.7967   21.4460 H   0  0  0  0  0  0
  -27.7181  -24.2494   19.7920 H   0  0  0  0  0  0
  -30.4060  -23.9554   20.8403 H   0  0  0  0  0  0
  -29.6022  -23.0718   19.5900 H   0  0  0  0  0  0
  -27.7520  -25.9815   21.9745 H   0  0  0  0  0  0
  -29.4453  -25.8250   21.6752 H   0  0  0  0  0  0
  -31.0740  -20.4307   22.9786 H   0  0  0  0  0  0
  -28.6099  -21.5287   21.3637 H   0  0  0  0  0  0
  -29.1903  -14.6760   21.9298 H   0  0  0  0  0  0
  -30.4330  -20.7569   20.1841 H   0  0  0  0  0  0
  -31.4681  -21.7539   20.9362 H   0  0  0  0  0  0
  1 25  1  0  0  0
  1 30  2  0  0  0
  1 85  1  0  0  0
  2  3  1  0  0  0
  2 25  1  0  0  0
  2 88  1  0  0  0
  2 89  1  0  0  0
  3  4  1  0  0  0
  3 90  1  0  0  0
  3 91  1  0  0  0
  4  5  1  0  0  0
  4 92  1  0  0  0
  4 93  1  0  0  0
  5  6  1  0  0  0
  5 26  1  0  0  0
  5 94  1  0  0  0
  6 25  1  0  0  0
  6 95  1  0  0  0
  6 96  1  0  0  0
  7  8  2  0  0  0
  7 26  1  0  0  0
  7 29  1  0  0  0
  8  9  1  0  0  0
  8 22  1  0  0  0
  9 10  1  0  0  0
  9 27  2  0  0  0
 10 11  2  0  0  0
 10 15  1  0  0  0
 11 12  1  0  0  0
 11 97  1  0  0  0
 12 13  2  0  0  0
 12 98  1  0  0  0
 13 14  1  0  0  0
 13 31  1  0  0  0
 14 15  2  0  0  0
 14 99  1  0  0  0
 15100  1  0  0  0
 16 17  2  0  0  0
 16 21  1  0  0  0
 16 31  1  0  0  0
 17 18  1  0  0  0
 17101  1  0  0  0
 18 19  2  0  0  0
 18102  1  0  0  0
 19 20  1  0  0  0
 19 24  1  0  0  0
 20 21  2  0  0  0
 20103  1  0  0  0
 21 23  1  0  0  0
 22 28  1  0  0  0
 22 32  2  0  0  0
 26 27  1  0  0  0
 28104  1  0  0  0
 28105  1  0  0  0
 29106  1  0  0  0
 29107  1  0  0  0
 33 34  1  0  0  0
 33 66  1  0  0  0
 33 70  2  0  0  0
 34 36  1  0  0  0
 34 59  1  0  0  0
 34108  1  0  0  0
 35 44  2  0  0  0
 35 45  1  0  0  0
 35 68  1  0  0  0
 36 56  1  0  0  0
 36109  1  0  0  0
 37 39  1  0  0  0
 37 47  1  0  0  0
 37 66  1  0  0  0
 37110  1  0  0  0
 38 43  2  0  0  0
 38 46  1  0  0  0
 38 47  1  0  0  0
 39 64  1  0  0  0
 39 67  2  0  0  0
 40 52  1  0  0  0
 40 53  2  0  0  0
 40 58  1  0  0  0
 41111  1  0  0  0
 41112  1  0  0  0
 41113  1  0  0  0
 41 48  1  0  0  0
 42 43  1  0  0  0
 42 66  1  0  0  0
 42114  1  0  0  0
 42115  1  0  0  0
 43 44  1  0  0  0
 44116  1  0  0  0
 45 46  2  0  0  0
 45117  1  0  0  0
 46118  1  0  0  0
 47119  1  0  0  0
 47120  1  0  0  0
 48 56  1  0  0  0
 48 65  1  0  0  0
 48121  1  0  0  0
 49 50  1  0  0  0
 49 53  1  0  0  0
 49 64  1  0  0  0
 49122  1  0  0  0
 50 51  1  0  0  0
 50123  1  0  0  0
 50124  1  0  0  0
 51 52  1  0  0  0
 51125  1  0  0  0
 51126  1  0  0  0
 52127  1  0  0  0
 52128  1  0  0  0
 53 54  1  0  0  0
 54 55  2  0  0  0
 54129  1  0  0  0
 55 57  1  0  0  0
 55130  1  0  0  0
 56 69  2  0  0  0
 57 58  2  0  0  0
 57131  1  0  0  0
 58132  1  0  0  0
 59 60  1  0  0  0
 59 61  1  0  0  0
 59 62  1  0  0  0
 60133  1  0  0  0
 60134  1  0  0  0
 60135  1  0  0  0
 61136  1  0  0  0
 61137  1  0  0  0
 61138  1  0  0  0
 62139  1  0  0  0
 62140  1  0  0  0
 62141  1  0  0  0
 63 65  1  0  0  0
 63142  1  0  0  0
 63143  1  0  0  0
 63144  1  0  0  0
 64145  1  0  0  0
 65146  1  0  0  0
 68 80  1  0  0  0
 71 72  2  0  0  0
 71 87  1  0  0  0
 71147  1  0  0  0
 72 81  1  0  0  0
 72 84  1  0  0  0
 73 84  2  0  0  0
 73 85  1  0  0  0
 73 87  1  0  0  0
 74148  1  0  0  0
 74149  1  0  0  0
 74150  1  0  0  0
 74 82  1  0  0  0
 75151  1  0  0  0
 75152  1  0  0  0
 75153  1  0  0  0
 75 83  1  0  0  0
 76 83  1  0  0  0
 76154  1  0  0  0
 76155  1  0  0  0
 76156  1  0  0  0
 77 83  1  0  0  0
 77157  1  0  0  0
 77158  1  0  0  0
 77159  1  0  0  0
 78 79  1  0  0  0
 78 80  1  0  0  0
 78160  1  0  0  0
 78161  1  0  0  0
 79 82  1  0  0  0
 79162  1  0  0  0
 79163  1  0  0  0
 80164  1  0  0  0
 80165  1  0  0  0
 81 83  1  0  0  0
 81 86  1  0  0  0
 81166  1  0  0  0
 82 86  1  0  0  0
 82167  1  0  0  0
 85168  1  0  0  0
 86169  1  0  0  0
 86170  1  0  0  0
M  CHG  1  86   1
M  ISO  4   1 100  68 101  80 101  85 100
M  END
> <chiral flag>
0

> <version>
0

> <s_m_source_file>
/data/baiqing/PycharmProjects/Reinvent-master-3.2/result/LINK_invent/BTK/process_docking_weight1_custom_product_contain_oxygen_bond_distance_aromatic_linkinvent_7_9_3/rearranged_h_0191.sdf

> <i_m_source_file_index>
42

> <r_mmod_Potential_Energy-OPLS-2005>
-182.182052612305

> <r_mmod_Stretch_Energy-OPLS-2005>
44.7041625976562

> <r_mmod_Bend_Energy-OPLS-2005>
142.4677734375

> <r_mmod_Torsional_Energy-OPLS-2005>
286.456512451172

> <r_mmod_Improper_Torsional_Energy-OPLS-2005>
3.59122395515442

> <r_mmod_Van_der_Waal_Energy-OPLS-2005>
130.046340942383

> <r_mmod_Electrostatic_Energy-OPLS-2005>
-351.897491455078

> <r_mmod_Solvation_Energy-OPLS-2005>
-452.187377929688

> <b_mmod_Minimization_Converged-OPLS-2005>
0

> <r_mmod_RMS_Derivative-OPLS-2005>
4.62846660614014

$$$$
44
                    3D
 Structure written by MMmdl.
162170  0  0  1  0            999 V2000
  -27.8726  -17.9087   20.7512 C   0  0  0  0  0  0
  -29.4405  -15.0861   19.7006 C   0  0  0  0  0  0
  -29.3170  -13.7158   18.7145 C   0  0  0  0  0  0
  -28.2905  -12.6850   19.1560 C   0  0  0  0  0  0
  -27.3662  -13.5837   19.9418 C   0  0  2  0  0  0
  -27.9273  -14.6458   21.0272 C   0  0  0  0  0  0
  -25.0680  -13.8507   20.5824 C   0  0  0  0  0  0
  -24.0706  -13.0220   20.9348 C   0  0  0  0  0  0
  -24.6001  -11.6947   20.8834 C   0  0  0  0  0  0
  -23.9054  -10.4192   21.0387 C   0  0  0  0  0  0
  -24.3664   -9.4126   21.9143 C   0  0  0  0  0  0
  -23.6300   -8.2158   22.0753 C   0  0  0  0  0  0
  -22.4277   -8.0197   21.3521 C   0  0  0  0  0  0
  -21.9906   -9.0151   20.4608 C   0  0  0  0  0  0
  -22.7281  -10.2000   20.2972 C   0  0  0  0  0  0
  -21.6866   -6.0728   22.5301 C   0  0  0  0  0  0
  -21.4014   -6.5637   23.8236 C   0  0  0  0  0  0
  -21.3650   -5.6783   24.9178 C   0  0  0  0  0  0
  -21.6061   -4.3060   24.7223 C   0  0  0  0  0  0
  -21.8814   -3.8149   23.4348 C   0  0  0  0  0  0
  -21.9183   -4.6954   22.3406 C   0  0  0  0  0  0
  -22.6753  -13.4686   21.2004 C   0  0  0  0  0  0
  -22.1662   -4.2150   21.0987 F   0  0  0  0  0  0
  -21.5613   -3.4539   25.7743 F   0  0  0  0  0  0
  -28.1940  -16.1158   20.4211 N   0  0  0  0  0  0
  -26.1438  -13.0330   20.3735 N   0  0  0  0  0  0
  -25.9023  -11.7151   20.5857 N   0  0  0  0  0  0
  -21.9701  -12.7682   22.0770 N   0  0  0  0  0  0
  -25.1376  -15.2294   20.3837 N   0  0  0  0  0  0
  -29.2141  -17.7181   20.6960 O   0  0  0  0  0  0
  -21.6633   -6.8839   21.4241 O   0  0  0  0  0  0
  -22.2351  -14.4977   20.6927 O   0  0  0  0  0  0
  -24.6551  -31.8390   23.1934 C   0  0  0  0  0  0
  -25.9330  -32.4508   23.8201 C   0  0  1  0  0  0
  -26.4218  -26.7488   20.0321 C   0  0  0  0  0  0
  -25.5997  -33.8334   24.1956 N   0  0  0  0  0  0
  -23.4523  -30.3265   21.7415 C   0  0  2  0  0  0
  -24.7717  -29.0037   19.9940 C   0  0  0  0  0  0
  -23.0971  -29.1687   22.7530 C   0  0  0  0  0  0
  -20.0848  -27.4600   21.8517 C   0  0  0  0  0  0
  -24.1557  -36.7116   23.2641 C   0  0  0  0  0  0
  -26.0008  -30.5320   21.4897 C   0  0  0  0  0  0
  -25.9289  -29.1594   20.7464 C   0  0  0  0  0  0
  -26.7744  -27.9615   20.8348 C   0  0  0  0  0  0
  -25.7313  -27.0590   18.9014 C   0  0  0  0  0  0
  -24.7404  -28.0375   19.0008 C   0  0  0  0  0  0
  -23.5693  -29.8751   20.2655 C   0  0  0  0  0  0
  -25.4173  -36.2833   24.0290 C   0  0  1  0  0  0
  -21.1429  -27.5834   23.7654 C   0  0  2  0  0  0
  -20.7321  -25.7792   23.8743 C   0  0  0  0  0  0
  -21.0466  -24.1428   22.8871 C   0  0  0  0  0  0
  -21.2641  -24.3028   20.7777 C   0  0  0  0  0  0
  -20.0648  -28.1904   23.1285 C   0  0  0  0  0  0
  -19.4133  -29.3433   23.8203 C   0  0  0  0  0  0
  -18.1335  -29.8235   23.5482 C   0  0  0  0  0  0
  -25.9101  -34.9256   23.4873 C   0  0  0  0  0  0
  -17.6205  -28.9737   22.5665 C   0  0  0  0  0  0
  -18.5131  -27.9551   21.8447 C   0  0  0  0  0  0
  -26.4623  -31.6535   25.0806 C   0  0  0  0  0  0
  -25.3752  -31.3853   26.1488 C   0  0  0  0  0  0
  -27.0657  -30.2885   24.6823 C   0  0  0  0  0  0
  -27.6082  -32.4429   25.7608 C   0  0  0  0  0  0
  -27.5571  -37.1706   24.8445 C   0  0  0  0  0  0
  -21.8943  -28.6369   22.8563 N   0  0  0  0  0  0
  -26.4252  -37.3590   23.9400 N   0  0  0  0  0  0
  -24.7272  -30.9871   22.1371 N   0  0  0  0  0  0
  -23.9469  -28.7099   23.5003 O   0  0  0  0  0  0
  -26.3753  -25.2703   20.1902 O   0  0  0  0  0  0
  -26.5814  -34.8803   22.4527 O   0  0  0  0  0  0
  -23.5625  -32.1419   23.7025 O   0  0  0  0  0  0
  -23.1297  -25.7831   20.2682 C   0  0  0  0  0  0
  -21.6453  -26.4127   19.6582 C   0  0  0  0  0  0
  -23.5438  -24.6259   21.4434 C   0  0  0  0  0  0
  -19.6942  -25.4384   21.4079 C   0  0  0  0  0  0
  -22.9895  -22.8804   18.1221 C   0  0  0  0  0  0
  -19.7476  -21.1688   22.0566 C   0  0  0  0  0  0
  -25.1673  -22.1147   21.5090 C   0  0  0  0  0  0
  -22.0936  -22.0458   20.6792 C   0  0  0  0  0  0
  -25.2565  -24.0320   19.4883 C   0  0  0  0  0  0
  -23.5846  -22.8252   19.5490 C   0  0  2  0  0  0
  -20.0897  -22.2947   21.0911 C   0  0  1  0  0  0
  -20.0992  -26.0730   19.9542 N   0  0  0  0  0  0
  -21.9998  -25.8993   21.8894 N   0  0  0  0  0  0
  -19.0855  -23.7955   21.3981 N   0  0  0  0  0  0
  -26.5347  -19.7198   21.0110 N   0  0  0  0  0  0
  -29.9562  -15.8039   19.0601 H   0  0  0  0  0  0
  -30.2336  -14.9317   20.4311 H   0  0  0  0  0  0
  -30.3008  -13.2597   18.5937 H   0  0  0  0  0  0
  -29.0177  -14.0641   17.7248 H   0  0  0  0  0  0
  -28.7421  -11.9259   19.7961 H   0  0  0  0  0  0
  -27.8159  -12.1956   18.3028 H   0  0  0  0  0  0
  -27.0138  -14.2130   19.1128 H   0  0  0  0  0  0
  -28.7065  -14.2163   21.6513 H   0  0  0  0  0  0
  -27.1901  -14.8155   21.8066 H   0  0  0  0  0  0
  -25.2751   -9.5684   22.4803 H   0  0  0  0  0  0
  -24.0043   -7.4558   22.7477 H   0  0  0  0  0  0
  -21.0844   -8.8625   19.8911 H   0  0  0  0  0  0
  -22.3657  -10.9525   19.6109 H   0  0  0  0  0  0
  -21.2039   -7.6155   23.9723 H   0  0  0  0  0  0
  -21.1468   -6.0529   25.9084 H   0  0  0  0  0  0
  -22.0606   -2.7607   23.2839 H   0  0  0  0  0  0
  -22.3525  -11.9406   22.5136 H   0  0  0  0  0  0
  -21.0268  -13.0550   22.3084 H   0  0  0  0  0  0
  -24.3305  -15.8338   20.4522 H   0  0  0  0  0  0
  -25.9715  -15.7021   20.0596 H   0  0  0  0  0  0
  -26.7259  -32.4880   23.0751 H   0  0  0  0  0  0
  -25.0156  -33.9449   25.0106 H   0  0  0  0  0  0
  -22.6092  -31.0192   21.7850 H   0  0  0  0  0  0
  -23.3736  -35.9485   23.3182 H   0  0  0  0  0  0
  -24.3573  -36.8905   22.2034 H   0  0  0  0  0  0
  -23.7357  -37.6291   23.6791 H   0  0  0  0  0  0
  -26.2998  -31.3017   20.7743 H   0  0  0  0  0  0
  -26.7989  -30.4891   22.2081 H   0  0  0  0  0  0
  -27.4749  -27.8943   21.6511 H   0  0  0  0  0  0
  -25.5857  -26.3573   18.0963 H   0  0  0  0  0  0
  -23.9159  -28.0417   18.2982 H   0  0  0  0  0  0
  -23.6068  -30.7454   19.6162 H   0  0  0  0  0  0
  -22.6719  -29.3477   19.9590 H   0  0  0  0  0  0
  -25.1354  -36.1587   25.0768 H   0  0  0  0  0  0
  -21.1711  -27.9069   24.8123 H   0  0  0  0  0  0
  -21.2727  -25.5688   24.8249 H   0  0  0  0  0  0
  -19.6927  -25.7043   24.2170 H   0  0  0  0  0  0
  -22.0201  -23.7774   23.2327 H   0  0  0  0  0  0
  -20.4795  -23.3057   23.3147 H   0  0  0  0  0  0
  -21.8864  -24.0771   19.9495 H   0  0  0  0  0  0
  -20.6659  -23.9570   19.8609 H   0  0  0  0  0  0
  -19.8707  -29.6718   24.7367 H   0  0  0  0  0  0
  -17.5865  -30.5836   24.0912 H   0  0  0  0  0  0
  -16.5657  -29.0692   22.3200 H   0  0  0  0  0  0
  -17.8979  -27.4063   21.1362 H   0  0  0  0  0  0
  -24.5995  -30.7083   25.7916 H   0  0  0  0  0  0
  -24.8909  -32.3044   26.4736 H   0  0  0  0  0  0
  -25.7985  -30.9257   27.0445 H   0  0  0  0  0  0
  -26.3429  -29.6373   24.1955 H   0  0  0  0  0  0
  -27.4115  -29.7491   25.5656 H   0  0  0  0  0  0
  -27.9354  -30.3950   24.0322 H   0  0  0  0  0  0
  -27.2610  -33.3798   26.1968 H   0  0  0  0  0  0
  -28.3987  -32.6909   25.0521 H   0  0  0  0  0  0
  -28.0635  -31.8809   26.5779 H   0  0  0  0  0  0
  -28.2501  -38.0112   24.7491 H   0  0  0  0  0  0
  -28.1217  -36.2595   24.6268 H   0  0  0  0  0  0
  -27.2278  -37.1259   25.8867 H   0  0  0  0  0  0
  -21.2034  -29.0473   22.2298 H   0  0  0  0  0  0
  -26.0061  -38.2635   24.1389 H   0  0  0  0  0  0
  -23.8166  -25.9223   19.4926 H   0  0  0  0  0  0
  -21.7146  -27.1770   18.8887 H   0  0  0  0  0  0
  -22.5358  -23.8526   17.9110 H   0  0  0  0  0  0
  -22.2187  -22.1114   18.0140 H   0  0  0  0  0  0
  -23.7092  -22.6874   17.3263 H   0  0  0  0  0  0
  -20.5745  -20.8055   22.6952 H   0  0  0  0  0  0
  -19.3570  -20.3660   21.4416 H   0  0  0  0  0  0
  -18.9332  -21.4839   22.6894 H   0  0  0  0  0  0
  -26.0724  -22.6202   21.8557 H   0  0  0  0  0  0
  -24.6880  -21.7261   22.4224 H   0  0  0  0  0  0
  -22.5390  -22.0754   21.6793 H   0  0  0  0  0  0
  -22.1709  -20.9859   20.5058 H   0  0  0  0  0  0
  -25.1538  -24.3877   18.4637 H   0  0  0  0  0  0
  -26.0000  -23.2510   19.2992 H   0  0  0  0  0  0
  -24.0793  -21.8674   19.3778 H   0  0  0  0  0  0
  -19.5741  -21.9890   20.1857 H   0  0  0  0  0  0
  -18.4413  -23.6386   22.1853 H   0  0  0  0  0  0
  -27.4016  -20.2296   21.0890 H   0  0  0  0  0  0
  1 25  1  0  0  0
  1 30  2  0  0  0
  1 85  1  0  0  0
  2  3  1  0  0  0
  2 25  1  0  0  0
  2 86  1  0  0  0
  2 87  1  0  0  0
  3  4  1  0  0  0
  3 88  1  0  0  0
  3 89  1  0  0  0
  4  5  1  0  0  0
  4 90  1  0  0  0
  4 91  1  0  0  0
  5  6  1  0  0  0
  5 26  1  0  0  0
  5 92  1  0  0  0
  6 25  1  0  0  0
  6 93  1  0  0  0
  6 94  1  0  0  0
  7  8  2  0  0  0
  7 26  1  0  0  0
  7 29  1  0  0  0
  8  9  1  0  0  0
  8 22  1  0  0  0
  9 10  1  0  0  0
  9 27  2  0  0  0
 10 11  2  0  0  0
 10 15  1  0  0  0
 11 12  1  0  0  0
 11 95  1  0  0  0
 12 13  2  0  0  0
 12 96  1  0  0  0
 13 14  1  0  0  0
 13 31  1  0  0  0
 14 15  2  0  0  0
 14 97  1  0  0  0
 15 98  1  0  0  0
 16 17  2  0  0  0
 16 21  1  0  0  0
 16 31  1  0  0  0
 17 18  1  0  0  0
 17 99  1  0  0  0
 18 19  2  0  0  0
 18100  1  0  0  0
 19 20  1  0  0  0
 19 24  1  0  0  0
 20 21  2  0  0  0
 20101  1  0  0  0
 21 23  1  0  0  0
 22 28  1  0  0  0
 22 32  2  0  0  0
 26 27  1  0  0  0
 28102  1  0  0  0
 28103  1  0  0  0
 29104  1  0  0  0
 29105  1  0  0  0
 33 34  1  0  0  0
 33 66  1  0  0  0
 33 70  2  0  0  0
 34 36  1  0  0  0
 34 59  1  0  0  0
 34106  1  0  0  0
 35 44  2  0  0  0
 35 45  1  0  0  0
 35 68  1  0  0  0
 36 56  1  0  0  0
 36107  1  0  0  0
 37 39  1  0  0  0
 37 47  1  0  0  0
 37 66  1  0  0  0
 37108  1  0  0  0
 38 43  2  0  0  0
 38 46  1  0  0  0
 38 47  1  0  0  0
 39 64  1  0  0  0
 39 67  2  0  0  0
 40 52  1  0  0  0
 40 53  2  0  0  0
 40 58  1  0  0  0
 41109  1  0  0  0
 41110  1  0  0  0
 41111  1  0  0  0
 41 48  1  0  0  0
 42 43  1  0  0  0
 42 66  1  0  0  0
 42112  1  0  0  0
 42113  1  0  0  0
 43 44  1  0  0  0
 44114  1  0  0  0
 45 46  2  0  0  0
 45115  1  0  0  0
 46116  1  0  0  0
 47117  1  0  0  0
 47118  1  0  0  0
 48 56  1  0  0  0
 48 65  1  0  0  0
 48119  1  0  0  0
 49 50  1  0  0  0
 49 53  1  0  0  0
 49 64  1  0  0  0
 49120  1  0  0  0
 50 51  1  0  0  0
 50121  1  0  0  0
 50122  1  0  0  0
 51 52  1  0  0  0
 51123  1  0  0  0
 51124  1  0  0  0
 52125  1  0  0  0
 52126  1  0  0  0
 53 54  1  0  0  0
 54 55  2  0  0  0
 54127  1  0  0  0
 55 57  1  0  0  0
 55128  1  0  0  0
 56 69  2  0  0  0
 57 58  2  0  0  0
 57129  1  0  0  0
 58130  1  0  0  0
 59 60  1  0  0  0
 59 61  1  0  0  0
 59 62  1  0  0  0
 60131  1  0  0  0
 60132  1  0  0  0
 60133  1  0  0  0
 61134  1  0  0  0
 61135  1  0  0  0
 61136  1  0  0  0
 62137  1  0  0  0
 62138  1  0  0  0
 62139  1  0  0  0
 63 65  1  0  0  0
 63140  1  0  0  0
 63141  1  0  0  0
 63142  1  0  0  0
 64143  1  0  0  0
 65144  1  0  0  0
 68 79  1  0  0  0
 71 72  2  0  0  0
 71 73  1  0  0  0
 71145  1  0  0  0
 72 82  1  0  0  0
 72146  1  0  0  0
 73 77  1  0  0  0
 73 83  2  0  0  0
 74 82  2  0  0  0
 74 83  1  0  0  0
 74 84  1  0  0  0
 75147  1  0  0  0
 75148  1  0  0  0
 75149  1  0  0  0
 75 80  1  0  0  0
 76150  1  0  0  0
 76151  1  0  0  0
 76152  1  0  0  0
 76 81  1  0  0  0
 77 85  1  0  0  0
 77153  1  0  0  0
 77154  1  0  0  0
 78 80  1  0  0  0
 78 81  1  0  0  0
 78155  1  0  0  0
 78156  1  0  0  0
 79 80  1  0  0  0
 79157  1  0  0  0
 79158  1  0  0  0
 80159  1  0  0  0
 81 84  1  0  0  0
 81160  1  0  0  0
 84161  1  0  0  0
 85162  1  0  0  0
M  ISO  4   1 100  68 101  79 101  85 100
M  END
> <chiral flag>
0

> <version>
0

> <s_m_source_file>
/data/baiqing/PycharmProjects/Reinvent-master-3.2/result/LINK_invent/BTK/process_docking_weight1_custom_product_contain_oxygen_bond_distance_aromatic_linkinvent_7_9_3/rearranged_h_0191.sdf

> <i_m_source_file_index>
43

> <r_mmod_Potential_Energy-OPLS-2005>
40376.19921875

> <r_mmod_Stretch_Energy-OPLS-2005>
20365

> <r_mmod_Bend_Energy-OPLS-2005>
3615.07397460938

> <r_mmod_Torsional_Energy-OPLS-2005>
654.464904785156

> <r_mmod_Improper_Torsional_Energy-OPLS-2005>
72.6982803344727

> <r_mmod_Van_der_Waal_Energy-OPLS-2005>
4278.8828125

> <r_mmod_Electrostatic_Energy-OPLS-2005>
-861.334106445312

> <r_mmod_Solvation_Energy-OPLS-2005>
-301.253601074219

> <b_mmod_Minimization_Converged-OPLS-2005>
0

> <r_mmod_RMS_Derivative-OPLS-2005>
49.2040596008301

$$$$
45
                    3D
 Structure written by MMmdl.
155163  0  0  1  0            999 V2000
  -30.7124  -14.4016   20.5901 C   0  0  0  0  0  0
  -30.4331  -12.2854   19.3723 C   0  0  0  0  0  0
  -29.4799  -12.4737   18.1782 C   0  0  0  0  0  0
  -28.0044  -12.3512   18.6095 C   0  0  0  0  0  0
  -27.6675  -13.1885   19.8704 C   0  0  2  0  0  0
  -28.7118  -12.9203   20.9716 C   0  0  0  0  0  0
  -25.2670  -13.8155   20.5670 C   0  0  0  0  0  0
  -24.1892  -13.0433   20.9172 C   0  0  0  0  0  0
  -24.6415  -11.6905   20.8731 C   0  0  0  0  0  0
  -23.9068  -10.4304   21.0432 C   0  0  0  0  0  0
  -24.3604   -9.4225   21.9234 C   0  0  0  0  0  0
  -23.6263   -8.2275   22.0803 C   0  0  0  0  0  0
  -22.4260   -8.0324   21.3576 C   0  0  0  0  0  0
  -21.9928   -9.0274   20.4653 C   0  0  0  0  0  0
  -22.7262  -10.2153   20.3061 C   0  0  0  0  0  0
  -21.6840   -6.0781   22.5299 C   0  0  0  0  0  0
  -21.4045   -6.5673   23.8229 C   0  0  0  0  0  0
  -21.3648   -5.6813   24.9181 C   0  0  0  0  0  0
  -21.6020   -4.3070   24.7222 C   0  0  0  0  0  0
  -21.8833   -3.8180   23.4330 C   0  0  0  0  0  0
  -21.9187   -4.7015   22.3401 C   0  0  0  0  0  0
  -22.7919  -13.5237   21.1811 C   0  0  0  0  0  0
  -22.1644   -4.2218   21.0970 F   0  0  0  0  0  0
  -21.5585   -3.4534   25.7714 F   0  0  0  0  0  0
  -30.0405  -13.2384   20.4183 N   0  0  0  0  0  0
  -26.3074  -12.9258   20.3342 N   0  0  0  0  0  0
  -25.9316  -11.6452   20.5768 N   0  0  0  0  0  0
  -22.0504  -12.8231   22.0326 N   0  0  0  0  0  0
  -25.4406  -15.1854   20.4053 N   0  0  0  0  0  0
  -31.8318  -14.6195   20.1177 O   0  0  0  0  0  0
  -21.6612   -6.8931   21.4263 O   0  0  0  0  0  0
  -22.3620  -14.5530   20.6653 O   0  0  0  0  0  0
  -24.6086  -31.8691   23.2097 C   0  0  0  0  0  0
  -25.9010  -32.4823   23.8373 C   0  0  1  0  0  0
  -27.2504  -27.4990   20.0889 C   0  0  0  0  0  0
  -25.5887  -33.8610   24.2328 N   0  0  0  0  0  0
  -23.3943  -30.4909   21.5513 C   0  0  2  0  0  0
  -24.8398  -28.9574   20.1225 C   0  0  0  0  0  0
  -22.7361  -29.4669   22.5023 C   0  0  0  0  0  0
  -18.0228  -28.1398   22.8495 C   0  0  0  0  0  0
  -24.1434  -36.7283   23.2642 C   0  0  0  0  0  0
  -25.9109  -30.8624   21.3397 C   0  0  0  0  0  0
  -25.9938  -29.4936   20.7059 C   0  0  0  0  0  0
  -27.1968  -28.7710   20.6858 C   0  0  0  0  0  0
  -26.0700  -26.9478   19.5249 C   0  0  0  0  0  0
  -24.8692  -27.6822   19.5365 C   0  0  0  0  0  0
  -23.5973  -29.8172   20.1679 C   0  0  0  0  0  0
  -25.4065  -36.3104   24.0352 C   0  0  1  0  0  0
  -20.5809  -28.3657   23.1345 C   0  0  2  0  0  0
  -20.6731  -26.9400   22.5449 C   0  0  0  0  0  0
  -19.5723  -26.6383   21.5224 C   0  0  0  0  0  0
  -18.1879  -26.7942   22.1629 C   0  0  0  0  0  0
  -19.1481  -28.8849   23.2909 C   0  0  0  0  0  0
  -18.9434  -30.1451   23.8913 C   0  0  0  0  0  0
  -17.6455  -30.6614   24.0576 C   0  0  0  0  0  0
  -25.9007  -34.9488   23.5142 C   0  0  0  0  0  0
  -16.5331  -29.9145   23.6333 C   0  0  0  0  0  0
  -16.7226  -28.6560   23.0356 C   0  0  0  0  0  0
  -26.4433  -31.6585   25.0693 C   0  0  0  0  0  0
  -25.3705  -31.3709   26.1465 C   0  0  0  0  0  0
  -27.0247  -30.3048   24.5989 C   0  0  0  0  0  0
  -27.5991  -32.4294   25.7483 C   0  0  0  0  0  0
  -27.5532  -37.1781   24.8470 C   0  0  0  0  0  0
  -21.4084  -29.3026   22.3763 N   0  0  0  0  0  0
  -26.4236  -37.3805   23.9436 N   0  0  0  0  0  0
  -24.6578  -31.0856   22.0955 N   0  0  0  0  0  0
  -23.4137  -28.8178   23.3052 O   0  0  0  0  0  0
  -28.4854  -26.9030   20.0802 O   0  0  0  0  0  0
  -26.5592  -34.8938   22.4705 O   0  0  0  0  0  0
  -23.5305  -32.1398   23.7535 O   0  0  0  0  0  0
  -30.6870  -17.5030   19.0779 C   0  0  0  0  0  0
  -30.3530  -17.6636   20.4035 C   0  0  0  0  0  0
  -29.7576  -19.6962   19.6093 C   0  0  0  0  0  0
  -30.4966  -16.6872   21.5350 C   0  0  0  0  0  0
  -28.3703  -24.5506   20.5875 C   0  0  0  0  0  0
  -29.0032  -22.0020   20.6130 C   0  0  0  0  0  0
  -28.6399  -25.6223   19.5227 C   0  0  0  0  0  0
  -28.3279  -23.1818   19.8917 C   0  0  1  0  0  0
  -29.8131  -18.9228   20.6872 N   0  0  0  0  0  0
  -29.3205  -21.0008   19.6077 N   0  0  0  0  0  0
  -30.0211  -15.3490   21.2243 N   0  0  0  0  0  0
  -26.9813  -22.8467   19.6227 O   0  0  0  0  0  0
  -30.3393  -18.9253   18.1376 S   0  0  0  0  0  0
  -30.3887  -11.2617   19.7481 H   0  0  0  0  0  0
  -31.4613  -12.4339   19.0416 H   0  0  0  0  0  0
  -29.6953  -11.7243   17.4156 H   0  0  0  0  0  0
  -29.6501  -13.4416   17.7047 H   0  0  0  0  0  0
  -27.8135  -11.2940   18.8067 H   0  0  0  0  0  0
  -27.3441  -12.6259   17.7857 H   0  0  0  0  0  0
  -27.7245  -14.2402   19.5897 H   0  0  0  0  0  0
  -28.6898  -11.8678   21.2550 H   0  0  0  0  0  0
  -28.4763  -13.4715   21.8855 H   0  0  0  0  0  0
  -25.2753   -9.5672   22.4813 H   0  0  0  0  0  0
  -23.9950   -7.4654   22.7526 H   0  0  0  0  0  0
  -21.0892   -8.8761   19.8908 H   0  0  0  0  0  0
  -22.3739  -10.9669   19.6133 H   0  0  0  0  0  0
  -21.2085   -7.6200   23.9741 H   0  0  0  0  0  0
  -21.1415   -6.0561   25.9078 H   0  0  0  0  0  0
  -22.0614   -2.7661   23.2801 H   0  0  0  0  0  0
  -22.4084  -11.9928   22.4800 H   0  0  0  0  0  0
  -21.1140  -13.1351   22.2464 H   0  0  0  0  0  0
  -24.6855  -15.8521   20.5369 H   0  0  0  0  0  0
  -26.2842  -15.6141   20.0399 H   0  0  0  0  0  0
  -26.7107  -32.5560   23.1157 H   0  0  0  0  0  0
  -25.0042  -33.9734   25.0482 H   0  0  0  0  0  0
  -22.6867  -31.3078   21.4104 H   0  0  0  0  0  0
  -23.3728  -35.9581   23.3302 H   0  0  0  0  0  0
  -24.3528  -36.8900   22.2057 H   0  0  0  0  0  0
  -23.7129  -37.6470   23.6661 H   0  0  0  0  0  0
  -25.9924  -31.6112   20.5501 H   0  0  0  0  0  0
  -26.8126  -30.9427   21.9355 H   0  0  0  0  0  0
  -28.0991  -29.1900   21.1096 H   0  0  0  0  0  0
  -26.0460  -25.9695   19.0686 H   0  0  0  0  0  0
  -23.9816  -27.2550   19.0930 H   0  0  0  0  0  0
  -23.6934  -30.5845   19.3997 H   0  0  0  0  0  0
  -22.7251  -29.2278   19.8828 H   0  0  0  0  0  0
  -25.1211  -36.1963   25.0842 H   0  0  0  0  0  0
  -20.9901  -28.3229   24.1470 H   0  0  0  0  0  0
  -20.5623  -26.2244   23.3609 H   0  0  0  0  0  0
  -21.6589  -26.7445   22.1231 H   0  0  0  0  0  0
  -19.6875  -25.6290   21.1244 H   0  0  0  0  0  0
  -19.6683  -27.3199   20.6761 H   0  0  0  0  0  0
  -17.4140  -26.6649   21.4058 H   0  0  0  0  0  0
  -18.0330  -26.0095   22.9054 H   0  0  0  0  0  0
  -19.7910  -30.7258   24.2281 H   0  0  0  0  0  0
  -17.5019  -31.6289   24.5188 H   0  0  0  0  0  0
  -15.5349  -30.3090   23.7631 H   0  0  0  0  0  0
  -15.8591  -28.0902   22.7086 H   0  0  0  0  0  0
  -24.5846  -30.7084   25.7821 H   0  0  0  0  0  0
  -24.8937  -32.2891   26.4916 H   0  0  0  0  0  0
  -25.8039  -30.8877   27.0225 H   0  0  0  0  0  0
  -26.2796  -29.6875   24.0978 H   0  0  0  0  0  0
  -27.4014  -29.7192   25.4383 H   0  0  0  0  0  0
  -27.8594  -30.4414   23.9106 H   0  0  0  0  0  0
  -27.2588  -33.3563   26.2103 H   0  0  0  0  0  0
  -28.3791  -32.6898   25.0321 H   0  0  0  0  0  0
  -28.0676  -31.8401   26.5370 H   0  0  0  0  0  0
  -28.2544  -38.0091   24.7573 H   0  0  0  0  0  0
  -28.1012  -36.2620   24.6210 H   0  0  0  0  0  0
  -27.2269  -37.1366   25.8882 H   0  0  0  0  0  0
  -20.9239  -29.8771   21.6989 H   0  0  0  0  0  0
  -26.0111  -38.2844   24.1573 H   0  0  0  0  0  0
  -31.1268  -16.6358   18.6034 H   0  0  0  0  0  0
  -29.9139  -17.0332   22.3893 H   0  0  0  0  0  0
  -31.5327  -16.6446   21.8689 H   0  0  0  0  0  0
  -27.4486  -24.7632   21.1343 H   0  0  0  0  0  0
  -29.1713  -24.6007   21.3267 H   0  0  0  0  0  0
  -28.3977  -21.5899   21.4253 H   0  0  0  0  0  0
  -29.9437  -22.3332   21.0546 H   0  0  0  0  0  0
  -28.0420  -25.4829   18.6233 H   0  0  0  0  0  0
  -29.6733  -25.5325   19.1900 H   0  0  0  0  0  0
  -28.8441  -23.2985   18.9381 H   0  0  0  0  0  0
  -29.3026  -21.3917   18.6704 H   0  0  0  0  0  0
  -29.0942  -15.1051   21.5424 H   0  0  0  0  0  0
  -26.5115  -22.8321   20.4503 H   0  0  0  0  0  0
  1 25  1  0  0  0
  1 30  2  0  0  0
  1 81  1  0  0  0
  2  3  1  0  0  0
  2 25  1  0  0  0
  2 84  1  0  0  0
  2 85  1  0  0  0
  3  4  1  0  0  0
  3 86  1  0  0  0
  3 87  1  0  0  0
  4  5  1  0  0  0
  4 88  1  0  0  0
  4 89  1  0  0  0
  5  6  1  0  0  0
  5 26  1  0  0  0
  5 90  1  0  0  0
  6 25  1  0  0  0
  6 91  1  0  0  0
  6 92  1  0  0  0
  7  8  2  0  0  0
  7 26  1  0  0  0
  7 29  1  0  0  0
  8  9  1  0  0  0
  8 22  1  0  0  0
  9 10  1  0  0  0
  9 27  2  0  0  0
 10 11  2  0  0  0
 10 15  1  0  0  0
 11 12  1  0  0  0
 11 93  1  0  0  0
 12 13  2  0  0  0
 12 94  1  0  0  0
 13 14  1  0  0  0
 13 31  1  0  0  0
 14 15  2  0  0  0
 14 95  1  0  0  0
 15 96  1  0  0  0
 16 17  2  0  0  0
 16 21  1  0  0  0
 16 31  1  0  0  0
 17 18  1  0  0  0
 17 97  1  0  0  0
 18 19  2  0  0  0
 18 98  1  0  0  0
 19 20  1  0  0  0
 19 24  1  0  0  0
 20 21  2  0  0  0
 20 99  1  0  0  0
 21 23  1  0  0  0
 22 28  1  0  0  0
 22 32  2  0  0  0
 26 27  1  0  0  0
 28100  1  0  0  0
 28101  1  0  0  0
 29102  1  0  0  0
 29103  1  0  0  0
 33 34  1  0  0  0
 33 66  1  0  0  0
 33 70  2  0  0  0
 34 36  1  0  0  0
 34 59  1  0  0  0
 34104  1  0  0  0
 35 44  2  0  0  0
 35 45  1  0  0  0
 35 68  1  0  0  0
 36 56  1  0  0  0
 36105  1  0  0  0
 37 39  1  0  0  0
 37 47  1  0  0  0
 37 66  1  0  0  0
 37106  1  0  0  0
 38 43  2  0  0  0
 38 46  1  0  0  0
 38 47  1  0  0  0
 39 64  1  0  0  0
 39 67  2  0  0  0
 40 52  1  0  0  0
 40 53  2  0  0  0
 40 58  1  0  0  0
 41107  1  0  0  0
 41108  1  0  0  0
 41109  1  0  0  0
 41 48  1  0  0  0
 42 43  1  0  0  0
 42 66  1  0  0  0
 42110  1  0  0  0
 42111  1  0  0  0
 43 44  1  0  0  0
 44112  1  0  0  0
 45 46  2  0  0  0
 45113  1  0  0  0
 46114  1  0  0  0
 47115  1  0  0  0
 47116  1  0  0  0
 48 56  1  0  0  0
 48 65  1  0  0  0
 48117  1  0  0  0
 49 50  1  0  0  0
 49 53  1  0  0  0
 49 64  1  0  0  0
 49118  1  0  0  0
 50 51  1  0  0  0
 50119  1  0  0  0
 50120  1  0  0  0
 51 52  1  0  0  0
 51121  1  0  0  0
 51122  1  0  0  0
 52123  1  0  0  0
 52124  1  0  0  0
 53 54  1  0  0  0
 54 55  2  0  0  0
 54125  1  0  0  0
 55 57  1  0  0  0
 55126  1  0  0  0
 56 69  2  0  0  0
 57 58  2  0  0  0
 57127  1  0  0  0
 58128  1  0  0  0
 59 60  1  0  0  0
 59 61  1  0  0  0
 59 62  1  0  0  0
 60129  1  0  0  0
 60130  1  0  0  0
 60131  1  0  0  0
 61132  1  0  0  0
 61133  1  0  0  0
 61134  1  0  0  0
 62135  1  0  0  0
 62136  1  0  0  0
 62137  1  0  0  0
 63 65  1  0  0  0
 63138  1  0  0  0
 63139  1  0  0  0
 63140  1  0  0  0
 64141  1  0  0  0
 65142  1  0  0  0
 68 77  1  0  0  0
 71 72  2  0  0  0
 71 83  1  0  0  0
 71143  1  0  0  0
 72 74  1  0  0  0
 72 79  1  0  0  0
 73 79  2  0  0  0
 73 80  1  0  0  0
 73 83  1  0  0  0
 74 81  1  0  0  0
 74144  1  0  0  0
 74145  1  0  0  0
 75 77  1  0  0  0
 75 78  1  0  0  0
 75146  1  0  0  0
 75147  1  0  0  0
 76 78  1  0  0  0
 76 80  1  0  0  0
 76148  1  0  0  0
 76149  1  0  0  0
 77150  1  0  0  0
 77151  1  0  0  0
 78 82  1  0  0  0
 78152  1  0  0  0
 80153  1  0  0  0
 81154  1  0  0  0
 82155  1  0  0  0
M  ISO  4   1 100  68 101  77 101  81 100
M  END
> <chiral flag>
0

> <version>
0

> <s_m_source_file>
/data/baiqing/PycharmProjects/Reinvent-master-3.2/result/LINK_invent/BTK/process_docking_weight1_custom_product_contain_oxygen_bond_distance_aromatic_linkinvent_7_9_3/rearranged_h_0191.sdf

> <i_m_source_file_index>
44

> <r_mmod_Potential_Energy-OPLS-2005>
-336.790222167969

> <r_mmod_Stretch_Energy-OPLS-2005>
28.4694232940674

> <r_mmod_Bend_Energy-OPLS-2005>
105.133354187012

> <r_mmod_Torsional_Energy-OPLS-2005>
201.504623413086

> <r_mmod_Improper_Torsional_Energy-OPLS-2005>
2.78236627578735

> <r_mmod_Van_der_Waal_Energy-OPLS-2005>
139.982345581055

> <r_mmod_Electrostatic_Energy-OPLS-2005>
-587.480895996094

> <r_mmod_Solvation_Energy-OPLS-2005>
-239.878280639648

> <b_mmod_Minimization_Converged-OPLS-2005>
0

> <r_mmod_RMS_Derivative-OPLS-2005>
5.86557769775391

$$$$
46
                    3D
 Structure written by MMmdl.
151159  0  0  1  0            999 V2000
  -30.5111  -15.0824   20.3677 C   0  0  0  0  0  0
  -30.4508  -12.6818   19.5015 C   0  0  0  0  0  0
  -29.5355  -12.5279   18.2658 C   0  0  0  0  0  0
  -28.0751  -12.2821   18.6944 C   0  0  0  0  0  0
  -27.6187  -13.2490   19.8180 C   0  0  2  0  0  0
  -28.6646  -13.3604   20.9469 C   0  0  0  0  0  0
  -25.2438  -13.8179   20.5717 C   0  0  0  0  0  0
  -24.1752  -13.0445   20.9214 C   0  0  0  0  0  0
  -24.6353  -11.6907   20.8744 C   0  0  0  0  0  0
  -23.9038  -10.4310   21.0396 C   0  0  0  0  0  0
  -24.3591   -9.4236   21.9176 C   0  0  0  0  0  0
  -23.6281   -8.2259   22.0764 C   0  0  0  0  0  0
  -22.4247   -8.0286   21.3557 C   0  0  0  0  0  0
  -21.9891   -9.0245   20.4632 C   0  0  0  0  0  0
  -22.7210  -10.2133   20.3050 C   0  0  0  0  0  0
  -21.6864   -6.0727   22.5252 C   0  0  0  0  0  0
  -21.4032   -6.5619   23.8200 C   0  0  0  0  0  0
  -21.3674   -5.6774   24.9156 C   0  0  0  0  0  0
  -21.6059   -4.3036   24.7185 C   0  0  0  0  0  0
  -21.8805   -3.8121   23.4303 C   0  0  0  0  0  0
  -21.9193   -4.6955   22.3369 C   0  0  0  0  0  0
  -22.7767  -13.5237   21.1838 C   0  0  0  0  0  0
  -22.1664   -4.2146   21.0950 F   0  0  0  0  0  0
  -21.5646   -3.4516   25.7702 F   0  0  0  0  0  0
  -29.9144  -13.8112   20.3176 N   0  0  0  0  0  0
  -26.2840  -12.9416   20.3212 N   0  0  0  0  0  0
  -25.9269  -11.6526   20.5655 N   0  0  0  0  0  0
  -22.0373  -12.8326   22.0407 N   0  0  0  0  0  0
  -25.4209  -15.1937   20.4147 N   0  0  0  0  0  0
  -31.7351  -15.0987   20.1995 O   0  0  0  0  0  0
  -21.6647   -6.8859   21.4205 O   0  0  0  0  0  0
  -22.3493  -14.5537   20.6623 O   0  0  0  0  0  0
  -24.6533  -31.8335   23.1785 C   0  0  0  0  0  0
  -25.9251  -32.4642   23.8254 C   0  0  1  0  0  0
  -27.2285  -27.0316   20.1660 C   0  0  0  0  0  0
  -25.5958  -33.8451   24.2148 N   0  0  0  0  0  0
  -23.4656  -30.4483   21.5264 C   0  0  2  0  0  0
  -24.9204  -28.8570   20.1120 C   0  0  0  0  0  0
  -22.7639  -29.4505   22.4837 C   0  0  0  0  0  0
  -18.0312  -28.1409   22.8476 C   0  0  0  0  0  0
  -24.1499  -36.7217   23.2651 C   0  0  0  0  0  0
  -26.0286  -30.6784   21.3936 C   0  0  0  0  0  0
  -26.1003  -29.2795   20.7326 C   0  0  0  0  0  0
  -27.2449  -28.3821   20.7419 C   0  0  0  0  0  0
  -26.0038  -26.7288   19.5316 C   0  0  0  0  0  0
  -24.8922  -27.5997   19.4928 C   0  0  0  0  0  0
  -23.6979  -29.7672   20.1517 C   0  0  0  0  0  0
  -25.4137  -36.2984   24.0301 C   0  0  1  0  0  0
  -20.5933  -28.3756   23.1195 C   0  0  2  0  0  0
  -20.6800  -26.9455   22.5384 C   0  0  0  0  0  0
  -19.5764  -26.6400   21.5207 C   0  0  0  0  0  0
  -18.1952  -26.7943   22.1638 C   0  0  0  0  0  0
  -19.1572  -28.8902   23.2836 C   0  0  0  0  0  0
  -18.9482  -30.1492   23.8869 C   0  0  0  0  0  0
  -17.6470  -30.6593   24.0561 C   0  0  0  0  0  0
  -25.9079  -34.9367   23.5024 C   0  0  0  0  0  0
  -16.5364  -29.9068   23.6362 C   0  0  0  0  0  0
  -16.7297  -28.6497   23.0373 C   0  0  0  0  0  0
  -26.4539  -31.6534   25.0727 C   0  0  0  0  0  0
  -25.3716  -31.3725   26.1426 C   0  0  0  0  0  0
  -27.0431  -30.2918   24.6357 C   0  0  0  0  0  0
  -27.6064  -32.4333   25.7497 C   0  0  0  0  0  0
  -27.5567  -37.1751   24.8463 C   0  0  0  0  0  0
  -21.4319  -29.3042   22.3563 N   0  0  0  0  0  0
  -26.4285  -37.3709   23.9389 N   0  0  0  0  0  0
  -24.7368  -31.0116   22.0871 N   0  0  0  0  0  0
  -23.4233  -28.8059   23.3042 O   0  0  0  0  0  0
  -28.2938  -26.0260   20.3036 O   0  0  0  0  0  0
  -26.5700  -34.8855   22.4617 O   0  0  0  0  0  0
  -23.5616  -32.1250   23.6922 O   0  0  0  0  0  0
  -29.5616  -19.3367   20.0967 C   0  0  0  0  0  0
  -29.6100  -19.9390   18.8397 C   0  0  0  0  0  0
  -28.9856  -21.6862   20.1466 C   0  0  0  0  0  0
  -30.0535  -19.4017   17.5100 C   0  0  0  0  0  0
  -27.7606  -24.3841   18.3504 C   0  0  0  0  0  0
  -30.1743  -17.8563   20.6262 C   0  0  0  0  0  0
  -28.4562  -24.5709   19.6989 C   0  0  2  0  0  0
  -29.1493  -20.5123   20.8917 N   0  0  0  0  0  0
  -28.5977  -23.1339   20.4242 N   0  0  0  0  0  0
  -29.7618  -16.3172   20.3931 N   0  0  0  0  0  0
  -29.2701  -21.3194   18.8592 O   0  0  0  0  0  0
  -31.4791  -12.8623   19.1848 H   0  0  0  0  0  0
  -30.4855  -11.7646   20.0902 H   0  0  0  0  0  0
  -29.8914  -11.7092   17.6387 H   0  0  0  0  0  0
  -29.5941  -13.4303   17.6586 H   0  0  0  0  0  0
  -28.0064  -11.2536   19.0466 H   0  0  0  0  0  0
  -27.4124  -12.3471   17.8307 H   0  0  0  0  0  0
  -27.5579  -14.2243   19.3385 H   0  0  0  0  0  0
  -28.7947  -12.4036   21.4495 H   0  0  0  0  0  0
  -28.3404  -14.0700   21.7084 H   0  0  0  0  0  0
  -25.2723   -9.5756   22.4741 H   0  0  0  0  0  0
  -24.0004   -7.4675   22.7498 H   0  0  0  0  0  0
  -21.0839   -8.8684   19.8939 H   0  0  0  0  0  0
  -22.3610  -10.9636   19.6146 H   0  0  0  0  0  0
  -21.2025   -7.6124   23.9695 H   0  0  0  0  0  0
  -21.1549   -6.0505   25.9077 H   0  0  0  0  0  0
  -22.0580   -2.7580   23.2771 H   0  0  0  0  0  0
  -22.3955  -12.0073   22.4974 H   0  0  0  0  0  0
  -21.0980  -13.1359   22.2466 H   0  0  0  0  0  0
  -24.6620  -15.8545   20.5393 H   0  0  0  0  0  0
  -26.2659  -15.6212   20.0563 H   0  0  0  0  0  0
  -26.7337  -32.5215   23.1013 H   0  0  0  0  0  0
  -25.0033  -33.9576   25.0243 H   0  0  0  0  0  0
  -22.7755  -31.2773   21.3593 H   0  0  0  0  0  0
  -23.3773  -35.9534   23.3283 H   0  0  0  0  0  0
  -24.3598  -36.8878   22.2071 H   0  0  0  0  0  0
  -23.7240  -37.6382   23.6730 H   0  0  0  0  0  0
  -26.1928  -31.4322   20.6235 H   0  0  0  0  0  0
  -26.8959  -30.7353   22.0395 H   0  0  0  0  0  0
  -28.1329  -28.6998   21.2663 H   0  0  0  0  0  0
  -25.8399  -25.7526   19.1173 H   0  0  0  0  0  0
  -23.9841  -27.2594   19.0137 H   0  0  0  0  0  0
  -23.8316  -30.5318   19.3868 H   0  0  0  0  0  0
  -22.8153  -29.2005   19.8468 H   0  0  0  0  0  0
  -25.1338  -36.1787   25.0793 H   0  0  0  0  0  0
  -21.0037  -28.3327   24.1322 H   0  0  0  0  0  0
  -20.5687  -26.2381   23.3629 H   0  0  0  0  0  0
  -21.6660  -26.7439   22.1182 H   0  0  0  0  0  0
  -19.6928  -25.6300   21.1274 H   0  0  0  0  0  0
  -19.6665  -27.3185   20.6707 H   0  0  0  0  0  0
  -17.4220  -26.6690   21.4044 H   0  0  0  0  0  0
  -18.0338  -26.0083   22.9027 H   0  0  0  0  0  0
  -19.7942  -30.7328   24.2243 H   0  0  0  0  0  0
  -17.5004  -31.6281   24.5153 H   0  0  0  0  0  0
  -15.5357  -30.2956   23.7701 H   0  0  0  0  0  0
  -15.8707  -28.0801   22.7109 H   0  0  0  0  0  0
  -24.5813  -30.7201   25.7702 H   0  0  0  0  0  0
  -24.9049  -32.2918   26.4945 H   0  0  0  0  0  0
  -25.7969  -30.8765   27.0158 H   0  0  0  0  0  0
  -26.3062  -29.6609   24.1374 H   0  0  0  0  0  0
  -27.4031  -29.7228   25.4939 H   0  0  0  0  0  0
  -27.8979  -30.4138   23.9712 H   0  0  0  0  0  0
  -27.2628  -33.3615   26.2062 H   0  0  0  0  0  0
  -28.3850  -32.6922   25.0319 H   0  0  0  0  0  0
  -28.0789  -31.8510   26.5407 H   0  0  0  0  0  0
  -28.2577  -38.0054   24.7525 H   0  0  0  0  0  0
  -28.1071  -36.2587   24.6289 H   0  0  0  0  0  0
  -27.2296  -37.1382   25.8868 H   0  0  0  0  0  0
  -20.9582  -29.8739   21.6696 H   0  0  0  0  0  0
  -26.0136  -38.2757   24.1409 H   0  0  0  0  0  0
  -29.2701  -18.8115   17.0354 H   0  0  0  0  0  0
  -30.9407  -18.7736   17.5953 H   0  0  0  0  0  0
  -30.3117  -20.2108   16.8235 H   0  0  0  0  0  0
  -27.7019  -25.3283   17.8128 H   0  0  0  0  0  0
  -26.7706  -23.9555   18.4889 H   0  0  0  0  0  0
  -28.3376  -23.6818   17.7477 H   0  0  0  0  0  0
  -30.1941  -17.9343   21.7130 H   0  0  0  0  0  0
  -31.2285  -17.8761   20.3446 H   0  0  0  0  0  0
  -29.5002  -24.7132   19.4248 H   0  0  0  0  0  0
  -28.2697  -23.1724   21.3833 H   0  0  0  0  0  0
  -28.7628  -16.1689   20.3897 H   0  0  0  0  0  0
  1 25  1  0  0  0
  1 30  2  0  0  0
  1 80  1  0  0  0
  2  3  1  0  0  0
  2 25  1  0  0  0
  2 82  1  0  0  0
  2 83  1  0  0  0
  3  4  1  0  0  0
  3 84  1  0  0  0
  3 85  1  0  0  0
  4  5  1  0  0  0
  4 86  1  0  0  0
  4 87  1  0  0  0
  5  6  1  0  0  0
  5 26  1  0  0  0
  5 88  1  0  0  0
  6 25  1  0  0  0
  6 89  1  0  0  0
  6 90  1  0  0  0
  7  8  2  0  0  0
  7 26  1  0  0  0
  7 29  1  0  0  0
  8  9  1  0  0  0
  8 22  1  0  0  0
  9 10  1  0  0  0
  9 27  2  0  0  0
 10 11  2  0  0  0
 10 15  1  0  0  0
 11 12  1  0  0  0
 11 91  1  0  0  0
 12 13  2  0  0  0
 12 92  1  0  0  0
 13 14  1  0  0  0
 13 31  1  0  0  0
 14 15  2  0  0  0
 14 93  1  0  0  0
 15 94  1  0  0  0
 16 17  2  0  0  0
 16 21  1  0  0  0
 16 31  1  0  0  0
 17 18  1  0  0  0
 17 95  1  0  0  0
 18 19  2  0  0  0
 18 96  1  0  0  0
 19 20  1  0  0  0
 19 24  1  0  0  0
 20 21  2  0  0  0
 20 97  1  0  0  0
 21 23  1  0  0  0
 22 28  1  0  0  0
 22 32  2  0  0  0
 26 27  1  0  0  0
 28 98  1  0  0  0
 28 99  1  0  0  0
 29100  1  0  0  0
 29101  1  0  0  0
 33 34  1  0  0  0
 33 66  1  0  0  0
 33 70  2  0  0  0
 34 36  1  0  0  0
 34 59  1  0  0  0
 34102  1  0  0  0
 35 44  2  0  0  0
 35 45  1  0  0  0
 35 68  1  0  0  0
 36 56  1  0  0  0
 36103  1  0  0  0
 37 39  1  0  0  0
 37 47  1  0  0  0
 37 66  1  0  0  0
 37104  1  0  0  0
 38 43  2  0  0  0
 38 46  1  0  0  0
 38 47  1  0  0  0
 39 64  1  0  0  0
 39 67  2  0  0  0
 40 52  1  0  0  0
 40 53  2  0  0  0
 40 58  1  0  0  0
 41105  1  0  0  0
 41106  1  0  0  0
 41107  1  0  0  0
 41 48  1  0  0  0
 42 43  1  0  0  0
 42 66  1  0  0  0
 42108  1  0  0  0
 42109  1  0  0  0
 43 44  1  0  0  0
 44110  1  0  0  0
 45 46  2  0  0  0
 45111  1  0  0  0
 46112  1  0  0  0
 47113  1  0  0  0
 47114  1  0  0  0
 48 56  1  0  0  0
 48 65  1  0  0  0
 48115  1  0  0  0
 49 50  1  0  0  0
 49 53  1  0  0  0
 49 64  1  0  0  0
 49116  1  0  0  0
 50 51  1  0  0  0
 50117  1  0  0  0
 50118  1  0  0  0
 51 52  1  0  0  0
 51119  1  0  0  0
 51120  1  0  0  0
 52121  1  0  0  0
 52122  1  0  0  0
 53 54  1  0  0  0
 54 55  2  0  0  0
 54123  1  0  0  0
 55 57  1  0  0  0
 55124  1  0  0  0
 56 69  2  0  0  0
 57 58  2  0  0  0
 57125  1  0  0  0
 58126  1  0  0  0
 59 60  1  0  0  0
 59 61  1  0  0  0
 59 62  1  0  0  0
 60127  1  0  0  0
 60128  1  0  0  0
 60129  1  0  0  0
 61130  1  0  0  0
 61131  1  0  0  0
 61132  1  0  0  0
 62133  1  0  0  0
 62134  1  0  0  0
 62135  1  0  0  0
 63 65  1  0  0  0
 63136  1  0  0  0
 63137  1  0  0  0
 63138  1  0  0  0
 64139  1  0  0  0
 65140  1  0  0  0
 68 77  1  0  0  0
 71 72  2  0  0  0
 71 76  1  0  0  0
 71 78  1  0  0  0
 72 74  1  0  0  0
 72 81  1  0  0  0
 73 78  2  0  0  0
 73 79  1  0  0  0
 73 81  1  0  0  0
 74141  1  0  0  0
 74142  1  0  0  0
 74143  1  0  0  0
 75144  1  0  0  0
 75145  1  0  0  0
 75146  1  0  0  0
 75 77  1  0  0  0
 76 80  1  0  0  0
 76147  1  0  0  0
 76148  1  0  0  0
 77 79  1  0  0  0
 77149  1  0  0  0
 79150  1  0  0  0
 80151  1  0  0  0
M  ISO  4   1 100  68 101  77 101  80 100
M  END
> <chiral flag>
0

> <version>
0

> <s_m_source_file>
/data/baiqing/PycharmProjects/Reinvent-master-3.2/result/LINK_invent/BTK/process_docking_weight1_custom_product_contain_oxygen_bond_distance_aromatic_linkinvent_7_9_3/rearranged_h_0191.sdf

> <i_m_source_file_index>
45

> <r_mmod_Potential_Energy-OPLS-2005>
572.455932617188

> <r_mmod_Stretch_Energy-OPLS-2005>
348.661163330078

> <r_mmod_Bend_Energy-OPLS-2005>
367.522827148438

> <r_mmod_Torsional_Energy-OPLS-2005>
186.97380065918

> <r_mmod_Improper_Torsional_Energy-OPLS-2005>
7.18251848220825

> <r_mmod_Van_der_Waal_Energy-OPLS-2005>
111.431144714355

> <r_mmod_Electrostatic_Energy-OPLS-2005>
-515.224975585938

> <r_mmod_Solvation_Energy-OPLS-2005>
-233.608184814453

> <b_mmod_Minimization_Converged-OPLS-2005>
0

> <r_mmod_RMS_Derivative-OPLS-2005>
6.56188726425171

$$$$
47
                    3D
 Structure written by MMmdl.
162170  0  0  1  0            999 V2000
  -30.5971  -14.7824   20.4291 C   0  0  0  0  0  0
  -30.4278  -12.4679   19.4931 C   0  0  0  0  0  0
  -29.5149  -12.5127   18.2468 C   0  0  0  0  0  0
  -28.0394  -12.3356   18.6522 C   0  0  0  0  0  0
  -27.6396  -13.2382   19.8499 C   0  0  2  0  0  0
  -28.6800  -13.1877   20.9909 C   0  0  0  0  0  0
  -25.2493  -13.8206   20.5689 C   0  0  0  0  0  0
  -24.1794  -13.0439   20.9199 C   0  0  0  0  0  0
  -24.6394  -11.6921   20.8737 C   0  0  0  0  0  0
  -23.9077  -10.4291   21.0393 C   0  0  0  0  0  0
  -24.3631   -9.4208   21.9171 C   0  0  0  0  0  0
  -23.6305   -8.2245   22.0748 C   0  0  0  0  0  0
  -22.4287   -8.0279   21.3540 C   0  0  0  0  0  0
  -21.9921   -9.0249   20.4642 C   0  0  0  0  0  0
  -22.7246  -10.2129   20.3046 C   0  0  0  0  0  0
  -21.6856   -6.0736   22.5275 C   0  0  0  0  0  0
  -21.4015   -6.5639   23.8207 C   0  0  0  0  0  0
  -21.3662   -5.6792   24.9171 C   0  0  0  0  0  0
  -21.6048   -4.3054   24.7221 C   0  0  0  0  0  0
  -21.8818   -3.8145   23.4342 C   0  0  0  0  0  0
  -21.9194   -4.6964   22.3398 C   0  0  0  0  0  0
  -22.7815  -13.5208   21.1863 C   0  0  0  0  0  0
  -22.1659   -4.2151   21.0976 F   0  0  0  0  0  0
  -21.5637   -3.4536   25.7733 F   0  0  0  0  0  0
  -29.9832  -13.5428   20.4167 N   0  0  0  0  0  0
  -26.2923  -12.9427   20.3263 N   0  0  0  0  0  0
  -25.9327  -11.6562   20.5740 N   0  0  0  0  0  0
  -22.0476  -12.8193   22.0427 N   0  0  0  0  0  0
  -25.4176  -15.1934   20.4122 N   0  0  0  0  0  0
  -31.7883  -14.8480   20.0991 O   0  0  0  0  0  0
  -21.6645   -6.8880   21.4238 O   0  0  0  0  0  0
  -22.3491  -14.5507   20.6707 O   0  0  0  0  0  0
  -24.6342  -31.8510   23.1946 C   0  0  0  0  0  0
  -25.9156  -32.4727   23.8304 C   0  0  1  0  0  0
  -27.2245  -27.2310   20.1266 C   0  0  0  0  0  0
  -25.5938  -33.8532   24.2222 N   0  0  0  0  0  0
  -23.4323  -30.4719   21.5379 C   0  0  2  0  0  0
  -24.8797  -28.9120   20.1067 C   0  0  0  0  0  0
  -22.7515  -29.4578   22.4892 C   0  0  0  0  0  0
  -18.0293  -28.1387   22.8484 C   0  0  0  0  0  0
  -24.1490  -36.7273   23.2641 C   0  0  0  0  0  0
  -25.9797  -30.7535   21.3789 C   0  0  0  0  0  0
  -26.0503  -29.3738   20.7192 C   0  0  0  0  0  0
  -27.2195  -28.5438   20.7200 C   0  0  0  0  0  0
  -26.0231  -26.8370   19.4948 C   0  0  0  0  0  0
  -24.8727  -27.6533   19.4854 C   0  0  0  0  0  0
  -23.6520  -29.8029   20.1545 C   0  0  0  0  0  0
  -25.4120  -36.3051   24.0318 C   0  0  1  0  0  0
  -20.5900  -28.3697   23.1264 C   0  0  2  0  0  0
  -20.6779  -26.9409   22.5409 C   0  0  0  0  0  0
  -19.5756  -26.6378   21.5214 C   0  0  0  0  0  0
  -18.1936  -26.7929   22.1623 C   0  0  0  0  0  0
  -19.1549  -28.8861   23.2870 C   0  0  0  0  0  0
  -18.9468  -30.1461   23.8887 C   0  0  0  0  0  0
  -17.6467  -30.6589   24.0558 C   0  0  0  0  0  0
  -25.9063  -34.9422   23.5076 C   0  0  0  0  0  0
  -16.5357  -29.9082   23.6335 C   0  0  0  0  0  0
  -16.7279  -28.6501   23.0355 C   0  0  0  0  0  0
  -26.4510  -31.6574   25.0716 C   0  0  0  0  0  0
  -25.3723  -31.3742   26.1430 C   0  0  0  0  0  0
  -27.0374  -30.2987   24.6240 C   0  0  0  0  0  0
  -27.6051  -32.4332   25.7498 C   0  0  0  0  0  0
  -27.5578  -37.1793   24.8464 C   0  0  0  0  0  0
  -21.4218  -29.3038   22.3646 N   0  0  0  0  0  0
  -26.4288  -37.3757   23.9407 N   0  0  0  0  0  0
  -24.7011  -31.0449   22.0931 N   0  0  0  0  0  0
  -23.4202  -28.8126   23.3009 O   0  0  0  0  0  0
  -28.3291  -26.3429   20.2400 O   0  0  0  0  0  0
  -26.5641  -34.8909   22.4649 O   0  0  0  0  0  0
  -23.5484  -32.1344   23.7223 O   0  0  0  0  0  0
  -29.3558  -19.4867   18.5260 C   0  0  0  0  0  0
  -29.7854  -18.2602   17.9782 C   0  0  0  0  0  0
  -29.2566  -19.5775   19.9317 C   0  0  0  0  0  0
  -29.8107  -17.2184   20.0369 C   0  0  0  0  0  0
  -28.9315  -20.6041   17.5771 C   0  0  0  0  0  0
  -29.9645  -18.0641   16.4840 C   0  0  0  0  0  0
  -30.7038  -22.3398   19.6791 C   0  0  0  0  0  0
  -29.8179  -25.2168   18.7736 C   0  0  0  0  0  0
  -28.2677  -23.4976   20.1491 C   0  0  0  0  0  0
  -29.3499  -22.2665   20.4100 C   0  0  1  0  0  0
  -28.4943  -25.0218   19.5196 C   0  0  1  0  0  0
  -30.0111  -17.1682   18.7273 N   0  0  0  0  0  0
  -29.4334  -18.3964   20.6554 N   0  0  0  0  0  0
  -28.8544  -20.8173   20.5873 N   0  0  0  0  0  0
  -29.8484  -15.9344   20.6920 N   0  0  0  0  0  0
  -31.4719  -12.5781   19.1958 H   0  0  0  0  0  0
  -30.3629  -11.4944   19.9821 H   0  0  0  0  0  0
  -29.8045  -11.7370   17.5368 H   0  0  0  0  0  0
  -29.6428  -13.4649   17.7295 H   0  0  0  0  0  0
  -27.8958  -11.2871   18.9163 H   0  0  0  0  0  0
  -27.3860  -12.5248   17.7995 H   0  0  0  0  0  0
  -27.6292  -14.2578   19.4637 H   0  0  0  0  0  0
  -28.7162  -12.1933   21.4384 H   0  0  0  0  0  0
  -28.4072  -13.8743   21.7934 H   0  0  0  0  0  0
  -25.2777   -9.5687   22.4744 H   0  0  0  0  0  0
  -24.0016   -7.4639   22.7468 H   0  0  0  0  0  0
  -21.0851   -8.8761   19.8952 H   0  0  0  0  0  0
  -22.3694  -10.9665   19.6158 H   0  0  0  0  0  0
  -21.2000   -7.6146   23.9711 H   0  0  0  0  0  0
  -21.1490   -6.0521   25.9075 H   0  0  0  0  0  0
  -22.0598   -2.7608   23.2836 H   0  0  0  0  0  0
  -22.4107  -11.9862   22.4813 H   0  0  0  0  0  0
  -21.1088  -13.1200   22.2634 H   0  0  0  0  0  0
  -24.6474  -15.8445   20.5214 H   0  0  0  0  0  0
  -26.2593  -15.6335   20.0645 H   0  0  0  0  0  0
  -26.7218  -32.5361   23.1038 H   0  0  0  0  0  0
  -25.0075  -33.9659   25.0361 H   0  0  0  0  0  0
  -22.7305  -31.2953   21.3892 H   0  0  0  0  0  0
  -23.3752  -35.9607   23.3295 H   0  0  0  0  0  0
  -24.3575  -36.8911   22.2057 H   0  0  0  0  0  0
  -23.7248  -37.6470   23.6679 H   0  0  0  0  0  0
  -26.1246  -31.5129   20.6094 H   0  0  0  0  0  0
  -26.8547  -30.8009   22.0155 H   0  0  0  0  0  0
  -28.1135  -28.8890   21.2203 H   0  0  0  0  0  0
  -25.9221  -25.8630   19.0426 H   0  0  0  0  0  0
  -23.9711  -27.2894   19.0120 H   0  0  0  0  0  0
  -23.7803  -30.5779   19.3983 H   0  0  0  0  0  0
  -22.7694  -29.2386   19.8484 H   0  0  0  0  0  0
  -25.1307  -36.1885   25.0811 H   0  0  0  0  0  0
  -20.9995  -28.3276   24.1385 H   0  0  0  0  0  0
  -20.5674  -26.2306   23.3618 H   0  0  0  0  0  0
  -21.6645  -26.7428   22.1207 H   0  0  0  0  0  0
  -19.6913  -25.6286   21.1251 H   0  0  0  0  0  0
  -19.6695  -27.3181   20.6739 H   0  0  0  0  0  0
  -17.4206  -26.6679   21.4024 H   0  0  0  0  0  0
  -18.0332  -26.0071   22.9021 H   0  0  0  0  0  0
  -19.7943  -30.7282   24.2248 H   0  0  0  0  0  0
  -17.5019  -31.6268   24.5158 H   0  0  0  0  0  0
  -15.5357  -30.2978   23.7667 H   0  0  0  0  0  0
  -15.8680  -28.0815   22.7074 H   0  0  0  0  0  0
  -24.5893  -30.7096   25.7757 H   0  0  0  0  0  0
  -24.8920  -32.2918   26.4835 H   0  0  0  0  0  0
  -25.8026  -30.8928   27.0220 H   0  0  0  0  0  0
  -26.2976  -29.6716   24.1250 H   0  0  0  0  0  0
  -27.4026  -29.7271   25.4784 H   0  0  0  0  0  0
  -27.8862  -30.4250   23.9516 H   0  0  0  0  0  0
  -27.2641  -33.3633   26.2057 H   0  0  0  0  0  0
  -28.3873  -32.6893   25.0341 H   0  0  0  0  0  0
  -28.0708  -31.8475   26.5433 H   0  0  0  0  0  0
  -28.2588  -38.0096   24.7508 H   0  0  0  0  0  0
  -28.1079  -36.2625   24.6291 H   0  0  0  0  0  0
  -27.2294  -37.1441   25.8866 H   0  0  0  0  0  0
  -20.9406  -29.8755   21.6845 H   0  0  0  0  0  0
  -26.0158  -38.2827   24.1410 H   0  0  0  0  0  0
  -28.2317  -20.2192   16.8353 H   0  0  0  0  0  0
  -29.7915  -21.0065   17.0423 H   0  0  0  0  0  0
  -28.4147  -21.4194   18.0763 H   0  0  0  0  0  0
  -30.5752  -18.8609   16.0595 H   0  0  0  0  0  0
  -28.9970  -18.0637   15.9825 H   0  0  0  0  0  0
  -30.4564  -17.1169   16.2611 H   0  0  0  0  0  0
  -31.2668  -23.2172   19.9919 H   0  0  0  0  0  0
  -30.6077  -22.3796   18.5985 H   0  0  0  0  0  0
  -31.3382  -21.4859   19.9202 H   0  0  0  0  0  0
  -29.9899  -24.4319   18.0396 H   0  0  0  0  0  0
  -30.6618  -25.2620   19.4604 H   0  0  0  0  0  0
  -29.8102  -26.1570   18.2213 H   0  0  0  0  0  0
  -27.7078  -23.6288   21.0756 H   0  0  0  0  0  0
  -27.5261  -23.0527   19.4856 H   0  0  0  0  0  0
  -29.6614  -22.4790   21.4342 H   0  0  0  0  0  0
  -27.7833  -25.0472   18.6973 H   0  0  0  0  0  0
  -28.5781  -20.6358   21.5465 H   0  0  0  0  0  0
  -29.0302  -15.7604   21.2500 H   0  0  0  0  0  0
  1 25  1  0  0  0
  1 30  2  0  0  0
  1 85  1  0  0  0
  2  3  1  0  0  0
  2 25  1  0  0  0
  2 86  1  0  0  0
  2 87  1  0  0  0
  3  4  1  0  0  0
  3 88  1  0  0  0
  3 89  1  0  0  0
  4  5  1  0  0  0
  4 90  1  0  0  0
  4 91  1  0  0  0
  5  6  1  0  0  0
  5 26  1  0  0  0
  5 92  1  0  0  0
  6 25  1  0  0  0
  6 93  1  0  0  0
  6 94  1  0  0  0
  7  8  2  0  0  0
  7 26  1  0  0  0
  7 29  1  0  0  0
  8  9  1  0  0  0
  8 22  1  0  0  0
  9 10  1  0  0  0
  9 27  2  0  0  0
 10 11  2  0  0  0
 10 15  1  0  0  0
 11 12  1  0  0  0
 11 95  1  0  0  0
 12 13  2  0  0  0
 12 96  1  0  0  0
 13 14  1  0  0  0
 13 31  1  0  0  0
 14 15  2  0  0  0
 14 97  1  0  0  0
 15 98  1  0  0  0
 16 17  2  0  0  0
 16 21  1  0  0  0
 16 31  1  0  0  0
 17 18  1  0  0  0
 17 99  1  0  0  0
 18 19  2  0  0  0
 18100  1  0  0  0
 19 20  1  0  0  0
 19 24  1  0  0  0
 20 21  2  0  0  0
 20101  1  0  0  0
 21 23  1  0  0  0
 22 28  1  0  0  0
 22 32  2  0  0  0
 26 27  1  0  0  0
 28102  1  0  0  0
 28103  1  0  0  0
 29104  1  0  0  0
 29105  1  0  0  0
 33 34  1  0  0  0
 33 66  1  0  0  0
 33 70  2  0  0  0
 34 36  1  0  0  0
 34 59  1  0  0  0
 34106  1  0  0  0
 35 44  2  0  0  0
 35 45  1  0  0  0
 35 68  1  0  0  0
 36 56  1  0  0  0
 36107  1  0  0  0
 37 39  1  0  0  0
 37 47  1  0  0  0
 37 66  1  0  0  0
 37108  1  0  0  0
 38 43  2  0  0  0
 38 46  1  0  0  0
 38 47  1  0  0  0
 39 64  1  0  0  0
 39 67  2  0  0  0
 40 52  1  0  0  0
 40 53  2  0  0  0
 40 58  1  0  0  0
 41109  1  0  0  0
 41110  1  0  0  0
 41111  1  0  0  0
 41 48  1  0  0  0
 42 43  1  0  0  0
 42 66  1  0  0  0
 42112  1  0  0  0
 42113  1  0  0  0
 43 44  1  0  0  0
 44114  1  0  0  0
 45 46  2  0  0  0
 45115  1  0  0  0
 46116  1  0  0  0
 47117  1  0  0  0
 47118  1  0  0  0
 48 56  1  0  0  0
 48 65  1  0  0  0
 48119  1  0  0  0
 49 50  1  0  0  0
 49 53  1  0  0  0
 49 64  1  0  0  0
 49120  1  0  0  0
 50 51  1  0  0  0
 50121  1  0  0  0
 50122  1  0  0  0
 51 52  1  0  0  0
 51123  1  0  0  0
 51124  1  0  0  0
 52125  1  0  0  0
 52126  1  0  0  0
 53 54  1  0  0  0
 54 55  2  0  0  0
 54127  1  0  0  0
 55 57  1  0  0  0
 55128  1  0  0  0
 56 69  2  0  0  0
 57 58  2  0  0  0
 57129  1  0  0  0
 58130  1  0  0  0
 59 60  1  0  0  0
 59 61  1  0  0  0
 59 62  1  0  0  0
 60131  1  0  0  0
 60132  1  0  0  0
 60133  1  0  0  0
 61134  1  0  0  0
 61135  1  0  0  0
 61136  1  0  0  0
 62137  1  0  0  0
 62138  1  0  0  0
 62139  1  0  0  0
 63 65  1  0  0  0
 63140  1  0  0  0
 63141  1  0  0  0
 63142  1  0  0  0
 64143  1  0  0  0
 65144  1  0  0  0
 68 81  1  0  0  0
 71 72  2  0  0  0
 71 73  1  0  0  0
 71 75  1  0  0  0
 72 76  1  0  0  0
 72 82  1  0  0  0
 73 83  2  0  0  0
 73 84  1  0  0  0
 74 82  2  0  0  0
 74 83  1  0  0  0
 74 85  1  0  0  0
 75145  1  0  0  0
 75146  1  0  0  0
 75147  1  0  0  0
 76148  1  0  0  0
 76149  1  0  0  0
 76150  1  0  0  0
 77151  1  0  0  0
 77152  1  0  0  0
 77153  1  0  0  0
 77 80  1  0  0  0
 78154  1  0  0  0
 78155  1  0  0  0
 78156  1  0  0  0
 78 81  1  0  0  0
 79 80  1  0  0  0
 79 81  1  0  0  0
 79157  1  0  0  0
 79158  1  0  0  0
 80 84  1  0  0  0
 80159  1  0  0  0
 81160  1  0  0  0
 84161  1  0  0  0
 85162  1  0  0  0
M  ISO  4   1 100  68 101  81 101  85 100
M  END
> <chiral flag>
0

> <version>
0

> <s_m_source_file>
/data/baiqing/PycharmProjects/Reinvent-master-3.2/result/LINK_invent/BTK/process_docking_weight1_custom_product_contain_oxygen_bond_distance_aromatic_linkinvent_7_9_3/rearranged_h_0191.sdf

> <i_m_source_file_index>
46

> <r_mmod_Potential_Energy-OPLS-2005>
-112.336624145508

> <r_mmod_Stretch_Energy-OPLS-2005>
158.644897460938

> <r_mmod_Bend_Energy-OPLS-2005>
262.371185302734

> <r_mmod_Torsional_Energy-OPLS-2005>
262.880767822266

> <r_mmod_Improper_Torsional_Energy-OPLS-2005>
7.80831909179688

> <r_mmod_Van_der_Waal_Energy-OPLS-2005>
151.768310546875

> <r_mmod_Electrostatic_Energy-OPLS-2005>
-821.105224609375

> <r_mmod_Solvation_Energy-OPLS-2005>
-236.949523925781

> <b_mmod_Minimization_Converged-OPLS-2005>
0

> <r_mmod_RMS_Derivative-OPLS-2005>
0.713050961494446

$$$$
48
                    3D
 Structure written by MMmdl.
156164  0  0  1  0            999 V2000
  -30.6430  -14.7749   20.4424 C   0  0  0  0  0  0
  -30.4452  -12.4658   19.4998 C   0  0  0  0  0  0
  -29.5327  -12.5117   18.2561 C   0  0  0  0  0  0
  -28.0534  -12.3429   18.6529 C   0  0  0  0  0  0
  -27.6505  -13.2443   19.8548 C   0  0  2  0  0  0
  -28.6964  -13.2082   20.9940 C   0  0  0  0  0  0
  -25.2519  -13.8209   20.5643 C   0  0  0  0  0  0
  -24.1814  -13.0445   20.9150 C   0  0  0  0  0  0
  -24.6423  -11.6930   20.8716 C   0  0  0  0  0  0
  -23.9097  -10.4304   21.0371 C   0  0  0  0  0  0
  -24.3640   -9.4213   21.9159 C   0  0  0  0  0  0
  -23.6300   -8.2258   22.0742 C   0  0  0  0  0  0
  -22.4285   -8.0297   21.3545 C   0  0  0  0  0  0
  -21.9923   -9.0264   20.4643 C   0  0  0  0  0  0
  -22.7256  -10.2147   20.3030 C   0  0  0  0  0  0
  -21.6877   -6.0718   22.5250 C   0  0  0  0  0  0
  -21.4042   -6.5620   23.8185 C   0  0  0  0  0  0
  -21.3670   -5.6768   24.9147 C   0  0  0  0  0  0
  -21.6032   -4.3026   24.7199 C   0  0  0  0  0  0
  -21.8838   -3.8129   23.4318 C   0  0  0  0  0  0
  -21.9210   -4.6942   22.3373 C   0  0  0  0  0  0
  -22.7832  -13.5222   21.1799 C   0  0  0  0  0  0
  -22.1651   -4.2118   21.0949 F   0  0  0  0  0  0
  -21.5642   -3.4510   25.7720 F   0  0  0  0  0  0
  -30.0011  -13.5505   20.4104 N   0  0  0  0  0  0
  -26.3009  -12.9458   20.3311 N   0  0  0  0  0  0
  -25.9389  -11.6591   20.5759 N   0  0  0  0  0  0
  -22.0477  -12.8249   22.0395 N   0  0  0  0  0  0
  -25.4179  -15.1934   20.4003 N   0  0  0  0  0  0
  -31.8253  -14.8436   20.1039 O   0  0  0  0  0  0
  -21.6672   -6.8872   21.4228 O   0  0  0  0  0  0
  -22.3499  -14.5509   20.6623 O   0  0  0  0  0  0
  -24.6336  -31.8490   23.1968 C   0  0  0  0  0  0
  -25.9142  -32.4724   23.8320 C   0  0  1  0  0  0
  -27.2474  -27.2430   20.1502 C   0  0  0  0  0  0
  -25.5928  -33.8542   24.2208 N   0  0  0  0  0  0
  -23.4358  -30.4648   21.5411 C   0  0  2  0  0  0
  -24.8915  -28.9046   20.1172 C   0  0  0  0  0  0
  -22.7510  -29.4558   22.4940 C   0  0  0  0  0  0
  -18.0279  -28.1397   22.8485 C   0  0  0  0  0  0
  -24.1487  -36.7270   23.2644 C   0  0  0  0  0  0
  -25.9816  -30.7585   21.3794 C   0  0  0  0  0  0
  -26.0605  -29.3793   20.7243 C   0  0  0  0  0  0
  -27.2404  -28.5615   20.7242 C   0  0  0  0  0  0
  -26.0521  -26.8409   19.5110 C   0  0  0  0  0  0
  -24.8918  -27.6432   19.4985 C   0  0  0  0  0  0
  -23.6587  -29.7872   20.1619 C   0  0  0  0  0  0
  -25.4121  -36.3055   24.0308 C   0  0  1  0  0  0
  -20.5877  -28.3694   23.1279 C   0  0  2  0  0  0
  -20.6764  -26.9426   22.5414 C   0  0  0  0  0  0
  -19.5750  -26.6380   21.5219 C   0  0  0  0  0  0
  -18.1924  -26.7934   22.1615 C   0  0  0  0  0  0
  -19.1542  -28.8877   23.2859 C   0  0  0  0  0  0
  -18.9472  -30.1481   23.8871 C   0  0  0  0  0  0
  -17.6472  -30.6607   24.0591 C   0  0  0  0  0  0
  -25.9077  -34.9430   23.5070 C   0  0  0  0  0  0
  -16.5352  -29.9116   23.6349 C   0  0  0  0  0  0
  -16.7268  -28.6531   23.0367 C   0  0  0  0  0  0
  -26.4512  -31.6595   25.0748 C   0  0  0  0  0  0
  -25.3710  -31.3755   26.1451 C   0  0  0  0  0  0
  -27.0403  -30.3015   24.6282 C   0  0  0  0  0  0
  -27.6044  -32.4380   25.7496 C   0  0  0  0  0  0
  -27.5583  -37.1777   24.8460 C   0  0  0  0  0  0
  -21.4221  -29.3030   22.3676 N   0  0  0  0  0  0
  -26.4279  -37.3771   23.9423 N   0  0  0  0  0  0
  -24.7028  -31.0430   22.0946 N   0  0  0  0  0  0
  -23.4180  -28.8090   23.3074 O   0  0  0  0  0  0
  -28.3547  -26.3558   20.2353 O   0  0  0  0  0  0
  -26.5679  -34.8913   22.4658 O   0  0  0  0  0  0
  -23.5466  -32.1327   23.7211 O   0  0  0  0  0  0
  -30.4526  -20.0587   22.8334 C   0  0  0  0  0  0
  -30.4903  -18.7943   22.2252 C   0  0  0  0  0  0
  -30.0285  -18.6965   20.9000 C   0  0  0  0  0  0
  -29.5595  -21.0621   20.9673 C   0  0  0  0  0  0
  -31.0700  -17.6150   22.9915 C   0  0  0  0  0  0
  -29.3701  -24.0831   22.1912 C   0  0  0  0  0  0
  -30.2288  -17.3458   20.0729 C   0  0  0  0  0  0
  -28.1886  -24.8611   20.0460 C   0  0  0  0  0  0
  -29.2328  -23.7743   20.6858 C   0  0  2  0  0  0
  -30.0045  -21.1643   22.2057 N   0  0  0  0  0  0
  -29.5484  -19.8661   20.2993 N   0  0  0  0  0  0
  -29.0360  -22.2747   20.3763 N   0  0  0  0  0  0
  -29.9052  -15.9373   20.6014 N   0  0  0  0  0  0
  -31.4893  -12.5805   19.1966 H   0  0  0  0  0  0
  -30.3858  -11.4965   19.9997 H   0  0  0  0  0  0
  -29.8272  -11.7395   17.5453 H   0  0  0  0  0  0
  -29.6670  -13.4686   17.7479 H   0  0  0  0  0  0
  -27.8961  -11.2927   18.8997 H   0  0  0  0  0  0
  -27.4149  -12.5577   17.7953 H   0  0  0  0  0  0
  -27.6375  -14.2639   19.4688 H   0  0  0  0  0  0
  -28.7295  -12.2206   21.4580 H   0  0  0  0  0  0
  -28.4342  -13.9169   21.7822 H   0  0  0  0  0  0
  -25.2803   -9.5685   22.4725 H   0  0  0  0  0  0
  -23.9996   -7.4668   22.7494 H   0  0  0  0  0  0
  -21.0837   -8.8789   19.8977 H   0  0  0  0  0  0
  -22.3699  -10.9674   19.6125 H   0  0  0  0  0  0
  -21.2040   -7.6132   23.9678 H   0  0  0  0  0  0
  -21.1476   -6.0497   25.9047 H   0  0  0  0  0  0
  -22.0620   -2.7589   23.2832 H   0  0  0  0  0  0
  -22.4102  -11.9928   22.4804 H   0  0  0  0  0  0
  -21.1099  -13.1287   22.2600 H   0  0  0  0  0  0
  -24.6485  -15.8491   20.4972 H   0  0  0  0  0  0
  -26.2657  -15.6312   20.0627 H   0  0  0  0  0  0
  -26.7214  -32.5371   23.1062 H   0  0  0  0  0  0
  -25.0051  -33.9672   25.0333 H   0  0  0  0  0  0
  -22.7368  -31.2884   21.3848 H   0  0  0  0  0  0
  -23.3767  -35.9591   23.3273 H   0  0  0  0  0  0
  -24.3576  -36.8933   22.2070 H   0  0  0  0  0  0
  -23.7194  -37.6428   23.6715 H   0  0  0  0  0  0
  -26.1254  -31.5177   20.6080 H   0  0  0  0  0  0
  -26.8528  -30.8092   22.0213 H   0  0  0  0  0  0
  -28.1351  -28.9193   21.2129 H   0  0  0  0  0  0
  -25.9843  -25.8751   19.0341 H   0  0  0  0  0  0
  -23.9952  -27.2655   19.0289 H   0  0  0  0  0  0
  -23.7908  -30.5567   19.4028 H   0  0  0  0  0  0
  -22.7795  -29.2199   19.8487 H   0  0  0  0  0  0
  -25.1298  -36.1884   25.0793 H   0  0  0  0  0  0
  -20.9971  -28.3276   24.1392 H   0  0  0  0  0  0
  -20.5683  -26.2318   23.3616 H   0  0  0  0  0  0
  -21.6638  -26.7470   22.1208 H   0  0  0  0  0  0
  -19.6945  -25.6290   21.1260 H   0  0  0  0  0  0
  -19.6691  -27.3185   20.6751 H   0  0  0  0  0  0
  -17.4205  -26.6686   21.4009 H   0  0  0  0  0  0
  -18.0337  -26.0062   22.8995 H   0  0  0  0  0  0
  -19.7960  -30.7319   24.2194 H   0  0  0  0  0  0
  -17.5039  -31.6280   24.5210 H   0  0  0  0  0  0
  -15.5361  -30.3039   23.7694 H   0  0  0  0  0  0
  -15.8639  -28.0863   22.7098 H   0  0  0  0  0  0
  -24.5832  -30.7198   25.7731 H   0  0  0  0  0  0
  -24.8994  -32.2948   26.4943 H   0  0  0  0  0  0
  -25.7973  -30.8831   27.0197 H   0  0  0  0  0  0
  -26.3033  -29.6713   24.1302 H   0  0  0  0  0  0
  -27.4060  -29.7326   25.4833 H   0  0  0  0  0  0
  -27.8903  -30.4279   23.9571 H   0  0  0  0  0  0
  -27.2631  -33.3659   26.2085 H   0  0  0  0  0  0
  -28.3823  -32.6982   25.0315 H   0  0  0  0  0  0
  -28.0784  -31.8545   26.5385 H   0  0  0  0  0  0
  -28.2562  -38.0124   24.7602 H   0  0  0  0  0  0
  -28.1103  -36.2649   24.6159 H   0  0  0  0  0  0
  -27.2326  -37.1289   25.8870 H   0  0  0  0  0  0
  -20.9455  -29.8728   21.6824 H   0  0  0  0  0  0
  -26.0134  -38.2815   24.1510 H   0  0  0  0  0  0
  -30.8098  -20.1960   23.8457 H   0  0  0  0  0  0
  -31.4589  -17.9365   23.9583 H   0  0  0  0  0  0
  -31.8966  -17.1513   22.4529 H   0  0  0  0  0  0
  -30.3058  -16.8617   23.1797 H   0  0  0  0  0  0
  -30.3064  -23.6994   22.6020 H   0  0  0  0  0  0
  -28.5430  -23.6799   22.7734 H   0  0  0  0  0  0
  -29.3875  -25.1586   22.3716 H   0  0  0  0  0  0
  -31.2826  -17.3588   19.7857 H   0  0  0  0  0  0
  -29.6896  -17.4631   19.1327 H   0  0  0  0  0  0
  -27.1954  -24.5841   20.3969 H   0  0  0  0  0  0
  -28.1773  -24.7026   18.9670 H   0  0  0  0  0  0
  -30.2034  -24.0105   20.2491 H   0  0  0  0  0  0
  -28.6554  -22.1156   19.4518 H   0  0  0  0  0  0
  -28.9434  -15.8104   20.8801 H   0  0  0  0  0  0
  1 25  1  0  0  0
  1 30  2  0  0  0
  1 83  1  0  0  0
  2  3  1  0  0  0
  2 25  1  0  0  0
  2 84  1  0  0  0
  2 85  1  0  0  0
  3  4  1  0  0  0
  3 86  1  0  0  0
  3 87  1  0  0  0
  4  5  1  0  0  0
  4 88  1  0  0  0
  4 89  1  0  0  0
  5  6  1  0  0  0
  5 26  1  0  0  0
  5 90  1  0  0  0
  6 25  1  0  0  0
  6 91  1  0  0  0
  6 92  1  0  0  0
  7  8  2  0  0  0
  7 26  1  0  0  0
  7 29  1  0  0  0
  8  9  1  0  0  0
  8 22  1  0  0  0
  9 10  1  0  0  0
  9 27  2  0  0  0
 10 11  2  0  0  0
 10 15  1  0  0  0
 11 12  1  0  0  0
 11 93  1  0  0  0
 12 13  2  0  0  0
 12 94  1  0  0  0
 13 14  1  0  0  0
 13 31  1  0  0  0
 14 15  2  0  0  0
 14 95  1  0  0  0
 15 96  1  0  0  0
 16 17  2  0  0  0
 16 21  1  0  0  0
 16 31  1  0  0  0
 17 18  1  0  0  0
 17 97  1  0  0  0
 18 19  2  0  0  0
 18 98  1  0  0  0
 19 20  1  0  0  0
 19 24  1  0  0  0
 20 21  2  0  0  0
 20 99  1  0  0  0
 21 23  1  0  0  0
 22 28  1  0  0  0
 22 32  2  0  0  0
 26 27  1  0  0  0
 28100  1  0  0  0
 28101  1  0  0  0
 29102  1  0  0  0
 29103  1  0  0  0
 33 34  1  0  0  0
 33 66  1  0  0  0
 33 70  2  0  0  0
 34 36  1  0  0  0
 34 59  1  0  0  0
 34104  1  0  0  0
 35 44  2  0  0  0
 35 45  1  0  0  0
 35 68  1  0  0  0
 36 56  1  0  0  0
 36105  1  0  0  0
 37 39  1  0  0  0
 37 47  1  0  0  0
 37 66  1  0  0  0
 37106  1  0  0  0
 38 43  2  0  0  0
 38 46  1  0  0  0
 38 47  1  0  0  0
 39 64  1  0  0  0
 39 67  2  0  0  0
 40 52  1  0  0  0
 40 53  2  0  0  0
 40 58  1  0  0  0
 41107  1  0  0  0
 41108  1  0  0  0
 41109  1  0  0  0
 41 48  1  0  0  0
 42 43  1  0  0  0
 42 66  1  0  0  0
 42110  1  0  0  0
 42111  1  0  0  0
 43 44  1  0  0  0
 44112  1  0  0  0
 45 46  2  0  0  0
 45113  1  0  0  0
 46114  1  0  0  0
 47115  1  0  0  0
 47116  1  0  0  0
 48 56  1  0  0  0
 48 65  1  0  0  0
 48117  1  0  0  0
 49 50  1  0  0  0
 49 53  1  0  0  0
 49 64  1  0  0  0
 49118  1  0  0  0
 50 51  1  0  0  0
 50119  1  0  0  0
 50120  1  0  0  0
 51 52  1  0  0  0
 51121  1  0  0  0
 51122  1  0  0  0
 52123  1  0  0  0
 52124  1  0  0  0
 53 54  1  0  0  0
 54 55  2  0  0  0
 54125  1  0  0  0
 55 57  1  0  0  0
 55126  1  0  0  0
 56 69  2  0  0  0
 57 58  2  0  0  0
 57127  1  0  0  0
 58128  1  0  0  0
 59 60  1  0  0  0
 59 61  1  0  0  0
 59 62  1  0  0  0
 60129  1  0  0  0
 60130  1  0  0  0
 60131  1  0  0  0
 61132  1  0  0  0
 61133  1  0  0  0
 61134  1  0  0  0
 62135  1  0  0  0
 62136  1  0  0  0
 62137  1  0  0  0
 63 65  1  0  0  0
 63138  1  0  0  0
 63139  1  0  0  0
 63140  1  0  0  0
 64141  1  0  0  0
 65142  1  0  0  0
 68 78  1  0  0  0
 71 72  2  0  0  0
 71 80  1  0  0  0
 71143  1  0  0  0
 72 73  1  0  0  0
 72 75  1  0  0  0
 73 77  1  0  0  0
 73 81  2  0  0  0
 74 80  2  0  0  0
 74 81  1  0  0  0
 74 82  1  0  0  0
 75144  1  0  0  0
 75145  1  0  0  0
 75146  1  0  0  0
 76147  1  0  0  0
 76148  1  0  0  0
 76149  1  0  0  0
 76 79  1  0  0  0
 77 83  1  0  0  0
 77150  1  0  0  0
 77151  1  0  0  0
 78 79  1  0  0  0
 78152  1  0  0  0
 78153  1  0  0  0
 79 82  1  0  0  0
 79154  1  0  0  0
 82155  1  0  0  0
 83156  1  0  0  0
M  ISO  4   1 100  68 101  78 101  83 100
M  END
> <chiral flag>
0

> <version>
0

> <s_m_source_file>
/data/baiqing/PycharmProjects/Reinvent-master-3.2/result/LINK_invent/BTK/process_docking_weight1_custom_product_contain_oxygen_bond_distance_aromatic_linkinvent_7_9_3/rearranged_h_0191.sdf

> <i_m_source_file_index>
47

> <r_mmod_Potential_Energy-OPLS-2005>
-480.112426757812

> <r_mmod_Stretch_Energy-OPLS-2005>
138.164077758789

> <r_mmod_Bend_Energy-OPLS-2005>
188.757690429688

> <r_mmod_Torsional_Energy-OPLS-2005>
201.10807800293

> <r_mmod_Improper_Torsional_Energy-OPLS-2005>
8.1239128112793

> <r_mmod_Van_der_Waal_Energy-OPLS-2005>
147.269470214844

> <r_mmod_Electrostatic_Energy-OPLS-2005>
-1016.26989746094

> <r_mmod_Solvation_Energy-OPLS-2005>
-245.792068481445

> <b_mmod_Minimization_Converged-OPLS-2005>
0

> <r_mmod_RMS_Derivative-OPLS-2005>
4.78470325469971

$$$$
49
                    3D
 Structure written by MMmdl.
163170  0  0  1  0            999 V2000
  -30.6271  -14.6374   20.5365 C   0  0  0  0  0  0
  -30.4400  -12.4005   19.4440 C   0  0  0  0  0  0
  -29.5069  -12.5164   18.2184 C   0  0  0  0  0  0
  -28.0308  -12.3498   18.6335 C   0  0  0  0  0  0
  -27.6570  -13.2146   19.8667 C   0  0  2  0  0  0
  -28.7039  -13.0543   20.9908 C   0  0  0  0  0  0
  -25.2595  -13.8155   20.5700 C   0  0  0  0  0  0
  -24.1849  -13.0431   20.9170 C   0  0  0  0  0  0
  -24.6405  -11.6896   20.8720 C   0  0  0  0  0  0
  -23.9068  -10.4285   21.0401 C   0  0  0  0  0  0
  -24.3618   -9.4201   21.9186 C   0  0  0  0  0  0
  -23.6289   -8.2238   22.0762 C   0  0  0  0  0  0
  -22.4273   -8.0278   21.3545 C   0  0  0  0  0  0
  -21.9908   -9.0248   20.4650 C   0  0  0  0  0  0
  -22.7237  -10.2128   20.3056 C   0  0  0  0  0  0
  -21.6848   -6.0734   22.5276 C   0  0  0  0  0  0
  -21.4009   -6.5640   23.8209 C   0  0  0  0  0  0
  -21.3659   -5.6796   24.9172 C   0  0  0  0  0  0
  -21.6043   -4.3058   24.7225 C   0  0  0  0  0  0
  -21.8821   -3.8149   23.4344 C   0  0  0  0  0  0
  -21.9195   -4.6963   22.3401 C   0  0  0  0  0  0
  -22.7874  -13.5234   21.1828 C   0  0  0  0  0  0
  -22.1667   -4.2147   21.0978 F   0  0  0  0  0  0
  -21.5629   -3.4546   25.7740 F   0  0  0  0  0  0
  -30.0132  -13.4144   20.4300 N   0  0  0  0  0  0
  -26.3023  -12.9335   20.3347 N   0  0  0  0  0  0
  -25.9337  -11.6491   20.5746 N   0  0  0  0  0  0
  -22.0517  -12.8222   22.0382 N   0  0  0  0  0  0
  -25.4347  -15.1871   20.4126 N   0  0  0  0  0  0
  -31.7613  -14.7991   20.0763 O   0  0  0  0  0  0
  -21.6635   -6.8874   21.4241 O   0  0  0  0  0  0
  -22.3565  -14.5549   20.6690 O   0  0  0  0  0  0
  -24.6225  -31.8596   23.2004 C   0  0  0  0  0  0
  -25.9074  -32.4778   23.8344 C   0  0  1  0  0  0
  -27.2326  -27.3305   20.1142 C   0  0  0  0  0  0
  -25.5876  -33.8576   24.2263 N   0  0  0  0  0  0
  -23.4159  -30.4806   21.5431 C   0  0  2  0  0  0
  -24.8629  -28.9316   20.1102 C   0  0  0  0  0  0
  -22.7462  -29.4614   22.4948 C   0  0  0  0  0  0
  -18.0278  -28.1376   22.8494 C   0  0  0  0  0  0
  -24.1479  -36.7314   23.2642 C   0  0  0  0  0  0
  -25.9533  -30.7928   21.3685 C   0  0  0  0  0  0
  -26.0266  -29.4175   20.7176 C   0  0  0  0  0  0
  -27.2090  -28.6252   20.7142 C   0  0  0  0  0  0
  -26.0422  -26.8837   19.4961 C   0  0  0  0  0  0
  -24.8723  -27.6698   19.4927 C   0  0  0  0  0  0
  -23.6291  -29.8096   20.1589 C   0  0  0  0  0  0
  -25.4099  -36.3090   24.0336 C   0  0  1  0  0  0
  -20.5876  -28.3678   23.1292 C   0  0  2  0  0  0
  -20.6756  -26.9406   22.5415 C   0  0  0  0  0  0
  -19.5734  -26.6384   21.5211 C   0  0  0  0  0  0
  -18.1914  -26.7919   22.1629 C   0  0  0  0  0  0
  -19.1532  -28.8843   23.2891 C   0  0  0  0  0  0
  -18.9456  -30.1442   23.8916 C   0  0  0  0  0  0
  -17.6458  -30.6585   24.0563 C   0  0  0  0  0  0
  -25.9033  -34.9456   23.5111 C   0  0  0  0  0  0
  -16.5348  -29.9088   23.6319 C   0  0  0  0  0  0
  -16.7266  -28.6499   23.0355 C   0  0  0  0  0  0
  -26.4464  -31.6589   25.0717 C   0  0  0  0  0  0
  -25.3706  -31.3720   26.1456 C   0  0  0  0  0  0
  -27.0298  -30.3015   24.6150 C   0  0  0  0  0  0
  -27.6028  -32.4322   25.7480 C   0  0  0  0  0  0
  -27.5583  -37.1802   24.8467 C   0  0  0  0  0  0
  -21.4175  -29.3037   22.3701 N   0  0  0  0  0  0
  -26.4285  -37.3779   23.9415 N   0  0  0  0  0  0
  -24.6827  -31.0622   22.0943 N   0  0  0  0  0  0
  -23.4200  -28.8155   23.3021 O   0  0  0  0  0  0
  -28.3917  -26.5466   20.1720 O   0  0  0  0  0  0
  -26.5637  -34.8922   22.4699 O   0  0  0  0  0  0
  -23.5396  -32.1390   23.7343 O   0  0  0  0  0  0
  -30.3884  -16.0303   22.6329 C   0  0  0  0  0  0
  -27.7999  -18.3098   21.2987 C   0  0  0  0  0  0
  -29.8430  -21.5129   22.2432 C   0  0  0  0  0  0
  -30.0167  -17.3145   20.4166 C   0  0  0  0  0  0
  -29.0014  -22.5402   20.0273 C   0  0  0  0  0  0
  -28.4895  -25.1884   19.6055 C   0  0  0  0  0  0
  -29.9035  -15.9012   21.1769 C   0  0  2  0  0  0
  -29.2955  -18.6035   21.0533 C   0  0  1  0  0  0
  -29.0151  -21.2412   20.9682 C   0  0  1  0  0  0
  -28.4087  -23.9274   20.5738 C   0  0  1  0  0  0
  -29.4637  -19.9309   20.3076 N   0  3  0  0  0  0
  -27.0365  -23.7179   20.8591 O   0  0  0  0  0  0
  -31.4812  -12.5241   19.1422 H   0  0  0  0  0  0
  -30.3751  -11.4029   19.8801 H   0  0  0  0  0  0
  -29.7712  -11.7676   17.4707 H   0  0  0  0  0  0
  -29.6463  -13.4869   17.7398 H   0  0  0  0  0  0
  -27.8681  -11.2951   18.8607 H   0  0  0  0  0  0
  -27.3744  -12.5845   17.7955 H   0  0  0  0  0  0
  -27.6801  -14.2521   19.5338 H   0  0  0  0  0  0
  -28.7230  -12.0226   21.3437 H   0  0  0  0  0  0
  -28.4498  -13.6521   21.8659 H   0  0  0  0  0  0
  -25.2769   -9.5672   22.4758 H   0  0  0  0  0  0
  -23.9994   -7.4631   22.7485 H   0  0  0  0  0  0
  -21.0842   -8.8763   19.8957 H   0  0  0  0  0  0
  -22.3697  -10.9664   19.6162 H   0  0  0  0  0  0
  -21.1999   -7.6150   23.9705 H   0  0  0  0  0  0
  -21.1482   -6.0531   25.9070 H   0  0  0  0  0  0
  -22.0604   -2.7609   23.2845 H   0  0  0  0  0  0
  -22.4127  -11.9879   22.4771 H   0  0  0  0  0  0
  -21.1135  -13.1251   22.2589 H   0  0  0  0  0  0
  -24.6719  -15.8466   20.5204 H   0  0  0  0  0  0
  -26.2924  -15.6211   20.0980 H   0  0  0  0  0  0
  -26.7146  -32.5450   23.1101 H   0  0  0  0  0  0
  -24.9949  -33.9709   25.0359 H   0  0  0  0  0  0
  -22.7091  -31.2999   21.3984 H   0  0  0  0  0  0
  -23.3726  -35.9662   23.3293 H   0  0  0  0  0  0
  -24.3572  -36.8949   22.2060 H   0  0  0  0  0  0
  -23.7245  -37.6517   23.6673 H   0  0  0  0  0  0
  -26.0789  -31.5497   20.5931 H   0  0  0  0  0  0
  -26.8374  -30.8484   21.9922 H   0  0  0  0  0  0
  -28.1028  -28.9932   21.1988 H   0  0  0  0  0  0
  -25.9788  -25.9159   19.0235 H   0  0  0  0  0  0
  -23.9794  -27.2896   19.0147 H   0  0  0  0  0  0
  -23.7409  -30.5822   19.3976 H   0  0  0  0  0  0
  -22.7501  -29.2332   19.8645 H   0  0  0  0  0  0
  -25.1269  -36.1950   25.0829 H   0  0  0  0  0  0
  -20.9967  -28.3247   24.1414 H   0  0  0  0  0  0
  -20.5634  -26.2293   23.3615 H   0  0  0  0  0  0
  -21.6623  -26.7420   22.1223 H   0  0  0  0  0  0
  -19.6893  -25.6296   21.1237 H   0  0  0  0  0  0
  -19.6663  -27.3196   20.6740 H   0  0  0  0  0  0
  -17.4181  -26.6666   21.4041 H   0  0  0  0  0  0
  -18.0322  -26.0065   22.9030 H   0  0  0  0  0  0
  -19.7937  -30.7241   24.2314 H   0  0  0  0  0  0
  -17.5015  -31.6269   24.5155 H   0  0  0  0  0  0
  -15.5348  -30.2994   23.7627 H   0  0  0  0  0  0
  -15.8665  -28.0811   22.7075 H   0  0  0  0  0  0
  -24.5873  -30.7074   25.7787 H   0  0  0  0  0  0
  -24.8899  -32.2885   26.4894 H   0  0  0  0  0  0
  -25.8039  -30.8894   27.0227 H   0  0  0  0  0  0
  -26.2865  -29.6778   24.1170 H   0  0  0  0  0  0
  -27.3998  -29.7253   25.4637 H   0  0  0  0  0  0
  -27.8730  -30.4297   23.9358 H   0  0  0  0  0  0
  -27.2636  -33.3613   26.2072 H   0  0  0  0  0  0
  -28.3826  -32.6902   25.0303 H   0  0  0  0  0  0
  -28.0716  -31.8447   26.5386 H   0  0  0  0  0  0
  -28.2591  -38.0105   24.7504 H   0  0  0  0  0  0
  -28.1087  -36.2638   24.6286 H   0  0  0  0  0  0
  -27.2317  -37.1448   25.8874 H   0  0  0  0  0  0
  -20.9351  -29.8790   21.6937 H   0  0  0  0  0  0
  -26.0175  -38.2866   24.1379 H   0  0  0  0  0  0
  -29.7495  -16.6957   23.2124 H   0  0  0  0  0  0
  -31.4058  -16.4195   22.6769 H   0  0  0  0  0  0
  -30.3868  -15.0657   23.1436 H   0  0  0  0  0  0
  -27.2608  -18.1688   20.3619 H   0  0  0  0  0  0
  -27.3093  -19.1090   21.8514 H   0  0  0  0  0  0
  -27.6575  -17.4140   21.9005 H   0  0  0  0  0  0
  -29.5365  -22.4356   22.7324 H   0  0  0  0  0  0
  -30.9063  -21.6018   22.0193 H   0  0  0  0  0  0
  -29.7201  -20.7282   22.9892 H   0  0  0  0  0  0
  -29.6391  -17.1746   19.4031 H   0  0  0  0  0  0
  -31.0755  -17.5451   20.2952 H   0  0  0  0  0  0
  -28.4586  -22.2912   19.1152 H   0  0  0  0  0  0
  -30.0264  -22.7270   19.7047 H   0  0  0  0  0  0
  -27.8629  -25.0497   18.7267 H   0  0  0  0  0  0
  -29.4988  -25.1715   19.1929 H   0  0  0  0  0  0
  -28.8414  -15.6711   21.2022 H   0  0  0  0  0  0
  -29.7660  -18.7436   22.0257 H   0  0  0  0  0  0
  -27.9792  -21.1061   21.2748 H   0  0  0  0  0  0
  -28.9247  -24.1934   21.4969 H   0  0  0  0  0  0
  -28.9699  -19.8473   19.4329 H   0  0  0  0  0  0
  -30.4387  -20.0310   20.0713 H   0  0  0  0  0  0
  -26.6911  -24.5369   21.2037 H   0  0  0  0  0  0
  1 25  1  0  0  0
  1 30  2  0  0  0
  1 77  1  0  0  0
  2  3  1  0  0  0
  2 25  1  0  0  0
  2 83  1  0  0  0
  2 84  1  0  0  0
  3  4  1  0  0  0
  3 85  1  0  0  0
  3 86  1  0  0  0
  4  5  1  0  0  0
  4 87  1  0  0  0
  4 88  1  0  0  0
  5  6  1  0  0  0
  5 26  1  0  0  0
  5 89  1  0  0  0
  6 25  1  0  0  0
  6 90  1  0  0  0
  6 91  1  0  0  0
  7  8  2  0  0  0
  7 26  1  0  0  0
  7 29  1  0  0  0
  8  9  1  0  0  0
  8 22  1  0  0  0
  9 10  1  0  0  0
  9 27  2  0  0  0
 10 11  2  0  0  0
 10 15  1  0  0  0
 11 12  1  0  0  0
 11 92  1  0  0  0
 12 13  2  0  0  0
 12 93  1  0  0  0
 13 14  1  0  0  0
 13 31  1  0  0  0
 14 15  2  0  0  0
 14 94  1  0  0  0
 15 95  1  0  0  0
 16 17  2  0  0  0
 16 21  1  0  0  0
 16 31  1  0  0  0
 17 18  1  0  0  0
 17 96  1  0  0  0
 18 19  2  0  0  0
 18 97  1  0  0  0
 19 20  1  0  0  0
 19 24  1  0  0  0
 20 21  2  0  0  0
 20 98  1  0  0  0
 21 23  1  0  0  0
 22 28  1  0  0  0
 22 32  2  0  0  0
 26 27  1  0  0  0
 28 99  1  0  0  0
 28100  1  0  0  0
 29101  1  0  0  0
 29102  1  0  0  0
 33 34  1  0  0  0
 33 66  1  0  0  0
 33 70  2  0  0  0
 34 36  1  0  0  0
 34 59  1  0  0  0
 34103  1  0  0  0
 35 44  2  0  0  0
 35 45  1  0  0  0
 35 68  1  0  0  0
 36 56  1  0  0  0
 36104  1  0  0  0
 37 39  1  0  0  0
 37 47  1  0  0  0
 37 66  1  0  0  0
 37105  1  0  0  0
 38 43  2  0  0  0
 38 46  1  0  0  0
 38 47  1  0  0  0
 39 64  1  0  0  0
 39 67  2  0  0  0
 40 52  1  0  0  0
 40 53  2  0  0  0
 40 58  1  0  0  0
 41106  1  0  0  0
 41107  1  0  0  0
 41108  1  0  0  0
 41 48  1  0  0  0
 42 43  1  0  0  0
 42 66  1  0  0  0
 42109  1  0  0  0
 42110  1  0  0  0
 43 44  1  0  0  0
 44111  1  0  0  0
 45 46  2  0  0  0
 45112  1  0  0  0
 46113  1  0  0  0
 47114  1  0  0  0
 47115  1  0  0  0
 48 56  1  0  0  0
 48 65  1  0  0  0
 48116  1  0  0  0
 49 50  1  0  0  0
 49 53  1  0  0  0
 49 64  1  0  0  0
 49117  1  0  0  0
 50 51  1  0  0  0
 50118  1  0  0  0
 50119  1  0  0  0
 51 52  1  0  0  0
 51120  1  0  0  0
 51121  1  0  0  0
 52122  1  0  0  0
 52123  1  0  0  0
 53 54  1  0  0  0
 54 55  2  0  0  0
 54124  1  0  0  0
 55 57  1  0  0  0
 55125  1  0  0  0
 56 69  2  0  0  0
 57 58  2  0  0  0
 57126  1  0  0  0
 58127  1  0  0  0
 59 60  1  0  0  0
 59 61  1  0  0  0
 59 62  1  0  0  0
 60128  1  0  0  0
 60129  1  0  0  0
 60130  1  0  0  0
 61131  1  0  0  0
 61132  1  0  0  0
 61133  1  0  0  0
 62134  1  0  0  0
 62135  1  0  0  0
 62136  1  0  0  0
 63 65  1  0  0  0
 63137  1  0  0  0
 63138  1  0  0  0
 63139  1  0  0  0
 64140  1  0  0  0
 65141  1  0  0  0
 68 76  1  0  0  0
 71142  1  0  0  0
 71143  1  0  0  0
 71144  1  0  0  0
 71 77  1  0  0  0
 72145  1  0  0  0
 72146  1  0  0  0
 72147  1  0  0  0
 72 78  1  0  0  0
 73148  1  0  0  0
 73149  1  0  0  0
 73150  1  0  0  0
 73 79  1  0  0  0
 74 77  1  0  0  0
 74 78  1  0  0  0
 74151  1  0  0  0
 74152  1  0  0  0
 75 79  1  0  0  0
 75 80  1  0  0  0
 75153  1  0  0  0
 75154  1  0  0  0
 76 80  1  0  0  0
 76155  1  0  0  0
 76156  1  0  0  0
 77157  1  0  0  0
 78 81  1  0  0  0
 78158  1  0  0  0
 79 81  1  0  0  0
 79159  1  0  0  0
 80 82  1  0  0  0
 80160  1  0  0  0
 81161  1  0  0  0
 81162  1  0  0  0
 82163  1  0  0  0
M  CHG  1  81   1
M  ISO  4   1 100  68 101  76 101  77 100
M  END
> <chiral flag>
0

> <version>
0

> <s_m_source_file>
/data/baiqing/PycharmProjects/Reinvent-master-3.2/result/LINK_invent/BTK/process_docking_weight1_custom_product_contain_oxygen_bond_distance_aromatic_linkinvent_7_9_3/rearranged_h_0191.sdf

> <i_m_source_file_index>
48

> <r_mmod_Potential_Energy-OPLS-2005>
-55.2496299743652

> <r_mmod_Stretch_Energy-OPLS-2005>
92.5746841430664

> <r_mmod_Bend_Energy-OPLS-2005>
149.610794067383

> <r_mmod_Torsional_Energy-OPLS-2005>
190.596908569336

> <r_mmod_Improper_Torsional_Energy-OPLS-2005>
2.05880260467529

> <r_mmod_Van_der_Waal_Energy-OPLS-2005>
119.118553161621

> <r_mmod_Electrostatic_Energy-OPLS-2005>
-213.485504150391

> <r_mmod_Solvation_Energy-OPLS-2005>
-437.710968017578

> <b_mmod_Minimization_Converged-OPLS-2005>
0

> <r_mmod_RMS_Derivative-OPLS-2005>
1.4223461151123

$$$$
50
                    3D
 Structure written by MMmdl.
174182  0  0  1  0            999 V2000
  -30.6964  -14.5185   20.5294 C   0  0  0  0  0  0
  -30.4162  -12.3234   19.4648 C   0  0  0  0  0  0
  -29.4766  -12.3887   18.2409 C   0  0  0  0  0  0
  -28.0080  -12.2878   18.6741 C   0  0  0  0  0  0
  -27.6406  -13.2183   19.8578 C   0  0  2  0  0  0
  -28.6736  -13.0860   20.9968 C   0  0  0  0  0  0
  -25.2425  -13.8202   20.5568 C   0  0  0  0  0  0
  -24.1786  -13.0472   20.9312 C   0  0  0  0  0  0
  -24.6367  -11.6932   20.8927 C   0  0  0  0  0  0
  -23.9065  -10.4311   21.0537 C   0  0  0  0  0  0
  -24.3652   -9.4184   21.9270 C   0  0  0  0  0  0
  -23.6301   -8.2226   22.0791 C   0  0  0  0  0  0
  -22.4262   -8.0319   21.3595 C   0  0  0  0  0  0
  -21.9922   -9.0309   20.4703 C   0  0  0  0  0  0
  -22.7254  -10.2173   20.3133 C   0  0  0  0  0  0
  -21.6837   -6.0773   22.5297 C   0  0  0  0  0  0
  -21.3974   -6.5699   23.8229 C   0  0  0  0  0  0
  -21.3638   -5.6868   24.9217 C   0  0  0  0  0  0
  -21.6024   -4.3127   24.7270 C   0  0  0  0  0  0
  -21.8821   -3.8195   23.4409 C   0  0  0  0  0  0
  -21.9173   -4.6998   22.3441 C   0  0  0  0  0  0
  -22.7824  -13.5241   21.1998 C   0  0  0  0  0  0
  -22.1657   -4.2208   21.1020 F   0  0  0  0  0  0
  -21.5593   -3.4581   25.7767 F   0  0  0  0  0  0
  -30.0025  -13.3536   20.4328 N   0  0  0  0  0  0
  -26.2914  -12.9417   20.3387 N   0  0  0  0  0  0
  -25.9302  -11.6590   20.6017 N   0  0  0  0  0  0
  -22.0416  -12.8218   22.0524 N   0  0  0  0  0  0
  -25.3906  -15.1842   20.3446 N   0  0  0  0  0  0
  -31.8801  -14.5719   20.2189 O   0  0  0  0  0  0
  -21.6624   -6.8908   21.4254 O   0  0  0  0  0  0
  -22.3529  -14.5557   20.6826 O   0  0  0  0  0  0
  -24.6163  -31.8607   23.2063 C   0  0  0  0  0  0
  -25.9040  -32.4805   23.8360 C   0  0  1  0  0  0
  -27.2554  -27.4134   20.1156 C   0  0  0  0  0  0
  -25.5885  -33.8593   24.2283 N   0  0  0  0  0  0
  -23.4092  -30.4781   21.5459 C   0  0  2  0  0  0
  -24.8614  -28.9271   20.1367 C   0  0  0  0  0  0
  -22.7415  -29.4632   22.5024 C   0  0  0  0  0  0
  -18.0258  -28.1371   22.8427 C   0  0  0  0  0  0
  -24.1509  -36.7380   23.2626 C   0  0  0  0  0  0
  -25.9304  -30.8278   21.3537 C   0  0  0  0  0  0
  -26.0188  -29.4518   20.7166 C   0  0  0  0  0  0
  -27.2217  -28.7055   20.7068 C   0  0  0  0  0  0
  -26.0780  -26.8979   19.5365 C   0  0  0  0  0  0
  -24.8815  -27.6475   19.5490 C   0  0  0  0  0  0
  -23.6211  -29.7939   20.1684 C   0  0  0  0  0  0
  -25.4106  -36.3094   24.0315 C   0  0  1  0  0  0
  -20.5832  -28.3662   23.1287 C   0  0  2  0  0  0
  -20.6759  -26.9405   22.5376 C   0  0  0  0  0  0
  -19.5772  -26.6388   21.5157 C   0  0  0  0  0  0
  -18.1943  -26.7910   22.1553 C   0  0  0  0  0  0
  -19.1505  -28.8837   23.2839 C   0  0  0  0  0  0
  -18.9450  -30.1445   23.8874 C   0  0  0  0  0  0
  -17.6453  -30.6566   24.0534 C   0  0  0  0  0  0
  -25.9030  -34.9452   23.5068 C   0  0  0  0  0  0
  -16.5339  -29.9059   23.6314 C   0  0  0  0  0  0
  -16.7243  -28.6463   23.0336 C   0  0  0  0  0  0
  -26.4461  -31.6630   25.0709 C   0  0  0  0  0  0
  -25.3752  -31.3789   26.1503 C   0  0  0  0  0  0
  -27.0288  -30.3059   24.6085 C   0  0  0  0  0  0
  -27.6029  -32.4404   25.7469 C   0  0  0  0  0  0
  -27.5585  -37.1829   24.8425 C   0  0  0  0  0  0
  -21.4198  -29.3027   22.3736 N   0  0  0  0  0  0
  -26.4303  -37.3773   23.9363 N   0  0  0  0  0  0
  -24.6704  -31.0734   22.0942 N   0  0  0  0  0  0
  -23.4169  -28.8191   23.3079 O   0  0  0  0  0  0
  -28.4309  -26.6964   20.0242 O   0  0  0  0  0  0
  -26.5549  -34.8934   22.4633 O   0  0  0  0  0  0
  -23.5374  -32.1365   23.7490 O   0  0  0  0  0  0
  -28.0620  -18.1157   21.5017 C   0  0  0  0  0  0
  -29.2325  -18.1780   20.6760 C   0  0  0  0  0  0
  -29.0078  -20.5371   20.6739 C   0  0  0  0  0  0
  -27.7719  -20.4154   21.3760 C   0  0  0  0  0  0
  -27.5171  -16.8712   22.1790 C   0  0  0  0  0  0
  -34.7871  -18.1107   18.7912 C   0  0  0  0  0  0
  -30.7114  -16.1762   17.6335 C   0  0  0  0  0  0
  -30.7083  -23.3371   21.7912 C   0  0  0  0  0  0
  -33.3896  -17.8634   18.1755 C   0  0  0  0  0  0
  -32.3840  -17.4089   19.2474 C   0  0  0  0  0  0
  -28.9537  -24.2370   20.1433 C   0  0  0  0  0  0
  -28.6082  -25.5658   20.9041 C   0  0  0  0  0  0
  -29.8751  -16.9181   19.9815 C   0  0  1  0  0  0
  -30.9041  -17.1836   18.8014 C   0  0  2  0  0  0
  -29.3973  -23.0252   21.0422 C   0  0  1  0  0  0
  -29.7085  -19.4153   20.3185 N   0  0  0  0  0  0
  -27.3395  -19.2200   21.8127 N   0  0  0  0  0  0
  -29.5757  -21.7705   20.2755 N   0  0  0  0  0  0
  -29.9381  -15.6230   20.7270 N   0  0  0  0  0  0
  -26.9635  -21.4858   21.5875 F   0  0  0  0  0  0
  -31.4461  -12.4546   19.1195 H   0  0  0  0  0  0
  -30.3829  -11.3404   19.9389 H   0  0  0  0  0  0
  -29.7036  -11.5435   17.5890 H   0  0  0  0  0  0
  -29.6402  -13.2923   17.6548 H   0  0  0  0  0  0
  -27.8514  -11.2562   18.9947 H   0  0  0  0  0  0
  -27.3425  -12.4498   17.8254 H   0  0  0  0  0  0
  -27.6647  -14.2447   19.4856 H   0  0  0  0  0  0
  -28.6474  -12.0891   21.4338 H   0  0  0  0  0  0
  -28.4227  -13.7717   21.8107 H   0  0  0  0  0  0
  -25.2784   -9.5689   22.4892 H   0  0  0  0  0  0
  -24.0013   -7.4620   22.7513 H   0  0  0  0  0  0
  -21.0850   -8.8888   19.9030 H   0  0  0  0  0  0
  -22.3727  -10.9796   19.6314 H   0  0  0  0  0  0
  -21.1933   -7.6198   23.9772 H   0  0  0  0  0  0
  -21.1450   -6.0586   25.9135 H   0  0  0  0  0  0
  -22.0580   -2.7660   23.2890 H   0  0  0  0  0  0
  -22.3921  -11.9833   22.4903 H   0  0  0  0  0  0
  -21.1065  -13.1313   22.2750 H   0  0  0  0  0  0
  -24.5386  -15.7325   20.2963 H   0  0  0  0  0  0
  -26.1198  -15.5581   19.7517 H   0  0  0  0  0  0
  -26.7062  -32.5495   23.1094 H   0  0  0  0  0  0
  -25.0118  -33.9752   25.0472 H   0  0  0  0  0  0
  -22.6981  -31.2907   21.3903 H   0  0  0  0  0  0
  -23.3748  -35.9759   23.3297 H   0  0  0  0  0  0
  -24.3613  -36.9013   22.2045 H   0  0  0  0  0  0
  -23.7342  -37.6617   23.6654 H   0  0  0  0  0  0
  -26.0213  -31.5887   20.5785 H   0  0  0  0  0  0
  -26.8196  -30.9036   21.9646 H   0  0  0  0  0  0
  -28.1242  -29.1185   21.1385 H   0  0  0  0  0  0
  -26.0841  -25.9232   19.0691 H   0  0  0  0  0  0
  -23.9817  -27.2436   19.1123 H   0  0  0  0  0  0
  -23.7302  -30.5496   19.3882 H   0  0  0  0  0  0
  -22.7491  -29.2049   19.8780 H   0  0  0  0  0  0
  -25.1316  -36.1929   25.0814 H   0  0  0  0  0  0
  -20.9865  -28.3189   24.1437 H   0  0  0  0  0  0
  -20.5685  -26.2271   23.3563 H   0  0  0  0  0  0
  -21.6627  -26.7463   22.1166 H   0  0  0  0  0  0
  -19.6980  -25.6313   21.1186 H   0  0  0  0  0  0
  -19.6750  -27.3165   20.6657 H   0  0  0  0  0  0
  -17.4236  -26.6644   21.3930 H   0  0  0  0  0  0
  -18.0363  -26.0065   22.8947 H   0  0  0  0  0  0
  -19.7952  -30.7209   24.2294 H   0  0  0  0  0  0
  -17.5026  -31.6260   24.5122 H   0  0  0  0  0  0
  -15.5346  -30.2926   23.7732 H   0  0  0  0  0  0
  -15.8649  -28.0767   22.7106 H   0  0  0  0  0  0
  -24.5848  -30.7188   25.7889 H   0  0  0  0  0  0
  -24.9072  -32.2982   26.5007 H   0  0  0  0  0  0
  -25.8137  -30.8922   27.0210 H   0  0  0  0  0  0
  -26.2765  -29.6854   24.1166 H   0  0  0  0  0  0
  -27.4046  -29.7290   25.4548 H   0  0  0  0  0  0
  -27.8625  -30.4377   23.9190 H   0  0  0  0  0  0
  -27.2550  -33.3656   26.2084 H   0  0  0  0  0  0
  -28.3778  -32.7080   25.0267 H   0  0  0  0  0  0
  -28.0714  -31.8523   26.5362 H   0  0  0  0  0  0
  -28.2560  -38.0164   24.7435 H   0  0  0  0  0  0
  -28.1129  -36.2674   24.6270 H   0  0  0  0  0  0
  -27.2287  -37.1485   25.8830 H   0  0  0  0  0  0
  -20.9478  -29.8725   21.6871 H   0  0  0  0  0  0
  -26.0205  -38.2861   24.1393 H   0  0  0  0  0  0
  -27.9868  -16.7899   23.1588 H   0  0  0  0  0  0
  -27.6747  -15.9582   21.6236 H   0  0  0  0  0  0
  -26.4385  -16.9520   22.3429 H   0  0  0  0  0  0
  -35.5364  -18.3224   18.0300 H   0  0  0  0  0  0
  -35.1371  -17.2410   19.3528 H   0  0  0  0  0  0
  -34.7802  -18.9650   19.4686 H   0  0  0  0  0  0
  -31.2597  -16.4661   16.7358 H   0  0  0  0  0  0
  -29.6629  -16.1356   17.3302 H   0  0  0  0  0  0
  -31.0111  -15.1603   17.8825 H   0  0  0  0  0  0
  -30.5474  -24.1110   22.5398 H   0  0  0  0  0  0
  -31.5007  -23.6919   21.1262 H   0  0  0  0  0  0
  -31.0985  -22.4609   22.3194 H   0  0  0  0  0  0
  -33.4802  -17.0848   17.4136 H   0  0  0  0  0  0
  -33.0352  -18.7628   17.6714 H   0  0  0  0  0  0
  -32.3855  -18.1313   20.0655 H   0  0  0  0  0  0
  -32.8363  -16.5256   19.6688 H   0  0  0  0  0  0
  -29.7443  -24.4480   19.4167 H   0  0  0  0  0  0
  -28.0738  -23.9553   19.5602 H   0  0  0  0  0  0
  -29.4409  -25.8396   21.5525 H   0  0  0  0  0  0
  -27.7532  -25.4225   21.5676 H   0  0  0  0  0  0
  -28.9822  -16.6571   19.4158 H   0  0  0  0  0  0
  -30.6133  -18.1236   18.3370 H   0  0  0  0  0  0
  -28.6380  -22.8866   21.8074 H   0  0  0  0  0  0
  -30.5061  -21.6366   19.8926 H   0  0  0  0  0  0
  -29.0488  -15.3967   21.1393 H   0  0  0  0  0  0
  1 25  1  0  0  0
  1 30  2  0  0  0
  1 89  1  0  0  0
  2  3  1  0  0  0
  2 25  1  0  0  0
  2 91  1  0  0  0
  2 92  1  0  0  0
  3  4  1  0  0  0
  3 93  1  0  0  0
  3 94  1  0  0  0
  4  5  1  0  0  0
  4 95  1  0  0  0
  4 96  1  0  0  0
  5  6  1  0  0  0
  5 26  1  0  0  0
  5 97  1  0  0  0
  6 25  1  0  0  0
  6 98  1  0  0  0
  6 99  1  0  0  0
  7  8  2  0  0  0
  7 26  1  0  0  0
  7 29  1  0  0  0
  8  9  1  0  0  0
  8 22  1  0  0  0
  9 10  1  0  0  0
  9 27  2  0  0  0
 10 11  2  0  0  0
 10 15  1  0  0  0
 11 12  1  0  0  0
 11100  1  0  0  0
 12 13  2  0  0  0
 12101  1  0  0  0
 13 14  1  0  0  0
 13 31  1  0  0  0
 14 15  2  0  0  0
 14102  1  0  0  0
 15103  1  0  0  0
 16 17  2  0  0  0
 16 21  1  0  0  0
 16 31  1  0  0  0
 17 18  1  0  0  0
 17104  1  0  0  0
 18 19  2  0  0  0
 18105  1  0  0  0
 19 20  1  0  0  0
 19 24  1  0  0  0
 20 21  2  0  0  0
 20106  1  0  0  0
 21 23  1  0  0  0
 22 28  1  0  0  0
 22 32  2  0  0  0
 26 27  1  0  0  0
 28107  1  0  0  0
 28108  1  0  0  0
 29109  1  0  0  0
 29110  1  0  0  0
 33 34  1  0  0  0
 33 66  1  0  0  0
 33 70  2  0  0  0
 34 36  1  0  0  0
 34 59  1  0  0  0
 34111  1  0  0  0
 35 44  2  0  0  0
 35 45  1  0  0  0
 35 68  1  0  0  0
 36 56  1  0  0  0
 36112  1  0  0  0
 37 39  1  0  0  0
 37 47  1  0  0  0
 37 66  1  0  0  0
 37113  1  0  0  0
 38 43  2  0  0  0
 38 46  1  0  0  0
 38 47  1  0  0  0
 39 64  1  0  0  0
 39 67  2  0  0  0
 40 52  1  0  0  0
 40 53  2  0  0  0
 40 58  1  0  0  0
 41114  1  0  0  0
 41115  1  0  0  0
 41116  1  0  0  0
 41 48  1  0  0  0
 42 43  1  0  0  0
 42 66  1  0  0  0
 42117  1  0  0  0
 42118  1  0  0  0
 43 44  1  0  0  0
 44119  1  0  0  0
 45 46  2  0  0  0
 45120  1  0  0  0
 46121  1  0  0  0
 47122  1  0  0  0
 47123  1  0  0  0
 48 56  1  0  0  0
 48 65  1  0  0  0
 48124  1  0  0  0
 49 50  1  0  0  0
 49 53  1  0  0  0
 49 64  1  0  0  0
 49125  1  0  0  0
 50 51  1  0  0  0
 50126  1  0  0  0
 50127  1  0  0  0
 51 52  1  0  0  0
 51128  1  0  0  0
 51129  1  0  0  0
 52130  1  0  0  0
 52131  1  0  0  0
 53 54  1  0  0  0
 54 55  2  0  0  0
 54132  1  0  0  0
 55 57  1  0  0  0
 55133  1  0  0  0
 56 69  2  0  0  0
 57 58  2  0  0  0
 57134  1  0  0  0
 58135  1  0  0  0
 59 60  1  0  0  0
 59 61  1  0  0  0
 59 62  1  0  0  0
 60136  1  0  0  0
 60137  1  0  0  0
 60138  1  0  0  0
 61139  1  0  0  0
 61140  1  0  0  0
 61141  1  0  0  0
 62142  1  0  0  0
 62143  1  0  0  0
 62144  1  0  0  0
 63 65  1  0  0  0
 63145  1  0  0  0
 63146  1  0  0  0
 63147  1  0  0  0
 64148  1  0  0  0
 65149  1  0  0  0
 68 82  1  0  0  0
 71 72  2  0  0  0
 71 75  1  0  0  0
 71 87  1  0  0  0
 72 83  1  0  0  0
 72 86  1  0  0  0
 73 74  1  0  0  0
 73 86  2  0  0  0
 73 88  1  0  0  0
 74 87  2  0  0  0
 74 90  1  0  0  0
 75150  1  0  0  0
 75151  1  0  0  0
 75152  1  0  0  0
 76 79  1  0  0  0
 76153  1  0  0  0
 76154  1  0  0  0
 76155  1  0  0  0
 77156  1  0  0  0
 77157  1  0  0  0
 77158  1  0  0  0
 77 84  1  0  0  0
 78159  1  0  0  0
 78160  1  0  0  0
 78161  1  0  0  0
 78 85  1  0  0  0
 79 80  1  0  0  0
 79162  1  0  0  0
 79163  1  0  0  0
 80 84  1  0  0  0
 80164  1  0  0  0
 80165  1  0  0  0
 81 82  1  0  0  0
 81 85  1  0  0  0
 81166  1  0  0  0
 81167  1  0  0  0
 82168  1  0  0  0
 82169  1  0  0  0
 83 84  1  0  0  0
 83 89  1  0  0  0
 83170  1  0  0  0
 84171  1  0  0  0
 85 88  1  0  0  0
 85172  1  0  0  0
 88173  1  0  0  0
 89174  1  0  0  0
M  ISO  4   1 100  68 101  82 101  89 100
M  END
> <chiral flag>
0

> <version>
0

> <s_m_source_file>
/data/baiqing/PycharmProjects/Reinvent-master-3.2/result/LINK_invent/BTK/process_docking_weight1_custom_product_contain_oxygen_bond_distance_aromatic_linkinvent_7_9_3/rearranged_h_0191.sdf

> <i_m_source_file_index>
49

> <r_mmod_Potential_Energy-OPLS-2005>
179.17724609375

> <r_mmod_Stretch_Energy-OPLS-2005>
63.5027618408203

> <r_mmod_Bend_Energy-OPLS-2005>
174.520034790039

> <r_mmod_Torsional_Energy-OPLS-2005>
291.629669189453

> <r_mmod_Improper_Torsional_Energy-OPLS-2005>
15.3709926605225

> <r_mmod_Van_der_Waal_Energy-OPLS-2005>
155.327484130859

> <r_mmod_Electrostatic_Energy-OPLS-2005>
-342.135650634766

> <r_mmod_Solvation_Energy-OPLS-2005>
-207.074691772461

> <b_mmod_Minimization_Converged-OPLS-2005>
0

> <r_mmod_RMS_Derivative-OPLS-2005>
9.81601428985596

$$$$
51
                    3D
 Structure written by MMmdl.
157165  0  0  1  0            999 V2000
  -30.6930  -14.4568   20.5157 C   0  0  0  0  0  0
  -30.4243  -12.2733   19.4372 C   0  0  0  0  0  0
  -29.5046  -12.4785   18.2148 C   0  0  0  0  0  0
  -28.0224  -12.3509   18.6221 C   0  0  0  0  0  0
  -27.6652  -13.1989   19.8730 C   0  0  2  0  0  0
  -28.7053  -12.9893   21.0010 C   0  0  0  0  0  0
  -25.2614  -13.8152   20.5657 C   0  0  0  0  0  0
  -24.1854  -13.0441   20.9151 C   0  0  0  0  0  0
  -24.6397  -11.6902   20.8730 C   0  0  0  0  0  0
  -23.9056  -10.4292   21.0403 C   0  0  0  0  0  0
  -24.3606   -9.4209   21.9188 C   0  0  0  0  0  0
  -23.6280   -8.2244   22.0764 C   0  0  0  0  0  0
  -22.4261   -8.0286   21.3552 C   0  0  0  0  0  0
  -21.9887   -9.0269   20.4661 C   0  0  0  0  0  0
  -22.7220  -10.2146   20.3064 C   0  0  0  0  0  0
  -21.6851   -6.0726   22.5277 C   0  0  0  0  0  0
  -21.4024   -6.5635   23.8212 C   0  0  0  0  0  0
  -21.3660   -5.6789   24.9176 C   0  0  0  0  0  0
  -21.6035   -4.3049   24.7233 C   0  0  0  0  0  0
  -21.8819   -3.8141   23.4355 C   0  0  0  0  0  0
  -21.9196   -4.6953   22.3405 C   0  0  0  0  0  0
  -22.7879  -13.5259   21.1809 C   0  0  0  0  0  0
  -22.1655   -4.2139   21.0981 F   0  0  0  0  0  0
  -21.5627   -3.4532   25.7745 F   0  0  0  0  0  0
  -30.0397  -13.2689   20.4478 N   0  0  0  0  0  0
  -26.3043  -12.9305   20.3333 N   0  0  0  0  0  0
  -25.9322  -11.6477   20.5757 N   0  0  0  0  0  0
  -22.0491  -12.8300   22.0379 N   0  0  0  0  0  0
  -25.4336  -15.1868   20.4066 N   0  0  0  0  0  0
  -31.8455  -14.6167   20.1067 O   0  0  0  0  0  0
  -21.6634   -6.8874   21.4239 O   0  0  0  0  0  0
  -22.3581  -14.5559   20.6632 O   0  0  0  0  0  0
  -24.6140  -31.8698   23.2097 C   0  0  0  0  0  0
  -25.9033  -32.4830   23.8399 C   0  0  1  0  0  0
  -27.2352  -27.4347   20.1165 C   0  0  0  0  0  0
  -25.5891  -33.8620   24.2338 N   0  0  0  0  0  0
  -23.4020  -30.4934   21.5502 C   0  0  2  0  0  0
  -24.8508  -28.9589   20.1173 C   0  0  0  0  0  0
  -22.7413  -29.4671   22.4990 C   0  0  0  0  0  0
  -18.0276  -28.1381   22.8508 C   0  0  0  0  0  0
  -24.1483  -36.7322   23.2640 C   0  0  0  0  0  0
  -25.9288  -30.8388   21.3602 C   0  0  0  0  0  0
  -26.0090  -29.4715   20.7136 C   0  0  0  0  0  0
  -27.2060  -28.7194   20.7036 C   0  0  0  0  0  0
  -26.0630  -26.9403   19.5029 C   0  0  0  0  0  0
  -24.8742  -27.6945   19.5046 C   0  0  0  0  0  0
  -23.6119  -29.8243   20.1655 C   0  0  0  0  0  0
  -25.4102  -36.3119   24.0346 C   0  0  1  0  0  0
  -20.5869  -28.3674   23.1323 C   0  0  2  0  0  0
  -20.6761  -26.9410   22.5431 C   0  0  0  0  0  0
  -19.5737  -26.6392   21.5225 C   0  0  0  0  0  0
  -18.1920  -26.7932   22.1635 C   0  0  0  0  0  0
  -19.1527  -28.8844   23.2911 C   0  0  0  0  0  0
  -18.9444  -30.1446   23.8919 C   0  0  0  0  0  0
  -17.6446  -30.6586   24.0576 C   0  0  0  0  0  0
  -25.9030  -34.9485   23.5136 C   0  0  0  0  0  0
  -16.5338  -29.9090   23.6327 C   0  0  0  0  0  0
  -16.7266  -28.6511   23.0351 C   0  0  0  0  0  0
  -26.4466  -31.6591   25.0716 C   0  0  0  0  0  0
  -25.3740  -31.3683   26.1473 C   0  0  0  0  0  0
  -27.0290  -30.3038   24.6064 C   0  0  0  0  0  0
  -27.6062  -32.4299   25.7462 C   0  0  0  0  0  0
  -27.5588  -37.1814   24.8471 C   0  0  0  0  0  0
  -21.4145  -29.3037   22.3720 N   0  0  0  0  0  0
  -26.4297  -37.3804   23.9420 N   0  0  0  0  0  0
  -24.6662  -31.0815   22.0985 N   0  0  0  0  0  0
  -23.4197  -28.8226   23.3032 O   0  0  0  0  0  0
  -28.4101  -26.7102   20.1240 O   0  0  0  0  0  0
  -26.5598  -34.8933   22.4704 O   0  0  0  0  0  0
  -23.5328  -32.1440   23.7497 O   0  0  0  0  0  0
  -30.4668  -18.4315   22.0105 C   0  0  0  0  0  0
  -30.0734  -19.7309   22.4517 C   0  0  0  0  0  0
  -29.8007  -18.0185   20.8875 C   0  0  0  0  0  0
  -29.0925  -20.3079   21.6771 C   0  0  0  0  0  0
  -29.0345  -22.6563   22.2698 C   0  0  0  0  0  0
  -27.9630  -23.8689   24.1734 C   0  0  0  0  0  0
  -30.0397  -16.7891   20.0628 C   0  0  0  0  0  0
  -28.4488  -25.1900   22.0584 C   0  0  0  0  0  0
  -28.3351  -25.3293   20.5242 C   0  0  0  0  0  0
  -28.0661  -23.7984   22.6368 C   0  0  1  0  0  0
  -28.4804  -21.5123   21.8281 N   0  0  0  0  0  0
  -29.9023  -15.5118   20.7728 N   0  0  0  0  0  0
  -30.2511  -22.8151   22.3980 O   0  0  0  0  0  0
  -28.6134  -19.2074   20.4064 S   0  0  0  0  0  0
  -31.4722  -12.3543   19.1430 H   0  0  0  0  0  0
  -30.3079  -11.2655   19.8418 H   0  0  0  0  0  0
  -29.7429  -11.7457   17.4434 H   0  0  0  0  0  0
  -29.6861  -13.4597   17.7721 H   0  0  0  0  0  0
  -27.8286  -11.2973   18.8263 H   0  0  0  0  0  0
  -27.3781  -12.6188   17.7847 H   0  0  0  0  0  0
  -27.7065  -14.2426   19.5640 H   0  0  0  0  0  0
  -28.6720  -11.9623   21.3667 H   0  0  0  0  0  0
  -28.4836  -13.6167   21.8658 H   0  0  0  0  0  0
  -25.2755   -9.5685   22.4756 H   0  0  0  0  0  0
  -23.9989   -7.4639   22.7497 H   0  0  0  0  0  0
  -21.0806   -8.8804   19.8977 H   0  0  0  0  0  0
  -22.3686  -10.9693   19.6175 H   0  0  0  0  0  0
  -21.2022   -7.6143   23.9715 H   0  0  0  0  0  0
  -21.1471   -6.0516   25.9079 H   0  0  0  0  0  0
  -22.0595   -2.7601   23.2858 H   0  0  0  0  0  0
  -22.4076  -11.9987   22.4833 H   0  0  0  0  0  0
  -21.1118  -13.1386   22.2544 H   0  0  0  0  0  0
  -24.6664  -15.8407   20.5227 H   0  0  0  0  0  0
  -26.2801  -15.6278   20.0701 H   0  0  0  0  0  0
  -26.7117  -32.5570   23.1185 H   0  0  0  0  0  0
  -25.0033  -33.9781   25.0475 H   0  0  0  0  0  0
  -22.6898  -31.3095   21.4112 H   0  0  0  0  0  0
  -23.3738  -35.9664   23.3313 H   0  0  0  0  0  0
  -24.3583  -36.8926   22.2055 H   0  0  0  0  0  0
  -23.7240  -37.6531   23.6641 H   0  0  0  0  0  0
  -26.0362  -31.6011   20.5874 H   0  0  0  0  0  0
  -26.8190  -30.8978   21.9746 H   0  0  0  0  0  0
  -28.1021  -29.1145   21.1613 H   0  0  0  0  0  0
  -26.0550  -25.9800   19.0081 H   0  0  0  0  0  0
  -23.9878  -27.2971   19.0296 H   0  0  0  0  0  0
  -23.7185  -30.5973   19.4036 H   0  0  0  0  0  0
  -22.7375  -29.2433   19.8694 H   0  0  0  0  0  0
  -25.1268  -36.2003   25.0840 H   0  0  0  0  0  0
  -20.9966  -28.3246   24.1439 H   0  0  0  0  0  0
  -20.5652  -26.2287   23.3618 H   0  0  0  0  0  0
  -21.6629  -26.7449   22.1225 H   0  0  0  0  0  0
  -19.6892  -25.6306   21.1245 H   0  0  0  0  0  0
  -19.6666  -27.3201   20.6752 H   0  0  0  0  0  0
  -17.4188  -26.6701   21.4032 H   0  0  0  0  0  0
  -18.0305  -26.0051   22.9002 H   0  0  0  0  0  0
  -19.7910  -30.7272   24.2290 H   0  0  0  0  0  0
  -17.4993  -31.6263   24.5177 H   0  0  0  0  0  0
  -15.5339  -30.3005   23.7618 H   0  0  0  0  0  0
  -15.8669  -28.0839   22.7052 H   0  0  0  0  0  0
  -24.5924  -30.7017   25.7804 H   0  0  0  0  0  0
  -24.8906  -32.2820   26.4932 H   0  0  0  0  0  0
  -25.8104  -30.8847   27.0224 H   0  0  0  0  0  0
  -26.2809  -29.6800   24.1149 H   0  0  0  0  0  0
  -27.4101  -29.7276   25.4507 H   0  0  0  0  0  0
  -27.8629  -30.4353   23.9167 H   0  0  0  0  0  0
  -27.2707  -33.3607   26.2047 H   0  0  0  0  0  0
  -28.3853  -32.6847   25.0264 H   0  0  0  0  0  0
  -28.0741  -31.8410   26.5365 H   0  0  0  0  0  0
  -28.2618  -38.0100   24.7515 H   0  0  0  0  0  0
  -28.1066  -36.2640   24.6278 H   0  0  0  0  0  0
  -27.2316  -37.1446   25.8876 H   0  0  0  0  0  0
  -20.9300  -29.8772   21.6958 H   0  0  0  0  0  0
  -26.0196  -38.2888   24.1404 H   0  0  0  0  0  0
  -31.2439  -17.8666   22.5056 H   0  0  0  0  0  0
  -30.5271  -20.1921   23.3181 H   0  0  0  0  0  0
  -27.7125  -22.8970   24.6023 H   0  0  0  0  0  0
  -27.1897  -24.5693   24.4897 H   0  0  0  0  0  0
  -28.9053  -24.1880   24.6215 H   0  0  0  0  0  0
  -31.0227  -16.8831   19.5979 H   0  0  0  0  0  0
  -29.3363  -16.7692   19.2283 H   0  0  0  0  0  0
  -27.7920  -25.9314   22.5147 H   0  0  0  0  0  0
  -29.4558  -25.4650   22.3744 H   0  0  0  0  0  0
  -27.4281  -24.8358   20.1802 H   0  0  0  0  0  0
  -29.1567  -24.7929   20.0485 H   0  0  0  0  0  0
  -27.0773  -23.5419   22.2540 H   0  0  0  0  0  0
  -27.4948  -21.5454   21.6043 H   0  0  0  0  0  0
  -28.9859  -15.2933   21.1314 H   0  0  0  0  0  0
  1 25  1  0  0  0
  1 30  2  0  0  0
  1 82  1  0  0  0
  2  3  1  0  0  0
  2 25  1  0  0  0
  2 85  1  0  0  0
  2 86  1  0  0  0
  3  4  1  0  0  0
  3 87  1  0  0  0
  3 88  1  0  0  0
  4  5  1  0  0  0
  4 89  1  0  0  0
  4 90  1  0  0  0
  5  6  1  0  0  0
  5 26  1  0  0  0
  5 91  1  0  0  0
  6 25  1  0  0  0
  6 92  1  0  0  0
  6 93  1  0  0  0
  7  8  2  0  0  0
  7 26  1  0  0  0
  7 29  1  0  0  0
  8  9  1  0  0  0
  8 22  1  0  0  0
  9 10  1  0  0  0
  9 27  2  0  0  0
 10 11  2  0  0  0
 10 15  1  0  0  0
 11 12  1  0  0  0
 11 94  1  0  0  0
 12 13  2  0  0  0
 12 95  1  0  0  0
 13 14  1  0  0  0
 13 31  1  0  0  0
 14 15  2  0  0  0
 14 96  1  0  0  0
 15 97  1  0  0  0
 16 17  2  0  0  0
 16 21  1  0  0  0
 16 31  1  0  0  0
 17 18  1  0  0  0
 17 98  1  0  0  0
 18 19  2  0  0  0
 18 99  1  0  0  0
 19 20  1  0  0  0
 19 24  1  0  0  0
 20 21  2  0  0  0
 20100  1  0  0  0
 21 23  1  0  0  0
 22 28  1  0  0  0
 22 32  2  0  0  0
 26 27  1  0  0  0
 28101  1  0  0  0
 28102  1  0  0  0
 29103  1  0  0  0
 29104  1  0  0  0
 33 34  1  0  0  0
 33 66  1  0  0  0
 33 70  2  0  0  0
 34 36  1  0  0  0
 34 59  1  0  0  0
 34105  1  0  0  0
 35 44  2  0  0  0
 35 45  1  0  0  0
 35 68  1  0  0  0
 36 56  1  0  0  0
 36106  1  0  0  0
 37 39  1  0  0  0
 37 47  1  0  0  0
 37 66  1  0  0  0
 37107  1  0  0  0
 38 43  2  0  0  0
 38 46  1  0  0  0
 38 47  1  0  0  0
 39 64  1  0  0  0
 39 67  2  0  0  0
 40 52  1  0  0  0
 40 53  2  0  0  0
 40 58  1  0  0  0
 41108  1  0  0  0
 41109  1  0  0  0
 41110  1  0  0  0
 41 48  1  0  0  0
 42 43  1  0  0  0
 42 66  1  0  0  0
 42111  1  0  0  0
 42112  1  0  0  0
 43 44  1  0  0  0
 44113  1  0  0  0
 45 46  2  0  0  0
 45114  1  0  0  0
 46115  1  0  0  0
 47116  1  0  0  0
 47117  1  0  0  0
 48 56  1  0  0  0
 48 65  1  0  0  0
 48118  1  0  0  0
 49 50  1  0  0  0
 49 53  1  0  0  0
 49 64  1  0  0  0
 49119  1  0  0  0
 50 51  1  0  0  0
 50120  1  0  0  0
 50121  1  0  0  0
 51 52  1  0  0  0
 51122  1  0  0  0
 51123  1  0  0  0
 52124  1  0  0  0
 52125  1  0  0  0
 53 54  1  0  0  0
 54 55  2  0  0  0
 54126  1  0  0  0
 55 57  1  0  0  0
 55127  1  0  0  0
 56 69  2  0  0  0
 57 58  2  0  0  0
 57128  1  0  0  0
 58129  1  0  0  0
 59 60  1  0  0  0
 59 61  1  0  0  0
 59 62  1  0  0  0
 60130  1  0  0  0
 60131  1  0  0  0
 60132  1  0  0  0
 61133  1  0  0  0
 61134  1  0  0  0
 61135  1  0  0  0
 62136  1  0  0  0
 62137  1  0  0  0
 62138  1  0  0  0
 63 65  1  0  0  0
 63139  1  0  0  0
 63140  1  0  0  0
 63141  1  0  0  0
 64142  1  0  0  0
 65143  1  0  0  0
 68 79  1  0  0  0
 71 72  1  0  0  0
 71 73  2  0  0  0
 71144  1  0  0  0
 72 74  2  0  0  0
 72145  1  0  0  0
 73 77  1  0  0  0
 73 84  1  0  0  0
 74 81  1  0  0  0
 74 84  1  0  0  0
 75 80  1  0  0  0
 75 81  1  0  0  0
 75 83  2  0  0  0
 76146  1  0  0  0
 76147  1  0  0  0
 76148  1  0  0  0
 76 80  1  0  0  0
 77 82  1  0  0  0
 77149  1  0  0  0
 77150  1  0  0  0
 78 79  1  0  0  0
 78 80  1  0  0  0
 78151  1  0  0  0
 78152  1  0  0  0
 79153  1  0  0  0
 79154  1  0  0  0
 80155  1  0  0  0
 81156  1  0  0  0
 82157  1  0  0  0
M  ISO  4   1 100  68 101  79 101  82 100
M  END
> <chiral flag>
0

> <version>
0

> <s_m_source_file>
/data/baiqing/PycharmProjects/Reinvent-master-3.2/result/LINK_invent/BTK/process_docking_weight1_custom_product_contain_oxygen_bond_distance_aromatic_linkinvent_7_9_3/rearranged_h_0191.sdf

> <i_m_source_file_index>
50

> <r_mmod_Potential_Energy-OPLS-2005>
-160.799407958984

> <r_mmod_Stretch_Energy-OPLS-2005>
33.7329292297363

> <r_mmod_Bend_Energy-OPLS-2005>
98.7700653076172

> <r_mmod_Torsional_Energy-OPLS-2005>
242.563461303711

> <r_mmod_Improper_Torsional_Energy-OPLS-2005>
9.48606300354004

> <r_mmod_Van_der_Waal_Energy-OPLS-2005>
130.592544555664

> <r_mmod_Electrostatic_Energy-OPLS-2005>
-460.705261230469

> <r_mmod_Solvation_Energy-OPLS-2005>
-229.316482543945

> <b_mmod_Minimization_Converged-OPLS-2005>
0

> <r_mmod_RMS_Derivative-OPLS-2005>
2.03449034690857

$$$$
52
                    3D
 Structure written by MMmdl.
161169  0  0  1  0            999 V2000
  -30.7114  -14.4365   20.5896 C   0  0  0  0  0  0
  -30.4188  -12.2911   19.4126 C   0  0  0  0  0  0
  -29.4903  -12.5053   18.2004 C   0  0  0  0  0  0
  -28.0108  -12.3705   18.6121 C   0  0  0  0  0  0
  -27.6624  -13.2029   19.8756 C   0  0  2  0  0  0
  -28.7024  -12.9665   20.9936 C   0  0  0  0  0  0
  -25.2590  -13.8150   20.5654 C   0  0  0  0  0  0
  -24.1838  -13.0434   20.9148 C   0  0  0  0  0  0
  -24.6381  -11.6898   20.8711 C   0  0  0  0  0  0
  -23.9051  -10.4289   21.0393 C   0  0  0  0  0  0
  -24.3612   -9.4210   21.9178 C   0  0  0  0  0  0
  -23.6287   -8.2246   22.0757 C   0  0  0  0  0  0
  -22.4268   -8.0279   21.3546 C   0  0  0  0  0  0
  -21.9899   -9.0249   20.4646 C   0  0  0  0  0  0
  -22.7221  -10.2132   20.3049 C   0  0  0  0  0  0
  -21.6855   -6.0729   22.5281 C   0  0  0  0  0  0
  -21.4015   -6.5637   23.8212 C   0  0  0  0  0  0
  -21.3659   -5.6793   24.9177 C   0  0  0  0  0  0
  -21.6047   -4.3056   24.7229 C   0  0  0  0  0  0
  -21.8821   -3.8141   23.4353 C   0  0  0  0  0  0
  -21.9190   -4.6955   22.3406 C   0  0  0  0  0  0
  -22.7862  -13.5236   21.1815 C   0  0  0  0  0  0
  -22.1659   -4.2137   21.0983 F   0  0  0  0  0  0
  -21.5630   -3.4544   25.7746 F   0  0  0  0  0  0
  -30.0352  -13.2669   20.4441 N   0  0  0  0  0  0
  -26.3024  -12.9312   20.3352 N   0  0  0  0  0  0
  -25.9307  -11.6472   20.5751 N   0  0  0  0  0  0
  -22.0503  -12.8242   22.0381 N   0  0  0  0  0  0
  -25.4319  -15.1871   20.4059 N   0  0  0  0  0  0
  -31.8247  -14.6390   20.0968 O   0  0  0  0  0  0
  -21.6641   -6.8869   21.4241 O   0  0  0  0  0  0
  -22.3546  -14.5538   20.6651 O   0  0  0  0  0  0
  -24.6150  -31.8683   23.2108 C   0  0  0  0  0  0
  -25.9042  -32.4829   23.8405 C   0  0  1  0  0  0
  -27.2315  -27.4342   20.0917 C   0  0  0  0  0  0
  -25.5901  -33.8627   24.2340 N   0  0  0  0  0  0
  -23.4022  -30.4919   21.5518 C   0  0  2  0  0  0
  -24.8470  -28.9587   20.1125 C   0  0  0  0  0  0
  -22.7410  -29.4666   22.5009 C   0  0  0  0  0  0
  -18.0278  -28.1365   22.8486 C   0  0  0  0  0  0
  -24.1489  -36.7314   23.2640 C   0  0  0  0  0  0
  -25.9306  -30.8335   21.3620 C   0  0  0  0  0  0
  -26.0068  -29.4683   20.7088 C   0  0  0  0  0  0
  -27.2013  -28.7136   20.6939 C   0  0  0  0  0  0
  -26.0567  -26.9472   19.4748 C   0  0  0  0  0  0
  -24.8670  -27.6981   19.4928 C   0  0  0  0  0  0
  -23.6089  -29.8243   20.1661 C   0  0  0  0  0  0
  -25.4109  -36.3120   24.0345 C   0  0  1  0  0  0
  -20.5862  -28.3656   23.1324 C   0  0  2  0  0  0
  -20.6774  -26.9395   22.5419 C   0  0  0  0  0  0
  -19.5760  -26.6381   21.5215 C   0  0  0  0  0  0
  -18.1936  -26.7911   22.1622 C   0  0  0  0  0  0
  -19.1519  -28.8828   23.2902 C   0  0  0  0  0  0
  -18.9447  -30.1432   23.8909 C   0  0  0  0  0  0
  -17.6449  -30.6576   24.0560 C   0  0  0  0  0  0
  -25.9035  -34.9482   23.5141 C   0  0  0  0  0  0
  -16.5345  -29.9070   23.6324 C   0  0  0  0  0  0
  -16.7263  -28.6490   23.0342 C   0  0  0  0  0  0
  -26.4475  -31.6598   25.0722 C   0  0  0  0  0  0
  -25.3751  -31.3673   26.1474 C   0  0  0  0  0  0
  -27.0303  -30.3051   24.6065 C   0  0  0  0  0  0
  -27.6064  -32.4306   25.7471 C   0  0  0  0  0  0
  -27.5580  -37.1812   24.8468 C   0  0  0  0  0  0
  -21.4138  -29.3040   22.3756 N   0  0  0  0  0  0
  -26.4295  -37.3800   23.9411 N   0  0  0  0  0  0
  -24.6681  -31.0790   22.1003 N   0  0  0  0  0  0
  -23.4197  -28.8199   23.3035 O   0  0  0  0  0  0
  -28.4041  -26.7056   20.1207 O   0  0  0  0  0  0
  -26.5592  -34.8931   22.4701 O   0  0  0  0  0  0
  -23.5339  -32.1427   23.7501 O   0  0  0  0  0  0
  -29.6171  -17.7061   22.1043 C   0  0  0  0  0  0
  -29.0221  -17.4022   23.3110 C   0  0  0  0  0  0
  -28.6246  -19.7100   22.5574 C   0  0  0  0  0  0
  -29.0836  -16.1287   24.0919 C   0  0  0  0  0  0
  -26.9709  -21.9402   20.5973 C   0  0  0  0  0  0
  -30.5060  -16.8089   21.2765 C   0  0  0  0  0  0
  -28.3153  -23.4924   22.2263 C   0  0  0  0  0  0
  -28.3302  -25.2692   20.2318 C   0  0  0  0  0  0
  -28.2140  -22.1205   21.4816 C   0  0  1  0  0  0
  -27.7823  -24.8248   21.6157 C   0  0  1  0  0  0
  -29.3611  -19.0244   21.6786 N   0  0  0  0  0  0
  -28.2463  -21.0449   22.4727 N   0  0  0  0  0  0
  -30.0364  -15.4246   21.1920 N   0  0  0  0  0  0
  -26.3645  -24.7994   21.6196 O   0  0  0  0  0  0
  -28.1369  -18.7616   23.9502 S   0  0  0  0  0  0
  -31.4631  -12.3879   19.1110 H   0  0  0  0  0  0
  -30.3168  -11.2758   19.7985 H   0  0  0  0  0  0
  -29.7262  -11.7882   17.4125 H   0  0  0  0  0  0
  -29.6633  -13.4960   17.7761 H   0  0  0  0  0  0
  -27.8099  -11.3139   18.7961 H   0  0  0  0  0  0
  -27.3640  -12.6607   17.7832 H   0  0  0  0  0  0
  -27.7124  -14.2538   19.5878 H   0  0  0  0  0  0
  -28.6714  -11.9257   21.3204 H   0  0  0  0  0  0
  -28.4671  -13.5544   21.8814 H   0  0  0  0  0  0
  -25.2758   -9.5698   22.4748 H   0  0  0  0  0  0
  -24.0000   -7.4644   22.7487 H   0  0  0  0  0  0
  -21.0825   -8.8762   19.8953 H   0  0  0  0  0  0
  -22.3674  -10.9668   19.6156 H   0  0  0  0  0  0
  -21.2016   -7.6147   23.9714 H   0  0  0  0  0  0
  -21.1474   -6.0525   25.9081 H   0  0  0  0  0  0
  -22.0600   -2.7600   23.2860 H   0  0  0  0  0  0
  -22.4112  -11.9906   22.4783 H   0  0  0  0  0  0
  -21.1119  -13.1272   22.2575 H   0  0  0  0  0  0
  -24.6679  -15.8437   20.5219 H   0  0  0  0  0  0
  -26.2863  -15.6272   20.0877 H   0  0  0  0  0  0
  -26.7115  -32.5538   23.1173 H   0  0  0  0  0  0
  -25.0094  -33.9794   25.0511 H   0  0  0  0  0  0
  -22.6900  -31.3080   21.4136 H   0  0  0  0  0  0
  -23.3750  -35.9649   23.3321 H   0  0  0  0  0  0
  -24.3578  -36.8909   22.2052 H   0  0  0  0  0  0
  -23.7248  -37.6529   23.6632 H   0  0  0  0  0  0
  -26.0410  -31.5977   20.5915 H   0  0  0  0  0  0
  -26.8210  -30.8889   21.9770 H   0  0  0  0  0  0
  -28.0976  -29.1020   21.1579 H   0  0  0  0  0  0
  -26.0415  -25.9904   18.9736 H   0  0  0  0  0  0
  -23.9765  -27.3056   19.0207 H   0  0  0  0  0  0
  -23.7166  -30.5985   19.4061 H   0  0  0  0  0  0
  -22.7322  -29.2435   19.8737 H   0  0  0  0  0  0
  -25.1288  -36.1994   25.0839 H   0  0  0  0  0  0
  -20.9928  -28.3207   24.1449 H   0  0  0  0  0  0
  -20.5675  -26.2271   23.3608 H   0  0  0  0  0  0
  -21.6644  -26.7430   22.1220 H   0  0  0  0  0  0
  -19.6941  -25.6296   21.1241 H   0  0  0  0  0  0
  -19.6696  -27.3194   20.6749 H   0  0  0  0  0  0
  -17.4204  -26.6633   21.4034 H   0  0  0  0  0  0
  -18.0339  -26.0052   22.9013 H   0  0  0  0  0  0
  -19.7923  -30.7245   24.2281 H   0  0  0  0  0  0
  -17.5006  -31.6264   24.5139 H   0  0  0  0  0  0
  -15.5345  -30.2979   23.7643 H   0  0  0  0  0  0
  -15.8666  -28.0820   22.7040 H   0  0  0  0  0  0
  -24.5935  -30.7011   25.7804 H   0  0  0  0  0  0
  -24.8923  -32.2808   26.4951 H   0  0  0  0  0  0
  -25.8121  -30.8824   27.0214 H   0  0  0  0  0  0
  -26.2831  -29.6803   24.1157 H   0  0  0  0  0  0
  -27.4141  -29.7293   25.4498 H   0  0  0  0  0  0
  -27.8639  -30.4401   23.9169 H   0  0  0  0  0  0
  -27.2713  -33.3604   26.2079 H   0  0  0  0  0  0
  -28.3852  -32.6865   25.0273 H   0  0  0  0  0  0
  -28.0758  -31.8405   26.5354 H   0  0  0  0  0  0
  -28.2616  -38.0091   24.7507 H   0  0  0  0  0  0
  -28.1059  -36.2627   24.6308 H   0  0  0  0  0  0
  -27.2294  -37.1489   25.8869 H   0  0  0  0  0  0
  -20.9292  -29.8794   21.7009 H   0  0  0  0  0  0
  -26.0192  -38.2885   24.1392 H   0  0  0  0  0  0
  -30.0895  -15.7082   24.0790 H   0  0  0  0  0  0
  -28.3982  -15.3868   23.6819 H   0  0  0  0  0  0
  -28.8118  -16.2902   25.1357 H   0  0  0  0  0  0
  -26.9430  -22.6704   19.7893 H   0  0  0  0  0  0
  -26.0496  -22.0437   21.1716 H   0  0  0  0  0  0
  -26.9607  -20.9539   20.1309 H   0  0  0  0  0  0
  -31.5120  -16.8119   21.6996 H   0  0  0  0  0  0
  -30.6078  -17.2042   20.2643 H   0  0  0  0  0  0
  -29.3690  -23.6418   22.4679 H   0  0  0  0  0  0
  -27.8294  -23.4006   23.1991 H   0  0  0  0  0  0
  -29.3584  -24.9184   20.1434 H   0  0  0  0  0  0
  -27.8024  -24.8079   19.3977 H   0  0  0  0  0  0
  -29.0906  -22.0161   20.8400 H   0  0  0  0  0  0
  -28.0745  -25.6007   22.3257 H   0  0  0  0  0  0
  -27.7456  -21.3082   23.3152 H   0  0  0  0  0  0
  -29.1115  -15.2274   21.5392 H   0  0  0  0  0  0
  -26.0681  -25.6542   21.3224 H   0  0  0  0  0  0
  1 25  1  0  0  0
  1 30  2  0  0  0
  1 83  1  0  0  0
  2  3  1  0  0  0
  2 25  1  0  0  0
  2 86  1  0  0  0
  2 87  1  0  0  0
  3  4  1  0  0  0
  3 88  1  0  0  0
  3 89  1  0  0  0
  4  5  1  0  0  0
  4 90  1  0  0  0
  4 91  1  0  0  0
  5  6  1  0  0  0
  5 26  1  0  0  0
  5 92  1  0  0  0
  6 25  1  0  0  0
  6 93  1  0  0  0
  6 94  1  0  0  0
  7  8  2  0  0  0
  7 26  1  0  0  0
  7 29  1  0  0  0
  8  9  1  0  0  0
  8 22  1  0  0  0
  9 10  1  0  0  0
  9 27  2  0  0  0
 10 11  2  0  0  0
 10 15  1  0  0  0
 11 12  1  0  0  0
 11 95  1  0  0  0
 12 13  2  0  0  0
 12 96  1  0  0  0
 13 14  1  0  0  0
 13 31  1  0  0  0
 14 15  2  0  0  0
 14 97  1  0  0  0
 15 98  1  0  0  0
 16 17  2  0  0  0
 16 21  1  0  0  0
 16 31  1  0  0  0
 17 18  1  0  0  0
 17 99  1  0  0  0
 18 19  2  0  0  0
 18100  1  0  0  0
 19 20  1  0  0  0
 19 24  1  0  0  0
 20 21  2  0  0  0
 20101  1  0  0  0
 21 23  1  0  0  0
 22 28  1  0  0  0
 22 32  2  0  0  0
 26 27  1  0  0  0
 28102  1  0  0  0
 28103  1  0  0  0
 29104  1  0  0  0
 29105  1  0  0  0
 33 34  1  0  0  0
 33 66  1  0  0  0
 33 70  2  0  0  0
 34 36  1  0  0  0
 34 59  1  0  0  0
 34106  1  0  0  0
 35 44  2  0  0  0
 35 45  1  0  0  0
 35 68  1  0  0  0
 36 56  1  0  0  0
 36107  1  0  0  0
 37 39  1  0  0  0
 37 47  1  0  0  0
 37 66  1  0  0  0
 37108  1  0  0  0
 38 43  2  0  0  0
 38 46  1  0  0  0
 38 47  1  0  0  0
 39 64  1  0  0  0
 39 67  2  0  0  0
 40 52  1  0  0  0
 40 53  2  0  0  0
 40 58  1  0  0  0
 41109  1  0  0  0
 41110  1  0  0  0
 41111  1  0  0  0
 41 48  1  0  0  0
 42 43  1  0  0  0
 42 66  1  0  0  0
 42112  1  0  0  0
 42113  1  0  0  0
 43 44  1  0  0  0
 44114  1  0  0  0
 45 46  2  0  0  0
 45115  1  0  0  0
 46116  1  0  0  0
 47117  1  0  0  0
 47118  1  0  0  0
 48 56  1  0  0  0
 48 65  1  0  0  0
 48119  1  0  0  0
 49 50  1  0  0  0
 49 53  1  0  0  0
 49 64  1  0  0  0
 49120  1  0  0  0
 50 51  1  0  0  0
 50121  1  0  0  0
 50122  1  0  0  0
 51 52  1  0  0  0
 51123  1  0  0  0
 51124  1  0  0  0
 52125  1  0  0  0
 52126  1  0  0  0
 53 54  1  0  0  0
 54 55  2  0  0  0
 54127  1  0  0  0
 55 57  1  0  0  0
 55128  1  0  0  0
 56 69  2  0  0  0
 57 58  2  0  0  0
 57129  1  0  0  0
 58130  1  0  0  0
 59 60  1  0  0  0
 59 61  1  0  0  0
 59 62  1  0  0  0
 60131  1  0  0  0
 60132  1  0  0  0
 60133  1  0  0  0
 61134  1  0  0  0
 61135  1  0  0  0
 61136  1  0  0  0
 62137  1  0  0  0
 62138  1  0  0  0
 62139  1  0  0  0
 63 65  1  0  0  0
 63140  1  0  0  0
 63141  1  0  0  0
 63142  1  0  0  0
 64143  1  0  0  0
 65144  1  0  0  0
 68 78  1  0  0  0
 71 72  2  0  0  0
 71 76  1  0  0  0
 71 81  1  0  0  0
 72 74  1  0  0  0
 72 85  1  0  0  0
 73 81  2  0  0  0
 73 82  1  0  0  0
 73 85  1  0  0  0
 74145  1  0  0  0
 74146  1  0  0  0
 74147  1  0  0  0
 75148  1  0  0  0
 75149  1  0  0  0
 75150  1  0  0  0
 75 79  1  0  0  0
 76 83  1  0  0  0
 76151  1  0  0  0
 76152  1  0  0  0
 77 79  1  0  0  0
 77 80  1  0  0  0
 77153  1  0  0  0
 77154  1  0  0  0
 78 80  1  0  0  0
 78155  1  0  0  0
 78156  1  0  0  0
 79 82  1  0  0  0
 79157  1  0  0  0
 80 84  1  0  0  0
 80158  1  0  0  0
 82159  1  0  0  0
 83160  1  0  0  0
 84161  1  0  0  0
M  ISO  4   1 100  68 101  78 101  83 100
M  END
> <chiral flag>
0

> <version>
0

> <s_m_source_file>
/data/baiqing/PycharmProjects/Reinvent-master-3.2/result/LINK_invent/BTK/process_docking_weight1_custom_product_contain_oxygen_bond_distance_aromatic_linkinvent_7_9_3/rearranged_h_0191.sdf

> <i_m_source_file_index>
51

> <r_mmod_Potential_Energy-OPLS-2005>
-200.981094360352

> <r_mmod_Stretch_Energy-OPLS-2005>
36.1072387695312

> <r_mmod_Bend_Energy-OPLS-2005>
115.893333435059

> <r_mmod_Torsional_Energy-OPLS-2005>
204.846160888672

> <r_mmod_Improper_Torsional_Energy-OPLS-2005>
3.32939863204956

> <r_mmod_Van_der_Waal_Energy-OPLS-2005>
123.667701721191

> <r_mmod_Electrostatic_Energy-OPLS-2005>
-473.917602539062

> <r_mmod_Solvation_Energy-OPLS-2005>
-221.979675292969

> <b_mmod_Minimization_Converged-OPLS-2005>
0

> <r_mmod_RMS_Derivative-OPLS-2005>
1.30727827548981

$$$$
53
                    3D
 Structure written by MMmdl.
162170  0  0  1  0            999 V2000
  -30.6260  -14.6482   20.5091 C   0  0  0  0  0  0
  -30.4419  -12.3966   19.4612 C   0  0  0  0  0  0
  -29.5157  -12.5135   18.2300 C   0  0  0  0  0  0
  -28.0373  -12.3504   18.6370 C   0  0  0  0  0  0
  -27.6573  -13.2183   19.8664 C   0  0  2  0  0  0
  -28.7000  -13.0688   20.9974 C   0  0  0  0  0  0
  -25.2586  -13.8184   20.5700 C   0  0  0  0  0  0
  -24.1837  -13.0445   20.9169 C   0  0  0  0  0  0
  -24.6400  -11.6914   20.8708 C   0  0  0  0  0  0
  -23.9068  -10.4294   21.0375 C   0  0  0  0  0  0
  -24.3611   -9.4215   21.9156 C   0  0  0  0  0  0
  -23.6282   -8.2258   22.0747 C   0  0  0  0  0  0
  -22.4261   -8.0289   21.3545 C   0  0  0  0  0  0
  -21.9894   -9.0262   20.4646 C   0  0  0  0  0  0
  -22.7231  -10.2135   20.3036 C   0  0  0  0  0  0
  -21.6858   -6.0731   22.5274 C   0  0  0  0  0  0
  -21.4021   -6.5630   23.8208 C   0  0  0  0  0  0
  -21.3662   -5.6783   24.9168 C   0  0  0  0  0  0
  -21.6041   -4.3045   24.7220 C   0  0  0  0  0  0
  -21.8820   -3.8143   23.4338 C   0  0  0  0  0  0
  -21.9198   -4.6958   22.3396 C   0  0  0  0  0  0
  -22.7858  -13.5239   21.1833 C   0  0  0  0  0  0
  -22.1660   -4.2146   21.0973 F   0  0  0  0  0  0
  -21.5628   -3.4529   25.7730 F   0  0  0  0  0  0
  -30.0190  -13.4175   20.4430 N   0  0  0  0  0  0
  -26.3013  -12.9362   20.3320 N   0  0  0  0  0  0
  -25.9331  -11.6517   20.5728 N   0  0  0  0  0  0
  -22.0491  -12.8247   22.0389 N   0  0  0  0  0  0
  -25.4330  -15.1910   20.4185 N   0  0  0  0  0  0
  -31.7644  -14.8041   20.0570 O   0  0  0  0  0  0
  -21.6636   -6.8880   21.4238 O   0  0  0  0  0  0
  -22.3540  -14.5546   20.6687 O   0  0  0  0  0  0
  -24.6260  -31.8582   23.2001 C   0  0  0  0  0  0
  -25.9110  -32.4767   23.8336 C   0  0  1  0  0  0
  -27.2314  -27.3135   20.1104 C   0  0  0  0  0  0
  -25.5917  -33.8566   24.2263 N   0  0  0  0  0  0
  -23.4194  -30.4796   21.5430 C   0  0  2  0  0  0
  -24.8654  -28.9296   20.1097 C   0  0  0  0  0  0
  -22.7471  -29.4612   22.4939 C   0  0  0  0  0  0
  -18.0287  -28.1390   22.8486 C   0  0  0  0  0  0
  -24.1488  -36.7287   23.2638 C   0  0  0  0  0  0
  -25.9597  -30.7861   21.3715 C   0  0  0  0  0  0
  -26.0318  -29.4123   20.7137 C   0  0  0  0  0  0
  -27.2115  -28.6135   20.7067 C   0  0  0  0  0  0
  -26.0361  -26.8748   19.4962 C   0  0  0  0  0  0
  -24.8697  -27.6664   19.4952 C   0  0  0  0  0  0
  -23.6334  -29.8107   20.1583 C   0  0  0  0  0  0
  -25.4107  -36.3069   24.0329 C   0  0  1  0  0  0
  -20.5885  -28.3690   23.1289 C   0  0  2  0  0  0
  -20.6777  -26.9415   22.5414 C   0  0  0  0  0  0
  -19.5752  -26.6389   21.5215 C   0  0  0  0  0  0
  -18.1930  -26.7936   22.1624 C   0  0  0  0  0  0
  -19.1538  -28.8859   23.2881 C   0  0  0  0  0  0
  -18.9459  -30.1459   23.8904 C   0  0  0  0  0  0
  -17.6458  -30.6589   24.0568 C   0  0  0  0  0  0
  -25.9049  -34.9444   23.5100 C   0  0  0  0  0  0
  -16.5352  -29.9090   23.6325 C   0  0  0  0  0  0
  -16.7273  -28.6506   23.0352 C   0  0  0  0  0  0
  -26.4488  -31.6587   25.0716 C   0  0  0  0  0  0
  -25.3719  -31.3741   26.1449 C   0  0  0  0  0  0
  -27.0324  -30.3004   24.6189 C   0  0  0  0  0  0
  -27.6060  -32.4318   25.7474 C   0  0  0  0  0  0
  -27.5582  -37.1785   24.8453 C   0  0  0  0  0  0
  -21.4188  -29.3034   22.3680 N   0  0  0  0  0  0
  -26.4282  -37.3768   23.9417 N   0  0  0  0  0  0
  -24.6872  -31.0587   22.0955 N   0  0  0  0  0  0
  -23.4194  -28.8161   23.3031 O   0  0  0  0  0  0
  -28.3867  -26.5186   20.1839 O   0  0  0  0  0  0
  -26.5630  -34.8918   22.4673 O   0  0  0  0  0  0
  -23.5420  -32.1398   23.7324 O   0  0  0  0  0  0
  -30.4577  -19.4909   20.7060 C   0  0  0  0  0  0
  -28.1809  -18.8856   20.4421 C   0  0  0  0  0  0
  -30.7754  -18.0962   20.8629 C   0  0  0  0  0  0
  -29.1219  -19.9355   20.5236 C   0  0  0  0  0  0
  -29.7376  -17.1062   20.7540 C   0  0  0  0  0  0
  -29.2912  -22.5153   20.2530 C   0  0  0  0  0  0
  -32.7658  -18.5234   22.4107 C   0  0  0  0  0  0
  -33.1438  -17.8734   19.9868 C   0  0  0  0  0  0
  -29.8121  -25.3264   18.7485 C   0  0  0  0  0  0
  -32.2229  -17.7300   21.2087 C   0  0  0  0  0  0
  -28.6180  -23.9198   20.6313 C   0  0  2  0  0  0
  -28.5448  -25.1587   19.6017 C   0  0  1  0  0  0
  -28.4738  -17.5583   20.5420 N   0  0  0  0  0  0
  -28.6575  -21.3337   20.5406 N   0  0  0  0  0  0
  -29.8660  -15.6693   21.0252 N   0  0  0  0  0  0
  -30.4199  -22.4951   19.7559 O   0  0  0  0  0  0
  -29.2650  -24.3689   21.7113 F   0  0  0  0  0  0
  -31.4849  -12.5157   19.1626 H   0  0  0  0  0  0
  -30.3735  -11.3996   19.9005 H   0  0  0  0  0  0
  -29.7840  -11.7652   17.4838 H   0  0  0  0  0  0
  -29.6607  -13.4848   17.7541 H   0  0  0  0  0  0
  -27.8724  -11.2968   18.8654 H   0  0  0  0  0  0
  -27.3881  -12.5840   17.7924 H   0  0  0  0  0  0
  -27.6784  -14.2551   19.5301 H   0  0  0  0  0  0
  -28.7111  -12.0424   21.3672 H   0  0  0  0  0  0
  -28.4365  -13.6863   21.8570 H   0  0  0  0  0  0
  -25.2755   -9.5688   22.4729 H   0  0  0  0  0  0
  -23.9996   -7.4646   22.7459 H   0  0  0  0  0  0
  -21.0831   -8.8778   19.8948 H   0  0  0  0  0  0
  -22.3687  -10.9667   19.6143 H   0  0  0  0  0  0
  -21.2012   -7.6135   23.9714 H   0  0  0  0  0  0
  -21.1481   -6.0504   25.9072 H   0  0  0  0  0  0
  -22.0598   -2.7605   23.2841 H   0  0  0  0  0  0
  -22.4100  -11.9911   22.4790 H   0  0  0  0  0  0
  -21.1108  -13.1287   22.2580 H   0  0  0  0  0  0
  -24.6747  -15.8503   20.5535 H   0  0  0  0  0  0
  -26.3022  -15.6409   20.1539 H   0  0  0  0  0  0
  -26.7177  -32.5424   23.1078 H   0  0  0  0  0  0
  -25.0030  -33.9708   25.0384 H   0  0  0  0  0  0
  -22.7128  -31.2994   21.3985 H   0  0  0  0  0  0
  -23.3756  -35.9612   23.3268 H   0  0  0  0  0  0
  -24.3582  -36.8942   22.2058 H   0  0  0  0  0  0
  -23.7242  -37.6479   23.6685 H   0  0  0  0  0  0
  -26.0932  -31.5496   20.6034 H   0  0  0  0  0  0
  -26.8395  -30.8342   22.0018 H   0  0  0  0  0  0
  -28.1072  -28.9807   21.1881 H   0  0  0  0  0  0
  -25.9568  -25.9059   19.0307 H   0  0  0  0  0  0
  -23.9723  -27.2867   19.0267 H   0  0  0  0  0  0
  -23.7523  -30.5861   19.4004 H   0  0  0  0  0  0
  -22.7531  -29.2394   19.8577 H   0  0  0  0  0  0
  -25.1286  -36.1911   25.0823 H   0  0  0  0  0  0
  -20.9973  -28.3272   24.1412 H   0  0  0  0  0  0
  -20.5679  -26.2297   23.3611 H   0  0  0  0  0  0
  -21.6649  -26.7447   22.1213 H   0  0  0  0  0  0
  -19.6911  -25.6301   21.1244 H   0  0  0  0  0  0
  -19.6690  -27.3198   20.6743 H   0  0  0  0  0  0
  -17.4201  -26.6686   21.4027 H   0  0  0  0  0  0
  -18.0319  -26.0082   22.9021 H   0  0  0  0  0  0
  -19.7933  -30.7276   24.2281 H   0  0  0  0  0  0
  -17.5010  -31.6270   24.5168 H   0  0  0  0  0  0
  -15.5351  -30.2993   23.7645 H   0  0  0  0  0  0
  -15.8671  -28.0822   22.7073 H   0  0  0  0  0  0
  -24.5875  -30.7112   25.7781 H   0  0  0  0  0  0
  -24.8927  -32.2913   26.4881 H   0  0  0  0  0  0
  -25.8033  -30.8908   27.0223 H   0  0  0  0  0  0
  -26.2892  -29.6751   24.1229 H   0  0  0  0  0  0
  -27.4024  -29.7272   25.4701 H   0  0  0  0  0  0
  -27.8759  -30.4275   23.9401 H   0  0  0  0  0  0
  -27.2701  -33.3641   26.2022 H   0  0  0  0  0  0
  -28.3874  -32.6843   25.0295 H   0  0  0  0  0  0
  -28.0720  -31.8460   26.5407 H   0  0  0  0  0  0
  -28.2571  -38.0111   24.7539 H   0  0  0  0  0  0
  -28.1107  -36.2648   24.6214 H   0  0  0  0  0  0
  -27.2310  -37.1355   25.8856 H   0  0  0  0  0  0
  -20.9369  -29.8739   21.6870 H   0  0  0  0  0  0
  -26.0158  -38.2833   24.1449 H   0  0  0  0  0  0
  -31.2413  -20.2276   20.7976 H   0  0  0  0  0  0
  -27.1320  -19.1157   20.3205 H   0  0  0  0  0  0
  -32.1311  -18.3906   23.2873 H   0  0  0  0  0  0
  -32.8412  -19.5919   22.2108 H   0  0  0  0  0  0
  -33.7654  -18.1806   22.6814 H   0  0  0  0  0  0
  -32.7973  -17.2571   19.1568 H   0  0  0  0  0  0
  -34.1603  -17.5551   20.2218 H   0  0  0  0  0  0
  -33.1944  -18.9048   19.6364 H   0  0  0  0  0  0
  -29.9899  -24.4591   18.1141 H   0  0  0  0  0  0
  -30.6911  -25.4756   19.3755 H   0  0  0  0  0  0
  -29.7243  -26.1884   18.0869 H   0  0  0  0  0  0
  -32.2579  -16.6946   21.5341 H   0  0  0  0  0  0
  -27.6056  -23.7221   20.9838 H   0  0  0  0  0  0
  -27.7538  -24.9355   18.8904 H   0  0  0  0  0  0
  -27.6952  -21.4504   20.8324 H   0  0  0  0  0  0
  -29.0102  -15.2869   21.3931 H   0  0  0  0  0  0
  1 25  1  0  0  0
  1 30  2  0  0  0
  1 85  1  0  0  0
  2  3  1  0  0  0
  2 25  1  0  0  0
  2 88  1  0  0  0
  2 89  1  0  0  0
  3  4  1  0  0  0
  3 90  1  0  0  0
  3 91  1  0  0  0
  4  5  1  0  0  0
  4 92  1  0  0  0
  4 93  1  0  0  0
  5  6  1  0  0  0
  5 26  1  0  0  0
  5 94  1  0  0  0
  6 25  1  0  0  0
  6 95  1  0  0  0
  6 96  1  0  0  0
  7  8  2  0  0  0
  7 26  1  0  0  0
  7 29  1  0  0  0
  8  9  1  0  0  0
  8 22  1  0  0  0
  9 10  1  0  0  0
  9 27  2  0  0  0
 10 11  2  0  0  0
 10 15  1  0  0  0
 11 12  1  0  0  0
 11 97  1  0  0  0
 12 13  2  0  0  0
 12 98  1  0  0  0
 13 14  1  0  0  0
 13 31  1  0  0  0
 14 15  2  0  0  0
 14 99  1  0  0  0
 15100  1  0  0  0
 16 17  2  0  0  0
 16 21  1  0  0  0
 16 31  1  0  0  0
 17 18  1  0  0  0
 17101  1  0  0  0
 18 19  2  0  0  0
 18102  1  0  0  0
 19 20  1  0  0  0
 19 24  1  0  0  0
 20 21  2  0  0  0
 20103  1  0  0  0
 21 23  1  0  0  0
 22 28  1  0  0  0
 22 32  2  0  0  0
 26 27  1  0  0  0
 28104  1  0  0  0
 28105  1  0  0  0
 29106  1  0  0  0
 29107  1  0  0  0
 33 34  1  0  0  0
 33 66  1  0  0  0
 33 70  2  0  0  0
 34 36  1  0  0  0
 34 59  1  0  0  0
 34108  1  0  0  0
 35 44  2  0  0  0
 35 45  1  0  0  0
 35 68  1  0  0  0
 36 56  1  0  0  0
 36109  1  0  0  0
 37 39  1  0  0  0
 37 47  1  0  0  0
 37 66  1  0  0  0
 37110  1  0  0  0
 38 43  2  0  0  0
 38 46  1  0  0  0
 38 47  1  0  0  0
 39 64  1  0  0  0
 39 67  2  0  0  0
 40 52  1  0  0  0
 40 53  2  0  0  0
 40 58  1  0  0  0
 41111  1  0  0  0
 41112  1  0  0  0
 41113  1  0  0  0
 41 48  1  0  0  0
 42 43  1  0  0  0
 42 66  1  0  0  0
 42114  1  0  0  0
 42115  1  0  0  0
 43 44  1  0  0  0
 44116  1  0  0  0
 45 46  2  0  0  0
 45117  1  0  0  0
 46118  1  0  0  0
 47119  1  0  0  0
 47120  1  0  0  0
 48 56  1  0  0  0
 48 65  1  0  0  0
 48121  1  0  0  0
 49 50  1  0  0  0
 49 53  1  0  0  0
 49 64  1  0  0  0
 49122  1  0  0  0
 50 51  1  0  0  0
 50123  1  0  0  0
 50124  1  0  0  0
 51 52  1  0  0  0
 51125  1  0  0  0
 51126  1  0  0  0
 52127  1  0  0  0
 52128  1  0  0  0
 53 54  1  0  0  0
 54 55  2  0  0  0
 54129  1  0  0  0
 55 57  1  0  0  0
 55130  1  0  0  0
 56 69  2  0  0  0
 57 58  2  0  0  0
 57131  1  0  0  0
 58132  1  0  0  0
 59 60  1  0  0  0
 59 61  1  0  0  0
 59 62  1  0  0  0
 60133  1  0  0  0
 60134  1  0  0  0
 60135  1  0  0  0
 61136  1  0  0  0
 61137  1  0  0  0
 61138  1  0  0  0
 62139  1  0  0  0
 62140  1  0  0  0
 62141  1  0  0  0
 63 65  1  0  0  0
 63142  1  0  0  0
 63143  1  0  0  0
 63144  1  0  0  0
 64145  1  0  0  0
 65146  1  0  0  0
 68 82  1  0  0  0
 71 73  2  0  0  0
 71 74  1  0  0  0
 71147  1  0  0  0
 72 74  2  0  0  0
 72 83  1  0  0  0
 72148  1  0  0  0
 73 75  1  0  0  0
 73 80  1  0  0  0
 74 84  1  0  0  0
 75 83  2  0  0  0
 75 85  1  0  0  0
 76 81  1  0  0  0
 76 84  1  0  0  0
 76 86  2  0  0  0
 77149  1  0  0  0
 77150  1  0  0  0
 77151  1  0  0  0
 77 80  1  0  0  0
 78 80  1  0  0  0
 78152  1  0  0  0
 78153  1  0  0  0
 78154  1  0  0  0
 79155  1  0  0  0
 79156  1  0  0  0
 79157  1  0  0  0
 79 82  1  0  0  0
 80158  1  0  0  0
 81 82  1  0  0  0
 81 87  1  0  0  0
 81159  1  0  0  0
 82160  1  0  0  0
 84161  1  0  0  0
 85162  1  0  0  0
M  ISO  4   1 100  68 101  82 101  85 100
M  END
> <chiral flag>
0

> <version>
0

> <s_m_source_file>
/data/baiqing/PycharmProjects/Reinvent-master-3.2/result/LINK_invent/BTK/process_docking_weight1_custom_product_contain_oxygen_bond_distance_aromatic_linkinvent_7_9_3/rearranged_h_0191.sdf

> <i_m_source_file_index>
52

> <r_mmod_Potential_Energy-OPLS-2005>
-23.6041717529297

> <r_mmod_Stretch_Energy-OPLS-2005>
92.0834732055664

> <r_mmod_Bend_Energy-OPLS-2005>
190.371322631836

> <r_mmod_Torsional_Energy-OPLS-2005>
234.432189941406

> <r_mmod_Improper_Torsional_Energy-OPLS-2005>
5.74646282196045

> <r_mmod_Van_der_Waal_Energy-OPLS-2005>
141.207595825195

> <r_mmod_Electrostatic_Energy-OPLS-2005>
-506.323455810547

> <r_mmod_Solvation_Energy-OPLS-2005>
-228.774200439453

> <b_mmod_Minimization_Converged-OPLS-2005>
0

> <r_mmod_RMS_Derivative-OPLS-2005>
1.35044801235199

$$$$
54
                    3D
 Structure written by MMmdl.
163171  0  0  1  0            999 V2000
  -29.5867  -14.4223   19.3420 C   0  0  0  0  0  0
  -30.5479  -12.2718   19.2823 C   0  0  0  0  0  0
  -29.4036  -11.8308   18.3666 C   0  0  0  0  0  0
  -28.1522  -11.6709   19.2940 C   0  0  0  0  0  0
  -28.0096  -12.6907   20.5813 C   0  0  2  0  0  0
  -29.2580  -12.9393   21.2642 C   0  0  0  0  0  0
  -25.8368  -14.6475   20.6136 C   0  0  0  0  0  0
  -24.2881  -14.2665   20.6768 C   0  0  0  0  0  0
  -24.6934  -11.8677   21.2904 C   0  0  0  0  0  0
  -23.9709  -10.4518   21.2336 C   0  0  0  0  0  0
  -24.4289   -9.3838   22.0332 C   0  0  0  0  0  0
  -23.7097   -8.1627   22.1338 C   0  0  0  0  0  0
  -22.5115   -7.9535   21.4078 C   0  0  0  0  0  0
  -22.0752   -8.9365   20.5442 C   0  0  0  0  0  0
  -22.7840  -10.1222   20.4730 C   0  0  0  0  0  0
  -21.7000   -6.0415   22.5462 C   0  0  0  0  0  0
  -21.4087   -6.5458   23.8308 C   0  0  0  0  0  0
  -21.3634   -5.6652   24.9275 C   0  0  0  0  0  0
  -21.5998   -4.2904   24.7354 C   0  0  0  0  0  0
  -21.8774   -3.7912   23.4504 C   0  0  0  0  0  0
  -21.9229   -4.6676   22.3555 C   0  0  0  0  0  0
  -22.9636  -15.1025   20.3979 C   0  0  0  0  0  0
  -22.1714   -4.1907   21.1115 F   0  0  0  0  0  0
  -21.5563   -3.4435   25.7891 F   0  0  0  0  0  0
  -29.9820  -13.3481   20.0788 N   0  0  0  0  0  0
  -26.8131  -13.1786   20.9484 N   0  0  0  0  0  0
  -26.1827  -11.7756   21.2821 N   0  0  0  0  0  0
  -21.9988  -15.3042   21.3319 N   0  0  0  0  0  0
  -26.2538  -15.8666   20.2427 N   0  0  0  0  0  0
  -30.5784  -15.1969   19.3197 O   0  0  0  0  0  0
  -21.7225   -6.8392   21.4429 O   0  0  0  0  0  0
  -22.4618  -15.1161   19.3300 O   0  0  0  0  0  0
  -24.6822  -31.7973   23.1609 C   0  0  0  0  0  0
  -25.9451  -32.4393   23.8085 C   0  0  1  0  0  0
  -26.6553  -26.3958   20.5428 C   0  0  0  0  0  0
  -25.6059  -33.8249   24.1941 N   0  0  0  0  0  0
  -23.4915  -30.4300   21.5104 C   0  0  2  0  0  0
  -24.8819  -28.7607   20.0950 C   0  0  0  0  0  0
  -22.7678  -29.4355   22.4597 C   0  0  0  0  0  0
  -18.0324  -28.1410   22.8455 C   0  0  0  0  0  0
  -24.1502  -36.7107   23.2653 C   0  0  0  0  0  0
  -26.0650  -30.4353   21.4726 C   0  0  0  0  0  0
  -26.0324  -28.9807   20.8549 C   0  0  0  0  0  0
  -26.9408  -27.8103   21.0481 C   0  0  0  0  0  0
  -25.6807  -26.4846   19.5380 C   0  0  0  0  0  0
  -24.7875  -27.5685   19.3675 C   0  0  0  0  0  0
  -23.7401  -29.7790   20.1185 C   0  0  0  0  0  0
  -25.4160  -36.2854   24.0272 C   0  0  1  0  0  0
  -20.5956  -28.3775   23.1105 C   0  0  2  0  0  0
  -20.6790  -26.9435   22.5379 C   0  0  0  0  0  0
  -19.5762  -26.6363   21.5198 C   0  0  0  0  0  0
  -18.1950  -26.7938   22.1616 C   0  0  0  0  0  0
  -19.1593  -28.8909   23.2775 C   0  0  0  0  0  0
  -18.9510  -30.1493   23.8824 C   0  0  0  0  0  0
  -17.6506  -30.6601   24.0552 C   0  0  0  0  0  0
  -25.9154  -34.9247   23.4936 C   0  0  0  0  0  0
  -16.5390  -29.9088   23.6354 C   0  0  0  0  0  0
  -16.7307  -28.6505   23.0373 C   0  0  0  0  0  0
  -26.4616  -31.6492   25.0762 C   0  0  0  0  0  0
  -25.3663  -31.3858   26.1365 C   0  0  0  0  0  0
  -27.0582  -30.2803   24.6823 C   0  0  0  0  0  0
  -27.6038  -32.4401   25.7563 C   0  0  0  0  0  0
  -27.5558  -37.1722   24.8471 C   0  0  0  0  0  0
  -21.4335  -29.3036   22.3387 N   0  0  0  0  0  0
  -26.4270  -37.3629   23.9402 N   0  0  0  0  0  0
  -24.7737  -30.9329   22.0944 N   0  0  0  0  0  0
  -23.4152  -28.7927   23.2906 O   0  0  0  0  0  0
  -27.0711  -24.9203   20.9221 O   0  0  0  0  0  0
  -26.5787  -34.8829   22.4549 O   0  0  0  0  0  0
  -23.5859  -32.1189   23.6518 O   0  0  0  0  0  0
  -25.1622  -12.8120   19.4041 C   0  0  0  0  0  0
  -23.5110  -12.5206   19.3771 C   0  0  0  0  0  0
  -23.9464  -14.2463   22.9491 C   0  0  0  0  0  0
  -25.1879  -16.5194   26.3432 C   0  0  0  0  0  0
  -26.5749  -13.5903   18.3494 C   0  0  0  0  0  0
  -26.0269  -16.8190   25.0923 C   0  0  0  0  0  0
  -25.4141  -17.9364   24.2190 C   0  0  0  0  0  0
  -26.1236  -21.3073   21.7871 C   0  0  0  0  0  0
  -26.1534  -23.2859   21.1176 C   0  0  0  0  0  0
  -25.1130  -17.5736   22.7485 C   0  0  2  0  0  0
  -25.0985  -19.4949   21.9495 C   0  0  2  0  0  0
  -25.1765  -13.5749   22.4990 N   0  0  0  0  0  0
  -24.1591  -16.0048   22.8860 N   0  0  0  0  0  0
  -28.1823  -14.4201   18.6292 N   0  0  0  0  0  0
  -24.8879  -19.2103   20.6638 F   0  0  0  0  0  0
  -22.4205  -12.7842   21.6595 S   0  0  0  0  0  0
  -22.5495  -12.2870   17.9556 Cl  0  0  0  0  0  0
  -31.4145  -12.6047   18.7062 H   0  0  0  0  0  0
  -30.8862  -11.4481   19.9131 H   0  0  0  0  0  0
  -29.6483  -10.8660   17.9191 H   0  0  0  0  0  0
  -29.2422  -12.4837   17.5090 H   0  0  0  0  0  0
  -28.3556  -10.7280   19.8046 H   0  0  0  0  0  0
  -27.2563  -11.3488   18.7709 H   0  0  0  0  0  0
  -27.8890  -13.7443   20.6622 H   0  0  0  0  0  0
  -29.6613  -12.0300   21.7102 H   0  0  0  0  0  0
  -29.2483  -13.7162   22.0371 H   0  0  0  0  0  0
  -25.3199   -9.5184   22.6295 H   0  0  0  0  0  0
  -24.0839   -7.3902   22.7901 H   0  0  0  0  0  0
  -21.1676   -8.8029   19.9720 H   0  0  0  0  0  0
  -22.1907  -10.7740   19.8767 H   0  0  0  0  0  0
  -21.2195   -7.5998   23.9736 H   0  0  0  0  0  0
  -21.1435   -6.0416   25.9157 H   0  0  0  0  0  0
  -22.0516   -2.7362   23.3048 H   0  0  0  0  0  0
  -22.1622  -15.1358   22.3078 H   0  0  0  0  0  0
  -21.1034  -15.6628   21.0352 H   0  0  0  0  0  0
  -25.6277  -16.6622   20.2349 H   0  0  0  0  0  0
  -27.2290  -16.1293   20.2403 H   0  0  0  0  0  0
  -26.7487  -32.4741   23.0727 H   0  0  0  0  0  0
  -25.0125  -33.9296   25.0039 H   0  0  0  0  0  0
  -22.8223  -31.2783   21.3512 H   0  0  0  0  0  0
  -23.3790  -35.9409   23.3265 H   0  0  0  0  0  0
  -24.3560  -36.8823   22.2076 H   0  0  0  0  0  0
  -23.7239  -37.6261   23.6767 H   0  0  0  0  0  0
  -26.3180  -31.1251   20.6662 H   0  0  0  0  0  0
  -26.9113  -30.4784   22.1428 H   0  0  0  0  0  0
  -27.7470  -27.9306   21.7577 H   0  0  0  0  0  0
  -25.4366  -25.5772   19.0033 H   0  0  0  0  0  0
  -23.9454  -27.4267   18.7032 H   0  0  0  0  0  0
  -23.9770  -30.5580   19.3932 H   0  0  0  0  0  0
  -22.8237  -29.3107   19.7560 H   0  0  0  0  0  0
  -25.1373  -36.1604   25.0760 H   0  0  0  0  0  0
  -21.0067  -28.3421   24.1219 H   0  0  0  0  0  0
  -20.5643  -26.2412   23.3648 H   0  0  0  0  0  0
  -21.6655  -26.7374   22.1207 H   0  0  0  0  0  0
  -19.6924  -25.6253   21.1280 H   0  0  0  0  0  0
  -19.6699  -27.3129   20.6690 H   0  0  0  0  0  0
  -17.4215  -26.6667   21.4030 H   0  0  0  0  0  0
  -18.0357  -26.0093   22.9026 H   0  0  0  0  0  0
  -19.7990  -30.7321   24.2161 H   0  0  0  0  0  0
  -17.5064  -31.6276   24.5167 H   0  0  0  0  0  0
  -15.5390  -30.2976   23.7714 H   0  0  0  0  0  0
  -15.8702  -28.0800   22.7137 H   0  0  0  0  0  0
  -24.5855  -30.7196   25.7682 H   0  0  0  0  0  0
  -24.8857  -32.3099   26.4578 H   0  0  0  0  0  0
  -25.7821  -30.9162   27.0288 H   0  0  0  0  0  0
  -26.3307  -29.6310   24.1940 H   0  0  0  0  0  0
  -27.4026  -29.7382   25.5641 H   0  0  0  0  0  0
  -27.9306  -30.3870   24.0370 H   0  0  0  0  0  0
  -27.2550  -33.3779   26.1895 H   0  0  0  0  0  0
  -28.3961  -32.6836   25.0476 H   0  0  0  0  0  0
  -28.0584  -31.8719   26.5685 H   0  0  0  0  0  0
  -28.2539  -38.0051   24.7516 H   0  0  0  0  0  0
  -28.1090  -36.2566   24.6311 H   0  0  0  0  0  0
  -27.2261  -37.1370   25.8871 H   0  0  0  0  0  0
  -20.9580  -29.8734   21.6527 H   0  0  0  0  0  0
  -26.0081  -38.2668   24.1417 H   0  0  0  0  0  0
  -25.6222  -15.7029   26.9203 H   0  0  0  0  0  0
  -24.1726  -16.2277   26.0713 H   0  0  0  0  0  0
  -25.1208  -17.3895   26.9976 H   0  0  0  0  0  0
  -26.0564  -14.4023   17.8382 H   0  0  0  0  0  0
  -26.7418  -12.9389   17.4916 H   0  0  0  0  0  0
  -26.1636  -15.9008   24.5212 H   0  0  0  0  0  0
  -27.0317  -17.1119   25.4005 H   0  0  0  0  0  0
  -26.0995  -18.7850   24.2361 H   0  0  0  0  0  0
  -24.4969  -18.3128   24.6734 H   0  0  0  0  0  0
  -26.3878  -21.4623   22.8329 H   0  0  0  0  0  0
  -27.0534  -20.9502   21.3445 H   0  0  0  0  0  0
  -25.2436  -23.6663   21.5816 H   0  0  0  0  0  0
  -25.8586  -23.1429   20.0779 H   0  0  0  0  0  0
  -26.0566  -17.1930   22.3619 H   0  0  0  0  0  0
  -24.1272  -19.8491   22.2964 H   0  0  0  0  0  0
  -23.2297  -16.3680   23.0603 H   0  0  0  0  0  0
  -28.1510  -15.2775   18.0961 H   0  0  0  0  0  0
  1 25  1  0  0  0
  1 30  2  0  0  0
  1 84  1  0  0  0
  2  3  1  0  0  0
  2 25  1  0  0  0
  2 88  1  0  0  0
  2 89  1  0  0  0
  3  4  1  0  0  0
  3 90  1  0  0  0
  3 91  1  0  0  0
  4  5  1  0  0  0
  4 92  1  0  0  0
  4 93  1  0  0  0
  5  6  1  0  0  0
  5 26  1  0  0  0
  5 94  1  0  0  0
  6 25  1  0  0  0
  6 95  1  0  0  0
  6 96  1  0  0  0
  7  8  2  0  0  0
  7 26  1  0  0  0
  7 29  1  0  0  0
  8  9  1  0  0  0
  8 22  1  0  0  0
  9 10  1  0  0  0
  9 27  2  0  0  0
 10 11  2  0  0  0
 10 15  1  0  0  0
 11 12  1  0  0  0
 11 97  1  0  0  0
 12 13  2  0  0  0
 12 98  1  0  0  0
 13 14  1  0  0  0
 13 31  1  0  0  0
 14 15  2  0  0  0
 14 99  1  0  0  0
 15100  1  0  0  0
 16 17  2  0  0  0
 16 21  1  0  0  0
 16 31  1  0  0  0
 17 18  1  0  0  0
 17101  1  0  0  0
 18 19  2  0  0  0
 18102  1  0  0  0
 19 20  1  0  0  0
 19 24  1  0  0  0
 20 21  2  0  0  0
 20103  1  0  0  0
 21 23  1  0  0  0
 22 28  1  0  0  0
 22 32  2  0  0  0
 26 27  1  0  0  0
 28104  1  0  0  0
 28105  1  0  0  0
 29106  1  0  0  0
 29107  1  0  0  0
 33 34  1  0  0  0
 33 66  1  0  0  0
 33 70  2  0  0  0
 34 36  1  0  0  0
 34 59  1  0  0  0
 34108  1  0  0  0
 35 44  2  0  0  0
 35 45  1  0  0  0
 35 68  1  0  0  0
 36 56  1  0  0  0
 36109  1  0  0  0
 37 39  1  0  0  0
 37 47  1  0  0  0
 37 66  1  0  0  0
 37110  1  0  0  0
 38 43  2  0  0  0
 38 46  1  0  0  0
 38 47  1  0  0  0
 39 64  1  0  0  0
 39 67  2  0  0  0
 40 52  1  0  0  0
 40 53  2  0  0  0
 40 58  1  0  0  0
 41111  1  0  0  0
 41112  1  0  0  0
 41113  1  0  0  0
 41 48  1  0  0  0
 42 43  1  0  0  0
 42 66  1  0  0  0
 42114  1  0  0  0
 42115  1  0  0  0
 43 44  1  0  0  0
 44116  1  0  0  0
 45 46  2  0  0  0
 45117  1  0  0  0
 46118  1  0  0  0
 47119  1  0  0  0
 47120  1  0  0  0
 48 56  1  0  0  0
 48 65  1  0  0  0
 48121  1  0  0  0
 49 50  1  0  0  0
 49 53  1  0  0  0
 49 64  1  0  0  0
 49122  1  0  0  0
 50 51  1  0  0  0
 50123  1  0  0  0
 50124  1  0  0  0
 51 52  1  0  0  0
 51125  1  0  0  0
 51126  1  0  0  0
 52127  1  0  0  0
 52128  1  0  0  0
 53 54  1  0  0  0
 54 55  2  0  0  0
 54129  1  0  0  0
 55 57  1  0  0  0
 55130  1  0  0  0
 56 69  2  0  0  0
 57 58  2  0  0  0
 57131  1  0  0  0
 58132  1  0  0  0
 59 60  1  0  0  0
 59 61  1  0  0  0
 59 62  1  0  0  0
 60133  1  0  0  0
 60134  1  0  0  0
 60135  1  0  0  0
 61136  1  0  0  0
 61137  1  0  0  0
 61138  1  0  0  0
 62139  1  0  0  0
 62140  1  0  0  0
 62141  1  0  0  0
 63 65  1  0  0  0
 63142  1  0  0  0
 63143  1  0  0  0
 63144  1  0  0  0
 64145  1  0  0  0
 65146  1  0  0  0
 68 79  1  0  0  0
 71 72  2  0  0  0
 71 75  1  0  0  0
 71 82  1  0  0  0
 72 86  1  0  0  0
 72 87  1  0  0  0
 73 82  2  0  0  0
 73 83  1  0  0  0
 73 86  1  0  0  0
 74 76  1  0  0  0
 74147  1  0  0  0
 74148  1  0  0  0
 74149  1  0  0  0
 75 84  1  0  0  0
 75150  1  0  0  0
 75151  1  0  0  0
 76 77  1  0  0  0
 76152  1  0  0  0
 76153  1  0  0  0
 77154  1  0  0  0
 77155  1  0  0  0
 77 80  1  0  0  0
 78 79  1  0  0  0
 78 81  1  0  0  0
 78156  1  0  0  0
 78157  1  0  0  0
 79158  1  0  0  0
 79159  1  0  0  0
 80 81  1  0  0  0
 80 83  1  0  0  0
 80160  1  0  0  0
 81 85  1  0  0  0
 81161  1  0  0  0
 83162  1  0  0  0
 84163  1  0  0  0
M  ISO  4   1 100  68 101  79 101  84 100
M  END
> <chiral flag>
0

> <version>
0

> <s_m_source_file>
/data/baiqing/PycharmProjects/Reinvent-master-3.2/result/LINK_invent/BTK/process_docking_weight1_custom_product_contain_oxygen_bond_distance_aromatic_linkinvent_7_9_3/rearranged_h_0191.sdf

> <i_m_source_file_index>
53

> <r_mmod_Potential_Energy-OPLS-2005>
22181.28515625

> <r_mmod_Stretch_Energy-OPLS-2005>
12572.2001953125

> <r_mmod_Bend_Energy-OPLS-2005>
1546.54309082031

> <r_mmod_Torsional_Energy-OPLS-2005>
552.969848632812

> <r_mmod_Improper_Torsional_Energy-OPLS-2005>
67.1591567993164

> <r_mmod_Van_der_Waal_Energy-OPLS-2005>
4557.51025390625

> <r_mmod_Electrostatic_Energy-OPLS-2005>
-459.158508300781

> <r_mmod_Solvation_Energy-OPLS-2005>
-232.703811645508

> <b_mmod_Minimization_Converged-OPLS-2005>
0

> <r_mmod_RMS_Derivative-OPLS-2005>
3.18903255462646

$$$$
55
                    3D
 Structure written by MMmdl.
160168  0  0  1  0            999 V2000
  -30.6909  -14.4701   20.5752 C   0  0  0  0  0  0
  -30.4347  -12.3035   19.4301 C   0  0  0  0  0  0
  -29.5028  -12.5077   18.2152 C   0  0  0  0  0  0
  -28.0232  -12.3656   18.6251 C   0  0  0  0  0  0
  -27.6706  -13.1991   19.8851 C   0  0  2  0  0  0
  -28.7124  -12.9677   21.0075 C   0  0  0  0  0  0
  -25.2641  -13.8141   20.5663 C   0  0  0  0  0  0
  -24.1873  -13.0446   20.9153 C   0  0  0  0  0  0
  -24.6408  -11.6906   20.8727 C   0  0  0  0  0  0
  -23.9057  -10.4308   21.0408 C   0  0  0  0  0  0
  -24.3610   -9.4221   21.9181 C   0  0  0  0  0  0
  -23.6297   -8.2247   22.0747 C   0  0  0  0  0  0
  -22.4276   -8.0283   21.3547 C   0  0  0  0  0  0
  -21.9906   -9.0256   20.4641 C   0  0  0  0  0  0
  -22.7225  -10.2146   20.3058 C   0  0  0  0  0  0
  -21.6850   -6.0738   22.5278 C   0  0  0  0  0  0
  -21.4014   -6.5637   23.8210 C   0  0  0  0  0  0
  -21.3661   -5.6794   24.9168 C   0  0  0  0  0  0
  -21.6048   -4.3054   24.7216 C   0  0  0  0  0  0
  -21.8828   -3.8143   23.4337 C   0  0  0  0  0  0
  -21.9197   -4.6970   22.3395 C   0  0  0  0  0  0
  -22.7902  -13.5254   21.1822 C   0  0  0  0  0  0
  -22.1674   -4.2159   21.0970 F   0  0  0  0  0  0
  -21.5630   -3.4537   25.7724 F   0  0  0  0  0  0
  -30.0498  -13.2741   20.4677 N   0  0  0  0  0  0
  -26.3084  -12.9298   20.3398 N   0  0  0  0  0  0
  -25.9335  -11.6470   20.5767 N   0  0  0  0  0  0
  -22.0544  -12.8251   22.0380 N   0  0  0  0  0  0
  -25.4388  -15.1856   20.4044 N   0  0  0  0  0  0
  -31.7932  -14.6914   20.0679 O   0  0  0  0  0  0
  -21.6642   -6.8880   21.4240 O   0  0  0  0  0  0
  -22.3602  -14.5572   20.6691 O   0  0  0  0  0  0
  -24.6151  -31.8682   23.2093 C   0  0  0  0  0  0
  -25.9043  -32.4830   23.8389 C   0  0  1  0  0  0
  -27.2380  -27.4335   20.1199 C   0  0  0  0  0  0
  -25.5905  -33.8622   24.2327 N   0  0  0  0  0  0
  -23.4060  -30.4901   21.5488 C   0  0  2  0  0  0
  -24.8566  -28.9590   20.1096 C   0  0  0  0  0  0
  -22.7415  -29.4662   22.4975 C   0  0  0  0  0  0
  -18.0276  -28.1387   22.8497 C   0  0  0  0  0  0
  -24.1489  -36.7315   23.2642 C   0  0  0  0  0  0
  -25.9336  -30.8363   21.3617 C   0  0  0  0  0  0
  -26.0149  -29.4710   20.7101 C   0  0  0  0  0  0
  -27.2101  -28.7159   20.7119 C   0  0  0  0  0  0
  -26.0714  -26.9394   19.4995 C   0  0  0  0  0  0
  -24.8818  -27.6926   19.4956 C   0  0  0  0  0  0
  -23.6153  -29.8215   20.1633 C   0  0  0  0  0  0
  -25.4109  -36.3112   24.0344 C   0  0  1  0  0  0
  -20.5863  -28.3675   23.1315 C   0  0  2  0  0  0
  -20.6771  -26.9409   22.5420 C   0  0  0  0  0  0
  -19.5752  -26.6388   21.5224 C   0  0  0  0  0  0
  -18.1924  -26.7937   22.1623 C   0  0  0  0  0  0
  -19.1522  -28.8849   23.2912 C   0  0  0  0  0  0
  -18.9453  -30.1457   23.8920 C   0  0  0  0  0  0
  -17.6452  -30.6595   24.0568 C   0  0  0  0  0  0
  -25.9038  -34.9477   23.5134 C   0  0  0  0  0  0
  -16.5344  -29.9099   23.6324 C   0  0  0  0  0  0
  -16.7264  -28.6516   23.0349 C   0  0  0  0  0  0
  -26.4466  -31.6601   25.0707 C   0  0  0  0  0  0
  -25.3741  -31.3694   26.1460 C   0  0  0  0  0  0
  -27.0295  -30.3048   24.6071 C   0  0  0  0  0  0
  -27.6051  -32.4314   25.7463 C   0  0  0  0  0  0
  -27.5584  -37.1809   24.8463 C   0  0  0  0  0  0
  -21.4141  -29.3040   22.3712 N   0  0  0  0  0  0
  -26.4296  -37.3797   23.9411 N   0  0  0  0  0  0
  -24.6705  -31.0776   22.0991 N   0  0  0  0  0  0
  -23.4171  -28.8217   23.3045 O   0  0  0  0  0  0
  -28.3550  -26.6305   20.1944 O   0  0  0  0  0  0
  -26.5594  -34.8933   22.4693 O   0  0  0  0  0  0
  -23.5342  -32.1420   23.7491 O   0  0  0  0  0  0
  -30.5084  -17.9457   21.2088 C   0  0  0  0  0  0
  -32.1781  -18.7991   22.3511 C   0  0  0  0  0  0
  -30.5569  -20.1151   21.6650 C   0  0  0  0  0  0
  -31.8270  -22.8844   20.8431 C   0  0  0  0  0  0
  -29.8756  -16.7938   20.4402 C   0  0  0  0  0  0
  -29.3849  -24.6399   21.3867 C   0  0  0  0  0  0
  -29.3847  -23.4916   20.3464 C   0  0  0  0  0  0
  -28.2267  -25.6632   21.2534 C   0  0  0  0  0  0
  -30.4128  -22.3396   20.5769 C   0  0  2  0  0  0
  -31.6565  -17.7051   21.8369 N   0  0  0  0  0  0
  -29.8822  -19.1226   21.1118 N   0  0  0  0  0  0
  -31.7161  -20.0351   22.3036 N   0  0  0  0  0  0
  -33.3656  -18.6302   22.9895 N   0  0  0  0  0  0
  -29.9622  -21.3645   21.5822 N   0  0  0  0  0  0
  -29.9297  -15.4618   21.0538 N   0  0  0  0  0  0
  -31.4790  -12.4098   19.1278 H   0  0  0  0  0  0
  -30.3399  -11.2887   19.8195 H   0  0  0  0  0  0
  -29.7412  -11.7864   17.4326 H   0  0  0  0  0  0
  -29.6728  -13.4940   17.7796 H   0  0  0  0  0  0
  -27.8306  -11.3093   18.8145 H   0  0  0  0  0  0
  -27.3741  -12.6474   17.7963 H   0  0  0  0  0  0
  -27.7177  -14.2470   19.5898 H   0  0  0  0  0  0
  -28.6872  -11.9307   21.3438 H   0  0  0  0  0  0
  -28.4723  -13.5631   21.8897 H   0  0  0  0  0  0
  -25.2760   -9.5696   22.4746 H   0  0  0  0  0  0
  -24.0019   -7.4634   22.7450 H   0  0  0  0  0  0
  -21.0849   -8.8781   19.8927 H   0  0  0  0  0  0
  -22.3692  -10.9699   19.6171 H   0  0  0  0  0  0
  -21.2012   -7.6150   23.9717 H   0  0  0  0  0  0
  -21.1468   -6.0517   25.9082 H   0  0  0  0  0  0
  -22.0605   -2.7606   23.2824 H   0  0  0  0  0  0
  -22.4171  -11.9925   22.4776 H   0  0  0  0  0  0
  -21.1161  -13.1277   22.2579 H   0  0  0  0  0  0
  -24.6701  -15.8398   20.5007 H   0  0  0  0  0  0
  -26.2859  -15.6189   20.0610 H   0  0  0  0  0  0
  -26.7116  -32.5544   23.1160 H   0  0  0  0  0  0
  -25.0061  -33.9781   25.0476 H   0  0  0  0  0  0
  -22.6963  -31.3079   21.4085 H   0  0  0  0  0  0
  -23.3755  -35.9645   23.3308 H   0  0  0  0  0  0
  -24.3590  -36.8922   22.2054 H   0  0  0  0  0  0
  -23.7231  -37.6523   23.6646 H   0  0  0  0  0  0
  -26.0390  -31.6010   20.5911 H   0  0  0  0  0  0
  -26.8237  -30.8953   21.9762 H   0  0  0  0  0  0
  -28.0994  -29.0959   21.1948 H   0  0  0  0  0  0
  -26.0800  -25.9569   19.0475 H   0  0  0  0  0  0
  -23.9929  -27.2897   19.0295 H   0  0  0  0  0  0
  -23.7175  -30.5967   19.4031 H   0  0  0  0  0  0
  -22.7413  -29.2373   19.8696 H   0  0  0  0  0  0
  -25.1285  -36.1988   25.0839 H   0  0  0  0  0  0
  -20.9964  -28.3262   24.1436 H   0  0  0  0  0  0
  -20.5699  -26.2287   23.3619 H   0  0  0  0  0  0
  -21.6645  -26.7474   22.1207 H   0  0  0  0  0  0
  -19.6924  -25.6307   21.1255 H   0  0  0  0  0  0
  -19.6703  -27.3204   20.6760 H   0  0  0  0  0  0
  -17.4206  -26.6699   21.4017 H   0  0  0  0  0  0
  -18.0317  -26.0069   22.9008 H   0  0  0  0  0  0
  -19.7928  -30.7271   24.2295 H   0  0  0  0  0  0
  -17.5011  -31.6275   24.5170 H   0  0  0  0  0  0
  -15.5349  -30.3013   23.7644 H   0  0  0  0  0  0
  -15.8663  -28.0852   22.7046 H   0  0  0  0  0  0
  -24.5910  -30.7054   25.7780 H   0  0  0  0  0  0
  -24.8937  -32.2845   26.4932 H   0  0  0  0  0  0
  -25.8099  -30.8831   27.0196 H   0  0  0  0  0  0
  -26.2824  -29.6814   24.1144 H   0  0  0  0  0  0
  -27.4091  -29.7280   25.4511 H   0  0  0  0  0  0
  -27.8645  -30.4373   23.9189 H   0  0  0  0  0  0
  -27.2676  -33.3597   26.2083 H   0  0  0  0  0  0
  -28.3828  -32.6905   25.0268 H   0  0  0  0  0  0
  -28.0756  -31.8414   26.5339 H   0  0  0  0  0  0
  -28.2604  -38.0101   24.7519 H   0  0  0  0  0  0
  -28.1077  -36.2638   24.6278 H   0  0  0  0  0  0
  -27.2309  -37.1450   25.8868 H   0  0  0  0  0  0
  -20.9305  -29.8734   21.6902 H   0  0  0  0  0  0
  -26.0194  -38.2883   24.1415 H   0  0  0  0  0  0
  -32.0830  -23.6646   20.1260 H   0  0  0  0  0  0
  -32.5837  -22.1057   20.7462 H   0  0  0  0  0  0
  -31.9181  -23.3108   21.8421 H   0  0  0  0  0  0
  -30.3188  -16.7766   19.4425 H   0  0  0  0  0  0
  -28.8205  -17.0166   20.2837 H   0  0  0  0  0  0
  -30.3365  -25.1708   21.3796 H   0  0  0  0  0  0
  -29.3073  -24.1860   22.3751 H   0  0  0  0  0  0
  -29.5831  -23.9364   19.3705 H   0  0  0  0  0  0
  -28.3825  -23.0695   20.2657 H   0  0  0  0  0  0
  -28.1653  -26.2161   22.1938 H   0  0  0  0  0  0
  -27.2836  -25.1188   21.1728 H   0  0  0  0  0  0
  -30.4607  -21.7829   19.6381 H   0  0  0  0  0  0
  -33.5868  -17.6905   23.2893 H   0  0  0  0  0  0
  -33.6486  -19.3669   23.6232 H   0  0  0  0  0  0
  -28.9607  -21.2458   21.4874 H   0  0  0  0  0  0
  -29.0975  -15.1846   21.5473 H   0  0  0  0  0  0
  1 25  1  0  0  0
  1 30  2  0  0  0
  1 85  1  0  0  0
  2  3  1  0  0  0
  2 25  1  0  0  0
  2 86  1  0  0  0
  2 87  1  0  0  0
  3  4  1  0  0  0
  3 88  1  0  0  0
  3 89  1  0  0  0
  4  5  1  0  0  0
  4 90  1  0  0  0
  4 91  1  0  0  0
  5  6  1  0  0  0
  5 26  1  0  0  0
  5 92  1  0  0  0
  6 25  1  0  0  0
  6 93  1  0  0  0
  6 94  1  0  0  0
  7  8  2  0  0  0
  7 26  1  0  0  0
  7 29  1  0  0  0
  8  9  1  0  0  0
  8 22  1  0  0  0
  9 10  1  0  0  0
  9 27  2  0  0  0
 10 11  2  0  0  0
 10 15  1  0  0  0
 11 12  1  0  0  0
 11 95  1  0  0  0
 12 13  2  0  0  0
 12 96  1  0  0  0
 13 14  1  0  0  0
 13 31  1  0  0  0
 14 15  2  0  0  0
 14 97  1  0  0  0
 15 98  1  0  0  0
 16 17  2  0  0  0
 16 21  1  0  0  0
 16 31  1  0  0  0
 17 18  1  0  0  0
 17 99  1  0  0  0
 18 19  2  0  0  0
 18100  1  0  0  0
 19 20  1  0  0  0
 19 24  1  0  0  0
 20 21  2  0  0  0
 20101  1  0  0  0
 21 23  1  0  0  0
 22 28  1  0  0  0
 22 32  2  0  0  0
 26 27  1  0  0  0
 28102  1  0  0  0
 28103  1  0  0  0
 29104  1  0  0  0
 29105  1  0  0  0
 33 34  1  0  0  0
 33 66  1  0  0  0
 33 70  2  0  0  0
 34 36  1  0  0  0
 34 59  1  0  0  0
 34106  1  0  0  0
 35 44  2  0  0  0
 35 45  1  0  0  0
 35 68  1  0  0  0
 36 56  1  0  0  0
 36107  1  0  0  0
 37 39  1  0  0  0
 37 47  1  0  0  0
 37 66  1  0  0  0
 37108  1  0  0  0
 38 43  2  0  0  0
 38 46  1  0  0  0
 38 47  1  0  0  0
 39 64  1  0  0  0
 39 67  2  0  0  0
 40 52  1  0  0  0
 40 53  2  0  0  0
 40 58  1  0  0  0
 41109  1  0  0  0
 41110  1  0  0  0
 41111  1  0  0  0
 41 48  1  0  0  0
 42 43  1  0  0  0
 42 66  1  0  0  0
 42112  1  0  0  0
 42113  1  0  0  0
 43 44  1  0  0  0
 44114  1  0  0  0
 45 46  2  0  0  0
 45115  1  0  0  0
 46116  1  0  0  0
 47117  1  0  0  0
 47118  1  0  0  0
 48 56  1  0  0  0
 48 65  1  0  0  0
 48119  1  0  0  0
 49 50  1  0  0  0
 49 53  1  0  0  0
 49 64  1  0  0  0
 49120  1  0  0  0
 50 51  1  0  0  0
 50121  1  0  0  0
 50122  1  0  0  0
 51 52  1  0  0  0
 51123  1  0  0  0
 51124  1  0  0  0
 52125  1  0  0  0
 52126  1  0  0  0
 53 54  1  0  0  0
 54 55  2  0  0  0
 54127  1  0  0  0
 55 57  1  0  0  0
 55128  1  0  0  0
 56 69  2  0  0  0
 57 58  2  0  0  0
 57129  1  0  0  0
 58130  1  0  0  0
 59 60  1  0  0  0
 59 61  1  0  0  0
 59 62  1  0  0  0
 60131  1  0  0  0
 60132  1  0  0  0
 60133  1  0  0  0
 61134  1  0  0  0
 61135  1  0  0  0
 61136  1  0  0  0
 62137  1  0  0  0
 62138  1  0  0  0
 62139  1  0  0  0
 63 65  1  0  0  0
 63140  1  0  0  0
 63141  1  0  0  0
 63142  1  0  0  0
 64143  1  0  0  0
 65144  1  0  0  0
 68 78  1  0  0  0
 71 75  1  0  0  0
 71 80  1  0  0  0
 71 81  2  0  0  0
 72 80  2  0  0  0
 72 82  1  0  0  0
 72 83  1  0  0  0
 73 81  1  0  0  0
 73 82  2  0  0  0
 73 84  1  0  0  0
 74145  1  0  0  0
 74146  1  0  0  0
 74147  1  0  0  0
 74 79  1  0  0  0
 75 85  1  0  0  0
 75148  1  0  0  0
 75149  1  0  0  0
 76 77  1  0  0  0
 76 78  1  0  0  0
 76150  1  0  0  0
 76151  1  0  0  0
 77 79  1  0  0  0
 77152  1  0  0  0
 77153  1  0  0  0
 78154  1  0  0  0
 78155  1  0  0  0
 79 84  1  0  0  0
 79156  1  0  0  0
 83157  1  0  0  0
 83158  1  0  0  0
 84159  1  0  0  0
 85160  1  0  0  0
M  ISO  4   1 100  68 101  78 101  85 100
M  END
> <chiral flag>
0

> <version>
0

> <s_m_source_file>
/data/baiqing/PycharmProjects/Reinvent-master-3.2/result/LINK_invent/BTK/process_docking_weight1_custom_product_contain_oxygen_bond_distance_aromatic_linkinvent_7_9_3/rearranged_h_0191.sdf

> <i_m_source_file_index>
54

> <r_mmod_Potential_Energy-OPLS-2005>
-1120.45471191406

> <r_mmod_Stretch_Energy-OPLS-2005>
36.1787414550781

> <r_mmod_Bend_Energy-OPLS-2005>
100.018836975098

> <r_mmod_Torsional_Energy-OPLS-2005>
271.509490966797

> <r_mmod_Improper_Torsional_Energy-OPLS-2005>
16.7914257049561

> <r_mmod_Van_der_Waal_Energy-OPLS-2005>
170.277954101562

> <r_mmod_Electrostatic_Energy-OPLS-2005>
-1471.05700683594

> <r_mmod_Solvation_Energy-OPLS-2005>
-259.47509765625

> <b_mmod_Minimization_Converged-OPLS-2005>
0

> <r_mmod_RMS_Derivative-OPLS-2005>
2.14552402496338

$$$$
56
                    3D
 Structure written by MMmdl.
159167  0  0  1  0            999 V2000
  -30.6931  -14.4540   20.4852 C   0  0  0  0  0  0
  -30.4200  -12.2655   19.4391 C   0  0  0  0  0  0
  -29.4983  -12.4748   18.2172 C   0  0  0  0  0  0
  -28.0174  -12.3427   18.6258 C   0  0  0  0  0  0
  -27.6598  -13.1899   19.8758 C   0  0  2  0  0  0
  -28.7056  -12.9980   21.0041 C   0  0  0  0  0  0
  -25.2595  -13.8113   20.5687 C   0  0  0  0  0  0
  -24.1831  -13.0413   20.9176 C   0  0  0  0  0  0
  -24.6371  -11.6876   20.8754 C   0  0  0  0  0  0
  -23.9036  -10.4273   21.0423 C   0  0  0  0  0  0
  -24.3602   -9.4193   21.9195 C   0  0  0  0  0  0
  -23.6279   -8.2230   22.0765 C   0  0  0  0  0  0
  -22.4263   -8.0270   21.3552 C   0  0  0  0  0  0
  -21.9895   -9.0242   20.4651 C   0  0  0  0  0  0
  -22.7220  -10.2121   20.3062 C   0  0  0  0  0  0
  -21.6842   -6.0731   22.5280 C   0  0  0  0  0  0
  -21.4005   -6.5638   23.8212 C   0  0  0  0  0  0
  -21.3652   -5.6797   24.9175 C   0  0  0  0  0  0
  -21.6040   -4.3061   24.7230 C   0  0  0  0  0  0
  -21.8819   -3.8146   23.4353 C   0  0  0  0  0  0
  -21.9190   -4.6961   22.3405 C   0  0  0  0  0  0
  -22.7859  -13.5228   21.1831 C   0  0  0  0  0  0
  -22.1659   -4.2146   21.0987 F   0  0  0  0  0  0
  -21.5629   -3.4545   25.7741 F   0  0  0  0  0  0
  -30.0445  -13.2626   20.4505 N   0  0  0  0  0  0
  -26.3012  -12.9243   20.3384 N   0  0  0  0  0  0
  -25.9289  -11.6427   20.5793 N   0  0  0  0  0  0
  -22.0492  -12.8235   22.0391 N   0  0  0  0  0  0
  -25.4325  -15.1837   20.4097 N   0  0  0  0  0  0
  -31.8579  -14.6156   20.1138 O   0  0  0  0  0  0
  -21.6627   -6.8871   21.4244 O   0  0  0  0  0  0
  -22.3553  -14.5541   20.6682 O   0  0  0  0  0  0
  -24.6095  -31.8702   23.2119 C   0  0  0  0  0  0
  -25.9009  -32.4833   23.8405 C   0  0  1  0  0  0
  -27.2477  -27.4815   20.0839 C   0  0  0  0  0  0
  -25.5885  -33.8634   24.2338 N   0  0  0  0  0  0
  -23.3969  -30.4914   21.5498 C   0  0  2  0  0  0
  -24.8479  -28.9593   20.1120 C   0  0  0  0  0  0
  -22.7385  -29.4664   22.4997 C   0  0  0  0  0  0
  -18.0264  -28.1377   22.8492 C   0  0  0  0  0  0
  -24.1482  -36.7318   23.2640 C   0  0  0  0  0  0
  -25.9200  -30.8455   21.3613 C   0  0  0  0  0  0
  -26.0002  -29.4807   20.7138 C   0  0  0  0  0  0
  -27.1999  -28.7412   20.7116 C   0  0  0  0  0  0
  -26.0849  -26.9576   19.4825 C   0  0  0  0  0  0
  -24.8820  -27.6927   19.4974 C   0  0  0  0  0  0
  -23.6045  -29.8188   20.1644 C   0  0  0  0  0  0
  -25.4105  -36.3123   24.0340 C   0  0  1  0  0  0
  -20.5849  -28.3661   23.1330 C   0  0  2  0  0  0
  -20.6751  -26.9400   22.5424 C   0  0  0  0  0  0
  -19.5733  -26.6390   21.5212 C   0  0  0  0  0  0
  -18.1909  -26.7927   22.1617 C   0  0  0  0  0  0
  -19.1512  -28.8835   23.2907 C   0  0  0  0  0  0
  -18.9444  -30.1441   23.8918 C   0  0  0  0  0  0
  -17.6451  -30.6586   24.0569 C   0  0  0  0  0  0
  -25.9032  -34.9484   23.5138 C   0  0  0  0  0  0
  -16.5341  -29.9093   23.6324 C   0  0  0  0  0  0
  -16.7255  -28.6507   23.0348 C   0  0  0  0  0  0
  -26.4454  -31.6603   25.0720 C   0  0  0  0  0  0
  -25.3731  -31.3691   26.1472 C   0  0  0  0  0  0
  -27.0288  -30.3055   24.6073 C   0  0  0  0  0  0
  -27.6040  -32.4315   25.7476 C   0  0  0  0  0  0
  -27.5581  -37.1810   24.8464 C   0  0  0  0  0  0
  -21.4119  -29.3029   22.3736 N   0  0  0  0  0  0
  -26.4292  -37.3805   23.9413 N   0  0  0  0  0  0
  -24.6596  -31.0834   22.0999 N   0  0  0  0  0  0
  -23.4170  -28.8219   23.3041 O   0  0  0  0  0  0
  -28.4135  -26.7626   20.1040 O   0  0  0  0  0  0
  -26.5596  -34.8932   22.4700 O   0  0  0  0  0  0
  -23.5299  -32.1441   23.7535 O   0  0  0  0  0  0
  -30.9291  -18.4692   20.0744 C   0  0  0  0  0  0
  -29.9690  -17.7652   19.3839 C   0  0  0  0  0  0
  -30.0904  -20.1376   18.7763 C   0  0  0  0  0  0
  -30.8258  -22.4048   18.0303 C   0  0  0  0  0  0
  -31.4757  -23.3683   15.7980 C   0  0  0  0  0  0
  -29.6727  -16.3018   19.3237 C   0  0  0  0  0  0
  -29.3050  -25.1254   18.5752 C   0  0  0  0  0  0
  -30.3882  -24.8974   17.5044 C   0  0  0  0  0  0
  -29.0770  -26.6163   18.8570 C   0  0  0  0  0  0
  -30.4714  -23.4548   16.9604 C   0  0  2  0  0  0
  -30.9941  -19.8265   19.7159 N   0  0  0  0  0  0
  -29.9650  -21.3828   18.1211 N   0  0  0  0  0  0
  -29.8613  -15.5032   20.5395 N   0  0  0  0  0  0
  -31.8371  -22.5411   18.7248 O   0  0  0  0  0  0
  -29.0518  -18.8056   18.3290 S   0  0  0  0  0  0
  -31.4684  -12.3430   19.1438 H   0  0  0  0  0  0
  -30.2980  -11.2598   19.8445 H   0  0  0  0  0  0
  -29.7352  -11.7482   17.4384 H   0  0  0  0  0  0
  -29.6749  -13.4574   17.7778 H   0  0  0  0  0  0
  -27.8257  -11.2884   18.8291 H   0  0  0  0  0  0
  -27.3703  -12.6139   17.7910 H   0  0  0  0  0  0
  -27.6827  -14.2266   19.5533 H   0  0  0  0  0  0
  -28.6669  -11.9778   21.3891 H   0  0  0  0  0  0
  -28.4873  -13.6467   21.8543 H   0  0  0  0  0  0
  -25.2748   -9.5667   22.4767 H   0  0  0  0  0  0
  -23.9985   -7.4624   22.7491 H   0  0  0  0  0  0
  -21.0826   -8.8766   19.8956 H   0  0  0  0  0  0
  -22.3688  -10.9664   19.6171 H   0  0  0  0  0  0
  -21.1997   -7.6146   23.9708 H   0  0  0  0  0  0
  -21.1470   -6.0531   25.9078 H   0  0  0  0  0  0
  -22.0605   -2.7608   23.2854 H   0  0  0  0  0  0
  -22.4088  -11.9882   22.4768 H   0  0  0  0  0  0
  -21.1117  -13.1278   22.2605 H   0  0  0  0  0  0
  -24.6651  -15.8386   20.5160 H   0  0  0  0  0  0
  -26.2852  -15.6254   20.0909 H   0  0  0  0  0  0
  -26.7086  -32.5567   23.1185 H   0  0  0  0  0  0
  -25.0035  -33.9803   25.0482 H   0  0  0  0  0  0
  -22.6833  -31.3057   21.4096 H   0  0  0  0  0  0
  -23.3744  -35.9650   23.3315 H   0  0  0  0  0  0
  -24.3574  -36.8916   22.2049 H   0  0  0  0  0  0
  -23.7230  -37.6527   23.6642 H   0  0  0  0  0  0
  -26.0248  -31.6098   20.5900 H   0  0  0  0  0  0
  -26.8113  -30.9046   21.9745 H   0  0  0  0  0  0
  -28.0896  -29.1362   21.1818 H   0  0  0  0  0  0
  -26.1107  -25.9838   19.0136 H   0  0  0  0  0  0
  -23.9960  -27.2828   19.0329 H   0  0  0  0  0  0
  -23.7025  -30.5913   19.4006 H   0  0  0  0  0  0
  -22.7317  -29.2306   19.8744 H   0  0  0  0  0  0
  -25.1275  -36.1998   25.0834 H   0  0  0  0  0  0
  -20.9936  -28.3232   24.1452 H   0  0  0  0  0  0
  -20.5649  -26.2270   23.3608 H   0  0  0  0  0  0
  -21.6625  -26.7443   22.1222 H   0  0  0  0  0  0
  -19.6895  -25.6308   21.1226 H   0  0  0  0  0  0
  -19.6679  -27.3215   20.6753 H   0  0  0  0  0  0
  -17.4183  -26.6687   21.4014 H   0  0  0  0  0  0
  -18.0301  -26.0062   22.9003 H   0  0  0  0  0  0
  -19.7923  -30.7242   24.2303 H   0  0  0  0  0  0
  -17.5012  -31.6269   24.5166 H   0  0  0  0  0  0
  -15.5343  -30.3006   23.7641 H   0  0  0  0  0  0
  -15.8651  -28.0842   22.7052 H   0  0  0  0  0  0
  -24.5914  -30.7024   25.7812 H   0  0  0  0  0  0
  -24.8904  -32.2835   26.4930 H   0  0  0  0  0  0
  -25.8096  -30.8860   27.0222 H   0  0  0  0  0  0
  -26.2824  -29.6816   24.1140 H   0  0  0  0  0  0
  -27.4087  -29.7288   25.4518 H   0  0  0  0  0  0
  -27.8643  -30.4388   23.9196 H   0  0  0  0  0  0
  -27.2676  -33.3614   26.2073 H   0  0  0  0  0  0
  -28.3837  -32.6871   25.0289 H   0  0  0  0  0  0
  -28.0718  -31.8420   26.5372 H   0  0  0  0  0  0
  -28.2602  -38.0105   24.7526 H   0  0  0  0  0  0
  -28.1070  -36.2640   24.6270 H   0  0  0  0  0  0
  -27.2302  -37.1442   25.8867 H   0  0  0  0  0  0
  -20.9275  -29.8746   21.6957 H   0  0  0  0  0  0
  -26.0185  -38.2883   24.1425 H   0  0  0  0  0  0
  -31.6426  -18.0732   20.7840 H   0  0  0  0  0  0
  -31.5228  -22.3573   15.3906 H   0  0  0  0  0  0
  -32.4814  -23.6458   16.1170 H   0  0  0  0  0  0
  -31.1910  -24.0315   14.9807 H   0  0  0  0  0  0
  -30.2358  -15.8815   18.4863 H   0  0  0  0  0  0
  -28.6307  -16.1795   19.0297 H   0  0  0  0  0  0
  -29.6020  -24.6249   19.4976 H   0  0  0  0  0  0
  -28.3614  -24.6736   18.2674 H   0  0  0  0  0  0
  -31.3583  -25.2005   17.9013 H   0  0  0  0  0  0
  -30.1883  -25.5656   16.6655 H   0  0  0  0  0  0
  -28.5422  -27.0873   18.0295 H   0  0  0  0  0  0
  -30.0358  -27.1294   18.9398 H   0  0  0  0  0  0
  -29.4901  -23.2090   16.5504 H   0  0  0  0  0  0
  -29.1735  -21.4446   17.4975 H   0  0  0  0  0  0
  -29.0016  -15.3066   21.0298 H   0  0  0  0  0  0
  1 25  1  0  0  0
  1 30  2  0  0  0
  1 83  1  0  0  0
  2  3  1  0  0  0
  2 25  1  0  0  0
  2 86  1  0  0  0
  2 87  1  0  0  0
  3  4  1  0  0  0
  3 88  1  0  0  0
  3 89  1  0  0  0
  4  5  1  0  0  0
  4 90  1  0  0  0
  4 91  1  0  0  0
  5  6  1  0  0  0
  5 26  1  0  0  0
  5 92  1  0  0  0
  6 25  1  0  0  0
  6 93  1  0  0  0
  6 94  1  0  0  0
  7  8  2  0  0  0
  7 26  1  0  0  0
  7 29  1  0  0  0
  8  9  1  0  0  0
  8 22  1  0  0  0
  9 10  1  0  0  0
  9 27  2  0  0  0
 10 11  2  0  0  0
 10 15  1  0  0  0
 11 12  1  0  0  0
 11 95  1  0  0  0
 12 13  2  0  0  0
 12 96  1  0  0  0
 13 14  1  0  0  0
 13 31  1  0  0  0
 14 15  2  0  0  0
 14 97  1  0  0  0
 15 98  1  0  0  0
 16 17  2  0  0  0
 16 21  1  0  0  0
 16 31  1  0  0  0
 17 18  1  0  0  0
 17 99  1  0  0  0
 18 19  2  0  0  0
 18100  1  0  0  0
 19 20  1  0  0  0
 19 24  1  0  0  0
 20 21  2  0  0  0
 20101  1  0  0  0
 21 23  1  0  0  0
 22 28  1  0  0  0
 22 32  2  0  0  0
 26 27  1  0  0  0
 28102  1  0  0  0
 28103  1  0  0  0
 29104  1  0  0  0
 29105  1  0  0  0
 33 34  1  0  0  0
 33 66  1  0  0  0
 33 70  2  0  0  0
 34 36  1  0  0  0
 34 59  1  0  0  0
 34106  1  0  0  0
 35 44  2  0  0  0
 35 45  1  0  0  0
 35 68  1  0  0  0
 36 56  1  0  0  0
 36107  1  0  0  0
 37 39  1  0  0  0
 37 47  1  0  0  0
 37 66  1  0  0  0
 37108  1  0  0  0
 38 43  2  0  0  0
 38 46  1  0  0  0
 38 47  1  0  0  0
 39 64  1  0  0  0
 39 67  2  0  0  0
 40 52  1  0  0  0
 40 53  2  0  0  0
 40 58  1  0  0  0
 41109  1  0  0  0
 41110  1  0  0  0
 41111  1  0  0  0
 41 48  1  0  0  0
 42 43  1  0  0  0
 42 66  1  0  0  0
 42112  1  0  0  0
 42113  1  0  0  0
 43 44  1  0  0  0
 44114  1  0  0  0
 45 46  2  0  0  0
 45115  1  0  0  0
 46116  1  0  0  0
 47117  1  0  0  0
 47118  1  0  0  0
 48 56  1  0  0  0
 48 65  1  0  0  0
 48119  1  0  0  0
 49 50  1  0  0  0
 49 53  1  0  0  0
 49 64  1  0  0  0
 49120  1  0  0  0
 50 51  1  0  0  0
 50121  1  0  0  0
 50122  1  0  0  0
 51 52  1  0  0  0
 51123  1  0  0  0
 51124  1  0  0  0
 52125  1  0  0  0
 52126  1  0  0  0
 53 54  1  0  0  0
 54 55  2  0  0  0
 54127  1  0  0  0
 55 57  1  0  0  0
 55128  1  0  0  0
 56 69  2  0  0  0
 57 58  2  0  0  0
 57129  1  0  0  0
 58130  1  0  0  0
 59 60  1  0  0  0
 59 61  1  0  0  0
 59 62  1  0  0  0
 60131  1  0  0  0
 60132  1  0  0  0
 60133  1  0  0  0
 61134  1  0  0  0
 61135  1  0  0  0
 61136  1  0  0  0
 62137  1  0  0  0
 62138  1  0  0  0
 62139  1  0  0  0
 63 65  1  0  0  0
 63140  1  0  0  0
 63141  1  0  0  0
 63142  1  0  0  0
 64143  1  0  0  0
 65144  1  0  0  0
 68 79  1  0  0  0
 71 72  2  0  0  0
 71 81  1  0  0  0
 71145  1  0  0  0
 72 76  1  0  0  0
 72 85  1  0  0  0
 73 81  2  0  0  0
 73 82  1  0  0  0
 73 85  1  0  0  0
 74 80  1  0  0  0
 74 82  1  0  0  0
 74 84  2  0  0  0
 75146  1  0  0  0
 75147  1  0  0  0
 75148  1  0  0  0
 75 80  1  0  0  0
 76 83  1  0  0  0
 76149  1  0  0  0
 76150  1  0  0  0
 77 78  1  0  0  0
 77 79  1  0  0  0
 77151  1  0  0  0
 77152  1  0  0  0
 78 80  1  0  0  0
 78153  1  0  0  0
 78154  1  0  0  0
 79155  1  0  0  0
 79156  1  0  0  0
 80157  1  0  0  0
 82158  1  0  0  0
 83159  1  0  0  0
M  ISO  4   1 100  68 101  79 101  83 100
M  END
> <chiral flag>
0

> <version>
0

> <s_m_source_file>
/data/baiqing/PycharmProjects/Reinvent-master-3.2/result/LINK_invent/BTK/process_docking_weight1_custom_product_contain_oxygen_bond_distance_aromatic_linkinvent_7_9_3/rearranged_h_0191.sdf

> <i_m_source_file_index>
55

> <r_mmod_Potential_Energy-OPLS-2005>
-114.757583618164

> <r_mmod_Stretch_Energy-OPLS-2005>
30.6560459136963

> <r_mmod_Bend_Energy-OPLS-2005>
109.90625

> <r_mmod_Torsional_Energy-OPLS-2005>
269.759399414062

> <r_mmod_Improper_Torsional_Energy-OPLS-2005>
16.843469619751

> <r_mmod_Van_der_Waal_Energy-OPLS-2005>
127.878128051758

> <r_mmod_Electrostatic_Energy-OPLS-2005>
-421.478240966797

> <r_mmod_Solvation_Energy-OPLS-2005>
-262.354278564453

> <b_mmod_Minimization_Converged-OPLS-2005>
0

> <r_mmod_RMS_Derivative-OPLS-2005>
0.828871667385101

$$$$
57
                    3D
 Structure written by MMmdl.
167175  0  0  1  0            999 V2000
  -30.6662  -14.5451   20.5501 C   0  0  0  0  0  0
  -30.4307  -12.3456   19.4333 C   0  0  0  0  0  0
  -29.4991  -12.5154   18.2136 C   0  0  0  0  0  0
  -28.0214  -12.3628   18.6259 C   0  0  0  0  0  0
  -27.6594  -13.2116   19.8737 C   0  0  2  0  0  0
  -28.7027  -13.0153   20.9974 C   0  0  0  0  0  0
  -25.2575  -13.8159   20.5678 C   0  0  0  0  0  0
  -24.1834  -13.0431   20.9178 C   0  0  0  0  0  0
  -24.6397  -11.6901   20.8734 C   0  0  0  0  0  0
  -23.9065  -10.4287   21.0400 C   0  0  0  0  0  0
  -24.3619   -9.4204   21.9179 C   0  0  0  0  0  0
  -23.6292   -8.2240   22.0753 C   0  0  0  0  0  0
  -22.4272   -8.0281   21.3543 C   0  0  0  0  0  0
  -21.9908   -9.0251   20.4647 C   0  0  0  0  0  0
  -22.7234  -10.2131   20.3055 C   0  0  0  0  0  0
  -21.6850   -6.0736   22.5276 C   0  0  0  0  0  0
  -21.4012   -6.5637   23.8206 C   0  0  0  0  0  0
  -21.3662   -5.6792   24.9167 C   0  0  0  0  0  0
  -21.6044   -4.3057   24.7218 C   0  0  0  0  0  0
  -21.8820   -3.8147   23.4339 C   0  0  0  0  0  0
  -21.9192   -4.6966   22.3396 C   0  0  0  0  0  0
  -22.7854  -13.5227   21.1842 C   0  0  0  0  0  0
  -22.1661   -4.2151   21.0976 F   0  0  0  0  0  0
  -21.5632   -3.4541   25.7730 F   0  0  0  0  0  0
  -30.0299  -13.3399   20.4452 N   0  0  0  0  0  0
  -26.3016  -12.9342   20.3363 N   0  0  0  0  0  0
  -25.9333  -11.6498   20.5769 N   0  0  0  0  0  0
  -22.0502  -12.8220   22.0405 N   0  0  0  0  0  0
  -25.4271  -15.1881   20.4085 N   0  0  0  0  0  0
  -31.8045  -14.7198   20.1025 O   0  0  0  0  0  0
  -21.6638   -6.8878   21.4238 O   0  0  0  0  0  0
  -22.3538  -14.5534   20.6692 O   0  0  0  0  0  0
  -24.6209  -31.8647   23.2085 C   0  0  0  0  0  0
  -25.9082  -32.4804   23.8394 C   0  0  1  0  0  0
  -27.2248  -27.3706   20.0920 C   0  0  0  0  0  0
  -25.5912  -33.8609   24.2306 N   0  0  0  0  0  0
  -23.4102  -30.4930   21.5506 C   0  0  2  0  0  0
  -24.8543  -28.9617   20.1105 C   0  0  0  0  0  0
  -22.7449  -29.4651   22.4949 C   0  0  0  0  0  0
  -18.0284  -28.1371   22.8485 C   0  0  0  0  0  0
  -24.1490  -36.7311   23.2640 C   0  0  0  0  0  0
  -25.9495  -30.8083   21.3766 C   0  0  0  0  0  0
  -26.0204  -29.4408   20.7186 C   0  0  0  0  0  0
  -27.2025  -28.6512   20.7128 C   0  0  0  0  0  0
  -26.0320  -26.9406   19.4559 C   0  0  0  0  0  0
  -24.8597  -27.7124   19.4769 C   0  0  0  0  0  0
  -23.6215  -29.8357   20.1629 C   0  0  0  0  0  0
  -25.4106  -36.3103   24.0333 C   0  0  1  0  0  0
  -20.5879  -28.3676   23.1292 C   0  0  2  0  0  0
  -20.6777  -26.9401   22.5415 C   0  0  0  0  0  0
  -19.5759  -26.6374   21.5212 C   0  0  0  0  0  0
  -18.1930  -26.7914   22.1611 C   0  0  0  0  0  0
  -19.1538  -28.8838   23.2886 C   0  0  0  0  0  0
  -18.9464  -30.1444   23.8902 C   0  0  0  0  0  0
  -17.6466  -30.6571   24.0566 C   0  0  0  0  0  0
  -25.9043  -34.9471   23.5115 C   0  0  0  0  0  0
  -16.5358  -29.9074   23.6329 C   0  0  0  0  0  0
  -16.7272  -28.6495   23.0337 C   0  0  0  0  0  0
  -26.4477  -31.6603   25.0751 C   0  0  0  0  0  0
  -25.3712  -31.3742   26.1486 C   0  0  0  0  0  0
  -27.0316  -30.3030   24.6186 C   0  0  0  0  0  0
  -27.6049  -32.4337   25.7500 C   0  0  0  0  0  0
  -27.5581  -37.1809   24.8457 C   0  0  0  0  0  0
  -21.4168  -29.3044   22.3698 N   0  0  0  0  0  0
  -26.4287  -37.3789   23.9406 N   0  0  0  0  0  0
  -24.6786  -31.0710   22.1018 N   0  0  0  0  0  0
  -23.4203  -28.8181   23.2995 O   0  0  0  0  0  0
  -28.3737  -26.5770   20.1553 O   0  0  0  0  0  0
  -26.5610  -34.8922   22.4679 O   0  0  0  0  0  0
  -23.5388  -32.1422   23.7444 O   0  0  0  0  0  0
  -30.8182  -19.0529   20.3796 C   0  0  0  0  0  0
  -29.6672  -19.4710   21.0187 C   0  0  0  0  0  0
  -30.0160  -16.9792   20.9620 C   0  0  0  0  0  0
  -27.5403  -23.0609   21.3527 C   0  0  0  0  0  0
  -31.6759  -23.2456   22.8734 C   0  0  0  0  0  0
  -31.6280  -20.7980   23.0116 C   0  0  0  0  0  0
  -29.7432  -22.0826   24.0036 C   0  0  0  0  0  0
  -28.4194  -25.3070   19.4389 C   0  0  0  0  0  0
  -29.0565  -23.3340   21.2116 C   0  0  1  0  0  0
  -29.9417  -22.0108   21.4291 C   0  0  1  0  0  0
  -29.4000  -24.1736   19.9226 C   0  0  2  0  0  0
  -30.7196  -22.0324   22.8075 C   0  0  0  0  0  0
  -31.0069  -17.6518   20.3567 N   0  0  0  0  0  0
  -29.1437  -20.7662   21.2681 N   0  0  0  0  0  0
  -29.9142  -15.5458   21.0722 N   0  0  0  0  0  0
  -30.7104  -24.7141   19.9699 O   0  0  0  0  0  0
  -28.7724  -18.0704   21.5956 S   0  0  0  0  0  0
  -31.4735  -12.4576   19.1308 H   0  0  0  0  0  0
  -30.3466  -11.3383   19.8440 H   0  0  0  0  0  0
  -29.7488  -11.7842   17.4440 H   0  0  0  0  0  0
  -29.6534  -13.4975   17.7634 H   0  0  0  0  0  0
  -27.8439  -11.3067   18.8331 H   0  0  0  0  0  0
  -27.3676  -12.6221   17.7916 H   0  0  0  0  0  0
  -27.6937  -14.2561   19.5630 H   0  0  0  0  0  0
  -28.6935  -11.9822   21.3481 H   0  0  0  0  0  0
  -28.4531  -13.6185   21.8718 H   0  0  0  0  0  0
  -25.2766   -9.5675   22.4749 H   0  0  0  0  0  0
  -24.0000   -7.4632   22.7472 H   0  0  0  0  0  0
  -21.0837   -8.8768   19.8954 H   0  0  0  0  0  0
  -22.3691  -10.9669   19.6165 H   0  0  0  0  0  0
  -21.2005   -7.6143   23.9707 H   0  0  0  0  0  0
  -21.1485   -6.0523   25.9069 H   0  0  0  0  0  0
  -22.0601   -2.7611   23.2835 H   0  0  0  0  0  0
  -22.4129  -11.9885   22.4791 H   0  0  0  0  0  0
  -21.1125  -13.1241   22.2623 H   0  0  0  0  0  0
  -24.6516  -15.8355   20.4996 H   0  0  0  0  0  0
  -26.2713  -15.6299   20.0673 H   0  0  0  0  0  0
  -26.7156  -32.5488   23.1153 H   0  0  0  0  0  0
  -25.0068  -33.9765   25.0457 H   0  0  0  0  0  0
  -22.7016  -31.3129   21.4128 H   0  0  0  0  0  0
  -23.3750  -35.9650   23.3295 H   0  0  0  0  0  0
  -24.3587  -36.8936   22.2060 H   0  0  0  0  0  0
  -23.7256  -37.6519   23.6659 H   0  0  0  0  0  0
  -26.0760  -31.5742   20.6100 H   0  0  0  0  0  0
  -26.8332  -30.8544   22.0020 H   0  0  0  0  0  0
  -28.0961  -29.0125   21.2020 H   0  0  0  0  0  0
  -25.9433  -26.0061   18.9284 H   0  0  0  0  0  0
  -23.9659  -27.3409   18.9935 H   0  0  0  0  0  0
  -23.7355  -30.6155   19.4086 H   0  0  0  0  0  0
  -22.7422  -29.2638   19.8618 H   0  0  0  0  0  0
  -25.1285  -36.1959   25.0827 H   0  0  0  0  0  0
  -20.9979  -28.3245   24.1409 H   0  0  0  0  0  0
  -20.5672  -26.2283   23.3606 H   0  0  0  0  0  0
  -21.6643  -26.7417   22.1216 H   0  0  0  0  0  0
  -19.6918  -25.6288   21.1236 H   0  0  0  0  0  0
  -19.6700  -27.3198   20.6753 H   0  0  0  0  0  0
  -17.4205  -26.6687   21.4001 H   0  0  0  0  0  0
  -18.0304  -26.0036   22.8985 H   0  0  0  0  0  0
  -19.7950  -30.7262   24.2253 H   0  0  0  0  0  0
  -17.5024  -31.6254   24.5179 H   0  0  0  0  0  0
  -15.5359  -30.2982   23.7644 H   0  0  0  0  0  0
  -15.8668  -28.0829   22.7022 H   0  0  0  0  0  0
  -24.5915  -30.7037   25.7846 H   0  0  0  0  0  0
  -24.8858  -32.2906   26.4861 H   0  0  0  0  0  0
  -25.8047  -30.8992   27.0294 H   0  0  0  0  0  0
  -26.2895  -29.6790   24.1195 H   0  0  0  0  0  0
  -27.4014  -29.7271   25.4683 H   0  0  0  0  0  0
  -27.8751  -30.4322   23.9397 H   0  0  0  0  0  0
  -27.2670  -33.3640   26.2070 H   0  0  0  0  0  0
  -28.3847  -32.6893   25.0314 H   0  0  0  0  0  0
  -28.0721  -31.8469   26.5417 H   0  0  0  0  0  0
  -28.2597  -38.0111   24.7506 H   0  0  0  0  0  0
  -28.1081  -36.2643   24.6264 H   0  0  0  0  0  0
  -27.2307  -37.1442   25.8865 H   0  0  0  0  0  0
  -20.9321  -29.8785   21.6943 H   0  0  0  0  0  0
  -26.0174  -38.2865   24.1412 H   0  0  0  0  0  0
  -31.5676  -19.6832   19.9213 H   0  0  0  0  0  0
  -27.3152  -22.4878   22.2522 H   0  0  0  0  0  0
  -27.1455  -22.5169   20.4940 H   0  0  0  0  0  0
  -26.9797  -23.9912   21.4437 H   0  0  0  0  0  0
  -32.2850  -23.2265   23.7774 H   0  0  0  0  0  0
  -31.1629  -24.2049   22.8794 H   0  0  0  0  0  0
  -32.3590  -23.2504   22.0232 H   0  0  0  0  0  0
  -32.2537  -20.9040   23.8987 H   0  0  0  0  0  0
  -32.2983  -20.6472   22.1660 H   0  0  0  0  0  0
  -31.0570  -19.8839   23.1684 H   0  0  0  0  0  0
  -30.2792  -22.0664   24.9532 H   0  0  0  0  0  0
  -29.0667  -21.2272   24.0030 H   0  0  0  0  0  0
  -29.1295  -22.9825   24.0062 H   0  0  0  0  0  0
  -27.4542  -24.8151   19.4008 H   0  0  0  0  0  0
  -28.6548  -25.5508   18.4022 H   0  0  0  0  0  0
  -29.2463  -24.0246   22.0286 H   0  0  0  0  0  0
  -30.6961  -21.9983   20.6402 H   0  0  0  0  0  0
  -29.4093  -23.4446   19.1096 H   0  0  0  0  0  0
  -28.2337  -20.8102   21.7138 H   0  0  0  0  0  0
  -29.0496  -15.2247   21.4769 H   0  0  0  0  0  0
  -30.8446  -25.2138   19.1704 H   0  0  0  0  0  0
  1 25  1  0  0  0
  1 30  2  0  0  0
  1 85  1  0  0  0
  2  3  1  0  0  0
  2 25  1  0  0  0
  2 88  1  0  0  0
  2 89  1  0  0  0
  3  4  1  0  0  0
  3 90  1  0  0  0
  3 91  1  0  0  0
  4  5  1  0  0  0
  4 92  1  0  0  0
  4 93  1  0  0  0
  5  6  1  0  0  0
  5 26  1  0  0  0
  5 94  1  0  0  0
  6 25  1  0  0  0
  6 95  1  0  0  0
  6 96  1  0  0  0
  7  8  2  0  0  0
  7 26  1  0  0  0
  7 29  1  0  0  0
  8  9  1  0  0  0
  8 22  1  0  0  0
  9 10  1  0  0  0
  9 27  2  0  0  0
 10 11  2  0  0  0
 10 15  1  0  0  0
 11 12  1  0  0  0
 11 97  1  0  0  0
 12 13  2  0  0  0
 12 98  1  0  0  0
 13 14  1  0  0  0
 13 31  1  0  0  0
 14 15  2  0  0  0
 14 99  1  0  0  0
 15100  1  0  0  0
 16 17  2  0  0  0
 16 21  1  0  0  0
 16 31  1  0  0  0
 17 18  1  0  0  0
 17101  1  0  0  0
 18 19  2  0  0  0
 18102  1  0  0  0
 19 20  1  0  0  0
 19 24  1  0  0  0
 20 21  2  0  0  0
 20103  1  0  0  0
 21 23  1  0  0  0
 22 28  1  0  0  0
 22 32  2  0  0  0
 26 27  1  0  0  0
 28104  1  0  0  0
 28105  1  0  0  0
 29106  1  0  0  0
 29107  1  0  0  0
 33 34  1  0  0  0
 33 66  1  0  0  0
 33 70  2  0  0  0
 34 36  1  0  0  0
 34 59  1  0  0  0
 34108  1  0  0  0
 35 44  2  0  0  0
 35 45  1  0  0  0
 35 68  1  0  0  0
 36 56  1  0  0  0
 36109  1  0  0  0
 37 39  1  0  0  0
 37 47  1  0  0  0
 37 66  1  0  0  0
 37110  1  0  0  0
 38 43  2  0  0  0
 38 46  1  0  0  0
 38 47  1  0  0  0
 39 64  1  0  0  0
 39 67  2  0  0  0
 40 52  1  0  0  0
 40 53  2  0  0  0
 40 58  1  0  0  0
 41111  1  0  0  0
 41112  1  0  0  0
 41113  1  0  0  0
 41 48  1  0  0  0
 42 43  1  0  0  0
 42 66  1  0  0  0
 42114  1  0  0  0
 42115  1  0  0  0
 43 44  1  0  0  0
 44116  1  0  0  0
 45 46  2  0  0  0
 45117  1  0  0  0
 46118  1  0  0  0
 47119  1  0  0  0
 47120  1  0  0  0
 48 56  1  0  0  0
 48 65  1  0  0  0
 48121  1  0  0  0
 49 50  1  0  0  0
 49 53  1  0  0  0
 49 64  1  0  0  0
 49122  1  0  0  0
 50 51  1  0  0  0
 50123  1  0  0  0
 50124  1  0  0  0
 51 52  1  0  0  0
 51125  1  0  0  0
 51126  1  0  0  0
 52127  1  0  0  0
 52128  1  0  0  0
 53 54  1  0  0  0
 54 55  2  0  0  0
 54129  1  0  0  0
 55 57  1  0  0  0
 55130  1  0  0  0
 56 69  2  0  0  0
 57 58  2  0  0  0
 57131  1  0  0  0
 58132  1  0  0  0
 59 60  1  0  0  0
 59 61  1  0  0  0
 59 62  1  0  0  0
 60133  1  0  0  0
 60134  1  0  0  0
 60135  1  0  0  0
 61136  1  0  0  0
 61137  1  0  0  0
 61138  1  0  0  0
 62139  1  0  0  0
 62140  1  0  0  0
 62141  1  0  0  0
 63 65  1  0  0  0
 63142  1  0  0  0
 63143  1  0  0  0
 63144  1  0  0  0
 64145  1  0  0  0
 65146  1  0  0  0
 68 78  1  0  0  0
 71 72  2  0  0  0
 71 83  1  0  0  0
 71147  1  0  0  0
 72 84  1  0  0  0
 72 87  1  0  0  0
 73 83  2  0  0  0
 73 85  1  0  0  0
 73 87  1  0  0  0
 74148  1  0  0  0
 74149  1  0  0  0
 74150  1  0  0  0
 74 79  1  0  0  0
 75151  1  0  0  0
 75152  1  0  0  0
 75153  1  0  0  0
 75 82  1  0  0  0
 76 82  1  0  0  0
 76154  1  0  0  0
 76155  1  0  0  0
 76156  1  0  0  0
 77 82  1  0  0  0
 77157  1  0  0  0
 77158  1  0  0  0
 77159  1  0  0  0
 78 81  1  0  0  0
 78160  1  0  0  0
 78161  1  0  0  0
 79 80  1  0  0  0
 79 81  1  0  0  0
 79162  1  0  0  0
 80 82  1  0  0  0
 80 84  1  0  0  0
 80163  1  0  0  0
 81 86  1  0  0  0
 81164  1  0  0  0
 84165  1  0  0  0
 85166  1  0  0  0
 86167  1  0  0  0
M  ISO  4   1 100  68 101  78 101  85 100
M  END
> <chiral flag>
0

> <version>
0

> <s_m_source_file>
/data/baiqing/PycharmProjects/Reinvent-master-3.2/result/LINK_invent/BTK/process_docking_weight1_custom_product_contain_oxygen_bond_distance_aromatic_linkinvent_7_9_3/rearranged_h_0191.sdf

> <i_m_source_file_index>
56

> <r_mmod_Potential_Energy-OPLS-2005>
37.810359954834

> <r_mmod_Stretch_Energy-OPLS-2005>
62.6305961608887

> <r_mmod_Bend_Energy-OPLS-2005>
152.301544189453

> <r_mmod_Torsional_Energy-OPLS-2005>
271.633850097656

> <r_mmod_Improper_Torsional_Energy-OPLS-2005>
4.74159002304077

> <r_mmod_Van_der_Waal_Energy-OPLS-2005>
143.768524169922

> <r_mmod_Electrostatic_Energy-OPLS-2005>
-385.102294921875

> <r_mmod_Solvation_Energy-OPLS-2005>
-238.014038085938

> <b_mmod_Minimization_Converged-OPLS-2005>
0

> <r_mmod_RMS_Derivative-OPLS-2005>
1.36550939083099

$$$$
58
                    3D
 Structure written by MMmdl.
160168  0  0  1  0            999 V2000
  -30.6174  -14.6993   20.4645 C   0  0  0  0  0  0
  -30.4330  -12.4227   19.4690 C   0  0  0  0  0  0
  -29.5079  -12.4957   18.2338 C   0  0  0  0  0  0
  -28.0336  -12.3263   18.6494 C   0  0  0  0  0  0
  -27.6459  -13.2217   19.8565 C   0  0  2  0  0  0
  -28.6900  -13.1302   20.9915 C   0  0  0  0  0  0
  -25.2531  -13.8174   20.5693 C   0  0  0  0  0  0
  -24.1812  -13.0436   20.9208 C   0  0  0  0  0  0
  -24.6384  -11.6910   20.8753 C   0  0  0  0  0  0
  -23.9060  -10.4294   21.0407 C   0  0  0  0  0  0
  -24.3617   -9.4210   21.9182 C   0  0  0  0  0  0
  -23.6294   -8.2243   22.0749 C   0  0  0  0  0  0
  -22.4273   -8.0280   21.3539 C   0  0  0  0  0  0
  -21.9912   -9.0253   20.4638 C   0  0  0  0  0  0
  -22.7239  -10.2133   20.3052 C   0  0  0  0  0  0
  -21.6852   -6.0733   22.5275 C   0  0  0  0  0  0
  -21.4014   -6.5636   23.8209 C   0  0  0  0  0  0
  -21.3663   -5.6789   24.9173 C   0  0  0  0  0  0
  -21.6043   -4.3051   24.7221 C   0  0  0  0  0  0
  -21.8824   -3.8145   23.4345 C   0  0  0  0  0  0
  -21.9194   -4.6960   22.3402 C   0  0  0  0  0  0
  -22.7837  -13.5225   21.1872 C   0  0  0  0  0  0
  -22.1663   -4.2147   21.0976 F   0  0  0  0  0  0
  -21.5630   -3.4537   25.7735 F   0  0  0  0  0  0
  -29.9976  -13.4731   20.4157 N   0  0  0  0  0  0
  -26.2952  -12.9368   20.3306 N   0  0  0  0  0  0
  -25.9311  -11.6520   20.5768 N   0  0  0  0  0  0
  -22.0484  -12.8206   22.0420 N   0  0  0  0  0  0
  -25.4244  -15.1901   20.4104 N   0  0  0  0  0  0
  -31.8023  -14.7991   20.1291 O   0  0  0  0  0  0
  -21.6640   -6.8876   21.4234 O   0  0  0  0  0  0
  -22.3527  -14.5537   20.6723 O   0  0  0  0  0  0
  -24.6290  -31.8585   23.2032 C   0  0  0  0  0  0
  -25.9125  -32.4771   23.8360 C   0  0  1  0  0  0
  -27.2116  -27.2924   20.1090 C   0  0  0  0  0  0
  -25.5933  -33.8575   24.2277 N   0  0  0  0  0  0
  -23.4241  -30.4835   21.5465 C   0  0  2  0  0  0
  -24.8706  -28.9475   20.1015 C   0  0  0  0  0  0
  -22.7499  -29.4602   22.4921 C   0  0  0  0  0  0
  -18.0286  -28.1379   22.8474 C   0  0  0  0  0  0
  -24.1491  -36.7289   23.2638 C   0  0  0  0  0  0
  -25.9701  -30.7786   21.3838 C   0  0  0  0  0  0
  -26.0418  -29.4085   20.7165 C   0  0  0  0  0  0
  -27.2168  -28.5913   20.7136 C   0  0  0  0  0  0
  -26.0260  -26.9132   19.4363 C   0  0  0  0  0  0
  -24.8675  -27.7076   19.4499 C   0  0  0  0  0  0
  -23.6386  -29.8273   20.1588 C   0  0  0  0  0  0
  -25.4116  -36.3080   24.0331 C   0  0  1  0  0  0
  -20.5890  -28.3683   23.1267 C   0  0  2  0  0  0
  -20.6782  -26.9400   22.5402 C   0  0  0  0  0  0
  -19.5759  -26.6380   21.5201 C   0  0  0  0  0  0
  -18.1934  -26.7923   22.1610 C   0  0  0  0  0  0
  -19.1541  -28.8845   23.2865 C   0  0  0  0  0  0
  -18.9465  -30.1446   23.8882 C   0  0  0  0  0  0
  -17.6467  -30.6584   24.0551 C   0  0  0  0  0  0
  -25.9056  -34.9448   23.5103 C   0  0  0  0  0  0
  -16.5353  -29.9082   23.6331 C   0  0  0  0  0  0
  -16.7273  -28.6498   23.0354 C   0  0  0  0  0  0
  -26.4490  -31.6590   25.0741 C   0  0  0  0  0  0
  -25.3705  -31.3741   26.1451 C   0  0  0  0  0  0
  -27.0337  -30.3008   24.6219 C   0  0  0  0  0  0
  -27.6052  -32.4331   25.7510 C   0  0  0  0  0  0
  -27.5581  -37.1798   24.8468 C   0  0  0  0  0  0
  -21.4207  -29.3042   22.3664 N   0  0  0  0  0  0
  -26.4294  -37.3777   23.9410 N   0  0  0  0  0  0
  -24.6931  -31.0571   22.1007 N   0  0  0  0  0  0
  -23.4210  -28.8123   23.2992 O   0  0  0  0  0  0
  -28.2750  -26.3663   20.2157 O   0  0  0  0  0  0
  -26.5623  -34.8917   22.4667 O   0  0  0  0  0  0
  -23.5446  -32.1401   23.7336 O   0  0  0  0  0  0
  -31.1586  -19.1751   19.8671 C   0  0  0  0  0  0
  -30.0048  -19.8393   20.2499 C   0  0  0  0  0  0
  -30.0418  -17.2480   20.5092 C   0  0  0  0  0  0
  -29.9078  -22.6291   23.1642 C   0  0  0  0  0  0
  -27.4740  -21.8986   23.0538 C   0  0  0  0  0  0
  -27.0611  -24.8286   21.6947 C   0  0  0  0  0  0
  -29.0845  -23.7799   20.4315 C   0  0  0  0  0  0
  -28.8421  -21.8763   22.3528 C   0  0  0  0  0  0
  -28.8390  -22.2006   20.8147 C   0  0  2  0  0  0
  -27.9273  -24.9132   20.4279 C   0  0  2  0  0  0
  -31.1751  -17.7659   20.0169 N   0  0  0  0  0  0
  -29.8318  -21.2820   20.1554 N   0  0  0  0  0  0
  -29.8243  -15.8019   20.7187 N   0  0  0  0  0  0
  -28.8564  -18.5877   20.8157 S   0  0  0  0  0  0
  -31.4742  -12.5432   19.1651 H   0  0  0  0  0  0
  -30.3718  -11.4403   19.9404 H   0  0  0  0  0  0
  -29.7824  -11.7239   17.5131 H   0  0  0  0  0  0
  -29.6411  -13.4528   17.7259 H   0  0  0  0  0  0
  -27.8872  -11.2769   18.9089 H   0  0  0  0  0  0
  -27.3751  -12.5238   17.8029 H   0  0  0  0  0  0
  -27.6490  -14.2468   19.4861 H   0  0  0  0  0  0
  -28.7143  -12.1255   21.4164 H   0  0  0  0  0  0
  -28.4299  -13.7984   21.8137 H   0  0  0  0  0  0
  -25.2763   -9.5684   22.4760 H   0  0  0  0  0  0
  -24.0001   -7.4629   22.7468 H   0  0  0  0  0  0
  -21.0848   -8.8770   19.8942 H   0  0  0  0  0  0
  -22.3698  -10.9670   19.6162 H   0  0  0  0  0  0
  -21.2006   -7.6144   23.9710 H   0  0  0  0  0  0
  -21.1479   -6.0520   25.9074 H   0  0  0  0  0  0
  -22.0601   -2.7606   23.2845 H   0  0  0  0  0  0
  -22.4111  -11.9857   22.4789 H   0  0  0  0  0  0
  -21.1095  -13.1214   22.2629 H   0  0  0  0  0  0
  -24.6544  -15.8416   20.5177 H   0  0  0  0  0  0
  -26.2612  -15.6269   20.0469 H   0  0  0  0  0  0
  -26.7183  -32.5417   23.1094 H   0  0  0  0  0  0
  -25.0082  -33.9717   25.0422 H   0  0  0  0  0  0
  -22.7188  -31.3049   21.4056 H   0  0  0  0  0  0
  -23.3760  -35.9615   23.3302 H   0  0  0  0  0  0
  -24.3565  -36.8908   22.2048 H   0  0  0  0  0  0
  -23.7239  -37.6489   23.6656 H   0  0  0  0  0  0
  -26.1121  -31.5459   20.6219 H   0  0  0  0  0  0
  -26.8471  -30.8177   22.0185 H   0  0  0  0  0  0
  -28.1075  -28.9276   21.2255 H   0  0  0  0  0  0
  -25.9521  -25.9757   18.9084 H   0  0  0  0  0  0
  -23.9757  -27.3552   18.9493 H   0  0  0  0  0  0
  -23.7557  -30.6087   19.4073 H   0  0  0  0  0  0
  -22.7597  -29.2559   19.8549 H   0  0  0  0  0  0
  -25.1291  -36.1936   25.0826 H   0  0  0  0  0  0
  -20.9967  -28.3263   24.1395 H   0  0  0  0  0  0
  -20.5682  -26.2286   23.3601 H   0  0  0  0  0  0
  -21.6650  -26.7437   22.1181 H   0  0  0  0  0  0
  -19.6927  -25.6293   21.1231 H   0  0  0  0  0  0
  -19.6705  -27.3187   20.6725 H   0  0  0  0  0  0
  -17.4202  -26.6657   21.4010 H   0  0  0  0  0  0
  -18.0334  -26.0061   22.9002 H   0  0  0  0  0  0
  -19.7945  -30.7249   24.2260 H   0  0  0  0  0  0
  -17.5030  -31.6267   24.5143 H   0  0  0  0  0  0
  -15.5356  -30.2978   23.7681 H   0  0  0  0  0  0
  -15.8668  -28.0815   22.7095 H   0  0  0  0  0  0
  -24.5908  -30.7055   25.7777 H   0  0  0  0  0  0
  -24.8853  -32.2907   26.4825 H   0  0  0  0  0  0
  -25.8013  -30.8964   27.0262 H   0  0  0  0  0  0
  -26.2930  -29.6758   24.1218 H   0  0  0  0  0  0
  -27.3990  -29.7264   25.4741 H   0  0  0  0  0  0
  -27.8816  -30.4276   23.9486 H   0  0  0  0  0  0
  -27.2673  -33.3651   26.2053 H   0  0  0  0  0  0
  -28.3880  -32.6850   25.0345 H   0  0  0  0  0  0
  -28.0692  -31.8470   26.5454 H   0  0  0  0  0  0
  -28.2599  -38.0098   24.7516 H   0  0  0  0  0  0
  -28.1080  -36.2623   24.6300 H   0  0  0  0  0  0
  -27.2289  -37.1449   25.8871 H   0  0  0  0  0  0
  -20.9391  -29.8787   21.6886 H   0  0  0  0  0  0
  -26.0179  -38.2854   24.1418 H   0  0  0  0  0  0
  -32.0499  -19.6384   19.4690 H   0  0  0  0  0  0
  -30.8969  -22.5054   22.7215 H   0  0  0  0  0  0
  -29.9603  -22.2501   24.1848 H   0  0  0  0  0  0
  -29.6936  -23.6957   23.2272 H   0  0  0  0  0  0
  -27.4687  -21.2007   23.8915 H   0  0  0  0  0  0
  -26.6666  -21.5987   22.3842 H   0  0  0  0  0  0
  -27.2337  -22.8689   23.4821 H   0  0  0  0  0  0
  -26.5199  -23.8870   21.6987 H   0  0  0  0  0  0
  -26.2857  -25.5892   21.7574 H   0  0  0  0  0  0
  -27.6646  -24.9156   22.5963 H   0  0  0  0  0  0
  -29.4649  -23.7896   19.4097 H   0  0  0  0  0  0
  -29.9226  -24.1628   21.0116 H   0  0  0  0  0  0
  -29.1189  -20.8304   22.4624 H   0  0  0  0  0  0
  -27.8705  -21.9133   20.4002 H   0  0  0  0  0  0
  -27.3031  -24.6006   19.5941 H   0  0  0  0  0  0
  -30.6079  -21.7732   19.7180 H   0  0  0  0  0  0
  -28.8907  -15.5647   21.0141 H   0  0  0  0  0  0
  1 25  1  0  0  0
  1 30  2  0  0  0
  1 83  1  0  0  0
  2  3  1  0  0  0
  2 25  1  0  0  0
  2 85  1  0  0  0
  2 86  1  0  0  0
  3  4  1  0  0  0
  3 87  1  0  0  0
  3 88  1  0  0  0
  4  5  1  0  0  0
  4 89  1  0  0  0
  4 90  1  0  0  0
  5  6  1  0  0  0
  5 26  1  0  0  0
  5 91  1  0  0  0
  6 25  1  0  0  0
  6 92  1  0  0  0
  6 93  1  0  0  0
  7  8  2  0  0  0
  7 26  1  0  0  0
  7 29  1  0  0  0
  8  9  1  0  0  0
  8 22  1  0  0  0
  9 10  1  0  0  0
  9 27  2  0  0  0
 10 11  2  0  0  0
 10 15  1  0  0  0
 11 12  1  0  0  0
 11 94  1  0  0  0
 12 13  2  0  0  0
 12 95  1  0  0  0
 13 14  1  0  0  0
 13 31  1  0  0  0
 14 15  2  0  0  0
 14 96  1  0  0  0
 15 97  1  0  0  0
 16 17  2  0  0  0
 16 21  1  0  0  0
 16 31  1  0  0  0
 17 18  1  0  0  0
 17 98  1  0  0  0
 18 19  2  0  0  0
 18 99  1  0  0  0
 19 20  1  0  0  0
 19 24  1  0  0  0
 20 21  2  0  0  0
 20100  1  0  0  0
 21 23  1  0  0  0
 22 28  1  0  0  0
 22 32  2  0  0  0
 26 27  1  0  0  0
 28101  1  0  0  0
 28102  1  0  0  0
 29103  1  0  0  0
 29104  1  0  0  0
 33 34  1  0  0  0
 33 66  1  0  0  0
 33 70  2  0  0  0
 34 36  1  0  0  0
 34 59  1  0  0  0
 34105  1  0  0  0
 35 44  2  0  0  0
 35 45  1  0  0  0
 35 68  1  0  0  0
 36 56  1  0  0  0
 36106  1  0  0  0
 37 39  1  0  0  0
 37 47  1  0  0  0
 37 66  1  0  0  0
 37107  1  0  0  0
 38 43  2  0  0  0
 38 46  1  0  0  0
 38 47  1  0  0  0
 39 64  1  0  0  0
 39 67  2  0  0  0
 40 52  1  0  0  0
 40 53  2  0  0  0
 40 58  1  0  0  0
 41108  1  0  0  0
 41109  1  0  0  0
 41110  1  0  0  0
 41 48  1  0  0  0
 42 43  1  0  0  0
 42 66  1  0  0  0
 42111  1  0  0  0
 42112  1  0  0  0
 43 44  1  0  0  0
 44113  1  0  0  0
 45 46  2  0  0  0
 45114  1  0  0  0
 46115  1  0  0  0
 47116  1  0  0  0
 47117  1  0  0  0
 48 56  1  0  0  0
 48 65  1  0  0  0
 48118  1  0  0  0
 49 50  1  0  0  0
 49 53  1  0  0  0
 49 64  1  0  0  0
 49119  1  0  0  0
 50 51  1  0  0  0
 50120  1  0  0  0
 50121  1  0  0  0
 51 52  1  0  0  0
 51122  1  0  0  0
 51123  1  0  0  0
 52124  1  0  0  0
 52125  1  0  0  0
 53 54  1  0  0  0
 54 55  2  0  0  0
 54126  1  0  0  0
 55 57  1  0  0  0
 55127  1  0  0  0
 56 69  2  0  0  0
 57 58  2  0  0  0
 57128  1  0  0  0
 58129  1  0  0  0
 59 60  1  0  0  0
 59 61  1  0  0  0
 59 62  1  0  0  0
 60130  1  0  0  0
 60131  1  0  0  0
 60132  1  0  0  0
 61133  1  0  0  0
 61134  1  0  0  0
 61135  1  0  0  0
 62136  1  0  0  0
 62137  1  0  0  0
 62138  1  0  0  0
 63 65  1  0  0  0
 63139  1  0  0  0
 63140  1  0  0  0
 63141  1  0  0  0
 64142  1  0  0  0
 65143  1  0  0  0
 68 80  1  0  0  0
 71 72  2  0  0  0
 71 81  1  0  0  0
 71144  1  0  0  0
 72 82  1  0  0  0
 72 84  1  0  0  0
 73 81  2  0  0  0
 73 83  1  0  0  0
 73 84  1  0  0  0
 74145  1  0  0  0
 74146  1  0  0  0
 74147  1  0  0  0
 74 78  1  0  0  0
 75 78  1  0  0  0
 75148  1  0  0  0
 75149  1  0  0  0
 75150  1  0  0  0
 76151  1  0  0  0
 76152  1  0  0  0
 76153  1  0  0  0
 76 80  1  0  0  0
 77 80  1  0  0  0
 77154  1  0  0  0
 77155  1  0  0  0
 77 79  1  0  0  0
 78 79  1  0  0  0
 78156  1  0  0  0
 79 82  1  0  0  0
 79157  1  0  0  0
 80158  1  0  0  0
 82159  1  0  0  0
 83160  1  0  0  0
M  ISO  4   1 100  68 101  80 101  83 100
M  END
> <chiral flag>
0

> <version>
0

> <s_m_source_file>
/data/baiqing/PycharmProjects/Reinvent-master-3.2/result/LINK_invent/BTK/process_docking_weight1_custom_product_contain_oxygen_bond_distance_aromatic_linkinvent_7_9_3/rearranged_h_0191.sdf

> <i_m_source_file_index>
57

> <r_mmod_Potential_Energy-OPLS-2005>
161.246948242188

> <r_mmod_Stretch_Energy-OPLS-2005>
113.035987854004

> <r_mmod_Bend_Energy-OPLS-2005>
188.163040161133

> <r_mmod_Torsional_Energy-OPLS-2005>
234.323944091797

> <r_mmod_Improper_Torsional_Energy-OPLS-2005>
4.79774570465088

> <r_mmod_Van_der_Waal_Energy-OPLS-2005>
134.889083862305

> <r_mmod_Electrostatic_Energy-OPLS-2005>
-357.730102539062

> <r_mmod_Solvation_Energy-OPLS-2005>
-229.956344604492

> <b_mmod_Minimization_Converged-OPLS-2005>
0

> <r_mmod_RMS_Derivative-OPLS-2005>
1.33885705471039

$$$$
59
                    3D
 Structure written by MMmdl.
160168  0  0  1  0            999 V2000
  -30.6226  -14.5859   20.5338 C   0  0  0  0  0  0
  -30.4374  -12.3682   19.4275 C   0  0  0  0  0  0
  -29.4985  -12.5053   18.2092 C   0  0  0  0  0  0
  -28.0229  -12.3409   18.6292 C   0  0  0  0  0  0
  -27.6563  -13.2016   19.8666 C   0  0  2  0  0  0
  -28.7022  -13.0084   20.9850 C   0  0  0  0  0  0
  -25.2602  -13.8141   20.5681 C   0  0  0  0  0  0
  -24.1857  -13.0436   20.9195 C   0  0  0  0  0  0
  -24.6395  -11.6892   20.8742 C   0  0  0  0  0  0
  -23.9065  -10.4294   21.0424 C   0  0  0  0  0  0
  -24.3620   -9.4214   21.9202 C   0  0  0  0  0  0
  -23.6296   -8.2242   22.0767 C   0  0  0  0  0  0
  -22.4279   -8.0288   21.3547 C   0  0  0  0  0  0
  -21.9924   -9.0265   20.4651 C   0  0  0  0  0  0
  -22.7246  -10.2142   20.3072 C   0  0  0  0  0  0
  -21.6852   -6.0754   22.5284 C   0  0  0  0  0  0
  -21.4004   -6.5655   23.8221 C   0  0  0  0  0  0
  -21.3649   -5.6801   24.9179 C   0  0  0  0  0  0
  -21.6045   -4.3068   24.7227 C   0  0  0  0  0  0
  -21.8816   -3.8168   23.4343 C   0  0  0  0  0  0
  -21.9189   -4.6984   22.3397 C   0  0  0  0  0  0
  -22.7889  -13.5246   21.1845 C   0  0  0  0  0  0
  -22.1664   -4.2179   21.0975 F   0  0  0  0  0  0
  -21.5627   -3.4539   25.7735 F   0  0  0  0  0  0
  -30.0133  -13.3652   20.4280 N   0  0  0  0  0  0
  -26.3009  -12.9293   20.3328 N   0  0  0  0  0  0
  -25.9318  -11.6476   20.5783 N   0  0  0  0  0  0
  -22.0506  -12.8232   22.0385 N   0  0  0  0  0  0
  -25.4308  -15.1856   20.4061 N   0  0  0  0  0  0
  -31.7722  -14.7442   20.1051 O   0  0  0  0  0  0
  -21.6634   -6.8885   21.4247 O   0  0  0  0  0  0
  -22.3596  -14.5560   20.6694 O   0  0  0  0  0  0
  -24.6237  -31.8634   23.2040 C   0  0  0  0  0  0
  -25.9107  -32.4780   23.8358 C   0  0  1  0  0  0
  -27.2099  -27.3436   20.0934 C   0  0  0  0  0  0
  -25.5949  -33.8587   24.2296 N   0  0  0  0  0  0
  -23.4147  -30.4862   21.5490 C   0  0  2  0  0  0
  -24.8551  -28.9459   20.1089 C   0  0  0  0  0  0
  -22.7467  -29.4624   22.4967 C   0  0  0  0  0  0
  -18.0286  -28.1365   22.8446 C   0  0  0  0  0  0
  -24.1481  -36.7279   23.2630 C   0  0  0  0  0  0
  -25.9511  -30.7986   21.3699 C   0  0  0  0  0  0
  -26.0257  -29.4266   20.7103 C   0  0  0  0  0  0
  -27.2138  -28.6405   20.6875 C   0  0  0  0  0  0
  -26.0214  -26.9057   19.4732 C   0  0  0  0  0  0
  -24.8546  -27.6912   19.4799 C   0  0  0  0  0  0
  -23.6247  -29.8260   20.1614 C   0  0  0  0  0  0
  -25.4105  -36.3053   24.0306 C   0  0  1  0  0  0
  -20.5890  -28.3683   23.1266 C   0  0  2  0  0  0
  -20.6771  -26.9404   22.5387 C   0  0  0  0  0  0
  -19.5746  -26.6373   21.5175 C   0  0  0  0  0  0
  -18.1938  -26.7909   22.1599 C   0  0  0  0  0  0
  -19.1547  -28.8841   23.2848 C   0  0  0  0  0  0
  -18.9483  -30.1450   23.8859 C   0  0  0  0  0  0
  -17.6486  -30.6574   24.0557 C   0  0  0  0  0  0
  -25.9045  -34.9437   23.5090 C   0  0  0  0  0  0
  -16.5373  -29.9062   23.6323 C   0  0  0  0  0  0
  -16.7279  -28.6491   23.0301 C   0  0  0  0  0  0
  -26.4492  -31.6554   25.0724 C   0  0  0  0  0  0
  -25.3718  -31.3690   26.1448 C   0  0  0  0  0  0
  -27.0360  -30.2999   24.6162 C   0  0  0  0  0  0
  -27.6062  -32.4292   25.7477 C   0  0  0  0  0  0
  -27.5561  -37.1778   24.8462 C   0  0  0  0  0  0
  -21.4188  -29.3049   22.3675 N   0  0  0  0  0  0
  -26.4276  -37.3754   23.9391 N   0  0  0  0  0  0
  -24.6822  -31.0652   22.0986 N   0  0  0  0  0  0
  -23.4185  -28.8118   23.3040 O   0  0  0  0  0  0
  -28.3189  -26.4982   20.1050 O   0  0  0  0  0  0
  -26.5608  -34.8883   22.4650 O   0  0  0  0  0  0
  -23.5409  -32.1455   23.7381 O   0  0  0  0  0  0
  -29.8116  -17.0755   20.2118 C   0  0  0  0  0  0
  -29.3693  -18.9716   19.3249 C   0  0  0  0  0  0
  -30.4404  -16.1822   22.5110 C   0  0  0  0  0  0
  -29.7114  -22.8020   17.8941 C   0  0  0  0  0  0
  -29.0265  -24.8741   21.7698 C   0  0  0  0  0  0
  -28.0838  -23.9284   19.5220 C   0  0  0  0  0  0
  -29.1432  -21.4666   20.0439 C   0  0  0  0  0  0
  -29.8573  -15.8377   21.1309 C   0  0  2  0  0  0
  -29.2880  -22.9067   19.3754 C   0  0  1  0  0  0
  -28.1000  -25.1181   20.5755 C   0  0  2  0  0  0
  -29.4911  -18.3574   20.5436 N   0  0  0  0  0  0
  -29.5625  -18.1657   18.2900 N   0  0  0  0  0  0
  -29.0027  -20.3348   19.0983 N   0  0  0  0  0  0
  -29.8295  -16.9086   18.8630 O   0  0  0  0  0  0
  -31.4751  -12.5003   19.1198 H   0  0  0  0  0  0
  -30.3802  -11.3628   19.8460 H   0  0  0  0  0  0
  -29.7537  -11.7645   17.4505 H   0  0  0  0  0  0
  -29.6392  -13.4818   17.7430 H   0  0  0  0  0  0
  -27.8624  -11.2867   18.8573 H   0  0  0  0  0  0
  -27.3608  -12.5740   17.7960 H   0  0  0  0  0  0
  -27.6908  -14.2423   19.5465 H   0  0  0  0  0  0
  -28.7165  -11.9678   21.3128 H   0  0  0  0  0  0
  -28.4557  -13.5774   21.8807 H   0  0  0  0  0  0
  -25.2762   -9.5692   22.4781 H   0  0  0  0  0  0
  -24.0011   -7.4637   22.7487 H   0  0  0  0  0  0
  -21.0859   -8.8780   19.8949 H   0  0  0  0  0  0
  -22.3712  -10.9691   19.6185 H   0  0  0  0  0  0
  -21.1996   -7.6162   23.9731 H   0  0  0  0  0  0
  -21.1473   -6.0529   25.9075 H   0  0  0  0  0  0
  -22.0605   -2.7632   23.2832 H   0  0  0  0  0  0
  -22.4105  -11.9884   22.4764 H   0  0  0  0  0  0
  -21.1136  -13.1286   22.2582 H   0  0  0  0  0  0
  -24.6557  -15.8327   20.5112 H   0  0  0  0  0  0
  -26.2590  -15.6242   20.0241 H   0  0  0  0  0  0
  -26.7154  -32.5462   23.1090 H   0  0  0  0  0  0
  -25.0095  -33.9725   25.0433 H   0  0  0  0  0  0
  -22.7071  -31.3046   21.4065 H   0  0  0  0  0  0
  -23.3726  -35.9629   23.3331 H   0  0  0  0  0  0
  -24.3555  -36.8902   22.2039 H   0  0  0  0  0  0
  -23.7275  -37.6499   23.6656 H   0  0  0  0  0  0
  -26.0763  -31.5618   20.5992 H   0  0  0  0  0  0
  -26.8318  -30.8488   21.9978 H   0  0  0  0  0  0
  -28.1200  -29.0062   21.1491 H   0  0  0  0  0  0
  -25.9917  -25.9418   18.9833 H   0  0  0  0  0  0
  -23.9596  -27.3263   18.9970 H   0  0  0  0  0  0
  -23.7387  -30.6053   19.4060 H   0  0  0  0  0  0
  -22.7447  -29.2547   19.8619 H   0  0  0  0  0  0
  -25.1271  -36.1904   25.0800 H   0  0  0  0  0  0
  -20.9958  -28.3257   24.1396 H   0  0  0  0  0  0
  -20.5663  -26.2283   23.3578 H   0  0  0  0  0  0
  -21.6638  -26.7401   22.1202 H   0  0  0  0  0  0
  -19.6911  -25.6268   21.1232 H   0  0  0  0  0  0
  -19.6700  -27.3161   20.6687 H   0  0  0  0  0  0
  -17.4189  -26.6626   21.4021 H   0  0  0  0  0  0
  -18.0379  -26.0045   22.9006 H   0  0  0  0  0  0
  -19.7963  -30.7290   24.2166 H   0  0  0  0  0  0
  -17.5040  -31.6244   24.5190 H   0  0  0  0  0  0
  -15.5377  -30.2958   23.7677 H   0  0  0  0  0  0
  -15.8677  -28.0846   22.6953 H   0  0  0  0  0  0
  -24.5911  -30.7013   25.7794 H   0  0  0  0  0  0
  -24.8850  -32.2838   26.4845 H   0  0  0  0  0  0
  -25.8026  -30.8894   27.0254 H   0  0  0  0  0  0
  -26.2954  -29.6742   24.1191 H   0  0  0  0  0  0
  -27.4111  -29.7263   25.4650 H   0  0  0  0  0  0
  -27.8759  -30.4320   23.9348 H   0  0  0  0  0  0
  -27.2712  -33.3636   26.2004 H   0  0  0  0  0  0
  -28.3892  -32.6824   25.0304 H   0  0  0  0  0  0
  -28.0713  -31.8452   26.5433 H   0  0  0  0  0  0
  -28.2562  -38.0091   24.7521 H   0  0  0  0  0  0
  -28.1076  -36.2611   24.6292 H   0  0  0  0  0  0
  -27.2283  -37.1492   25.8874 H   0  0  0  0  0  0
  -20.9375  -29.8813   21.6911 H   0  0  0  0  0  0
  -26.0152  -38.2813   24.1457 H   0  0  0  0  0  0
  -29.8287  -16.9342   23.0088 H   0  0  0  0  0  0
  -31.4537  -16.5736   22.4284 H   0  0  0  0  0  0
  -30.4643  -15.3066   23.1584 H   0  0  0  0  0  0
  -29.9474  -23.7843   17.4824 H   0  0  0  0  0  0
  -28.9194  -22.3752   17.2763 H   0  0  0  0  0  0
  -30.6015  -22.1840   17.7751 H   0  0  0  0  0  0
  -28.8559  -23.8838   22.1951 H   0  0  0  0  0  0
  -28.8342  -25.6006   22.5599 H   0  0  0  0  0  0
  -30.0755  -24.9564   21.4895 H   0  0  0  0  0  0
  -27.1950  -23.3266   19.7139 H   0  0  0  0  0  0
  -27.8738  -24.3819   18.5526 H   0  0  0  0  0  0
  -28.3083  -21.4509   20.7464 H   0  0  0  0  0  0
  -30.0345  -21.2665   20.6411 H   0  0  0  0  0  0
  -28.8110  -15.5874   21.2793 H   0  0  0  0  0  0
  -30.1418  -23.3714   19.8664 H   0  0  0  0  0  0
  -27.1046  -25.0875   21.0218 H   0  0  0  0  0  0
  -28.9771  -20.5874   18.1166 H   0  0  0  0  0  0
  1 25  1  0  0  0
  1 30  2  0  0  0
  1 78  1  0  0  0
  2  3  1  0  0  0
  2 25  1  0  0  0
  2 85  1  0  0  0
  2 86  1  0  0  0
  3  4  1  0  0  0
  3 87  1  0  0  0
  3 88  1  0  0  0
  4  5  1  0  0  0
  4 89  1  0  0  0
  4 90  1  0  0  0
  5  6  1  0  0  0
  5 26  1  0  0  0
  5 91  1  0  0  0
  6 25  1  0  0  0
  6 92  1  0  0  0
  6 93  1  0  0  0
  7  8  2  0  0  0
  7 26  1  0  0  0
  7 29  1  0  0  0
  8  9  1  0  0  0
  8 22  1  0  0  0
  9 10  1  0  0  0
  9 27  2  0  0  0
 10 11  2  0  0  0
 10 15  1  0  0  0
 11 12  1  0  0  0
 11 94  1  0  0  0
 12 13  2  0  0  0
 12 95  1  0  0  0
 13 14  1  0  0  0
 13 31  1  0  0  0
 14 15  2  0  0  0
 14 96  1  0  0  0
 15 97  1  0  0  0
 16 17  2  0  0  0
 16 21  1  0  0  0
 16 31  1  0  0  0
 17 18  1  0  0  0
 17 98  1  0  0  0
 18 19  2  0  0  0
 18 99  1  0  0  0
 19 20  1  0  0  0
 19 24  1  0  0  0
 20 21  2  0  0  0
 20100  1  0  0  0
 21 23  1  0  0  0
 22 28  1  0  0  0
 22 32  2  0  0  0
 26 27  1  0  0  0
 28101  1  0  0  0
 28102  1  0  0  0
 29103  1  0  0  0
 29104  1  0  0  0
 33 34  1  0  0  0
 33 66  1  0  0  0
 33 70  2  0  0  0
 34 36  1  0  0  0
 34 59  1  0  0  0
 34105  1  0  0  0
 35 44  2  0  0  0
 35 45  1  0  0  0
 35 68  1  0  0  0
 36 56  1  0  0  0
 36106  1  0  0  0
 37 39  1  0  0  0
 37 47  1  0  0  0
 37 66  1  0  0  0
 37107  1  0  0  0
 38 43  2  0  0  0
 38 46  1  0  0  0
 38 47  1  0  0  0
 39 64  1  0  0  0
 39 67  2  0  0  0
 40 52  1  0  0  0
 40 53  2  0  0  0
 40 58  1  0  0  0
 41108  1  0  0  0
 41109  1  0  0  0
 41110  1  0  0  0
 41 48  1  0  0  0
 42 43  1  0  0  0
 42 66  1  0  0  0
 42111  1  0  0  0
 42112  1  0  0  0
 43 44  1  0  0  0
 44113  1  0  0  0
 45 46  2  0  0  0
 45114  1  0  0  0
 46115  1  0  0  0
 47116  1  0  0  0
 47117  1  0  0  0
 48 56  1  0  0  0
 48 65  1  0  0  0
 48118  1  0  0  0
 49 50  1  0  0  0
 49 53  1  0  0  0
 49 64  1  0  0  0
 49119  1  0  0  0
 50 51  1  0  0  0
 50120  1  0  0  0
 50121  1  0  0  0
 51 52  1  0  0  0
 51122  1  0  0  0
 51123  1  0  0  0
 52124  1  0  0  0
 52125  1  0  0  0
 53 54  1  0  0  0
 54 55  2  0  0  0
 54126  1  0  0  0
 55 57  1  0  0  0
 55127  1  0  0  0
 56 69  2  0  0  0
 57 58  2  0  0  0
 57128  1  0  0  0
 58129  1  0  0  0
 59 60  1  0  0  0
 59 61  1  0  0  0
 59 62  1  0  0  0
 60130  1  0  0  0
 60131  1  0  0  0
 60132  1  0  0  0
 61133  1  0  0  0
 61134  1  0  0  0
 61135  1  0  0  0
 62136  1  0  0  0
 62137  1  0  0  0
 62138  1  0  0  0
 63 65  1  0  0  0
 63139  1  0  0  0
 63140  1  0  0  0
 63141  1  0  0  0
 64142  1  0  0  0
 65143  1  0  0  0
 68 80  1  0  0  0
 71 78  1  0  0  0
 71 81  2  0  0  0
 71 84  1  0  0  0
 72 81  1  0  0  0
 72 82  2  0  0  0
 72 83  1  0  0  0
 73144  1  0  0  0
 73145  1  0  0  0
 73146  1  0  0  0
 73 78  1  0  0  0
 74147  1  0  0  0
 74148  1  0  0  0
 74149  1  0  0  0
 74 79  1  0  0  0
 75150  1  0  0  0
 75151  1  0  0  0
 75152  1  0  0  0
 75 80  1  0  0  0
 76 79  1  0  0  0
 76 80  1  0  0  0
 76153  1  0  0  0
 76154  1  0  0  0
 77 79  1  0  0  0
 77 83  1  0  0  0
 77155  1  0  0  0
 77156  1  0  0  0
 78157  1  0  0  0
 79158  1  0  0  0
 80159  1  0  0  0
 82 84  1  0  0  0
 83160  1  0  0  0
M  ISO  4   1 100  68 101  78 100  80 101
M  END
> <chiral flag>
0

> <version>
0

> <s_m_source_file>
/data/baiqing/PycharmProjects/Reinvent-master-3.2/result/LINK_invent/BTK/process_docking_weight1_custom_product_contain_oxygen_bond_distance_aromatic_linkinvent_7_9_3/rearranged_h_0191.sdf

> <i_m_source_file_index>
58

> <r_mmod_Potential_Energy-OPLS-2005>
-44.3834266662598

> <r_mmod_Stretch_Energy-OPLS-2005>
66.2298202514648

> <r_mmod_Bend_Energy-OPLS-2005>
150.478958129883

> <r_mmod_Torsional_Energy-OPLS-2005>
238.137344360352

> <r_mmod_Improper_Torsional_Energy-OPLS-2005>
5.33214950561523

> <r_mmod_Van_der_Waal_Energy-OPLS-2005>
124.414009094238

> <r_mmod_Electrostatic_Energy-OPLS-2005>
-453.634521484375

> <r_mmod_Solvation_Energy-OPLS-2005>
-210.843933105469

> <b_mmod_Minimization_Converged-OPLS-2005>
0

> <r_mmod_RMS_Derivative-OPLS-2005>
3.87515425682068

$$$$
60
                    3D
 Structure written by MMmdl.
159167  0  0  1  0            999 V2000
  -30.6736  -14.5334   20.4750 C   0  0  0  0  0  0
  -30.4206  -12.3149   19.4539 C   0  0  0  0  0  0
  -29.5011  -12.4840   18.2245 C   0  0  0  0  0  0
  -28.0227  -12.3416   18.6343 C   0  0  0  0  0  0
  -27.6563  -13.2089   19.8684 C   0  0  2  0  0  0
  -28.6989  -13.0526   21.0019 C   0  0  0  0  0  0
  -25.2577  -13.8159   20.5676 C   0  0  0  0  0  0
  -24.1832  -13.0432   20.9183 C   0  0  0  0  0  0
  -24.6393  -11.6906   20.8740 C   0  0  0  0  0  0
  -23.9066  -10.4281   21.0405 C   0  0  0  0  0  0
  -24.3616   -9.4200   21.9190 C   0  0  0  0  0  0
  -23.6285   -8.2241   22.0764 C   0  0  0  0  0  0
  -22.4268   -8.0278   21.3548 C   0  0  0  0  0  0
  -21.9903   -9.0256   20.4653 C   0  0  0  0  0  0
  -22.7236  -10.2132   20.3058 C   0  0  0  0  0  0
  -21.6856   -6.0730   22.5277 C   0  0  0  0  0  0
  -21.4014   -6.5642   23.8207 C   0  0  0  0  0  0
  -21.3660   -5.6795   24.9176 C   0  0  0  0  0  0
  -21.6043   -4.3060   24.7220 C   0  0  0  0  0  0
  -21.8823   -3.8149   23.4344 C   0  0  0  0  0  0
  -21.9188   -4.6959   22.3398 C   0  0  0  0  0  0
  -22.7862  -13.5243   21.1842 C   0  0  0  0  0  0
  -22.1662   -4.2151   21.0976 F   0  0  0  0  0  0
  -21.5627   -3.4542   25.7737 F   0  0  0  0  0  0
  -30.0281  -13.3351   20.4404 N   0  0  0  0  0  0
  -26.3003  -12.9330   20.3349 N   0  0  0  0  0  0
  -25.9321  -11.6493   20.5774 N   0  0  0  0  0  0
  -22.0504  -12.8229   22.0400 N   0  0  0  0  0  0
  -25.4298  -15.1875   20.4079 N   0  0  0  0  0  0
  -31.8396  -14.6652   20.0971 O   0  0  0  0  0  0
  -21.6639   -6.8873   21.4239 O   0  0  0  0  0  0
  -22.3540  -14.5546   20.6693 O   0  0  0  0  0  0
  -24.6196  -31.8640   23.2054 C   0  0  0  0  0  0
  -25.9067  -32.4802   23.8369 C   0  0  1  0  0  0
  -27.2378  -27.4009   20.0968 C   0  0  0  0  0  0
  -25.5899  -33.8597   24.2305 N   0  0  0  0  0  0
  -23.4072  -30.4869   21.5462 C   0  0  2  0  0  0
  -24.8512  -28.9422   20.1135 C   0  0  0  0  0  0
  -22.7428  -29.4638   22.4961 C   0  0  0  0  0  0
  -18.0275  -28.1384   22.8490 C   0  0  0  0  0  0
  -24.1480  -36.7321   23.2637 C   0  0  0  0  0  0
  -25.9376  -30.8194   21.3590 C   0  0  0  0  0  0
  -26.0105  -29.4483   20.7111 C   0  0  0  0  0  0
  -27.2012  -28.6841   20.6983 C   0  0  0  0  0  0
  -26.0517  -26.9067   19.5060 C   0  0  0  0  0  0
  -24.8672  -27.6725   19.5088 C   0  0  0  0  0  0
  -23.6160  -29.8150   20.1618 C   0  0  0  0  0  0
  -25.4098  -36.3100   24.0338 C   0  0  1  0  0  0
  -20.5866  -28.3675   23.1304 C   0  0  2  0  0  0
  -20.6753  -26.9406   22.5414 C   0  0  0  0  0  0
  -19.5732  -26.6389   21.5207 C   0  0  0  0  0  0
  -18.1915  -26.7928   22.1622 C   0  0  0  0  0  0
  -19.1525  -28.8845   23.2896 C   0  0  0  0  0  0
  -18.9455  -30.1451   23.8914 C   0  0  0  0  0  0
  -17.6457  -30.6591   24.0568 C   0  0  0  0  0  0
  -25.9037  -34.9466   23.5127 C   0  0  0  0  0  0
  -16.5346  -29.9100   23.6317 C   0  0  0  0  0  0
  -16.7264  -28.6512   23.0342 C   0  0  0  0  0  0
  -26.4475  -31.6589   25.0713 C   0  0  0  0  0  0
  -25.3745  -31.3703   26.1471 C   0  0  0  0  0  0
  -27.0297  -30.3028   24.6098 C   0  0  0  0  0  0
  -27.6048  -32.4309   25.7483 C   0  0  0  0  0  0
  -27.5573  -37.1812   24.8464 C   0  0  0  0  0  0
  -21.4152  -29.3038   22.3707 N   0  0  0  0  0  0
  -26.4281  -37.3790   23.9411 N   0  0  0  0  0  0
  -24.6736  -31.0727   22.0954 N   0  0  0  0  0  0
  -23.4185  -28.8195   23.3025 O   0  0  0  0  0  0
  -28.4310  -26.6955   20.1320 O   0  0  0  0  0  0
  -26.5606  -34.8919   22.4692 O   0  0  0  0  0  0
  -23.5379  -32.1385   23.7436 O   0  0  0  0  0  0
  -28.8816  -19.1633   19.9779 C   0  0  0  0  0  0
  -29.9131  -18.2017   20.2829 C   0  0  0  0  0  0
  -30.9188  -18.7779   21.0278 C   0  0  0  0  0  0
  -29.1251  -20.4444   20.4304 C   0  0  0  0  0  0
  -33.4355  -18.6697   20.8021 C   0  0  0  0  0  0
  -29.9387  -16.7841   19.7132 C   0  0  0  0  0  0
  -32.1846  -18.1559   21.5255 C   0  0  0  0  0  0
  -28.8980  -22.8348   19.7044 C   0  0  0  0  0  0
  -28.6178  -25.4223   19.4688 C   0  0  0  0  0  0
  -28.4298  -24.1685   20.3816 C   0  0  1  0  0  0
  -28.3314  -21.5995   20.2779 N   0  0  0  0  0  0
  -29.8735  -15.6150   20.6254 N   0  0  0  0  0  0
  -29.2703  -24.3557   21.5062 O   0  0  0  0  0  0
  -30.6195  -20.4811   21.3252 S   0  0  0  0  0  0
  -31.4696  -12.3943   19.1605 H   0  0  0  0  0  0
  -30.3080  -11.3189   19.8849 H   0  0  0  0  0  0
  -29.7482  -11.7424   17.4639 H   0  0  0  0  0  0
  -29.6661  -13.4601   17.7645 H   0  0  0  0  0  0
  -27.8428  -11.2892   18.8562 H   0  0  0  0  0  0
  -27.3719  -12.5881   17.7948 H   0  0  0  0  0  0
  -27.6793  -14.2445   19.5294 H   0  0  0  0  0  0
  -28.6778  -12.0401   21.4070 H   0  0  0  0  0  0
  -28.4688  -13.7161   21.8378 H   0  0  0  0  0  0
  -25.2760   -9.5678   22.4760 H   0  0  0  0  0  0
  -24.0002   -7.4628   22.7479 H   0  0  0  0  0  0
  -21.0835   -8.8764   19.8956 H   0  0  0  0  0  0
  -22.3689  -10.9670   19.6164 H   0  0  0  0  0  0
  -21.2014   -7.6152   23.9711 H   0  0  0  0  0  0
  -21.1482   -6.0528   25.9075 H   0  0  0  0  0  0
  -22.0599   -2.7610   23.2842 H   0  0  0  0  0  0
  -22.4126  -11.9885   22.4769 H   0  0  0  0  0  0
  -21.1124  -13.1260   22.2624 H   0  0  0  0  0  0
  -24.6643  -15.8433   20.5184 H   0  0  0  0  0  0
  -26.2766  -15.6264   20.0709 H   0  0  0  0  0  0
  -26.7143  -32.5490   23.1134 H   0  0  0  0  0  0
  -25.0028  -33.9745   25.0434 H   0  0  0  0  0  0
  -22.6972  -31.3048   21.4052 H   0  0  0  0  0  0
  -23.3727  -35.9671   23.3304 H   0  0  0  0  0  0
  -24.3570  -36.8932   22.2049 H   0  0  0  0  0  0
  -23.7249  -37.6534   23.6654 H   0  0  0  0  0  0
  -26.0476  -31.5792   20.5832 H   0  0  0  0  0  0
  -26.8273  -30.8781   21.9759 H   0  0  0  0  0  0
  -28.0973  -29.0751   21.1588 H   0  0  0  0  0  0
  -26.0157  -25.9280   19.0527 H   0  0  0  0  0  0
  -23.9722  -27.2737   19.0502 H   0  0  0  0  0  0
  -23.7270  -30.5876   19.4003 H   0  0  0  0  0  0
  -22.7385  -29.2380   19.8657 H   0  0  0  0  0  0
  -25.1273  -36.1953   25.0834 H   0  0  0  0  0  0
  -20.9958  -28.3248   24.1423 H   0  0  0  0  0  0
  -20.5615  -26.2303   23.3610 H   0  0  0  0  0  0
  -21.6630  -26.7418   22.1233 H   0  0  0  0  0  0
  -19.6885  -25.6301   21.1233 H   0  0  0  0  0  0
  -19.6667  -27.3200   20.6737 H   0  0  0  0  0  0
  -17.4177  -26.6672   21.4032 H   0  0  0  0  0  0
  -18.0327  -26.0074   22.9024 H   0  0  0  0  0  0
  -19.7935  -30.7258   24.2294 H   0  0  0  0  0  0
  -17.5016  -31.6268   24.5176 H   0  0  0  0  0  0
  -15.5345  -30.3009   23.7635 H   0  0  0  0  0  0
  -15.8661  -28.0840   22.7043 H   0  0  0  0  0  0
  -24.5918  -30.7042   25.7823 H   0  0  0  0  0  0
  -24.8936  -32.2860   26.4927 H   0  0  0  0  0  0
  -25.8109  -30.8874   27.0227 H   0  0  0  0  0  0
  -26.2838  -29.6800   24.1146 H   0  0  0  0  0  0
  -27.4049  -29.7253   25.4558 H   0  0  0  0  0  0
  -27.8685  -30.4339   23.9258 H   0  0  0  0  0  0
  -27.2665  -33.3595   26.2098 H   0  0  0  0  0  0
  -28.3850  -32.6888   25.0310 H   0  0  0  0  0  0
  -28.0734  -31.8410   26.5373 H   0  0  0  0  0  0
  -28.2603  -38.0096   24.7494 H   0  0  0  0  0  0
  -28.1056  -36.2626   24.6306 H   0  0  0  0  0  0
  -27.2299  -37.1494   25.8872 H   0  0  0  0  0  0
  -20.9321  -29.8789   21.6949 H   0  0  0  0  0  0
  -26.0164  -38.2873   24.1400 H   0  0  0  0  0  0
  -28.0197  -18.8824   19.3892 H   0  0  0  0  0  0
  -34.3306  -18.1845   21.1939 H   0  0  0  0  0  0
  -33.5609  -19.7454   20.9343 H   0  0  0  0  0  0
  -33.3876  -18.4649   19.7316 H   0  0  0  0  0  0
  -30.8139  -16.7019   19.0657 H   0  0  0  0  0  0
  -29.0990  -16.6647   19.0280 H   0  0  0  0  0  0
  -32.1395  -17.0724   21.4253 H   0  0  0  0  0  0
  -32.2780  -18.3504   22.5947 H   0  0  0  0  0  0
  -29.9882  -22.7911   19.6640 H   0  0  0  0  0  0
  -28.5697  -22.8553   18.6629 H   0  0  0  0  0  0
  -28.0105  -25.3408   18.5679 H   0  0  0  0  0  0
  -29.6452  -25.4252   19.1028 H   0  0  0  0  0  0
  -27.3890  -24.1093   20.7002 H   0  0  0  0  0  0
  -27.3871  -21.4158   19.9464 H   0  0  0  0  0  0
  -28.9606  -15.4193   21.0067 H   0  0  0  0  0  0
  -29.1064  -25.2425   21.8150 H   0  0  0  0  0  0
  1 25  1  0  0  0
  1 30  2  0  0  0
  1 82  1  0  0  0
  2  3  1  0  0  0
  2 25  1  0  0  0
  2 85  1  0  0  0
  2 86  1  0  0  0
  3  4  1  0  0  0
  3 87  1  0  0  0
  3 88  1  0  0  0
  4  5  1  0  0  0
  4 89  1  0  0  0
  4 90  1  0  0  0
  5  6  1  0  0  0
  5 26  1  0  0  0
  5 91  1  0  0  0
  6 25  1  0  0  0
  6 92  1  0  0  0
  6 93  1  0  0  0
  7  8  2  0  0  0
  7 26  1  0  0  0
  7 29  1  0  0  0
  8  9  1  0  0  0
  8 22  1  0  0  0
  9 10  1  0  0  0
  9 27  2  0  0  0
 10 11  2  0  0  0
 10 15  1  0  0  0
 11 12  1  0  0  0
 11 94  1  0  0  0
 12 13  2  0  0  0
 12 95  1  0  0  0
 13 14  1  0  0  0
 13 31  1  0  0  0
 14 15  2  0  0  0
 14 96  1  0  0  0
 15 97  1  0  0  0
 16 17  2  0  0  0
 16 21  1  0  0  0
 16 31  1  0  0  0
 17 18  1  0  0  0
 17 98  1  0  0  0
 18 19  2  0  0  0
 18 99  1  0  0  0
 19 20  1  0  0  0
 19 24  1  0  0  0
 20 21  2  0  0  0
 20100  1  0  0  0
 21 23  1  0  0  0
 22 28  1  0  0  0
 22 32  2  0  0  0
 26 27  1  0  0  0
 28101  1  0  0  0
 28102  1  0  0  0
 29103  1  0  0  0
 29104  1  0  0  0
 33 34  1  0  0  0
 33 66  1  0  0  0
 33 70  2  0  0  0
 34 36  1  0  0  0
 34 59  1  0  0  0
 34105  1  0  0  0
 35 44  2  0  0  0
 35 45  1  0  0  0
 35 68  1  0  0  0
 36 56  1  0  0  0
 36106  1  0  0  0
 37 39  1  0  0  0
 37 47  1  0  0  0
 37 66  1  0  0  0
 37107  1  0  0  0
 38 43  2  0  0  0
 38 46  1  0  0  0
 38 47  1  0  0  0
 39 64  1  0  0  0
 39 67  2  0  0  0
 40 52  1  0  0  0
 40 53  2  0  0  0
 40 58  1  0  0  0
 41108  1  0  0  0
 41109  1  0  0  0
 41110  1  0  0  0
 41 48  1  0  0  0
 42 43  1  0  0  0
 42 66  1  0  0  0
 42111  1  0  0  0
 42112  1  0  0  0
 43 44  1  0  0  0
 44113  1  0  0  0
 45 46  2  0  0  0
 45114  1  0  0  0
 46115  1  0  0  0
 47116  1  0  0  0
 47117  1  0  0  0
 48 56  1  0  0  0
 48 65  1  0  0  0
 48118  1  0  0  0
 49 50  1  0  0  0
 49 53  1  0  0  0
 49 64  1  0  0  0
 49119  1  0  0  0
 50 51  1  0  0  0
 50120  1  0  0  0
 50121  1  0  0  0
 51 52  1  0  0  0
 51122  1  0  0  0
 51123  1  0  0  0
 52124  1  0  0  0
 52125  1  0  0  0
 53 54  1  0  0  0
 54 55  2  0  0  0
 54126  1  0  0  0
 55 57  1  0  0  0
 55127  1  0  0  0
 56 69  2  0  0  0
 57 58  2  0  0  0
 57128  1  0  0  0
 58129  1  0  0  0
 59 60  1  0  0  0
 59 61  1  0  0  0
 59 62  1  0  0  0
 60130  1  0  0  0
 60131  1  0  0  0
 60132  1  0  0  0
 61133  1  0  0  0
 61134  1  0  0  0
 61135  1  0  0  0
 62136  1  0  0  0
 62137  1  0  0  0
 62138  1  0  0  0
 63 65  1  0  0  0
 63139  1  0  0  0
 63140  1  0  0  0
 63141  1  0  0  0
 64142  1  0  0  0
 65143  1  0  0  0
 68 79  1  0  0  0
 71 72  1  0  0  0
 71 74  2  0  0  0
 71144  1  0  0  0
 72 73  2  0  0  0
 72 76  1  0  0  0
 73 77  1  0  0  0
 73 84  1  0  0  0
 74 81  1  0  0  0
 74 84  1  0  0  0
 75 77  1  0  0  0
 75145  1  0  0  0
 75146  1  0  0  0
 75147  1  0  0  0
 76 82  1  0  0  0
 76148  1  0  0  0
 76149  1  0  0  0
 77150  1  0  0  0
 77151  1  0  0  0
 78 80  1  0  0  0
 78 81  1  0  0  0
 78152  1  0  0  0
 78153  1  0  0  0
 79 80  1  0  0  0
 79154  1  0  0  0
 79155  1  0  0  0
 80 83  1  0  0  0
 80156  1  0  0  0
 81157  1  0  0  0
 82158  1  0  0  0
 83159  1  0  0  0
M  ISO  4   1 100  68 101  79 101  82 100
M  END
> <chiral flag>
0

> <version>
0

> <s_m_source_file>
/data/baiqing/PycharmProjects/Reinvent-master-3.2/result/LINK_invent/BTK/process_docking_weight1_custom_product_contain_oxygen_bond_distance_aromatic_linkinvent_7_9_3/rearranged_h_0191.sdf

> <i_m_source_file_index>
59

> <r_mmod_Potential_Energy-OPLS-2005>
-93.3003158569336

> <r_mmod_Stretch_Energy-OPLS-2005>
43.4341239929199

> <r_mmod_Bend_Energy-OPLS-2005>
121.309730529785

> <r_mmod_Torsional_Energy-OPLS-2005>
245.706405639648

> <r_mmod_Improper_Torsional_Energy-OPLS-2005>
15.1202564239502

> <r_mmod_Van_der_Waal_Energy-OPLS-2005>
118.833793640137

> <r_mmod_Electrostatic_Energy-OPLS-2005>
-408.489868164062

> <r_mmod_Solvation_Energy-OPLS-2005>
-252.044616699219

> <b_mmod_Minimization_Converged-OPLS-2005>
0

> <r_mmod_RMS_Derivative-OPLS-2005>
2.05024361610413

$$$$
61
                    3D
 Structure written by MMmdl.
154162  0  0  1  0            999 V2000
  -30.7067  -14.4698   20.4964 C   0  0  0  0  0  0
  -30.4120  -12.2800   19.4429 C   0  0  0  0  0  0
  -29.4971  -12.4806   18.2162 C   0  0  0  0  0  0
  -28.0161  -12.3533   18.6236 C   0  0  0  0  0  0
  -27.6573  -13.2086   19.8691 C   0  0  2  0  0  0
  -28.6994  -13.0291   20.9992 C   0  0  0  0  0  0
  -25.2570  -13.8164   20.5682 C   0  0  0  0  0  0
  -24.1829  -13.0437   20.9181 C   0  0  0  0  0  0
  -24.6388  -11.6907   20.8741 C   0  0  0  0  0  0
  -23.9058  -10.4293   21.0406 C   0  0  0  0  0  0
  -24.3612   -9.4208   21.9184 C   0  0  0  0  0  0
  -23.6289   -8.2241   22.0754 C   0  0  0  0  0  0
  -22.4273   -8.0280   21.3542 C   0  0  0  0  0  0
  -21.9907   -9.0254   20.4646 C   0  0  0  0  0  0
  -22.7231  -10.2136   20.3055 C   0  0  0  0  0  0
  -21.6854   -6.0735   22.5277 C   0  0  0  0  0  0
  -21.4015   -6.5638   23.8211 C   0  0  0  0  0  0
  -21.3660   -5.6793   24.9174 C   0  0  0  0  0  0
  -21.6043   -4.3056   24.7225 C   0  0  0  0  0  0
  -21.8819   -3.8146   23.4347 C   0  0  0  0  0  0
  -21.9193   -4.6963   22.3403 C   0  0  0  0  0  0
  -22.7853  -13.5235   21.1842 C   0  0  0  0  0  0
  -22.1663   -4.2150   21.0982 F   0  0  0  0  0  0
  -21.5629   -3.4538   25.7737 F   0  0  0  0  0  0
  -30.0328  -13.2922   20.4401 N   0  0  0  0  0  0
  -26.3001  -12.9335   20.3346 N   0  0  0  0  0  0
  -25.9314  -11.6496   20.5772 N   0  0  0  0  0  0
  -22.0492  -12.8237   22.0402 N   0  0  0  0  0  0
  -25.4282  -15.1885   20.4088 N   0  0  0  0  0  0
  -31.8830  -14.5816   20.1430 O   0  0  0  0  0  0
  -21.6638   -6.8878   21.4240 O   0  0  0  0  0  0
  -22.3545  -14.5545   20.6693 O   0  0  0  0  0  0
  -24.6134  -31.8695   23.2110 C   0  0  0  0  0  0
  -25.9030  -32.4832   23.8409 C   0  0  1  0  0  0
  -27.2319  -27.4445   20.1022 C   0  0  0  0  0  0
  -25.5893  -33.8632   24.2339 N   0  0  0  0  0  0
  -23.4012  -30.4927   21.5508 C   0  0  2  0  0  0
  -24.8484  -28.9608   20.1140 C   0  0  0  0  0  0
  -22.7410  -29.4663   22.4992 C   0  0  0  0  0  0
  -18.0273  -28.1379   22.8495 C   0  0  0  0  0  0
  -24.1486  -36.7323   23.2637 C   0  0  0  0  0  0
  -25.9286  -30.8389   21.3622 C   0  0  0  0  0  0
  -26.0075  -29.4738   20.7106 C   0  0  0  0  0  0
  -27.2049  -28.7237   20.6995 C   0  0  0  0  0  0
  -26.0612  -26.9495   19.4870 C   0  0  0  0  0  0
  -24.8698  -27.6980   19.4979 C   0  0  0  0  0  0
  -23.6094  -29.8255   20.1649 C   0  0  0  0  0  0
  -25.4105  -36.3121   24.0340 C   0  0  1  0  0  0
  -20.5863  -28.3666   23.1322 C   0  0  2  0  0  0
  -20.6761  -26.9402   22.5419 C   0  0  0  0  0  0
  -19.5739  -26.6387   21.5214 C   0  0  0  0  0  0
  -18.1919  -26.7923   22.1629 C   0  0  0  0  0  0
  -19.1523  -28.8836   23.2905 C   0  0  0  0  0  0
  -18.9450  -30.1443   23.8915 C   0  0  0  0  0  0
  -17.6453  -30.6582   24.0567 C   0  0  0  0  0  0
  -25.9031  -34.9482   23.5136 C   0  0  0  0  0  0
  -16.5344  -29.9087   23.6322 C   0  0  0  0  0  0
  -16.7263  -28.6504   23.0342 C   0  0  0  0  0  0
  -26.4461  -31.6605   25.0730 C   0  0  0  0  0  0
  -25.3730  -31.3708   26.1482 C   0  0  0  0  0  0
  -27.0285  -30.3051   24.6088 C   0  0  0  0  0  0
  -27.6048  -32.4316   25.7486 C   0  0  0  0  0  0
  -27.5581  -37.1818   24.8466 C   0  0  0  0  0  0
  -21.4138  -29.3034   22.3731 N   0  0  0  0  0  0
  -26.4296  -37.3800   23.9407 N   0  0  0  0  0  0
  -24.6658  -31.0810   22.1001 N   0  0  0  0  0  0
  -23.4189  -28.8200   23.3024 O   0  0  0  0  0  0
  -28.3894  -26.7000   20.1075 O   0  0  0  0  0  0
  -26.5593  -34.8925   22.4696 O   0  0  0  0  0  0
  -23.5329  -32.1439   23.7509 O   0  0  0  0  0  0
  -29.4208  -18.5195   21.5105 C   0  0  0  0  0  0
  -29.2652  -19.9425   21.5887 C   0  0  0  0  0  0
  -29.8451  -18.0931   20.2778 C   0  0  0  0  0  0
  -29.5731  -20.6038   20.4186 C   0  0  0  0  0  0
  -29.1901  -22.9988   20.8095 C   0  0  0  0  0  0
  -29.0790  -24.2670   18.5734 C   0  0  0  0  0  0
  -30.1555  -16.7267   19.7381 C   0  0  0  0  0  0
  -28.2675  -25.3962   20.7031 C   0  0  0  0  0  0
  -29.2709  -24.3801   20.1036 C   0  0  1  0  0  0
  -29.5624  -21.9245   20.0888 N   0  0  0  0  0  0
  -29.9315  -15.5641   20.6135 N   0  0  0  0  0  0
  -28.8169  -22.9210   21.9830 O   0  0  0  0  0  0
  -30.0528  -19.4509   19.2030 S   0  0  0  0  0  0
  -30.2844  -11.2792   19.8587 H   0  0  0  0  0  0
  -31.4615  -12.3477   19.1506 H   0  0  0  0  0  0
  -29.7356  -11.7472   17.4448 H   0  0  0  0  0  0
  -29.6760  -13.4613   17.7722 H   0  0  0  0  0  0
  -27.8227  -11.3003   18.8307 H   0  0  0  0  0  0
  -27.3708  -12.6207   17.7865 H   0  0  0  0  0  0
  -27.6875  -14.2484   19.5449 H   0  0  0  0  0  0
  -28.4802  -13.6879   21.8411 H   0  0  0  0  0  0
  -28.6634  -12.0132   21.3951 H   0  0  0  0  0  0
  -25.2759   -9.5688   22.4755 H   0  0  0  0  0  0
  -24.0001   -7.4636   22.7475 H   0  0  0  0  0  0
  -21.0836   -8.8769   19.8956 H   0  0  0  0  0  0
  -22.3683  -10.9674   19.6165 H   0  0  0  0  0  0
  -21.2008   -7.6146   23.9715 H   0  0  0  0  0  0
  -21.1482   -6.0522   25.9077 H   0  0  0  0  0  0
  -22.0600   -2.7606   23.2845 H   0  0  0  0  0  0
  -22.4108  -11.9901   22.4798 H   0  0  0  0  0  0
  -21.1113  -13.1272   22.2605 H   0  0  0  0  0  0
  -24.6608  -15.8426   20.5179 H   0  0  0  0  0  0
  -26.2773  -15.6295   20.0792 H   0  0  0  0  0  0
  -26.7106  -32.5551   23.1185 H   0  0  0  0  0  0
  -25.0059  -33.9802   25.0493 H   0  0  0  0  0  0
  -22.6886  -31.3081   21.4120 H   0  0  0  0  0  0
  -23.3742  -35.9662   23.3313 H   0  0  0  0  0  0
  -24.3580  -36.8919   22.2048 H   0  0  0  0  0  0
  -23.7243  -37.6536   23.6638 H   0  0  0  0  0  0
  -26.0373  -31.6044   20.5925 H   0  0  0  0  0  0
  -26.8180  -30.8951   21.9783 H   0  0  0  0  0  0
  -28.1006  -29.1143   21.1619 H   0  0  0  0  0  0
  -26.0675  -25.9868   18.9952 H   0  0  0  0  0  0
  -23.9813  -27.3014   19.0265 H   0  0  0  0  0  0
  -23.7158  -30.6002   19.4047 H   0  0  0  0  0  0
  -22.7341  -29.2440   19.8702 H   0  0  0  0  0  0
  -25.1277  -36.1996   25.0835 H   0  0  0  0  0  0
  -20.9957  -28.3228   24.1442 H   0  0  0  0  0  0
  -20.5667  -26.2271   23.3607 H   0  0  0  0  0  0
  -21.6631  -26.7445   22.1208 H   0  0  0  0  0  0
  -19.6897  -25.6303   21.1232 H   0  0  0  0  0  0
  -19.6672  -27.3207   20.6753 H   0  0  0  0  0  0
  -17.4188  -26.6676   21.4032 H   0  0  0  0  0  0
  -18.0317  -26.0061   22.9023 H   0  0  0  0  0  0
  -19.7928  -30.7254   24.2292 H   0  0  0  0  0  0
  -17.5009  -31.6263   24.5169 H   0  0  0  0  0  0
  -15.5346  -30.2994   23.7632 H   0  0  0  0  0  0
  -15.8666  -28.0831   22.7040 H   0  0  0  0  0  0
  -24.5907  -30.7045   25.7825 H   0  0  0  0  0  0
  -24.8911  -32.2858   26.4939 H   0  0  0  0  0  0
  -25.8086  -30.8881   27.0238 H   0  0  0  0  0  0
  -26.2824  -29.6829   24.1129 H   0  0  0  0  0  0
  -27.4050  -29.7269   25.4537 H   0  0  0  0  0  0
  -27.8660  -30.4377   23.9233 H   0  0  0  0  0  0
  -27.2683  -33.3612   26.2088 H   0  0  0  0  0  0
  -28.3844  -32.6880   25.0300 H   0  0  0  0  0  0
  -28.0728  -31.8421   26.5381 H   0  0  0  0  0  0
  -28.2613  -38.0103   24.7505 H   0  0  0  0  0  0
  -28.1064  -36.2637   24.6302 H   0  0  0  0  0  0
  -27.2301  -37.1480   25.8870 H   0  0  0  0  0  0
  -20.9295  -29.8774   21.6973 H   0  0  0  0  0  0
  -26.0191  -38.2883   24.1397 H   0  0  0  0  0  0
  -29.2218  -17.8736   22.3539 H   0  0  0  0  0  0
  -28.9374  -20.4177   22.5024 H   0  0  0  0  0  0
  -29.8893  -23.7090   18.1031 H   0  0  0  0  0  0
  -29.0674  -25.2501   18.1028 H   0  0  0  0  0  0
  -28.1370  -23.7773   18.3232 H   0  0  0  0  0  0
  -31.1799  -16.7552   19.3627 H   0  0  0  0  0  0
  -29.5426  -16.5633   18.8502 H   0  0  0  0  0  0
  -28.4544  -25.5164   21.7710 H   0  0  0  0  0  0
  -27.2615  -24.9830   20.6240 H   0  0  0  0  0  0
  -30.2753  -24.7632   20.2876 H   0  0  0  0  0  0
  -29.8533  -22.1374   19.1438 H   0  0  0  0  0  0
  -28.9847  -15.4077   20.9220 H   0  0  0  0  0  0
  1 25  1  0  0  0
  1 30  2  0  0  0
  1 81  1  0  0  0
  2  3  1  0  0  0
  2 25  1  0  0  0
  2 84  1  0  0  0
  2 85  1  0  0  0
  3  4  1  0  0  0
  3 86  1  0  0  0
  3 87  1  0  0  0
  4  5  1  0  0  0
  4 88  1  0  0  0
  4 89  1  0  0  0
  5  6  1  0  0  0
  5 26  1  0  0  0
  5 90  1  0  0  0
  6 25  1  0  0  0
  6 91  1  0  0  0
  6 92  1  0  0  0
  7  8  2  0  0  0
  7 26  1  0  0  0
  7 29  1  0  0  0
  8  9  1  0  0  0
  8 22  1  0  0  0
  9 10  1  0  0  0
  9 27  2  0  0  0
 10 11  2  0  0  0
 10 15  1  0  0  0
 11 12  1  0  0  0
 11 93  1  0  0  0
 12 13  2  0  0  0
 12 94  1  0  0  0
 13 14  1  0  0  0
 13 31  1  0  0  0
 14 15  2  0  0  0
 14 95  1  0  0  0
 15 96  1  0  0  0
 16 17  2  0  0  0
 16 21  1  0  0  0
 16 31  1  0  0  0
 17 18  1  0  0  0
 17 97  1  0  0  0
 18 19  2  0  0  0
 18 98  1  0  0  0
 19 20  1  0  0  0
 19 24  1  0  0  0
 20 21  2  0  0  0
 20 99  1  0  0  0
 21 23  1  0  0  0
 22 28  1  0  0  0
 22 32  2  0  0  0
 26 27  1  0  0  0
 28100  1  0  0  0
 28101  1  0  0  0
 29102  1  0  0  0
 29103  1  0  0  0
 33 34  1  0  0  0
 33 66  1  0  0  0
 33 70  2  0  0  0
 34 36  1  0  0  0
 34 59  1  0  0  0
 34104  1  0  0  0
 35 44  2  0  0  0
 35 45  1  0  0  0
 35 68  1  0  0  0
 36 56  1  0  0  0
 36105  1  0  0  0
 37 39  1  0  0  0
 37 47  1  0  0  0
 37 66  1  0  0  0
 37106  1  0  0  0
 38 43  2  0  0  0
 38 46  1  0  0  0
 38 47  1  0  0  0
 39 64  1  0  0  0
 39 67  2  0  0  0
 40 52  1  0  0  0
 40 53  2  0  0  0
 40 58  1  0  0  0
 41107  1  0  0  0
 41108  1  0  0  0
 41109  1  0  0  0
 41 48  1  0  0  0
 42 43  1  0  0  0
 42 66  1  0  0  0
 42110  1  0  0  0
 42111  1  0  0  0
 43 44  1  0  0  0
 44112  1  0  0  0
 45 46  2  0  0  0
 45113  1  0  0  0
 46114  1  0  0  0
 47115  1  0  0  0
 47116  1  0  0  0
 48 56  1  0  0  0
 48 65  1  0  0  0
 48117  1  0  0  0
 49 50  1  0  0  0
 49 53  1  0  0  0
 49 64  1  0  0  0
 49118  1  0  0  0
 50 51  1  0  0  0
 50119  1  0  0  0
 50120  1  0  0  0
 51 52  1  0  0  0
 51121  1  0  0  0
 51122  1  0  0  0
 52123  1  0  0  0
 52124  1  0  0  0
 53 54  1  0  0  0
 54 55  2  0  0  0
 54125  1  0  0  0
 55 57  1  0  0  0
 55126  1  0  0  0
 56 69  2  0  0  0
 57 58  2  0  0  0
 57127  1  0  0  0
 58128  1  0  0  0
 59 60  1  0  0  0
 59 61  1  0  0  0
 59 62  1  0  0  0
 60129  1  0  0  0
 60130  1  0  0  0
 60131  1  0  0  0
 61132  1  0  0  0
 61133  1  0  0  0
 61134  1  0  0  0
 62135  1  0  0  0
 62136  1  0  0  0
 62137  1  0  0  0
 63 65  1  0  0  0
 63138  1  0  0  0
 63139  1  0  0  0
 63140  1  0  0  0
 64141  1  0  0  0
 65142  1  0  0  0
 68 78  1  0  0  0
 71 72  1  0  0  0
 71 73  2  0  0  0
 71143  1  0  0  0
 72 74  2  0  0  0
 72144  1  0  0  0
 73 77  1  0  0  0
 73 83  1  0  0  0
 74 80  1  0  0  0
 74 83  1  0  0  0
 75 79  1  0  0  0
 75 80  1  0  0  0
 75 82  2  0  0  0
 76145  1  0  0  0
 76146  1  0  0  0
 76147  1  0  0  0
 76 79  1  0  0  0
 77 81  1  0  0  0
 77148  1  0  0  0
 77149  1  0  0  0
 78 79  1  0  0  0
 78150  1  0  0  0
 78151  1  0  0  0
 79152  1  0  0  0
 80153  1  0  0  0
 81154  1  0  0  0
M  ISO  4   1 100  68 101  78 101  81 100
M  END
> <chiral flag>
0

> <version>
0

> <s_m_source_file>
/data/baiqing/PycharmProjects/Reinvent-master-3.2/result/LINK_invent/BTK/process_docking_weight1_custom_product_contain_oxygen_bond_distance_aromatic_linkinvent_7_9_3/rearranged_h_0191.sdf

> <i_m_source_file_index>
60

> <r_mmod_Potential_Energy-OPLS-2005>
-110.90145111084

> <r_mmod_Stretch_Energy-OPLS-2005>
34.1859283447266

> <r_mmod_Bend_Energy-OPLS-2005>
107.297286987305

> <r_mmod_Torsional_Energy-OPLS-2005>
252.185562133789

> <r_mmod_Improper_Torsional_Energy-OPLS-2005>
11.5331029891968

> <r_mmod_Van_der_Waal_Energy-OPLS-2005>
138.95849609375

> <r_mmod_Electrostatic_Energy-OPLS-2005>
-446.154510498047

> <r_mmod_Solvation_Energy-OPLS-2005>
-225.750869750977

> <b_mmod_Minimization_Converged-OPLS-2005>
0

> <r_mmod_RMS_Derivative-OPLS-2005>
0.685455322265625

$$$$
62
                    3D
 Structure written by MMmdl.
165173  0  0  1  0            999 V2000
  -30.6960  -14.5194   20.5464 C   0  0  0  0  0  0
  -30.4180  -12.3297   19.4323 C   0  0  0  0  0  0
  -29.4917  -12.5028   18.2095 C   0  0  0  0  0  0
  -28.0161  -12.3571   18.6227 C   0  0  0  0  0  0
  -27.6524  -13.2156   19.8643 C   0  0  2  0  0  0
  -28.6953  -13.0389   20.9927 C   0  0  0  0  0  0
  -25.2563  -13.8187   20.5717 C   0  0  0  0  0  0
  -24.1820  -13.0463   20.9188 C   0  0  0  0  0  0
  -24.6374  -11.6924   20.8713 C   0  0  0  0  0  0
  -23.9048  -10.4307   21.0409 C   0  0  0  0  0  0
  -24.3608   -9.4220   21.9189 C   0  0  0  0  0  0
  -23.6274   -8.2251   22.0746 C   0  0  0  0  0  0
  -22.4258   -8.0287   21.3529 C   0  0  0  0  0  0
  -21.9905   -9.0271   20.4643 C   0  0  0  0  0  0
  -22.7228  -10.2149   20.3059 C   0  0  0  0  0  0
  -21.6842   -6.0724   22.5266 C   0  0  0  0  0  0
  -21.4014   -6.5634   23.8210 C   0  0  0  0  0  0
  -21.3661   -5.6775   24.9169 C   0  0  0  0  0  0
  -21.6054   -4.3048   24.7208 C   0  0  0  0  0  0
  -21.8820   -3.8126   23.4330 C   0  0  0  0  0  0
  -21.9198   -4.6953   22.3387 C   0  0  0  0  0  0
  -22.7844  -13.5283   21.1860 C   0  0  0  0  0  0
  -22.1664   -4.2136   21.0959 F   0  0  0  0  0  0
  -21.5625   -3.4535   25.7721 F   0  0  0  0  0  0
  -30.0235  -13.3371   20.4308 N   0  0  0  0  0  0
  -26.2979  -12.9366   20.3334 N   0  0  0  0  0  0
  -25.9289  -11.6508   20.5703 N   0  0  0  0  0  0
  -22.0476  -12.8259   22.0410 N   0  0  0  0  0  0
  -25.4353  -15.1904   20.4196 N   0  0  0  0  0  0
  -31.8532  -14.6548   20.1393 O   0  0  0  0  0  0
  -21.6620   -6.8884   21.4233 O   0  0  0  0  0  0
  -22.3554  -14.5598   20.6719 O   0  0  0  0  0  0
  -24.6181  -31.8661   23.2100 C   0  0  0  0  0  0
  -25.9073  -32.4812   23.8387 C   0  0  1  0  0  0
  -27.2233  -27.3982   20.0955 C   0  0  0  0  0  0
  -25.5915  -33.8611   24.2316 N   0  0  0  0  0  0
  -23.4070  -30.4933   21.5506 C   0  0  2  0  0  0
  -24.8532  -28.9666   20.1076 C   0  0  0  0  0  0
  -22.7435  -29.4649   22.4959 C   0  0  0  0  0  0
  -18.0270  -28.1391   22.8474 C   0  0  0  0  0  0
  -24.1485  -36.7309   23.2635 C   0  0  0  0  0  0
  -25.9429  -30.8221   21.3700 C   0  0  0  0  0  0
  -26.0184  -29.4571   20.7106 C   0  0  0  0  0  0
  -27.2066  -28.6813   20.7004 C   0  0  0  0  0  0
  -26.0396  -26.9523   19.4559 C   0  0  0  0  0  0
  -24.8615  -27.7173   19.4745 C   0  0  0  0  0  0
  -23.6161  -29.8352   20.1626 C   0  0  0  0  0  0
  -25.4110  -36.3098   24.0326 C   0  0  1  0  0  0
  -20.5866  -28.3681   23.1299 C   0  0  2  0  0  0
  -20.6771  -26.9411   22.5416 C   0  0  0  0  0  0
  -19.5754  -26.6392   21.5207 C   0  0  0  0  0  0
  -18.1928  -26.7936   22.1611 C   0  0  0  0  0  0
  -19.1525  -28.8853   23.2883 C   0  0  0  0  0  0
  -18.9454  -30.1450   23.8903 C   0  0  0  0  0  0
  -17.6461  -30.6588   24.0574 C   0  0  0  0  0  0
  -25.9039  -34.9465   23.5114 C   0  0  0  0  0  0
  -16.5345  -29.9093   23.6330 C   0  0  0  0  0  0
  -16.7265  -28.6514   23.0340 C   0  0  0  0  0  0
  -26.4494  -31.6589   25.0719 C   0  0  0  0  0  0
  -25.3766  -31.3711   26.1466 C   0  0  0  0  0  0
  -27.0321  -30.3018   24.6116 C   0  0  0  0  0  0
  -27.6062  -32.4318   25.7485 C   0  0  0  0  0  0
  -27.5574  -37.1804   24.8462 C   0  0  0  0  0  0
  -21.4154  -29.3040   22.3702 N   0  0  0  0  0  0
  -26.4289  -37.3789   23.9401 N   0  0  0  0  0  0
  -24.6747  -31.0737   22.1016 N   0  0  0  0  0  0
  -23.4191  -28.8185   23.3001 O   0  0  0  0  0  0
  -28.3577  -26.5908   20.1566 O   0  0  0  0  0  0
  -26.5601  -34.8922   22.4677 O   0  0  0  0  0  0
  -23.5370  -32.1435   23.7468 O   0  0  0  0  0  0
  -29.9485  -19.1792   20.9511 C   0  0  0  0  0  0
  -30.3184  -16.9615   20.9526 C   0  0  0  0  0  0
  -29.0451  -22.5601   18.3325 C   0  0  0  0  0  0
  -28.4248  -23.3177   15.9445 C   0  0  0  0  0  0
  -28.4635  -20.7259   22.3074 C   0  0  0  0  0  0
  -27.5238  -24.9887   21.8095 C   0  0  0  0  0  0
  -28.2259  -23.5138   17.4546 C   0  0  0  0  0  0
  -29.3789  -24.2405   20.2500 C   0  0  0  0  0  0
  -29.0936  -20.4645   20.9258 C   0  0  1  0  0  0
  -28.9842  -22.7627   19.8609 C   0  0  2  0  0  0
  -28.1320  -25.1712   20.4059 C   0  0  2  0  0  0
  -29.3980  -17.9336   20.9237 N   0  0  0  0  0  0
  -31.2966  -19.2105   21.0518 N   0  0  0  0  0  0
  -29.9495  -15.5784   20.9310 N   0  0  0  0  0  0
  -29.8313  -21.6735   20.4417 N   0  3  0  0  0  0
  -29.7234  -21.6635   17.8159 O   0  0  0  0  0  0
  -31.9223  -17.6318   21.0441 S   0  0  0  0  0  0
  -31.4653  -12.4155   19.1357 H   0  0  0  0  0  0
  -30.3059  -11.3291   19.8518 H   0  0  0  0  0  0
  -29.7337  -11.7633   17.4446 H   0  0  0  0  0  0
  -29.6475  -13.4818   17.7549 H   0  0  0  0  0  0
  -27.8360  -11.3032   18.8336 H   0  0  0  0  0  0
  -27.3668  -12.6128   17.7846 H   0  0  0  0  0  0
  -27.6828  -14.2582   19.5437 H   0  0  0  0  0  0
  -28.6688  -12.0159   21.3718 H   0  0  0  0  0  0
  -28.4557  -13.6753   21.8469 H   0  0  0  0  0  0
  -25.2766   -9.5673   22.4767 H   0  0  0  0  0  0
  -23.9973   -7.4642   22.7461 H   0  0  0  0  0  0
  -21.0842   -8.8821   19.8946 H   0  0  0  0  0  0
  -22.3714  -10.9705   19.6165 H   0  0  0  0  0  0
  -21.2011   -7.6141   23.9725 H   0  0  0  0  0  0
  -21.1481   -6.0495   25.9086 H   0  0  0  0  0  0
  -22.0595   -2.7586   23.2822 H   0  0  0  0  0  0
  -22.4066  -11.9888   22.4756 H   0  0  0  0  0  0
  -21.1122  -13.1308   22.2675 H   0  0  0  0  0  0
  -24.6825  -15.8583   20.5486 H   0  0  0  0  0  0
  -26.2925  -15.6185   20.0942 H   0  0  0  0  0  0
  -26.7144  -32.5512   23.1144 H   0  0  0  0  0  0
  -25.0071  -33.9773   25.0458 H   0  0  0  0  0  0
  -22.6974  -31.3116   21.4138 H   0  0  0  0  0  0
  -23.3735  -35.9651   23.3318 H   0  0  0  0  0  0
  -24.3568  -36.8912   22.2043 H   0  0  0  0  0  0
  -23.7251  -37.6523   23.6648 H   0  0  0  0  0  0
  -26.0612  -31.5890   20.6030 H   0  0  0  0  0  0
  -26.8295  -30.8716   21.9902 H   0  0  0  0  0  0
  -28.1003  -29.0475   21.1872 H   0  0  0  0  0  0
  -25.9874  -26.0149   18.9273 H   0  0  0  0  0  0
  -23.9707  -27.3426   18.9884 H   0  0  0  0  0  0
  -23.7266  -30.6147   19.4081 H   0  0  0  0  0  0
  -22.7396  -29.2581   19.8615 H   0  0  0  0  0  0
  -25.1284  -36.1961   25.0819 H   0  0  0  0  0  0
  -20.9949  -28.3259   24.1420 H   0  0  0  0  0  0
  -20.5672  -26.2287   23.3604 H   0  0  0  0  0  0
  -21.6645  -26.7457   22.1208 H   0  0  0  0  0  0
  -19.6927  -25.6306   21.1224 H   0  0  0  0  0  0
  -19.6702  -27.3216   20.6747 H   0  0  0  0  0  0
  -17.4197  -26.6662   21.4020 H   0  0  0  0  0  0
  -18.0342  -26.0081   22.9014 H   0  0  0  0  0  0
  -19.7932  -30.7264   24.2278 H   0  0  0  0  0  0
  -17.5016  -31.6265   24.5186 H   0  0  0  0  0  0
  -15.5352  -30.3009   23.7660 H   0  0  0  0  0  0
  -15.8652  -28.0853   22.7048 H   0  0  0  0  0  0
  -24.5921  -30.7075   25.7810 H   0  0  0  0  0  0
  -24.8980  -32.2878   26.4923 H   0  0  0  0  0  0
  -25.8115  -30.8870   27.0215 H   0  0  0  0  0  0
  -26.2863  -29.6766   24.1187 H   0  0  0  0  0  0
  -27.4097  -29.7265   25.4580 H   0  0  0  0  0  0
  -27.8703  -30.4312   23.9264 H   0  0  0  0  0  0
  -27.2663  -33.3602   26.2082 H   0  0  0  0  0  0
  -28.3857  -32.6903   25.0308 H   0  0  0  0  0  0
  -28.0743  -31.8435   26.5384 H   0  0  0  0  0  0
  -28.2602  -38.0092   24.7495 H   0  0  0  0  0  0
  -28.1058  -36.2619   24.6302 H   0  0  0  0  0  0
  -27.2288  -37.1475   25.8865 H   0  0  0  0  0  0
  -20.9324  -29.8754   21.6912 H   0  0  0  0  0  0
  -26.0173  -38.2861   24.1417 H   0  0  0  0  0  0
  -27.7646  -23.9829   15.3862 H   0  0  0  0  0  0
  -28.2009  -22.2953   15.6358 H   0  0  0  0  0  0
  -29.4496  -23.5493   15.6477 H   0  0  0  0  0  0
  -27.8632  -19.8714   22.6186 H   0  0  0  0  0  0
  -27.8015  -21.5900   22.2962 H   0  0  0  0  0  0
  -29.2184  -20.8963   23.0745 H   0  0  0  0  0  0
  -27.3295  -23.9382   22.0225 H   0  0  0  0  0  0
  -26.5738  -25.5098   21.9183 H   0  0  0  0  0  0
  -28.1975  -25.3631   22.5804 H   0  0  0  0  0  0
  -28.4938  -24.5395   17.7063 H   0  0  0  0  0  0
  -27.1739  -23.3848   17.7089 H   0  0  0  0  0  0
  -30.0515  -24.6566   19.4968 H   0  0  0  0  0  0
  -29.9563  -24.2619   21.1739 H   0  0  0  0  0  0
  -28.2925  -20.2619   20.2117 H   0  0  0  0  0  0
  -27.9585  -22.5900   20.1872 H   0  0  0  0  0  0
  -27.4136  -24.7950   19.6850 H   0  0  0  0  0  0
  -28.9832  -15.3776   21.1294 H   0  0  0  0  0  0
  -30.3969  -21.3669   19.6596 H   0  0  0  0  0  0
  -30.4492  -22.0113   21.1597 H   0  0  0  0  0  0
  1 25  1  0  0  0
  1 30  2  0  0  0
  1 84  1  0  0  0
  2  3  1  0  0  0
  2 25  1  0  0  0
  2 88  1  0  0  0
  2 89  1  0  0  0
  3  4  1  0  0  0
  3 90  1  0  0  0
  3 91  1  0  0  0
  4  5  1  0  0  0
  4 92  1  0  0  0
  4 93  1  0  0  0
  5  6  1  0  0  0
  5 26  1  0  0  0
  5 94  1  0  0  0
  6 25  1  0  0  0
  6 95  1  0  0  0
  6 96  1  0  0  0
  7  8  2  0  0  0
  7 26  1  0  0  0
  7 29  1  0  0  0
  8  9  1  0  0  0
  8 22  1  0  0  0
  9 10  1  0  0  0
  9 27  2  0  0  0
 10 11  2  0  0  0
 10 15  1  0  0  0
 11 12  1  0  0  0
 11 97  1  0  0  0
 12 13  2  0  0  0
 12 98  1  0  0  0
 13 14  1  0  0  0
 13 31  1  0  0  0
 14 15  2  0  0  0
 14 99  1  0  0  0
 15100  1  0  0  0
 16 17  2  0  0  0
 16 21  1  0  0  0
 16 31  1  0  0  0
 17 18  1  0  0  0
 17101  1  0  0  0
 18 19  2  0  0  0
 18102  1  0  0  0
 19 20  1  0  0  0
 19 24  1  0  0  0
 20 21  2  0  0  0
 20103  1  0  0  0
 21 23  1  0  0  0
 22 28  1  0  0  0
 22 32  2  0  0  0
 26 27  1  0  0  0
 28104  1  0  0  0
 28105  1  0  0  0
 29106  1  0  0  0
 29107  1  0  0  0
 33 34  1  0  0  0
 33 66  1  0  0  0
 33 70  2  0  0  0
 34 36  1  0  0  0
 34 59  1  0  0  0
 34108  1  0  0  0
 35 44  2  0  0  0
 35 45  1  0  0  0
 35 68  1  0  0  0
 36 56  1  0  0  0
 36109  1  0  0  0
 37 39  1  0  0  0
 37 47  1  0  0  0
 37 66  1  0  0  0
 37110  1  0  0  0
 38 43  2  0  0  0
 38 46  1  0  0  0
 38 47  1  0  0  0
 39 64  1  0  0  0
 39 67  2  0  0  0
 40 52  1  0  0  0
 40 53  2  0  0  0
 40 58  1  0  0  0
 41111  1  0  0  0
 41112  1  0  0  0
 41113  1  0  0  0
 41 48  1  0  0  0
 42 43  1  0  0  0
 42 66  1  0  0  0
 42114  1  0  0  0
 42115  1  0  0  0
 43 44  1  0  0  0
 44116  1  0  0  0
 45 46  2  0  0  0
 45117  1  0  0  0
 46118  1  0  0  0
 47119  1  0  0  0
 47120  1  0  0  0
 48 56  1  0  0  0
 48 65  1  0  0  0
 48121  1  0  0  0
 49 50  1  0  0  0
 49 53  1  0  0  0
 49 64  1  0  0  0
 49122  1  0  0  0
 50 51  1  0  0  0
 50123  1  0  0  0
 50124  1  0  0  0
 51 52  1  0  0  0
 51125  1  0  0  0
 51126  1  0  0  0
 52127  1  0  0  0
 52128  1  0  0  0
 53 54  1  0  0  0
 54 55  2  0  0  0
 54129  1  0  0  0
 55 57  1  0  0  0
 55130  1  0  0  0
 56 69  2  0  0  0
 57 58  2  0  0  0
 57131  1  0  0  0
 58132  1  0  0  0
 59 60  1  0  0  0
 59 61  1  0  0  0
 59 62  1  0  0  0
 60133  1  0  0  0
 60134  1  0  0  0
 60135  1  0  0  0
 61136  1  0  0  0
 61137  1  0  0  0
 61138  1  0  0  0
 62139  1  0  0  0
 62140  1  0  0  0
 62141  1  0  0  0
 63 65  1  0  0  0
 63142  1  0  0  0
 63143  1  0  0  0
 63144  1  0  0  0
 64145  1  0  0  0
 65146  1  0  0  0
 68 81  1  0  0  0
 71 79  1  0  0  0
 71 82  1  0  0  0
 71 83  2  0  0  0
 72 82  2  0  0  0
 72 84  1  0  0  0
 72 87  1  0  0  0
 73 77  1  0  0  0
 73 80  1  0  0  0
 73 86  2  0  0  0
 74 77  1  0  0  0
 74147  1  0  0  0
 74148  1  0  0  0
 74149  1  0  0  0
 75150  1  0  0  0
 75151  1  0  0  0
 75152  1  0  0  0
 75 79  1  0  0  0
 76153  1  0  0  0
 76154  1  0  0  0
 76155  1  0  0  0
 76 81  1  0  0  0
 77156  1  0  0  0
 77157  1  0  0  0
 78 81  1  0  0  0
 78158  1  0  0  0
 78159  1  0  0  0
 78 80  1  0  0  0
 79 85  1  0  0  0
 79160  1  0  0  0
 80 85  1  0  0  0
 80161  1  0  0  0
 81162  1  0  0  0
 83 87  1  0  0  0
 84163  1  0  0  0
 85164  1  0  0  0
 85165  1  0  0  0
M  CHG  1  85   1
M  ISO  4   1 100  68 101  81 101  84 100
M  END
> <chiral flag>
0

> <version>
0

> <s_m_source_file>
/data/baiqing/PycharmProjects/Reinvent-master-3.2/result/LINK_invent/BTK/process_docking_weight1_custom_product_contain_oxygen_bond_distance_aromatic_linkinvent_7_9_3/rearranged_h_0191.sdf

> <i_m_source_file_index>
61

> <r_mmod_Potential_Energy-OPLS-2005>
-453.951232910156

> <r_mmod_Stretch_Energy-OPLS-2005>
50.1410903930664

> <r_mmod_Bend_Energy-OPLS-2005>
124.008262634277

> <r_mmod_Torsional_Energy-OPLS-2005>
218.155059814453

> <r_mmod_Improper_Torsional_Energy-OPLS-2005>
4.76358366012573

> <r_mmod_Van_der_Waal_Energy-OPLS-2005>
138.250915527344

> <r_mmod_Electrostatic_Energy-OPLS-2005>
-545.700927734375

> <r_mmod_Solvation_Energy-OPLS-2005>
-466.795532226562

> <b_mmod_Minimization_Converged-OPLS-2005>
0

> <r_mmod_RMS_Derivative-OPLS-2005>
3.48506236076355

$$$$
63
                    3D
 Structure written by MMmdl.
155163  0  0  1  0            999 V2000
  -30.5033  -15.0789   20.4715 C   0  0  0  0  0  0
  -30.4580  -12.6943   19.5121 C   0  0  0  0  0  0
  -29.5408  -12.5453   18.2749 C   0  0  0  0  0  0
  -28.0878  -12.2805   18.7056 C   0  0  0  0  0  0
  -27.6294  -13.2461   19.8278 C   0  0  2  0  0  0
  -28.6616  -13.3479   20.9683 C   0  0  0  0  0  0
  -25.2510  -13.8217   20.5738 C   0  0  0  0  0  0
  -24.1806  -13.0482   20.9241 C   0  0  0  0  0  0
  -24.6395  -11.6946   20.8740 C   0  0  0  0  0  0
  -23.9101  -10.4309   21.0422 C   0  0  0  0  0  0
  -24.3634   -9.4215   21.9206 C   0  0  0  0  0  0
  -23.6295   -8.2260   22.0781 C   0  0  0  0  0  0
  -22.4272   -8.0312   21.3577 C   0  0  0  0  0  0
  -21.9906   -9.0300   20.4720 C   0  0  0  0  0  0
  -22.7248  -10.2159   20.3128 C   0  0  0  0  0  0
  -21.6850   -6.0737   22.5261 C   0  0  0  0  0  0
  -21.4024   -6.5626   23.8191 C   0  0  0  0  0  0
  -21.3674   -5.6781   24.9159 C   0  0  0  0  0  0
  -21.6073   -4.3048   24.7196 C   0  0  0  0  0  0
  -21.8829   -3.8150   23.4310 C   0  0  0  0  0  0
  -21.9197   -4.6984   22.3389 C   0  0  0  0  0  0
  -22.7822  -13.5297   21.1844 C   0  0  0  0  0  0
  -22.1691   -4.2181   21.0958 F   0  0  0  0  0  0
  -21.5616   -3.4538   25.7712 F   0  0  0  0  0  0
  -29.9226  -13.8006   20.3652 N   0  0  0  0  0  0
  -26.2889  -12.9444   20.3181 N   0  0  0  0  0  0
  -25.9321  -11.6585   20.5676 N   0  0  0  0  0  0
  -22.0397  -12.8325   22.0373 N   0  0  0  0  0  0
  -25.4213  -15.1956   20.4160 N   0  0  0  0  0  0
  -31.7226  -15.1299   20.2755 O   0  0  0  0  0  0
  -21.6662   -6.8877   21.4223 O   0  0  0  0  0  0
  -22.3549  -14.5591   20.6669 O   0  0  0  0  0  0
  -24.6531  -31.8371   23.1768 C   0  0  0  0  0  0
  -25.9281  -32.4676   23.8214 C   0  0  1  0  0  0
  -27.2508  -27.0700   20.2098 C   0  0  0  0  0  0
  -25.6006  -33.8463   24.2174 N   0  0  0  0  0  0
  -23.4640  -30.4484   21.5198 C   0  0  2  0  0  0
  -24.9241  -28.8573   20.1114 C   0  0  0  0  0  0
  -22.7634  -29.4500   22.4796 C   0  0  0  0  0  0
  -18.0330  -28.1379   22.8427 C   0  0  0  0  0  0
  -24.1509  -36.7252   23.2624 C   0  0  0  0  0  0
  -26.0201  -30.6983   21.3824 C   0  0  0  0  0  0
  -26.0954  -29.2985   20.7384 C   0  0  0  0  0  0
  -27.2488  -28.4212   20.7665 C   0  0  0  0  0  0
  -26.0550  -26.7451   19.5262 C   0  0  0  0  0  0
  -24.9227  -27.5965   19.4852 C   0  0  0  0  0  0
  -23.7012  -29.7648   20.1433 C   0  0  0  0  0  0
  -25.4121  -36.3041   24.0344 C   0  0  1  0  0  0
  -20.5930  -28.3719   23.1210 C   0  0  2  0  0  0
  -20.6779  -26.9382   22.5464 C   0  0  0  0  0  0
  -19.5825  -26.6348   21.5191 C   0  0  0  0  0  0
  -18.1967  -26.7927   22.1530 C   0  0  0  0  0  0
  -19.1576  -28.8853   23.2822 C   0  0  0  0  0  0
  -18.9496  -30.1427   23.8912 C   0  0  0  0  0  0
  -17.6479  -30.6557   24.0543 C   0  0  0  0  0  0
  -25.9087  -34.9416   23.5080 C   0  0  0  0  0  0
  -16.5374  -29.9060   23.6287 C   0  0  0  0  0  0
  -16.7294  -28.6466   23.0316 C   0  0  0  0  0  0
  -26.4527  -31.6547   25.0692 C   0  0  0  0  0  0
  -25.3686  -31.3924   26.1420 C   0  0  0  0  0  0
  -27.0245  -30.2859   24.6346 C   0  0  0  0  0  0
  -27.6155  -32.4224   25.7404 C   0  0  0  0  0  0
  -27.5630  -37.1748   24.8415 C   0  0  0  0  0  0
  -21.4298  -29.3035   22.3567 N   0  0  0  0  0  0
  -26.4285  -37.3768   23.9458 N   0  0  0  0  0  0
  -24.7318  -31.0208   22.0805 N   0  0  0  0  0  0
  -23.4230  -28.8067   23.2992 O   0  0  0  0  0  0
  -28.3123  -26.0832   20.3807 O   0  0  0  0  0  0
  -26.5657  -34.8908   22.4652 O   0  0  0  0  0  0
  -23.5640  -32.1220   23.6999 O   0  0  0  0  0  0
  -30.5931  -18.5218   21.6783 C   0  0  0  0  0  0
  -29.8016  -17.8182   20.7040 C   0  0  0  0  0  0
  -31.2644  -23.3541   21.5318 C   0  0  0  0  0  0
  -27.4242  -22.8458   21.7507 C   0  0  0  0  0  0
  -29.7938  -23.4632   21.9624 C   0  0  0  0  0  0
  -29.0486  -21.5744   20.1443 C   0  0  0  0  0  0
  -28.3511  -24.5381   19.9995 C   0  0  0  0  0  0
  -28.7004  -23.0976   20.9110 C   0  0  1  0  0  0
  -30.3847  -19.8496   21.6685 N   0  0  0  0  0  0
  -29.0761  -18.8264   20.1235 N   0  0  0  0  0  0
  -29.4222  -20.0986   20.7175 N   0  0  0  0  0  0
  -29.6819  -16.2691   20.4981 N   0  0  0  0  0  0
  -31.4762  -12.9048   19.1825 H   0  0  0  0  0  0
  -30.5112  -11.7586   20.0697 H   0  0  0  0  0  0
  -29.8955  -11.7368   17.6356 H   0  0  0  0  0  0
  -29.5902  -13.4583   17.6780 H   0  0  0  0  0  0
  -28.0428  -11.2498   19.0654 H   0  0  0  0  0  0
  -27.4214  -12.3399   17.8435 H   0  0  0  0  0  0
  -27.5754  -14.2247   19.3521 H   0  0  0  0  0  0
  -28.7771  -12.3999   21.4939 H   0  0  0  0  0  0
  -28.3237  -14.0791   21.7062 H   0  0  0  0  0  0
  -25.2786   -9.5717   22.4764 H   0  0  0  0  0  0
  -24.0053   -7.4656   22.7493 H   0  0  0  0  0  0
  -21.0820   -8.8828   19.9003 H   0  0  0  0  0  0
  -22.3702  -10.9715   19.6259 H   0  0  0  0  0  0
  -21.1995   -7.6130   23.9700 H   0  0  0  0  0  0
  -21.1522   -6.0506   25.9056 H   0  0  0  0  0  0
  -22.0595   -2.7613   23.2804 H   0  0  0  0  0  0
  -22.3979  -12.0020   22.4844 H   0  0  0  0  0  0
  -21.1071  -13.1494   22.2596 H   0  0  0  0  0  0
  -24.6597  -15.8534   20.5495 H   0  0  0  0  0  0
  -26.2599  -15.6350   20.0608 H   0  0  0  0  0  0
  -26.7392  -32.5280   23.0976 H   0  0  0  0  0  0
  -25.0136  -33.9511   25.0324 H   0  0  0  0  0  0
  -22.7745  -31.2773   21.3540 H   0  0  0  0  0  0
  -23.3809  -35.9537   23.3162 H   0  0  0  0  0  0
  -24.3633  -36.8964   22.2056 H   0  0  0  0  0  0
  -23.7168  -37.6396   23.6680 H   0  0  0  0  0  0
  -26.1862  -31.4448   20.6044 H   0  0  0  0  0  0
  -26.8894  -30.7581   22.0261 H   0  0  0  0  0  0
  -28.1342  -28.7532   21.2882 H   0  0  0  0  0  0
  -25.9522  -25.7739   19.0665 H   0  0  0  0  0  0
  -24.0274  -27.2515   18.9886 H   0  0  0  0  0  0
  -23.8543  -30.5340   19.3840 H   0  0  0  0  0  0
  -22.8155  -29.2112   19.8272 H   0  0  0  0  0  0
  -25.1286  -36.1867   25.0831 H   0  0  0  0  0  0
  -21.0025  -28.3325   24.1320 H   0  0  0  0  0  0
  -20.5479  -26.2337   23.3694 H   0  0  0  0  0  0
  -21.6671  -26.7253   22.1410 H   0  0  0  0  0  0
  -19.6970  -25.6242   21.1254 H   0  0  0  0  0  0
  -19.6819  -27.3109   20.6686 H   0  0  0  0  0  0
  -17.4261  -26.6685   21.3897 H   0  0  0  0  0  0
  -18.0307  -26.0048   22.8891 H   0  0  0  0  0  0
  -19.7970  -30.7216   24.2294 H   0  0  0  0  0  0
  -17.5037  -31.6228   24.5180 H   0  0  0  0  0  0
  -15.5363  -30.2971   23.7607 H   0  0  0  0  0  0
  -15.8682  -28.0775   22.7063 H   0  0  0  0  0  0
  -24.5999  -30.7008   25.7946 H   0  0  0  0  0  0
  -24.8675  -32.3127   26.4431 H   0  0  0  0  0  0
  -25.7992  -30.9555   27.0433 H   0  0  0  0  0  0
  -26.2796  -29.6664   24.1320 H   0  0  0  0  0  0
  -27.3662  -29.7148   25.4989 H   0  0  0  0  0  0
  -27.8842  -30.3943   23.9728 H   0  0  0  0  0  0
  -27.2857  -33.3525   26.2027 H   0  0  0  0  0  0
  -28.3908  -32.6734   25.0161 H   0  0  0  0  0  0
  -28.0862  -31.8277   26.5233 H   0  0  0  0  0  0
  -28.2621  -38.0084   24.7572 H   0  0  0  0  0  0
  -28.1162  -36.2641   24.6050 H   0  0  0  0  0  0
  -27.2420  -37.1200   25.8832 H   0  0  0  0  0  0
  -20.9520  -29.8752   21.6750 H   0  0  0  0  0  0
  -26.0171  -38.2850   24.1475 H   0  0  0  0  0  0
  -31.2798  -18.1005   22.4088 H   0  0  0  0  0  0
  -31.9101  -23.7753   22.3080 H   0  0  0  0  0  0
  -31.4746  -23.8900   20.6061 H   0  0  0  0  0  0
  -31.5574  -22.3125   21.4053 H   0  0  0  0  0  0
  -27.4730  -21.8837   22.2632 H   0  0  0  0  0  0
  -26.5229  -22.8378   21.1390 H   0  0  0  0  0  0
  -27.2795  -23.6054   22.5198 H   0  0  0  0  0  0
  -29.6138  -24.4822   22.3119 H   0  0  0  0  0  0
  -29.6835  -22.8411   22.8540 H   0  0  0  0  0  0
  -29.8605  -21.7907   19.4469 H   0  0  0  0  0  0
  -28.1948  -21.3972   19.4900 H   0  0  0  0  0  0
  -27.4497  -24.3122   19.4361 H   0  0  0  0  0  0
  -29.1209  -24.5367   19.2273 H   0  0  0  0  0  0
  -28.7387  -16.0169   20.2506 H   0  0  0  0  0  0
  1 25  1  0  0  0
  1 30  2  0  0  0
  1 82  1  0  0  0
  2  3  1  0  0  0
  2 25  1  0  0  0
  2 83  1  0  0  0
  2 84  1  0  0  0
  3  4  1  0  0  0
  3 85  1  0  0  0
  3 86  1  0  0  0
  4  5  1  0  0  0
  4 87  1  0  0  0
  4 88  1  0  0  0
  5  6  1  0  0  0
  5 26  1  0  0  0
  5 89  1  0  0  0
  6 25  1  0  0  0
  6 90  1  0  0  0
  6 91  1  0  0  0
  7  8  2  0  0  0
  7 26  1  0  0  0
  7 29  1  0  0  0
  8  9  1  0  0  0
  8 22  1  0  0  0
  9 10  1  0  0  0
  9 27  2  0  0  0
 10 11  2  0  0  0
 10 15  1  0  0  0
 11 12  1  0  0  0
 11 92  1  0  0  0
 12 13  2  0  0  0
 12 93  1  0  0  0
 13 14  1  0  0  0
 13 31  1  0  0  0
 14 15  2  0  0  0
 14 94  1  0  0  0
 15 95  1  0  0  0
 16 17  2  0  0  0
 16 21  1  0  0  0
 16 31  1  0  0  0
 17 18  1  0  0  0
 17 96  1  0  0  0
 18 19  2  0  0  0
 18 97  1  0  0  0
 19 20  1  0  0  0
 19 24  1  0  0  0
 20 21  2  0  0  0
 20 98  1  0  0  0
 21 23  1  0  0  0
 22 28  1  0  0  0
 22 32  2  0  0  0
 26 27  1  0  0  0
 28 99  1  0  0  0
 28100  1  0  0  0
 29101  1  0  0  0
 29102  1  0  0  0
 33 34  1  0  0  0
 33 66  1  0  0  0
 33 70  2  0  0  0
 34 36  1  0  0  0
 34 59  1  0  0  0
 34103  1  0  0  0
 35 44  2  0  0  0
 35 45  1  0  0  0
 35 68  1  0  0  0
 36 56  1  0  0  0
 36104  1  0  0  0
 37 39  1  0  0  0
 37 47  1  0  0  0
 37 66  1  0  0  0
 37105  1  0  0  0
 38 43  2  0  0  0
 38 46  1  0  0  0
 38 47  1  0  0  0
 39 64  1  0  0  0
 39 67  2  0  0  0
 40 52  1  0  0  0
 40 53  2  0  0  0
 40 58  1  0  0  0
 41106  1  0  0  0
 41107  1  0  0  0
 41108  1  0  0  0
 41 48  1  0  0  0
 42 43  1  0  0  0
 42 66  1  0  0  0
 42109  1  0  0  0
 42110  1  0  0  0
 43 44  1  0  0  0
 44111  1  0  0  0
 45 46  2  0  0  0
 45112  1  0  0  0
 46113  1  0  0  0
 47114  1  0  0  0
 47115  1  0  0  0
 48 56  1  0  0  0
 48 65  1  0  0  0
 48116  1  0  0  0
 49 50  1  0  0  0
 49 53  1  0  0  0
 49 64  1  0  0  0
 49117  1  0  0  0
 50 51  1  0  0  0
 50118  1  0  0  0
 50119  1  0  0  0
 51 52  1  0  0  0
 51120  1  0  0  0
 51121  1  0  0  0
 52122  1  0  0  0
 52123  1  0  0  0
 53 54  1  0  0  0
 54 55  2  0  0  0
 54124  1  0  0  0
 55 57  1  0  0  0
 55125  1  0  0  0
 56 69  2  0  0  0
 57 58  2  0  0  0
 57126  1  0  0  0
 58127  1  0  0  0
 59 60  1  0  0  0
 59 61  1  0  0  0
 59 62  1  0  0  0
 60128  1  0  0  0
 60129  1  0  0  0
 60130  1  0  0  0
 61131  1  0  0  0
 61132  1  0  0  0
 61133  1  0  0  0
 62134  1  0  0  0
 62135  1  0  0  0
 62136  1  0  0  0
 63 65  1  0  0  0
 63137  1  0  0  0
 63138  1  0  0  0
 63139  1  0  0  0
 64140  1  0  0  0
 65141  1  0  0  0
 68 77  1  0  0  0
 71 72  1  0  0  0
 71 79  2  0  0  0
 71142  1  0  0  0
 72 80  2  0  0  0
 72 82  1  0  0  0
 73 75  1  0  0  0
 73143  1  0  0  0
 73144  1  0  0  0
 73145  1  0  0  0
 74146  1  0  0  0
 74147  1  0  0  0
 74148  1  0  0  0
 74 78  1  0  0  0
 75 78  1  0  0  0
 75149  1  0  0  0
 75150  1  0  0  0
 76 78  1  0  0  0
 76 81  1  0  0  0
 76151  1  0  0  0
 76152  1  0  0  0
 77 78  1  0  0  0
 77153  1  0  0  0
 77154  1  0  0  0
 79 81  1  0  0  0
 80 81  1  0  0  0
 82155  1  0  0  0
M  ISO  4   1 100  68 101  77 101  82 100
M  END
> <chiral flag>
0

> <version>
0

> <s_m_source_file>
/data/baiqing/PycharmProjects/Reinvent-master-3.2/result/LINK_invent/BTK/process_docking_weight1_custom_product_contain_oxygen_bond_distance_aromatic_linkinvent_7_9_3/rearranged_h_0191.sdf

> <i_m_source_file_index>
62

> <r_mmod_Potential_Energy-OPLS-2005>
781.802307128906

> <r_mmod_Stretch_Energy-OPLS-2005>
362.022338867188

> <r_mmod_Bend_Energy-OPLS-2005>
355.361633300781

> <r_mmod_Torsional_Energy-OPLS-2005>
248.333251953125

> <r_mmod_Improper_Torsional_Energy-OPLS-2005>
9.94146728515625

> <r_mmod_Van_der_Waal_Energy-OPLS-2005>
99.9809799194336

> <r_mmod_Electrostatic_Energy-OPLS-2005>
-365.694549560547

> <r_mmod_Solvation_Energy-OPLS-2005>
-214.572509765625

> <b_mmod_Minimization_Converged-OPLS-2005>
0

> <r_mmod_RMS_Derivative-OPLS-2005>
7.07878589630127

$$$$
64
                    3D
 Structure written by MMmdl.
171179  0  0  1  0            999 V2000
  -30.6240  -14.5817   20.5709 C   0  0  0  0  0  0
  -30.4517  -12.3743   19.4305 C   0  0  0  0  0  0
  -29.5091  -12.5289   18.2163 C   0  0  0  0  0  0
  -28.0324  -12.3572   18.6304 C   0  0  0  0  0  0
  -27.6619  -13.2039   19.8754 C   0  0  2  0  0  0
  -28.7067  -12.9881   20.9941 C   0  0  0  0  0  0
  -25.2582  -13.8142   20.5672 C   0  0  0  0  0  0
  -24.1833  -13.0427   20.9177 C   0  0  0  0  0  0
  -24.6388  -11.6893   20.8716 C   0  0  0  0  0  0
  -23.9041  -10.4269   21.0393 C   0  0  0  0  0  0
  -24.3578   -9.4187   21.9181 C   0  0  0  0  0  0
  -23.6258   -8.2224   22.0756 C   0  0  0  0  0  0
  -22.4257   -8.0252   21.3535 C   0  0  0  0  0  0
  -21.9871   -9.0218   20.4638 C   0  0  0  0  0  0
  -22.7199  -10.2107   20.3038 C   0  0  0  0  0  0
  -21.6849   -6.0694   22.5261 C   0  0  0  0  0  0
  -21.4011   -6.5608   23.8186 C   0  0  0  0  0  0
  -21.3663   -5.6773   24.9153 C   0  0  0  0  0  0
  -21.6051   -4.3038   24.7217 C   0  0  0  0  0  0
  -21.8822   -3.8114   23.4345 C   0  0  0  0  0  0
  -21.9193   -4.6917   22.3397 C   0  0  0  0  0  0
  -22.7852  -13.5200   21.1848 C   0  0  0  0  0  0
  -22.1659   -4.2107   21.0970 F   0  0  0  0  0  0
  -21.5641   -3.4524   25.7736 F   0  0  0  0  0  0
  -30.0324  -13.3510   20.4531 N   0  0  0  0  0  0
  -26.3024  -12.9301   20.3338 N   0  0  0  0  0  0
  -25.9323  -11.6474   20.5752 N   0  0  0  0  0  0
  -22.0465  -12.8194   22.0395 N   0  0  0  0  0  0
  -25.4292  -15.1857   20.4074 N   0  0  0  0  0  0
  -31.7501  -14.8113   20.1140 O   0  0  0  0  0  0
  -21.6632   -6.8845   21.4221 O   0  0  0  0  0  0
  -22.3534  -14.5509   20.6701 O   0  0  0  0  0  0
  -24.6191  -31.8685   23.1974 C   0  0  0  0  0  0
  -25.9050  -32.4838   23.8320 C   0  0  1  0  0  0
  -27.2325  -27.3861   20.0999 C   0  0  0  0  0  0
  -25.5935  -33.8635   24.2277 N   0  0  0  0  0  0
  -23.4090  -30.4877   21.5423 C   0  0  2  0  0  0
  -24.8502  -28.9389   20.1121 C   0  0  0  0  0  0
  -22.7451  -29.4660   22.4923 C   0  0  0  0  0  0
  -18.0317  -28.1413   22.8502 C   0  0  0  0  0  0
  -24.1514  -36.7284   23.2645 C   0  0  0  0  0  0
  -25.9393  -30.8223   21.3430 C   0  0  0  0  0  0
  -26.0171  -29.4503   20.6946 C   0  0  0  0  0  0
  -27.2143  -28.6884   20.6687 C   0  0  0  0  0  0
  -26.0396  -26.8940   19.5279 C   0  0  0  0  0  0
  -24.8548  -27.6583   19.5304 C   0  0  0  0  0  0
  -23.6166  -29.8169   20.1596 C   0  0  0  0  0  0
  -25.4141  -36.3081   24.0334 C   0  0  1  0  0  0
  -20.5901  -28.3714   23.1304 C   0  0  2  0  0  0
  -20.6817  -26.9432   22.5432 C   0  0  0  0  0  0
  -19.5805  -26.6374   21.5231 C   0  0  0  0  0  0
  -18.1970  -26.7963   22.1619 C   0  0  0  0  0  0
  -19.1560  -28.8858   23.2906 C   0  0  0  0  0  0
  -18.9499  -30.1468   23.8911 C   0  0  0  0  0  0
  -17.6510  -30.6590   24.0584 C   0  0  0  0  0  0
  -25.9058  -34.9485   23.5064 C   0  0  0  0  0  0
  -16.5383  -29.9128   23.6329 C   0  0  0  0  0  0
  -16.7307  -28.6556   23.0306 C   0  0  0  0  0  0
  -26.4470  -31.6605   25.0643 C   0  0  0  0  0  0
  -25.3769  -31.3709   26.1396 C   0  0  0  0  0  0
  -27.0259  -30.3078   24.5899 C   0  0  0  0  0  0
  -27.5989  -32.4381   25.7448 C   0  0  0  0  0  0
  -27.5590  -37.1797   24.8477 C   0  0  0  0  0  0
  -21.4160  -29.3041   22.3666 N   0  0  0  0  0  0
  -26.4307  -37.3770   23.9423 N   0  0  0  0  0  0
  -24.6763  -31.0749   22.0891 N   0  0  0  0  0  0
  -23.4190  -28.8232   23.2987 O   0  0  0  0  0  0
  -28.3869  -26.6161   20.0823 O   0  0  0  0  0  0
  -26.5584  -34.8954   22.4606 O   0  0  0  0  0  0
  -23.5360  -32.1447   23.7320 O   0  0  0  0  0  0
  -30.0380  -19.1355   21.2243 C   0  0  0  0  0  0
  -29.0072  -18.8147   22.0659 C   0  0  0  0  0  0
  -29.7882  -16.9432   21.2626 C   0  0  0  0  0  0
  -28.1406  -19.6605   22.9406 C   0  0  0  0  0  0
  -32.6995  -21.6324   23.1390 C   0  0  0  0  0  0
  -34.4871  -20.7573   21.6654 C   0  0  0  0  0  0
  -32.9302  -19.1516   22.7835 C   0  0  0  0  0  0
  -29.7971  -21.5253   20.0546 C   0  0  0  0  0  0
  -29.1380  -22.7958   20.7291 C   0  0  0  0  0  0
  -32.1228  -20.6291   20.8449 C   0  0  0  0  0  0
  -28.2875  -25.2806   20.6514 C   0  0  0  0  0  0
  -30.5806  -20.5626   21.0302 C   0  0  2  0  0  0
  -28.9924  -24.1080   19.8711 C   0  0  2  0  0  0
  -33.0283  -20.5313   22.1101 C   0  0  0  0  0  0
  -30.4983  -17.9225   20.6523 N   0  0  0  0  0  0
  -29.8250  -15.5096   21.1515 N   0  0  0  0  0  0
  -28.8417  -17.4566   22.0973 O   0  0  0  0  0  0
  -28.2547  -23.7981   18.6949 O   0  0  0  0  0  0
  -31.4888  -12.5183   19.1259 H   0  0  0  0  0  0
  -30.4028  -11.3591   19.8294 H   0  0  0  0  0  0
  -29.7680  -11.8083   17.4387 H   0  0  0  0  0  0
  -29.6480  -13.5146   17.7712 H   0  0  0  0  0  0
  -27.8698  -11.3008   18.8477 H   0  0  0  0  0  0
  -27.3724  -12.5983   17.7970 H   0  0  0  0  0  0
  -27.7008  -14.2488   19.5707 H   0  0  0  0  0  0
  -28.7107  -11.9430   21.3047 H   0  0  0  0  0  0
  -28.4450  -13.5451   21.8948 H   0  0  0  0  0  0
  -25.2732   -9.5668   22.4772 H   0  0  0  0  0  0
  -23.9951   -7.4617   22.7499 H   0  0  0  0  0  0
  -21.0798   -8.8729   19.8958 H   0  0  0  0  0  0
  -22.3647  -10.9633   19.6136 H   0  0  0  0  0  0
  -21.1997   -7.6123   23.9676 H   0  0  0  0  0  0
  -21.1494   -6.0511   25.9065 H   0  0  0  0  0  0
  -22.0609   -2.7575   23.2852 H   0  0  0  0  0  0
  -22.4045  -11.9808   22.4736 H   0  0  0  0  0  0
  -21.1098  -13.1238   22.2604 H   0  0  0  0  0  0
  -24.6610  -15.8387   20.5287 H   0  0  0  0  0  0
  -26.2648  -15.6244   20.0415 H   0  0  0  0  0  0
  -26.7101  -32.5502   23.1079 H   0  0  0  0  0  0
  -25.0249  -33.9860   25.0507 H   0  0  0  0  0  0
  -22.6954  -31.3022   21.3958 H   0  0  0  0  0  0
  -23.3786  -35.9600   23.3304 H   0  0  0  0  0  0
  -24.3614  -36.8893   22.2053 H   0  0  0  0  0  0
  -23.7268  -37.6492   23.6672 H   0  0  0  0  0  0
  -26.0364  -31.5760   20.5584 H   0  0  0  0  0  0
  -26.8359  -30.8879   21.9474 H   0  0  0  0  0  0
  -28.1232  -29.0895   21.0937 H   0  0  0  0  0  0
  -26.0160  -25.9066   19.0874 H   0  0  0  0  0  0
  -23.9536  -27.2469   19.0997 H   0  0  0  0  0  0
  -23.7307  -30.5964   19.4023 H   0  0  0  0  0  0
  -22.7387  -29.2458   19.8558 H   0  0  0  0  0  0
  -25.1302  -36.1905   25.0828 H   0  0  0  0  0  0
  -21.0045  -28.3264   24.1400 H   0  0  0  0  0  0
  -20.5766  -26.2287   23.3619 H   0  0  0  0  0  0
  -21.6688  -26.7498   22.1173 H   0  0  0  0  0  0
  -19.6994  -25.6281   21.1272 H   0  0  0  0  0  0
  -19.6804  -27.3183   20.6772 H   0  0  0  0  0  0
  -17.4285  -26.6761   21.3964 H   0  0  0  0  0  0
  -18.0324  -26.0086   22.8995 H   0  0  0  0  0  0
  -19.7960  -30.7277   24.2252 H   0  0  0  0  0  0
  -17.5065  -31.6273   24.5214 H   0  0  0  0  0  0
  -15.5387  -30.3046   23.7637 H   0  0  0  0  0  0
  -15.8701  -28.0905   22.6956 H   0  0  0  0  0  0
  -24.6007  -30.6955   25.7788 H   0  0  0  0  0  0
  -24.8895  -32.2847   26.4791 H   0  0  0  0  0  0
  -25.8176  -30.8995   27.0181 H   0  0  0  0  0  0
  -26.2709  -29.6895   24.1018 H   0  0  0  0  0  0
  -27.4166  -29.7240   25.4241 H   0  0  0  0  0  0
  -27.8501  -30.4470   23.8900 H   0  0  0  0  0  0
  -27.2546  -33.3731   26.1897 H   0  0  0  0  0  0
  -28.3871  -32.6882   25.0329 H   0  0  0  0  0  0
  -28.0550  -31.8597   26.5486 H   0  0  0  0  0  0
  -28.2544  -38.0139   24.7461 H   0  0  0  0  0  0
  -28.1108  -36.2630   24.6321 H   0  0  0  0  0  0
  -27.2277  -37.1441   25.8871 H   0  0  0  0  0  0
  -20.9281  -29.8756   21.6907 H   0  0  0  0  0  0
  -26.0159  -38.2829   24.1449 H   0  0  0  0  0  0
  -28.7325  -20.1348   23.7242 H   0  0  0  0  0  0
  -27.3520  -19.0776   23.4148 H   0  0  0  0  0  0
  -27.6727  -20.4568   22.3615 H   0  0  0  0  0  0
  -33.4275  -21.6451   23.9521 H   0  0  0  0  0  0
  -31.7267  -21.4953   23.6086 H   0  0  0  0  0  0
  -32.7135  -22.6189   22.6756 H   0  0  0  0  0  0
  -35.1769  -20.7332   22.5113 H   0  0  0  0  0  0
  -34.6103  -21.7293   21.1862 H   0  0  0  0  0  0
  -34.8114  -19.9968   20.9555 H   0  0  0  0  0  0
  -33.6520  -19.0546   23.5965 H   0  0  0  0  0  0
  -33.1268  -18.3484   22.0731 H   0  0  0  0  0  0
  -31.9436  -18.9799   23.2133 H   0  0  0  0  0  0
  -30.4818  -21.8746   19.2790 H   0  0  0  0  0  0
  -29.0307  -20.9730   19.5092 H   0  0  0  0  0  0
  -29.7140  -23.0732   21.6185 H   0  0  0  0  0  0
  -28.1567  -22.5009   21.1143 H   0  0  0  0  0  0
  -32.3616  -21.5919   20.3950 H   0  0  0  0  0  0
  -32.4282  -19.8930   20.0973 H   0  0  0  0  0  0
  -28.7815  -25.3659   21.6224 H   0  0  0  0  0  0
  -27.2607  -25.0045   20.8947 H   0  0  0  0  0  0
  -30.4109  -21.0283   21.9950 H   0  0  0  0  0  0
  -29.9920  -24.4330   19.5728 H   0  0  0  0  0  0
  -29.0138  -15.0814   21.5651 H   0  0  0  0  0  0
  -27.3599  -23.5842   18.9425 H   0  0  0  0  0  0
  1 25  1  0  0  0
  1 30  2  0  0  0
  1 86  1  0  0  0
  2  3  1  0  0  0
  2 25  1  0  0  0
  2 89  1  0  0  0
  2 90  1  0  0  0
  3  4  1  0  0  0
  3 91  1  0  0  0
  3 92  1  0  0  0
  4  5  1  0  0  0
  4 93  1  0  0  0
  4 94  1  0  0  0
  5  6  1  0  0  0
  5 26  1  0  0  0
  5 95  1  0  0  0
  6 25  1  0  0  0
  6 96  1  0  0  0
  6 97  1  0  0  0
  7  8  2  0  0  0
  7 26  1  0  0  0
  7 29  1  0  0  0
  8  9  1  0  0  0
  8 22  1  0  0  0
  9 10  1  0  0  0
  9 27  2  0  0  0
 10 11  2  0  0  0
 10 15  1  0  0  0
 11 12  1  0  0  0
 11 98  1  0  0  0
 12 13  2  0  0  0
 12 99  1  0  0  0
 13 14  1  0  0  0
 13 31  1  0  0  0
 14 15  2  0  0  0
 14100  1  0  0  0
 15101  1  0  0  0
 16 17  2  0  0  0
 16 21  1  0  0  0
 16 31  1  0  0  0
 17 18  1  0  0  0
 17102  1  0  0  0
 18 19  2  0  0  0
 18103  1  0  0  0
 19 20  1  0  0  0
 19 24  1  0  0  0
 20 21  2  0  0  0
 20104  1  0  0  0
 21 23  1  0  0  0
 22 28  1  0  0  0
 22 32  2  0  0  0
 26 27  1  0  0  0
 28105  1  0  0  0
 28106  1  0  0  0
 29107  1  0  0  0
 29108  1  0  0  0
 33 34  1  0  0  0
 33 66  1  0  0  0
 33 70  2  0  0  0
 34 36  1  0  0  0
 34 59  1  0  0  0
 34109  1  0  0  0
 35 44  2  0  0  0
 35 45  1  0  0  0
 35 68  1  0  0  0
 36 56  1  0  0  0
 36110  1  0  0  0
 37 39  1  0  0  0
 37 47  1  0  0  0
 37 66  1  0  0  0
 37111  1  0  0  0
 38 43  2  0  0  0
 38 46  1  0  0  0
 38 47  1  0  0  0
 39 64  1  0  0  0
 39 67  2  0  0  0
 40 52  1  0  0  0
 40 53  2  0  0  0
 40 58  1  0  0  0
 41112  1  0  0  0
 41113  1  0  0  0
 41114  1  0  0  0
 41 48  1  0  0  0
 42 43  1  0  0  0
 42 66  1  0  0  0
 42115  1  0  0  0
 42116  1  0  0  0
 43 44  1  0  0  0
 44117  1  0  0  0
 45 46  2  0  0  0
 45118  1  0  0  0
 46119  1  0  0  0
 47120  1  0  0  0
 47121  1  0  0  0
 48 56  1  0  0  0
 48 65  1  0  0  0
 48122  1  0  0  0
 49 50  1  0  0  0
 49 53  1  0  0  0
 49 64  1  0  0  0
 49123  1  0  0  0
 50 51  1  0  0  0
 50124  1  0  0  0
 50125  1  0  0  0
 51 52  1  0  0  0
 51126  1  0  0  0
 51127  1  0  0  0
 52128  1  0  0  0
 52129  1  0  0  0
 53 54  1  0  0  0
 54 55  2  0  0  0
 54130  1  0  0  0
 55 57  1  0  0  0
 55131  1  0  0  0
 56 69  2  0  0  0
 57 58  2  0  0  0
 57132  1  0  0  0
 58133  1  0  0  0
 59 60  1  0  0  0
 59 61  1  0  0  0
 59 62  1  0  0  0
 60134  1  0  0  0
 60135  1  0  0  0
 60136  1  0  0  0
 61137  1  0  0  0
 61138  1  0  0  0
 61139  1  0  0  0
 62140  1  0  0  0
 62141  1  0  0  0
 62142  1  0  0  0
 63 65  1  0  0  0
 63143  1  0  0  0
 63144  1  0  0  0
 63145  1  0  0  0
 64146  1  0  0  0
 65147  1  0  0  0
 68 81  1  0  0  0
 71 72  2  0  0  0
 71 82  1  0  0  0
 71 85  1  0  0  0
 72 74  1  0  0  0
 72 87  1  0  0  0
 73 85  2  0  0  0
 73 86  1  0  0  0
 73 87  1  0  0  0
 74148  1  0  0  0
 74149  1  0  0  0
 74150  1  0  0  0
 75151  1  0  0  0
 75152  1  0  0  0
 75153  1  0  0  0
 75 84  1  0  0  0
 76 84  1  0  0  0
 76154  1  0  0  0
 76155  1  0  0  0
 76156  1  0  0  0
 77 84  1  0  0  0
 77157  1  0  0  0
 77158  1  0  0  0
 77159  1  0  0  0
 78 79  1  0  0  0
 78160  1  0  0  0
 78161  1  0  0  0
 78 82  1  0  0  0
 79 83  1  0  0  0
 79162  1  0  0  0
 79163  1  0  0  0
 80 82  1  0  0  0
 80 84  1  0  0  0
 80164  1  0  0  0
 80165  1  0  0  0
 81 83  1  0  0  0
 81166  1  0  0  0
 81167  1  0  0  0
 82168  1  0  0  0
 83 88  1  0  0  0
 83169  1  0  0  0
 86170  1  0  0  0
 88171  1  0  0  0
M  ISO  4   1 100  68 101  81 101  86 100
M  END
> <chiral flag>
0

> <version>
0

> <s_m_source_file>
/data/baiqing/PycharmProjects/Reinvent-master-3.2/result/LINK_invent/BTK/process_docking_weight1_custom_product_contain_oxygen_bond_distance_aromatic_linkinvent_7_9_3/rearranged_h_0191.sdf

> <i_m_source_file_index>
63

> <r_mmod_Potential_Energy-OPLS-2005>
-34.0158424377441

> <r_mmod_Stretch_Energy-OPLS-2005>
56.7873001098633

> <r_mmod_Bend_Energy-OPLS-2005>
167.476455688477

> <r_mmod_Torsional_Energy-OPLS-2005>
253.022689819336

> <r_mmod_Improper_Torsional_Energy-OPLS-2005>
2.8146231174469

> <r_mmod_Van_der_Waal_Energy-OPLS-2005>
119.07105255127

> <r_mmod_Electrostatic_Energy-OPLS-2005>
-424.836975097656

> <r_mmod_Solvation_Energy-OPLS-2005>
-235.427917480469

> <b_mmod_Minimization_Converged-OPLS-2005>
0

> <r_mmod_RMS_Derivative-OPLS-2005>
4.97264528274536

$$$$
65
                    3D
 Structure written by MMmdl.
164172  0  0  1  0            999 V2000
  -30.7214  -14.4331   20.6051 C   0  0  0  0  0  0
  -30.4218  -12.2928   19.4153 C   0  0  0  0  0  0
  -29.4914  -12.5107   18.2053 C   0  0  0  0  0  0
  -28.0125  -12.3769   18.6178 C   0  0  0  0  0  0
  -27.6662  -13.2050   19.8838 C   0  0  2  0  0  0
  -28.7063  -12.9604   21.0005 C   0  0  0  0  0  0
  -25.2604  -13.8168   20.5698 C   0  0  0  0  0  0
  -24.1853  -13.0451   20.9198 C   0  0  0  0  0  0
  -24.6398  -11.6914   20.8757 C   0  0  0  0  0  0
  -23.9072  -10.4299   21.0424 C   0  0  0  0  0  0
  -24.3624   -9.4212   21.9198 C   0  0  0  0  0  0
  -23.6303   -8.2246   22.0754 C   0  0  0  0  0  0
  -22.4283   -8.0289   21.3547 C   0  0  0  0  0  0
  -21.9925   -9.0268   20.4649 C   0  0  0  0  0  0
  -22.7251  -10.2147   20.3066 C   0  0  0  0  0  0
  -21.6852   -6.0751   22.5288 C   0  0  0  0  0  0
  -21.4010   -6.5652   23.8227 C   0  0  0  0  0  0
  -21.3654   -5.6798   24.9184 C   0  0  0  0  0  0
  -21.6048   -4.3063   24.7231 C   0  0  0  0  0  0
  -21.8811   -3.8160   23.4349 C   0  0  0  0  0  0
  -21.9192   -4.6981   22.3408 C   0  0  0  0  0  0
  -22.7871  -13.5252   21.1872 C   0  0  0  0  0  0
  -22.1661   -4.2168   21.0985 F   0  0  0  0  0  0
  -21.5630   -3.4542   25.7743 F   0  0  0  0  0  0
  -30.0441  -13.2614   20.4564 N   0  0  0  0  0  0
  -26.3051  -12.9330   20.3415 N   0  0  0  0  0  0
  -25.9328  -11.6498   20.5795 N   0  0  0  0  0  0
  -22.0498  -12.8235   22.0405 N   0  0  0  0  0  0
  -25.4347  -15.1874   20.4080 N   0  0  0  0  0  0
  -31.8260  -14.6277   20.0884 O   0  0  0  0  0  0
  -21.6632   -6.8892   21.4249 O   0  0  0  0  0  0
  -22.3566  -14.5570   20.6728 O   0  0  0  0  0  0
  -24.6119  -31.8683   23.2114 C   0  0  0  0  0  0
  -25.9038  -32.4816   23.8376 C   0  0  1  0  0  0
  -27.2398  -27.4455   20.1010 C   0  0  0  0  0  0
  -25.5921  -33.8617   24.2319 N   0  0  0  0  0  0
  -23.4010  -30.4879   21.5510 C   0  0  2  0  0  0
  -24.8508  -28.9524   20.1212 C   0  0  0  0  0  0
  -22.7406  -29.4634   22.5002 C   0  0  0  0  0  0
  -18.0263  -28.1330   22.8464 C   0  0  0  0  0  0
  -24.1503  -36.7311   23.2638 C   0  0  0  0  0  0
  -25.9270  -30.8328   21.3666 C   0  0  0  0  0  0
  -26.0069  -29.4645   20.7235 C   0  0  0  0  0  0
  -27.2048  -28.7140   20.7205 C   0  0  0  0  0  0
  -26.0735  -26.9449   19.4898 C   0  0  0  0  0  0
  -24.8761  -27.6882   19.5052 C   0  0  0  0  0  0
  -23.6105  -29.8173   20.1675 C   0  0  0  0  0  0
  -25.4122  -36.3104   24.0335 C   0  0  1  0  0  0
  -20.5858  -28.3624   23.1311 C   0  0  2  0  0  0
  -20.6760  -26.9360   22.5416 C   0  0  0  0  0  0
  -19.5753  -26.6353   21.5193 C   0  0  0  0  0  0
  -18.1918  -26.7875   22.1600 C   0  0  0  0  0  0
  -19.1515  -28.8800   23.2870 C   0  0  0  0  0  0
  -18.9461  -30.1409   23.8887 C   0  0  0  0  0  0
  -17.6466  -30.6552   24.0548 C   0  0  0  0  0  0
  -25.9050  -34.9472   23.5124 C   0  0  0  0  0  0
  -16.5350  -29.9053   23.6327 C   0  0  0  0  0  0
  -16.7257  -28.6470   23.0325 C   0  0  0  0  0  0
  -26.4475  -31.6595   25.0695 C   0  0  0  0  0  0
  -25.3745  -31.3713   26.1455 C   0  0  0  0  0  0
  -27.0296  -30.3045   24.6024 C   0  0  0  0  0  0
  -27.6038  -32.4321   25.7473 C   0  0  0  0  0  0
  -27.5587  -37.1801   24.8461 C   0  0  0  0  0  0
  -21.4136  -29.2995   22.3741 N   0  0  0  0  0  0
  -26.4308  -37.3785   23.9407 N   0  0  0  0  0  0
  -24.6640  -31.0773   22.1024 N   0  0  0  0  0  0
  -23.4192  -28.8178   23.3025 O   0  0  0  0  0  0
  -28.3965  -26.7041   20.0203 O   0  0  0  0  0  0
  -26.5594  -34.8918   22.4665 O   0  0  0  0  0  0
  -23.5319  -32.1441   23.7517 O   0  0  0  0  0  0
  -31.1775  -18.8170   20.8134 C   0  0  0  0  0  0
  -29.9054  -19.2445   21.1360 C   0  0  0  0  0  0
  -30.2049  -16.7901   21.2181 C   0  0  0  0  0  0
  -32.3524  -19.6567   20.4060 C   0  0  0  0  0  0
  -30.6999  -23.9888   22.7925 C   0  0  0  0  0  0
  -28.0700  -22.2327   24.1304 C   0  0  0  0  0  0
  -29.3331  -20.6407   21.1113 C   0  0  0  0  0  0
  -28.7451  -24.6100   21.2263 C   0  0  0  0  0  0
  -28.8860  -26.1526   21.2437 C   0  0  0  0  0  0
  -29.1779  -23.9090   22.5435 C   0  0  1  0  0  0
  -28.5986  -22.4639   22.7028 C   0  0  1  0  0  0
  -31.3315  -17.4247   20.8733 N   0  0  0  0  0  0
  -30.0576  -15.3799   21.2914 N   0  0  0  0  0  0
  -29.5706  -21.3884   22.3673 N   0  3  0  0  0  0
  -28.8796  -17.8888   21.5665 S   0  0  0  0  0  0
  -31.4655  -12.3864   19.1109 H   0  0  0  0  0  0
  -30.3184  -11.2764   19.7985 H   0  0  0  0  0  0
  -29.7223  -11.7936   17.4171 H   0  0  0  0  0  0
  -29.6645  -13.5001   17.7786 H   0  0  0  0  0  0
  -27.8126  -11.3194   18.8011 H   0  0  0  0  0  0
  -27.3629  -12.6678   17.7913 H   0  0  0  0  0  0
  -27.7191  -14.2572   19.6033 H   0  0  0  0  0  0
  -28.6748  -11.9176   21.3208 H   0  0  0  0  0  0
  -28.4644  -13.5373   21.8937 H   0  0  0  0  0  0
  -25.2767   -9.5687   22.4779 H   0  0  0  0  0  0
  -24.0023   -7.4625   22.7460 H   0  0  0  0  0  0
  -21.0864   -8.8793   19.8941 H   0  0  0  0  0  0
  -22.3724  -10.9696   19.6180 H   0  0  0  0  0  0
  -21.1992   -7.6156   23.9740 H   0  0  0  0  0  0
  -21.1486   -6.0524   25.9091 H   0  0  0  0  0  0
  -22.0592   -2.7624   23.2845 H   0  0  0  0  0  0
  -22.4100  -11.9884   22.4772 H   0  0  0  0  0  0
  -21.1118  -13.1259   22.2610 H   0  0  0  0  0  0
  -24.6682  -15.8447   20.5074 H   0  0  0  0  0  0
  -26.2852  -15.6213   20.0720 H   0  0  0  0  0  0
  -26.7093  -32.5573   23.1130 H   0  0  0  0  0  0
  -25.0104  -33.9780   25.0487 H   0  0  0  0  0  0
  -22.6872  -31.3017   21.4091 H   0  0  0  0  0  0
  -23.3752  -35.9657   23.3313 H   0  0  0  0  0  0
  -24.3602  -36.8910   22.2049 H   0  0  0  0  0  0
  -23.7260  -37.6522   23.6646 H   0  0  0  0  0  0
  -26.0319  -31.5926   20.5910 H   0  0  0  0  0  0
  -26.8183  -30.8941   21.9784 H   0  0  0  0  0  0
  -28.1019  -29.1087   21.1751 H   0  0  0  0  0  0
  -26.0910  -25.9803   19.0005 H   0  0  0  0  0  0
  -23.9905  -27.2849   19.0352 H   0  0  0  0  0  0
  -23.7144  -30.5905   19.4049 H   0  0  0  0  0  0
  -22.7376  -29.2303   19.8771 H   0  0  0  0  0  0
  -25.1289  -36.1982   25.0823 H   0  0  0  0  0  0
  -20.9922  -28.3180   24.1444 H   0  0  0  0  0  0
  -20.5652  -26.2216   23.3591 H   0  0  0  0  0  0
  -21.6627  -26.7398   22.1216 H   0  0  0  0  0  0
  -19.6928  -25.6269   21.1209 H   0  0  0  0  0  0
  -19.6715  -27.3173   20.6730 H   0  0  0  0  0  0
  -17.4190  -26.6617   21.3997 H   0  0  0  0  0  0
  -18.0327  -26.0002   22.8990 H   0  0  0  0  0  0
  -19.7949  -30.7200   24.2265 H   0  0  0  0  0  0
  -17.5029  -31.6244   24.5113 H   0  0  0  0  0  0
  -15.5348  -30.2940   23.7659 H   0  0  0  0  0  0
  -15.8657  -28.0800   22.7021 H   0  0  0  0  0  0
  -24.5896  -30.7081   25.7798 H   0  0  0  0  0  0
  -24.8962  -32.2883   26.4906 H   0  0  0  0  0  0
  -25.8091  -30.8873   27.0209 H   0  0  0  0  0  0
  -26.2808  -29.6821   24.1102 H   0  0  0  0  0  0
  -27.4124  -29.7265   25.4443 H   0  0  0  0  0  0
  -27.8625  -30.4382   23.9115 H   0  0  0  0  0  0
  -27.2633  -33.3607   26.2066 H   0  0  0  0  0  0
  -28.3847  -32.6911   25.0312 H   0  0  0  0  0  0
  -28.0704  -31.8439   26.5377 H   0  0  0  0  0  0
  -28.2587  -38.0113   24.7516 H   0  0  0  0  0  0
  -28.1092  -36.2633   24.6283 H   0  0  0  0  0  0
  -27.2303  -37.1465   25.8864 H   0  0  0  0  0  0
  -20.9282  -29.8735   21.6998 H   0  0  0  0  0  0
  -26.0195  -38.2862   24.1403 H   0  0  0  0  0  0
  -32.7131  -20.2627   21.2371 H   0  0  0  0  0  0
  -32.0983  -20.3318   19.5884 H   0  0  0  0  0  0
  -33.1893  -19.0433   20.0669 H   0  0  0  0  0  0
  -31.0414  -25.0225   22.8258 H   0  0  0  0  0  0
  -31.2736  -23.4891   22.0114 H   0  0  0  0  0  0
  -30.9759  -23.5507   23.7531 H   0  0  0  0  0  0
  -27.2860  -22.9497   24.3745 H   0  0  0  0  0  0
  -28.8547  -22.3339   24.8818 H   0  0  0  0  0  0
  -27.6271  -21.2425   24.2354 H   0  0  0  0  0  0
  -28.2615  -20.5598   20.9254 H   0  0  0  0  0  0
  -29.7386  -21.2084   20.2747 H   0  0  0  0  0  0
  -29.3009  -24.1931   20.3854 H   0  0  0  0  0  0
  -27.6941  -24.3886   21.0292 H   0  0  0  0  0  0
  -29.9354  -26.4359   21.3387 H   0  0  0  0  0  0
  -28.3710  -26.5661   22.1134 H   0  0  0  0  0  0
  -28.7160  -24.5039   23.3334 H   0  0  0  0  0  0
  -27.7256  -22.3690   22.0561 H   0  0  0  0  0  0
  -29.1901  -15.0651   21.6949 H   0  0  0  0  0  0
  -30.4994  -21.7769   22.3674 H   0  0  0  0  0  0
  -29.5281  -20.7139   23.1129 H   0  0  0  0  0  0
  1 25  1  0  0  0
  1 30  2  0  0  0
  1 83  1  0  0  0
  2  3  1  0  0  0
  2 25  1  0  0  0
  2 86  1  0  0  0
  2 87  1  0  0  0
  3  4  1  0  0  0
  3 88  1  0  0  0
  3 89  1  0  0  0
  4  5  1  0  0  0
  4 90  1  0  0  0
  4 91  1  0  0  0
  5  6  1  0  0  0
  5 26  1  0  0  0
  5 92  1  0  0  0
  6 25  1  0  0  0
  6 93  1  0  0  0
  6 94  1  0  0  0
  7  8  2  0  0  0
  7 26  1  0  0  0
  7 29  1  0  0  0
  8  9  1  0  0  0
  8 22  1  0  0  0
  9 10  1  0  0  0
  9 27  2  0  0  0
 10 11  2  0  0  0
 10 15  1  0  0  0
 11 12  1  0  0  0
 11 95  1  0  0  0
 12 13  2  0  0  0
 12 96  1  0  0  0
 13 14  1  0  0  0
 13 31  1  0  0  0
 14 15  2  0  0  0
 14 97  1  0  0  0
 15 98  1  0  0  0
 16 17  2  0  0  0
 16 21  1  0  0  0
 16 31  1  0  0  0
 17 18  1  0  0  0
 17 99  1  0  0  0
 18 19  2  0  0  0
 18100  1  0  0  0
 19 20  1  0  0  0
 19 24  1  0  0  0
 20 21  2  0  0  0
 20101  1  0  0  0
 21 23  1  0  0  0
 22 28  1  0  0  0
 22 32  2  0  0  0
 26 27  1  0  0  0
 28102  1  0  0  0
 28103  1  0  0  0
 29104  1  0  0  0
 29105  1  0  0  0
 33 34  1  0  0  0
 33 66  1  0  0  0
 33 70  2  0  0  0
 34 36  1  0  0  0
 34 59  1  0  0  0
 34106  1  0  0  0
 35 44  2  0  0  0
 35 45  1  0  0  0
 35 68  1  0  0  0
 36 56  1  0  0  0
 36107  1  0  0  0
 37 39  1  0  0  0
 37 47  1  0  0  0
 37 66  1  0  0  0
 37108  1  0  0  0
 38 43  2  0  0  0
 38 46  1  0  0  0
 38 47  1  0  0  0
 39 64  1  0  0  0
 39 67  2  0  0  0
 40 52  1  0  0  0
 40 53  2  0  0  0
 40 58  1  0  0  0
 41109  1  0  0  0
 41110  1  0  0  0
 41111  1  0  0  0
 41 48  1  0  0  0
 42 43  1  0  0  0
 42 66  1  0  0  0
 42112  1  0  0  0
 42113  1  0  0  0
 43 44  1  0  0  0
 44114  1  0  0  0
 45 46  2  0  0  0
 45115  1  0  0  0
 46116  1  0  0  0
 47117  1  0  0  0
 47118  1  0  0  0
 48 56  1  0  0  0
 48 65  1  0  0  0
 48119  1  0  0  0
 49 50  1  0  0  0
 49 53  1  0  0  0
 49 64  1  0  0  0
 49120  1  0  0  0
 50 51  1  0  0  0
 50121  1  0  0  0
 50122  1  0  0  0
 51 52  1  0  0  0
 51123  1  0  0  0
 51124  1  0  0  0
 52125  1  0  0  0
 52126  1  0  0  0
 53 54  1  0  0  0
 54 55  2  0  0  0
 54127  1  0  0  0
 55 57  1  0  0  0
 55128  1  0  0  0
 56 69  2  0  0  0
 57 58  2  0  0  0
 57129  1  0  0  0
 58130  1  0  0  0
 59 60  1  0  0  0
 59 61  1  0  0  0
 59 62  1  0  0  0
 60131  1  0  0  0
 60132  1  0  0  0
 60133  1  0  0  0
 61134  1  0  0  0
 61135  1  0  0  0
 61136  1  0  0  0
 62137  1  0  0  0
 62138  1  0  0  0
 62139  1  0  0  0
 63 65  1  0  0  0
 63140  1  0  0  0
 63141  1  0  0  0
 63142  1  0  0  0
 64143  1  0  0  0
 65144  1  0  0  0
 68 79  1  0  0  0
 71 72  2  0  0  0
 71 74  1  0  0  0
 71 82  1  0  0  0
 72 77  1  0  0  0
 72 85  1  0  0  0
 73 82  2  0  0  0
 73 83  1  0  0  0
 73 85  1  0  0  0
 74145  1  0  0  0
 74146  1  0  0  0
 74147  1  0  0  0
 75148  1  0  0  0
 75149  1  0  0  0
 75150  1  0  0  0
 75 80  1  0  0  0
 76151  1  0  0  0
 76152  1  0  0  0
 76153  1  0  0  0
 76 81  1  0  0  0
 77 84  1  0  0  0
 77154  1  0  0  0
 77155  1  0  0  0
 78 79  1  0  0  0
 78 80  1  0  0  0
 78156  1  0  0  0
 78157  1  0  0  0
 79158  1  0  0  0
 79159  1  0  0  0
 80 81  1  0  0  0
 80160  1  0  0  0
 81 84  1  0  0  0
 81161  1  0  0  0
 83162  1  0  0  0
 84163  1  0  0  0
 84164  1  0  0  0
M  CHG  1  84   1
M  ISO  4   1 100  68 101  79 101  83 100
M  END
> <chiral flag>
0

> <version>
0

> <s_m_source_file>
/data/baiqing/PycharmProjects/Reinvent-master-3.2/result/LINK_invent/BTK/process_docking_weight1_custom_product_contain_oxygen_bond_distance_aromatic_linkinvent_7_9_3/rearranged_h_0191.sdf

> <i_m_source_file_index>
64

> <r_mmod_Potential_Energy-OPLS-2005>
-268.285949707031

> <r_mmod_Stretch_Energy-OPLS-2005>
35.0778656005859

> <r_mmod_Bend_Energy-OPLS-2005>
102.034400939941

> <r_mmod_Torsional_Energy-OPLS-2005>
260.441131591797

> <r_mmod_Improper_Torsional_Energy-OPLS-2005>
3.37689018249512

> <r_mmod_Van_der_Waal_Energy-OPLS-2005>
125.549781799316

> <r_mmod_Electrostatic_Energy-OPLS-2005>
-328.010711669922

> <r_mmod_Solvation_Energy-OPLS-2005>
-475.422973632812

> <b_mmod_Minimization_Converged-OPLS-2005>
0

> <r_mmod_RMS_Derivative-OPLS-2005>
2.4176332950592

$$$$
66
                    3D
 Structure written by MMmdl.
160168  0  0  1  0            999 V2000
  -30.7375  -14.4383   20.5213 C   0  0  0  0  0  0
  -30.4101  -12.2662   19.4228 C   0  0  0  0  0  0
  -29.4866  -12.4706   18.2033 C   0  0  0  0  0  0
  -28.0055  -12.3458   18.6135 C   0  0  0  0  0  0
  -27.6508  -13.1949   19.8622 C   0  0  2  0  0  0
  -28.7005  -13.0185   20.9831 C   0  0  0  0  0  0
  -25.2580  -13.8124   20.5727 C   0  0  0  0  0  0
  -24.1812  -13.0420   20.9170 C   0  0  0  0  0  0
  -24.6353  -11.6885   20.8727 C   0  0  0  0  0  0
  -23.9022  -10.4284   21.0398 C   0  0  0  0  0  0
  -24.3590   -9.4211   21.9180 C   0  0  0  0  0  0
  -23.6279   -8.2241   22.0751 C   0  0  0  0  0  0
  -22.4262   -8.0272   21.3539 C   0  0  0  0  0  0
  -21.9885   -9.0240   20.4641 C   0  0  0  0  0  0
  -22.7197  -10.2125   20.3048 C   0  0  0  0  0  0
  -21.6852   -6.0733   22.5279 C   0  0  0  0  0  0
  -21.4015   -6.5641   23.8211 C   0  0  0  0  0  0
  -21.3657   -5.6792   24.9172 C   0  0  0  0  0  0
  -21.6043   -4.3055   24.7223 C   0  0  0  0  0  0
  -21.8823   -3.8146   23.4343 C   0  0  0  0  0  0
  -21.9197   -4.6963   22.3399 C   0  0  0  0  0  0
  -22.7846  -13.5235   21.1847 C   0  0  0  0  0  0
  -22.1663   -4.2151   21.0977 F   0  0  0  0  0  0
  -21.5629   -3.4539   25.7736 F   0  0  0  0  0  0
  -30.0403  -13.2714   20.4280 N   0  0  0  0  0  0
  -26.2979  -12.9261   20.3355 N   0  0  0  0  0  0
  -25.9270  -11.6437   20.5759 N   0  0  0  0  0  0
  -22.0486  -12.8233   22.0406 N   0  0  0  0  0  0
  -25.4349  -15.1850   20.4269 N   0  0  0  0  0  0
  -31.9108  -14.5285   20.1639 O   0  0  0  0  0  0
  -21.6633   -6.8867   21.4236 O   0  0  0  0  0  0
  -22.3543  -14.5551   20.6701 O   0  0  0  0  0  0
  -24.6109  -31.8729   23.2155 C   0  0  0  0  0  0
  -25.9024  -32.4845   23.8430 C   0  0  1  0  0  0
  -27.2317  -27.4658   20.0705 C   0  0  0  0  0  0
  -25.5902  -33.8644   24.2364 N   0  0  0  0  0  0
  -23.3954  -30.4997   21.5567 C   0  0  2  0  0  0
  -24.8389  -28.9729   20.1174 C   0  0  0  0  0  0
  -22.7376  -29.4690   22.5014 C   0  0  0  0  0  0
  -18.0267  -28.1373   22.8496 C   0  0  0  0  0  0
  -24.1486  -36.7323   23.2631 C   0  0  0  0  0  0
  -25.9228  -30.8422   21.3686 C   0  0  0  0  0  0
  -25.9966  -29.4769   20.7212 C   0  0  0  0  0  0
  -27.1893  -28.7217   20.7140 C   0  0  0  0  0  0
  -26.0516  -26.9780   19.4576 C   0  0  0  0  0  0
  -24.8582  -27.7178   19.4914 C   0  0  0  0  0  0
  -23.6014  -29.8382   20.1691 C   0  0  0  0  0  0
  -25.4105  -36.3132   24.0341 C   0  0  1  0  0  0
  -20.5852  -28.3655   23.1325 C   0  0  2  0  0  0
  -20.6761  -26.9400   22.5410 C   0  0  0  0  0  0
  -19.5744  -26.6392   21.5201 C   0  0  0  0  0  0
  -18.1922  -26.7923   22.1619 C   0  0  0  0  0  0
  -19.1517  -28.8831   23.2911 C   0  0  0  0  0  0
  -18.9446  -30.1438   23.8920 C   0  0  0  0  0  0
  -17.6452  -30.6582   24.0569 C   0  0  0  0  0  0
  -25.9029  -34.9491   23.5146 C   0  0  0  0  0  0
  -16.5343  -29.9087   23.6325 C   0  0  0  0  0  0
  -16.7259  -28.6503   23.0348 C   0  0  0  0  0  0
  -26.4474  -31.6601   25.0733 C   0  0  0  0  0  0
  -25.3744  -31.3673   26.1477 C   0  0  0  0  0  0
  -27.0292  -30.3050   24.6066 C   0  0  0  0  0  0
  -27.6074  -32.4293   25.7484 C   0  0  0  0  0  0
  -27.5586  -37.1816   24.8467 C   0  0  0  0  0  0
  -21.4112  -29.3035   22.3739 N   0  0  0  0  0  0
  -26.4300  -37.3811   23.9411 N   0  0  0  0  0  0
  -24.6610  -31.0850   22.1055 N   0  0  0  0  0  0
  -23.4163  -28.8223   23.3038 O   0  0  0  0  0  0
  -28.4263  -26.7762   20.0624 O   0  0  0  0  0  0
  -26.5579  -34.8934   22.4701 O   0  0  0  0  0  0
  -23.5313  -32.1479   23.7565 O   0  0  0  0  0  0
  -28.9351  -17.3776   19.4623 C   0  0  0  0  0  0
  -27.9404  -17.6999   18.5649 C   0  0  0  0  0  0
  -28.5189  -19.7774   19.2800 C   0  0  0  0  0  0
  -29.5646  -16.0898   19.6551 C   0  0  0  0  0  0
  -27.7430  -22.0391   18.6840 C   0  0  0  0  0  0
  -27.1570  -16.7854   17.6668 C   0  0  0  0  0  0
  -28.1514  -24.4240   19.3565 C   0  0  0  0  0  0
  -27.5644  -23.8483   16.8891 C   0  0  0  0  0  0
  -28.6583  -25.8419   19.0121 C   0  0  0  0  0  0
  -28.2781  -23.3978   18.2032 C   0  0  2  0  0  0
  -27.7088  -19.0743   18.4797 N   0  0  0  0  0  0
  -29.9906  -15.5812   20.7492 N   0  0  0  0  0  0
  -28.6388  -21.1822   19.1939 N   0  0  0  0  0  0
  -27.6357  -22.8764   15.7756 N   0  3  0  0  0  0
  -26.5358  -21.7980   18.5943 O   0  0  0  0  0  0
  -29.5769  -18.7865   20.2694 S   0  0  0  0  0  0
  -31.4562  -12.3312   19.1182 H   0  0  0  0  0  0
  -30.2824  -11.2634   19.8336 H   0  0  0  0  0  0
  -29.7172  -11.7352   17.4312 H   0  0  0  0  0  0
  -29.6666  -13.4463   17.7515 H   0  0  0  0  0  0
  -27.8081  -11.2922   18.8147 H   0  0  0  0  0  0
  -27.3583  -12.6186   17.7788 H   0  0  0  0  0  0
  -27.6636  -14.2296   19.5373 H   0  0  0  0  0  0
  -28.6605  -12.0044   21.3841 H   0  0  0  0  0  0
  -28.4851  -13.6821   21.8225 H   0  0  0  0  0  0
  -25.2734   -9.5711   22.4751 H   0  0  0  0  0  0
  -24.0002   -7.4638   22.7469 H   0  0  0  0  0  0
  -21.0818   -8.8745   19.8947 H   0  0  0  0  0  0
  -22.3644  -10.9663   19.6159 H   0  0  0  0  0  0
  -21.2004   -7.6150   23.9716 H   0  0  0  0  0  0
  -21.1471   -6.0520   25.9075 H   0  0  0  0  0  0
  -22.0603   -2.7611   23.2840 H   0  0  0  0  0  0
  -22.4097  -11.9889   22.4789 H   0  0  0  0  0  0
  -21.1113  -13.1271   22.2634 H   0  0  0  0  0  0
  -24.6816  -15.8456   20.5826 H   0  0  0  0  0  0
  -26.3231  -15.6293   20.2401 H   0  0  0  0  0  0
  -26.7089  -32.5569   23.1193 H   0  0  0  0  0  0
  -25.0074  -33.9822   25.0524 H   0  0  0  0  0  0
  -22.6827  -31.3158   21.4234 H   0  0  0  0  0  0
  -23.3750  -35.9655   23.3309 H   0  0  0  0  0  0
  -24.3581  -36.8913   22.2043 H   0  0  0  0  0  0
  -23.7238  -37.6534   23.6626 H   0  0  0  0  0  0
  -26.0292  -31.6061   20.5971 H   0  0  0  0  0  0
  -26.8141  -30.8989   21.9818 H   0  0  0  0  0  0
  -28.0841  -29.1091   21.1812 H   0  0  0  0  0  0
  -26.0194  -26.0391   18.9316 H   0  0  0  0  0  0
  -23.9683  -27.3262   19.0177 H   0  0  0  0  0  0
  -23.7066  -30.6164   19.4123 H   0  0  0  0  0  0
  -22.7244  -29.2586   19.8747 H   0  0  0  0  0  0
  -25.1279  -36.2012   25.0834 H   0  0  0  0  0  0
  -20.9953  -28.3228   24.1442 H   0  0  0  0  0  0
  -20.5664  -26.2269   23.3591 H   0  0  0  0  0  0
  -21.6632  -26.7451   22.1205 H   0  0  0  0  0  0
  -19.6903  -25.6310   21.1218 H   0  0  0  0  0  0
  -19.6681  -27.3211   20.6738 H   0  0  0  0  0  0
  -17.4191  -26.6671   21.4023 H   0  0  0  0  0  0
  -18.0330  -26.0056   22.9010 H   0  0  0  0  0  0
  -19.7924  -30.7244   24.2302 H   0  0  0  0  0  0
  -17.5012  -31.6265   24.5164 H   0  0  0  0  0  0
  -15.5348  -30.3001   23.7632 H   0  0  0  0  0  0
  -15.8658  -28.0830   22.7049 H   0  0  0  0  0  0
  -24.5949  -30.6987   25.7802 H   0  0  0  0  0  0
  -24.8891  -32.2804   26.4926 H   0  0  0  0  0  0
  -25.8108  -30.8848   27.0230 H   0  0  0  0  0  0
  -26.2818  -29.6825   24.1130 H   0  0  0  0  0  0
  -27.4093  -29.7271   25.4500 H   0  0  0  0  0  0
  -27.8645  -30.4381   23.9186 H   0  0  0  0  0  0
  -27.2731  -33.3593   26.2094 H   0  0  0  0  0  0
  -28.3873  -32.6840   25.0294 H   0  0  0  0  0  0
  -28.0753  -31.8381   26.5368 H   0  0  0  0  0  0
  -28.2616  -38.0106   24.7528 H   0  0  0  0  0  0
  -28.1077  -36.2641   24.6285 H   0  0  0  0  0  0
  -27.2301  -37.1454   25.8870 H   0  0  0  0  0  0
  -20.9258  -29.8773   21.6985 H   0  0  0  0  0  0
  -26.0198  -38.2892   24.1421 H   0  0  0  0  0  0
  -29.6763  -15.5532   18.7049 H   0  0  0  0  0  0
  -27.5979  -15.7917   17.5912 H   0  0  0  0  0  0
  -27.0975  -17.1837   16.6536 H   0  0  0  0  0  0
  -26.1358  -16.6617   18.0268 H   0  0  0  0  0  0
  -27.1205  -24.4460   19.7063 H   0  0  0  0  0  0
  -28.7215  -24.0677   20.2160 H   0  0  0  0  0  0
  -28.0114  -24.7659   16.5110 H   0  0  0  0  0  0
  -26.5159  -24.0769   17.0879 H   0  0  0  0  0  0
  -28.2322  -26.2296   18.0873 H   0  0  0  0  0  0
  -29.7347  -25.8008   18.8412 H   0  0  0  0  0  0
  -29.3390  -23.2825   17.9742 H   0  0  0  0  0  0
  -29.5493  -21.5527   19.4263 H   0  0  0  0  0  0
  -27.1638  -22.0193   16.0078 H   0  0  0  0  0  0
  -28.5866  -22.6743   15.5216 H   0  0  0  0  0  0
  -27.1807  -23.2611   14.9658 H   0  0  0  0  0  0
  1 25  1  0  0  0
  1 30  2  0  0  0
  1 82  1  0  0  0
  2  3  1  0  0  0
  2 25  1  0  0  0
  2 87  1  0  0  0
  2 88  1  0  0  0
  3  4  1  0  0  0
  3 89  1  0  0  0
  3 90  1  0  0  0
  4  5  1  0  0  0
  4 91  1  0  0  0
  4 92  1  0  0  0
  5  6  1  0  0  0
  5 26  1  0  0  0
  5 93  1  0  0  0
  6 25  1  0  0  0
  6 94  1  0  0  0
  6 95  1  0  0  0
  7  8  2  0  0  0
  7 26  1  0  0  0
  7 29  1  0  0  0
  8  9  1  0  0  0
  8 22  1  0  0  0
  9 10  1  0  0  0
  9 27  2  0  0  0
 10 11  2  0  0  0
 10 15  1  0  0  0
 11 12  1  0  0  0
 11 96  1  0  0  0
 12 13  2  0  0  0
 12 97  1  0  0  0
 13 14  1  0  0  0
 13 31  1  0  0  0
 14 15  2  0  0  0
 14 98  1  0  0  0
 15 99  1  0  0  0
 16 17  2  0  0  0
 16 21  1  0  0  0
 16 31  1  0  0  0
 17 18  1  0  0  0
 17100  1  0  0  0
 18 19  2  0  0  0
 18101  1  0  0  0
 19 20  1  0  0  0
 19 24  1  0  0  0
 20 21  2  0  0  0
 20102  1  0  0  0
 21 23  1  0  0  0
 22 28  1  0  0  0
 22 32  2  0  0  0
 26 27  1  0  0  0
 28103  1  0  0  0
 28104  1  0  0  0
 29105  1  0  0  0
 29106  1  0  0  0
 33 34  1  0  0  0
 33 66  1  0  0  0
 33 70  2  0  0  0
 34 36  1  0  0  0
 34 59  1  0  0  0
 34107  1  0  0  0
 35 44  2  0  0  0
 35 45  1  0  0  0
 35 68  1  0  0  0
 36 56  1  0  0  0
 36108  1  0  0  0
 37 39  1  0  0  0
 37 47  1  0  0  0
 37 66  1  0  0  0
 37109  1  0  0  0
 38 43  2  0  0  0
 38 46  1  0  0  0
 38 47  1  0  0  0
 39 64  1  0  0  0
 39 67  2  0  0  0
 40 52  1  0  0  0
 40 53  2  0  0  0
 40 58  1  0  0  0
 41110  1  0  0  0
 41111  1  0  0  0
 41112  1  0  0  0
 41 48  1  0  0  0
 42 43  1  0  0  0
 42 66  1  0  0  0
 42113  1  0  0  0
 42114  1  0  0  0
 43 44  1  0  0  0
 44115  1  0  0  0
 45 46  2  0  0  0
 45116  1  0  0  0
 46117  1  0  0  0
 47118  1  0  0  0
 47119  1  0  0  0
 48 56  1  0  0  0
 48 65  1  0  0  0
 48120  1  0  0  0
 49 50  1  0  0  0
 49 53  1  0  0  0
 49 64  1  0  0  0
 49121  1  0  0  0
 50 51  1  0  0  0
 50122  1  0  0  0
 50123  1  0  0  0
 51 52  1  0  0  0
 51124  1  0  0  0
 51125  1  0  0  0
 52126  1  0  0  0
 52127  1  0  0  0
 53 54  1  0  0  0
 54 55  2  0  0  0
 54128  1  0  0  0
 55 57  1  0  0  0
 55129  1  0  0  0
 56 69  2  0  0  0
 57 58  2  0  0  0
 57130  1  0  0  0
 58131  1  0  0  0
 59 60  1  0  0  0
 59 61  1  0  0  0
 59 62  1  0  0  0
 60132  1  0  0  0
 60133  1  0  0  0
 60134  1  0  0  0
 61135  1  0  0  0
 61136  1  0  0  0
 61137  1  0  0  0
 62138  1  0  0  0
 62139  1  0  0  0
 62140  1  0  0  0
 63 65  1  0  0  0
 63141  1  0  0  0
 63142  1  0  0  0
 63143  1  0  0  0
 64144  1  0  0  0
 65145  1  0  0  0
 68 79  1  0  0  0
 71 72  2  0  0  0
 71 74  1  0  0  0
 71 86  1  0  0  0
 72 76  1  0  0  0
 72 81  1  0  0  0
 73 81  2  0  0  0
 73 83  1  0  0  0
 73 86  1  0  0  0
 74 82  2  0  0  0
 74146  1  0  0  0
 75 80  1  0  0  0
 75 83  1  0  0  0
 75 85  2  0  0  0
 76147  1  0  0  0
 76148  1  0  0  0
 76149  1  0  0  0
 77 79  1  0  0  0
 77150  1  0  0  0
 77151  1  0  0  0
 77 80  1  0  0  0
 78 80  1  0  0  0
 78 84  1  0  0  0
 78152  1  0  0  0
 78153  1  0  0  0
 79154  1  0  0  0
 79155  1  0  0  0
 80156  1  0  0  0
 83157  1  0  0  0
 84158  1  0  0  0
 84159  1  0  0  0
 84160  1  0  0  0
M  CHG  1  84   1
M  ISO  4   1 100  68 101  79 101  82 100
M  END
> <chiral flag>
0

> <version>
0

> <s_m_source_file>
/data/baiqing/PycharmProjects/Reinvent-master-3.2/result/LINK_invent/BTK/process_docking_weight1_custom_product_contain_oxygen_bond_distance_aromatic_linkinvent_7_9_3/rearranged_h_0191.sdf

> <i_m_source_file_index>
65

> <r_mmod_Potential_Energy-OPLS-2005>
-378.475555419922

> <r_mmod_Stretch_Energy-OPLS-2005>
33.1171684265137

> <r_mmod_Bend_Energy-OPLS-2005>
100.86939239502

> <r_mmod_Torsional_Energy-OPLS-2005>
199.500244140625

> <r_mmod_Improper_Torsional_Energy-OPLS-2005>
8.53290843963623

> <r_mmod_Van_der_Waal_Energy-OPLS-2005>
147.29280090332

> <r_mmod_Electrostatic_Energy-OPLS-2005>
-374.581787109375

> <r_mmod_Solvation_Energy-OPLS-2005>
-510.080108642578

> <b_mmod_Minimization_Converged-OPLS-2005>
0

> <r_mmod_RMS_Derivative-OPLS-2005>
0.87910383939743

$$$$
67
                    3D
 Structure written by MMmdl.
162170  0  0  1  0            999 V2000
  -30.8020  -14.4223   20.4807 C   0  0  0  0  0  0
  -30.3815  -12.2508   19.4481 C   0  0  0  0  0  0
  -29.4933  -12.4623   18.2127 C   0  0  0  0  0  0
  -28.0080  -12.3761   18.6133 C   0  0  0  0  0  0
  -27.6496  -13.2350   19.8570 C   0  0  2  0  0  0
  -28.6937  -13.0994   20.9891 C   0  0  0  0  0  0
  -25.2461  -13.8245   20.5626 C   0  0  0  0  0  0
  -24.1780  -13.0474   20.9233 C   0  0  0  0  0  0
  -24.6393  -11.6966   20.8761 C   0  0  0  0  0  0
  -23.9111  -10.4335   21.0431 C   0  0  0  0  0  0
  -24.3646   -9.4240   21.9214 C   0  0  0  0  0  0
  -23.6316   -8.2271   22.0758 C   0  0  0  0  0  0
  -22.4292   -8.0332   21.3561 C   0  0  0  0  0  0
  -21.9953   -9.0296   20.4658 C   0  0  0  0  0  0
  -22.7289  -10.2172   20.3087 C   0  0  0  0  0  0
  -21.6858   -6.0784   22.5276 C   0  0  0  0  0  0
  -21.4014   -6.5669   23.8224 C   0  0  0  0  0  0
  -21.3646   -5.6800   24.9164 C   0  0  0  0  0  0
  -21.6038   -4.3064   24.7212 C   0  0  0  0  0  0
  -21.8818   -3.8187   23.4316 C   0  0  0  0  0  0
  -21.9182   -4.7007   22.3382 C   0  0  0  0  0  0
  -22.7787  -13.5238   21.1876 C   0  0  0  0  0  0
  -22.1679   -4.2212   21.0965 F   0  0  0  0  0  0
  -21.5619   -3.4523   25.7708 F   0  0  0  0  0  0
  -30.0291  -13.3086   20.4077 N   0  0  0  0  0  0
  -26.2952  -12.9483   20.3286 N   0  0  0  0  0  0
  -25.9337  -11.6612   20.5756 N   0  0  0  0  0  0
  -22.0437  -12.8220   22.0427 N   0  0  0  0  0  0
  -25.4009  -15.1935   20.3804 N   0  0  0  0  0  0
  -31.9809  -14.4185   20.1315 O   0  0  0  0  0  0
  -21.6646   -6.8917   21.4244 O   0  0  0  0  0  0
  -22.3487  -14.5561   20.6727 O   0  0  0  0  0  0
  -24.6110  -31.8741   23.2139 C   0  0  0  0  0  0
  -25.9027  -32.4842   23.8414 C   0  0  1  0  0  0
  -27.2087  -27.4574   20.0828 C   0  0  0  0  0  0
  -25.5905  -33.8635   24.2360 N   0  0  0  0  0  0
  -23.3949  -30.5045   21.5547 C   0  0  2  0  0  0
  -24.8362  -28.9877   20.1020 C   0  0  0  0  0  0
  -22.7399  -29.4689   22.4968 C   0  0  0  0  0  0
  -18.0306  -28.1352   22.8483 C   0  0  0  0  0  0
  -24.1502  -36.7317   23.2626 C   0  0  0  0  0  0
  -25.9233  -30.8471   21.3697 C   0  0  0  0  0  0
  -25.9968  -29.4901   20.7033 C   0  0  0  0  0  0
  -27.1880  -28.7332   20.6886 C   0  0  0  0  0  0
  -26.0380  -26.9852   19.4431 C   0  0  0  0  0  0
  -24.8507  -27.7353   19.4707 C   0  0  0  0  0  0
  -23.5980  -29.8514   20.1637 C   0  0  0  0  0  0
  -25.4120  -36.3112   24.0349 C   0  0  1  0  0  0
  -20.5886  -28.3663   23.1325 C   0  0  2  0  0  0
  -20.6790  -26.9392   22.5458 C   0  0  0  0  0  0
  -19.5798  -26.6350   21.5230 C   0  0  0  0  0  0
  -18.1967  -26.7897   22.1618 C   0  0  0  0  0  0
  -19.1535  -28.8818   23.2908 C   0  0  0  0  0  0
  -18.9456  -30.1437   23.8898 C   0  0  0  0  0  0
  -17.6452  -30.6572   24.0529 C   0  0  0  0  0  0
  -25.9043  -34.9475   23.5136 C   0  0  0  0  0  0
  -16.5347  -29.9066   23.6282 C   0  0  0  0  0  0
  -16.7286  -28.6469   23.0337 C   0  0  0  0  0  0
  -26.4455  -31.6609   25.0741 C   0  0  0  0  0  0
  -25.3709  -31.3744   26.1490 C   0  0  0  0  0  0
  -27.0287  -30.3041   24.6135 C   0  0  0  0  0  0
  -27.6057  -32.4302   25.7469 C   0  0  0  0  0  0
  -27.5596  -37.1794   24.8440 C   0  0  0  0  0  0
  -21.4120  -29.3073   22.3762 N   0  0  0  0  0  0
  -26.4299  -37.3804   23.9411 N   0  0  0  0  0  0
  -24.6594  -31.0886   22.1027 N   0  0  0  0  0  0
  -23.4198  -28.8205   23.2956 O   0  0  0  0  0  0
  -28.3513  -26.6914   20.1510 O   0  0  0  0  0  0
  -26.5576  -34.8918   22.4683 O   0  0  0  0  0  0
  -23.5295  -32.1492   23.7546 O   0  0  0  0  0  0
  -29.3639  -20.2711   20.1342 C   0  0  0  0  0  0
  -30.9009  -18.8935   21.9243 C   0  0  0  0  0  0
  -29.6080  -18.9055   19.8756 C   0  0  0  0  0  0
  -30.4325  -18.2051   20.7887 C   0  0  0  0  0  0
  -29.9572  -20.9022   21.2472 C   0  0  0  0  0  0
  -28.8371  -23.0923   21.3281 C   0  0  0  0  0  0
  -29.0037  -19.1242   17.3835 C   0  0  0  0  0  0
  -27.5859  -17.7621   18.9800 C   0  0  0  0  0  0
  -31.0298  -16.8244   20.5172 C   0  0  0  0  0  0
  -29.0850  -24.6045   21.2597 C   0  0  0  0  0  0
  -28.1208  -25.2817   20.2738 C   0  0  0  0  0  0
  -29.0009  -18.2340   18.6417 C   0  0  0  0  0  0
  -30.6883  -20.2054   22.1384 N   0  0  0  0  0  0
  -29.9198  -22.3079   21.3442 N   0  0  0  0  0  0
  -30.2116  -15.6091   20.7058 N   0  0  0  0  0  0
  -27.6832  -22.6542   21.3872 O   0  0  0  0  0  0
  -31.4354  -12.2541   19.1604 H   0  0  0  0  0  0
  -30.2057  -11.2691   19.8897 H   0  0  0  0  0  0
  -29.7168  -11.7079   17.4574 H   0  0  0  0  0  0
  -29.7088  -13.4287   17.7574 H   0  0  0  0  0  0
  -27.7892  -11.3263   18.8057 H   0  0  0  0  0  0
  -27.3838  -12.6750   17.7701 H   0  0  0  0  0  0
  -27.6741  -14.2762   19.5320 H   0  0  0  0  0  0
  -28.6279  -12.1195   21.4649 H   0  0  0  0  0  0
  -28.4919  -13.8307   21.7745 H   0  0  0  0  0  0
  -25.2781   -9.5687   22.4792 H   0  0  0  0  0  0
  -24.0004   -7.4651   22.7483 H   0  0  0  0  0  0
  -21.0891   -8.8863   19.8939 H   0  0  0  0  0  0
  -22.3791  -10.9739   19.6210 H   0  0  0  0  0  0
  -21.2013   -7.6178   23.9741 H   0  0  0  0  0  0
  -21.1483   -6.0529   25.9078 H   0  0  0  0  0  0
  -22.0596   -2.7659   23.2790 H   0  0  0  0  0  0
  -22.4034  -11.9861   22.4785 H   0  0  0  0  0  0
  -21.1072  -13.1265   22.2687 H   0  0  0  0  0  0
  -24.5862  -15.7997   20.4020 H   0  0  0  0  0  0
  -26.1578  -15.5796   19.8319 H   0  0  0  0  0  0
  -26.7090  -32.5564   23.1155 H   0  0  0  0  0  0
  -25.0100  -33.9814   25.0534 H   0  0  0  0  0  0
  -22.6818  -31.3209   21.4257 H   0  0  0  0  0  0
  -23.3760  -35.9646   23.3271 H   0  0  0  0  0  0
  -24.3601  -36.8933   22.2030 H   0  0  0  0  0  0
  -23.7231  -37.6518   23.6648 H   0  0  0  0  0  0
  -26.0407  -31.6322   20.6223 H   0  0  0  0  0  0
  -26.8069  -30.8821   21.9947 H   0  0  0  0  0  0
  -28.0831  -29.1115   21.1619 H   0  0  0  0  0  0
  -26.0199  -26.0373   18.9234 H   0  0  0  0  0  0
  -23.9587  -27.3533   18.9953 H   0  0  0  0  0  0
  -23.7014  -30.6351   19.4136 H   0  0  0  0  0  0
  -22.7205  -29.2771   19.8629 H   0  0  0  0  0  0
  -25.1273  -36.1977   25.0842 H   0  0  0  0  0  0
  -20.9997  -28.3230   24.1439 H   0  0  0  0  0  0
  -20.5634  -26.2275   23.3659 H   0  0  0  0  0  0
  -21.6667  -26.7397   22.1276 H   0  0  0  0  0  0
  -19.6977  -25.6260   21.1280 H   0  0  0  0  0  0
  -19.6745  -27.3131   20.6727 H   0  0  0  0  0  0
  -17.4223  -26.6603   21.4045 H   0  0  0  0  0  0
  -18.0402  -26.0012   22.9014 H   0  0  0  0  0  0
  -19.7937  -30.7218   24.2279 H   0  0  0  0  0  0
  -17.5024  -31.6259   24.5118 H   0  0  0  0  0  0
  -15.5359  -30.2959   23.7613 H   0  0  0  0  0  0
  -15.8681  -28.0785   22.7053 H   0  0  0  0  0  0
  -24.5855  -30.7133   25.7791 H   0  0  0  0  0  0
  -24.8952  -32.2937   26.4925 H   0  0  0  0  0  0
  -25.8047  -30.8876   27.0239 H   0  0  0  0  0  0
  -26.2866  -29.6784   24.1172 H   0  0  0  0  0  0
  -27.4002  -29.7278   25.4613 H   0  0  0  0  0  0
  -27.8716  -30.4308   23.9344 H   0  0  0  0  0  0
  -27.2707  -33.3561   26.2137 H   0  0  0  0  0  0
  -28.3815  -32.6907   25.0263 H   0  0  0  0  0  0
  -28.0803  -31.8380   26.5294 H   0  0  0  0  0  0
  -28.2557  -38.0138   24.7556 H   0  0  0  0  0  0
  -28.1147  -36.2672   24.6183 H   0  0  0  0  0  0
  -27.2335  -37.1342   25.8843 H   0  0  0  0  0  0
  -20.9235  -29.8878   21.7101 H   0  0  0  0  0  0
  -26.0181  -38.2874   24.1452 H   0  0  0  0  0  0
  -28.7714  -20.8541   19.4450 H   0  0  0  0  0  0
  -31.5437  -18.4094   22.6433 H   0  0  0  0  0  0
  -30.0023  -19.5167   17.1846 H   0  0  0  0  0  0
  -28.3202  -19.9694   17.4665 H   0  0  0  0  0  0
  -28.6883  -18.5574   16.5067 H   0  0  0  0  0  0
  -27.6035  -17.1284   19.8656 H   0  0  0  0  0  0
  -27.1400  -17.2017   18.1594 H   0  0  0  0  0  0
  -26.9318  -18.6071   19.2022 H   0  0  0  0  0  0
  -31.9119  -16.7350   21.1584 H   0  0  0  0  0  0
  -31.4499  -16.8338   19.5074 H   0  0  0  0  0  0
  -30.1177  -24.8031   20.9747 H   0  0  0  0  0  0
  -28.9492  -25.0171   22.2610 H   0  0  0  0  0  0
  -27.1189  -25.0749   20.6553 H   0  0  0  0  0  0
  -28.1754  -24.8286   19.2815 H   0  0  0  0  0  0
  -29.5940  -17.3557   18.3846 H   0  0  0  0  0  0
  -30.8156  -22.7672   21.4242 H   0  0  0  0  0  0
  -29.2212  -15.6644   20.8864 H   0  0  0  0  0  0
  1 25  1  0  0  0
  1 30  2  0  0  0
  1 85  1  0  0  0
  2  3  1  0  0  0
  2 25  1  0  0  0
  2 87  1  0  0  0
  2 88  1  0  0  0
  3  4  1  0  0  0
  3 89  1  0  0  0
  3 90  1  0  0  0
  4  5  1  0  0  0
  4 91  1  0  0  0
  4 92  1  0  0  0
  5  6  1  0  0  0
  5 26  1  0  0  0
  5 93  1  0  0  0
  6 25  1  0  0  0
  6 94  1  0  0  0
  6 95  1  0  0  0
  7  8  2  0  0  0
  7 26  1  0  0  0
  7 29  1  0  0  0
  8  9  1  0  0  0
  8 22  1  0  0  0
  9 10  1  0  0  0
  9 27  2  0  0  0
 10 11  2  0  0  0
 10 15  1  0  0  0
 11 12  1  0  0  0
 11 96  1  0  0  0
 12 13  2  0  0  0
 12 97  1  0  0  0
 13 14  1  0  0  0
 13 31  1  0  0  0
 14 15  2  0  0  0
 14 98  1  0  0  0
 15 99  1  0  0  0
 16 17  2  0  0  0
 16 21  1  0  0  0
 16 31  1  0  0  0
 17 18  1  0  0  0
 17100  1  0  0  0
 18 19  2  0  0  0
 18101  1  0  0  0
 19 20  1  0  0  0
 19 24  1  0  0  0
 20 21  2  0  0  0
 20102  1  0  0  0
 21 23  1  0  0  0
 22 28  1  0  0  0
 22 32  2  0  0  0
 26 27  1  0  0  0
 28103  1  0  0  0
 28104  1  0  0  0
 29105  1  0  0  0
 29106  1  0  0  0
 33 34  1  0  0  0
 33 66  1  0  0  0
 33 70  2  0  0  0
 34 36  1  0  0  0
 34 59  1  0  0  0
 34107  1  0  0  0
 35 44  2  0  0  0
 35 45  1  0  0  0
 35 68  1  0  0  0
 36 56  1  0  0  0
 36108  1  0  0  0
 37 39  1  0  0  0
 37 47  1  0  0  0
 37 66  1  0  0  0
 37109  1  0  0  0
 38 43  2  0  0  0
 38 46  1  0  0  0
 38 47  1  0  0  0
 39 64  1  0  0  0
 39 67  2  0  0  0
 40 52  1  0  0  0
 40 53  2  0  0  0
 40 58  1  0  0  0
 41110  1  0  0  0
 41111  1  0  0  0
 41112  1  0  0  0
 41 48  1  0  0  0
 42 43  1  0  0  0
 42 66  1  0  0  0
 42113  1  0  0  0
 42114  1  0  0  0
 43 44  1  0  0  0
 44115  1  0  0  0
 45 46  2  0  0  0
 45116  1  0  0  0
 46117  1  0  0  0
 47118  1  0  0  0
 47119  1  0  0  0
 48 56  1  0  0  0
 48 65  1  0  0  0
 48120  1  0  0  0
 49 50  1  0  0  0
 49 53  1  0  0  0
 49 64  1  0  0  0
 49121  1  0  0  0
 50 51  1  0  0  0
 50122  1  0  0  0
 50123  1  0  0  0
 51 52  1  0  0  0
 51124  1  0  0  0
 51125  1  0  0  0
 52126  1  0  0  0
 52127  1  0  0  0
 53 54  1  0  0  0
 54 55  2  0  0  0
 54128  1  0  0  0
 55 57  1  0  0  0
 55129  1  0  0  0
 56 69  2  0  0  0
 57 58  2  0  0  0
 57130  1  0  0  0
 58131  1  0  0  0
 59 60  1  0  0  0
 59 61  1  0  0  0
 59 62  1  0  0  0
 60132  1  0  0  0
 60133  1  0  0  0
 60134  1  0  0  0
 61135  1  0  0  0
 61136  1  0  0  0
 61137  1  0  0  0
 62138  1  0  0  0
 62139  1  0  0  0
 62140  1  0  0  0
 63 65  1  0  0  0
 63141  1  0  0  0
 63142  1  0  0  0
 63143  1  0  0  0
 64144  1  0  0  0
 65145  1  0  0  0
 68 81  1  0  0  0
 71 73  2  0  0  0
 71 75  1  0  0  0
 71146  1  0  0  0
 72 74  2  0  0  0
 72 83  1  0  0  0
 72147  1  0  0  0
 73 74  1  0  0  0
 73 82  1  0  0  0
 74 79  1  0  0  0
 75 83  2  0  0  0
 75 84  1  0  0  0
 76 80  1  0  0  0
 76 84  1  0  0  0
 76 86  2  0  0  0
 77148  1  0  0  0
 77149  1  0  0  0
 77150  1  0  0  0
 77 82  1  0  0  0
 78 82  1  0  0  0
 78151  1  0  0  0
 78152  1  0  0  0
 78153  1  0  0  0
 79 85  1  0  0  0
 79154  1  0  0  0
 79155  1  0  0  0
 80 81  1  0  0  0
 80156  1  0  0  0
 80157  1  0  0  0
 81158  1  0  0  0
 81159  1  0  0  0
 82160  1  0  0  0
 84161  1  0  0  0
 85162  1  0  0  0
M  ISO  4   1 100  68 101  81 101  85 100
M  END
> <chiral flag>
0

> <version>
0

> <s_m_source_file>
/data/baiqing/PycharmProjects/Reinvent-master-3.2/result/LINK_invent/BTK/process_docking_weight1_custom_product_contain_oxygen_bond_distance_aromatic_linkinvent_7_9_3/rearranged_h_0191.sdf

> <i_m_source_file_index>
66

> <r_mmod_Potential_Energy-OPLS-2005>
-212.621154785156

> <r_mmod_Stretch_Energy-OPLS-2005>
33.0755996704102

> <r_mmod_Bend_Energy-OPLS-2005>
108.499168395996

> <r_mmod_Torsional_Energy-OPLS-2005>
254.147766113281

> <r_mmod_Improper_Torsional_Energy-OPLS-2005>
9.17378425598145

> <r_mmod_Van_der_Waal_Energy-OPLS-2005>
170.983840942383

> <r_mmod_Electrostatic_Energy-OPLS-2005>
-585.441284179688

> <r_mmod_Solvation_Energy-OPLS-2005>
-233.353759765625

> <b_mmod_Minimization_Converged-OPLS-2005>
0

> <r_mmod_RMS_Derivative-OPLS-2005>
4.98945665359497

$$$$
68
                    3D
 Structure written by MMmdl.
166174  0  0  1  0            999 V2000
  -30.6902  -14.4376   20.6153 C   0  0  0  0  0  0
  -30.4284  -12.2982   19.4128 C   0  0  0  0  0  0
  -29.4932  -12.5175   18.2048 C   0  0  0  0  0  0
  -28.0132  -12.3786   18.6138 C   0  0  0  0  0  0
  -27.6668  -13.1982   19.8849 C   0  0  2  0  0  0
  -28.7042  -12.9316   20.9980 C   0  0  0  0  0  0
  -25.2610  -13.8141   20.5688 C   0  0  0  0  0  0
  -24.1851  -13.0436   20.9176 C   0  0  0  0  0  0
  -24.6387  -11.6893   20.8727 C   0  0  0  0  0  0
  -23.9049  -10.4285   21.0396 C   0  0  0  0  0  0
  -24.3605   -9.4202   21.9175 C   0  0  0  0  0  0
  -23.6287   -8.2237   22.0751 C   0  0  0  0  0  0
  -22.4266   -8.0274   21.3542 C   0  0  0  0  0  0
  -21.9896   -9.0244   20.4641 C   0  0  0  0  0  0
  -22.7220  -10.2127   20.3052 C   0  0  0  0  0  0
  -21.6860   -6.0729   22.5276 C   0  0  0  0  0  0
  -21.4009   -6.5634   23.8209 C   0  0  0  0  0  0
  -21.3663   -5.6788   24.9169 C   0  0  0  0  0  0
  -21.6050   -4.3052   24.7223 C   0  0  0  0  0  0
  -21.8820   -3.8148   23.4343 C   0  0  0  0  0  0
  -21.9192   -4.6958   22.3398 C   0  0  0  0  0  0
  -22.7869  -13.5244   21.1840 C   0  0  0  0  0  0
  -22.1663   -4.2148   21.0971 F   0  0  0  0  0  0
  -21.5632   -3.4534   25.7736 F   0  0  0  0  0  0
  -30.0422  -13.2512   20.4634 N   0  0  0  0  0  0
  -26.3050  -12.9295   20.3402 N   0  0  0  0  0  0
  -25.9315  -11.6459   20.5769 N   0  0  0  0  0  0
  -22.0516  -12.8230   22.0396 N   0  0  0  0  0  0
  -25.4351  -15.1859   20.4090 N   0  0  0  0  0  0
  -31.7845  -14.6722   20.0880 O   0  0  0  0  0  0
  -21.6642   -6.8866   21.4242 O   0  0  0  0  0  0
  -22.3550  -14.5558   20.6696 O   0  0  0  0  0  0
  -24.6124  -31.8701   23.2126 C   0  0  0  0  0  0
  -25.9030  -32.4834   23.8416 C   0  0  1  0  0  0
  -27.2400  -27.4584   20.1014 C   0  0  0  0  0  0
  -25.5904  -33.8633   24.2350 N   0  0  0  0  0  0
  -23.4002  -30.4918   21.5525 C   0  0  2  0  0  0
  -24.8488  -28.9547   20.1214 C   0  0  0  0  0  0
  -22.7400  -29.4670   22.5022 C   0  0  0  0  0  0
  -18.0268  -28.1371   22.8503 C   0  0  0  0  0  0
  -24.1490  -36.7312   23.2638 C   0  0  0  0  0  0
  -25.9258  -30.8404   21.3653 C   0  0  0  0  0  0
  -26.0048  -29.4729   20.7204 C   0  0  0  0  0  0
  -27.2041  -28.7287   20.7159 C   0  0  0  0  0  0
  -26.0753  -26.9481   19.4964 C   0  0  0  0  0  0
  -24.8759  -27.6867   19.5113 C   0  0  0  0  0  0
  -23.6099  -29.8202   20.1680 C   0  0  0  0  0  0
  -25.4109  -36.3121   24.0346 C   0  0  1  0  0  0
  -20.5858  -28.3651   23.1331 C   0  0  2  0  0  0
  -20.6763  -26.9392   22.5422 C   0  0  0  0  0  0
  -19.5740  -26.6380   21.5221 C   0  0  0  0  0  0
  -18.1915  -26.7923   22.1624 C   0  0  0  0  0  0
  -19.1519  -28.8828   23.2913 C   0  0  0  0  0  0
  -18.9450  -30.1438   23.8922 C   0  0  0  0  0  0
  -17.6452  -30.6579   24.0568 C   0  0  0  0  0  0
  -25.9038  -34.9486   23.5148 C   0  0  0  0  0  0
  -16.5343  -29.9085   23.6318 C   0  0  0  0  0  0
  -16.7260  -28.6498   23.0348 C   0  0  0  0  0  0
  -26.4469  -31.6600   25.0732 C   0  0  0  0  0  0
  -25.3748  -31.3687   26.1492 C   0  0  0  0  0  0
  -27.0301  -30.3053   24.6076 C   0  0  0  0  0  0
  -27.6057  -32.4312   25.7482 C   0  0  0  0  0  0
  -27.5592  -37.1805   24.8460 C   0  0  0  0  0  0
  -21.4129  -29.3027   22.3749 N   0  0  0  0  0  0
  -26.4293  -37.3807   23.9421 N   0  0  0  0  0  0
  -24.6641  -31.0814   22.1022 N   0  0  0  0  0  0
  -23.4179  -28.8219   23.3065 O   0  0  0  0  0  0
  -28.3896  -26.7132   20.0473 O   0  0  0  0  0  0
  -26.5585  -34.8929   22.4699 O   0  0  0  0  0  0
  -23.5323  -32.1439   23.7536 O   0  0  0  0  0  0
  -30.4900  -18.8389   20.4697 C   0  0  0  0  0  0
  -29.3836  -19.1587   21.2291 C   0  0  0  0  0  0
  -29.9711  -16.7520   21.2174 C   0  0  0  0  0  0
  -27.4002  -20.3967   18.7407 C   0  0  0  0  0  0
  -26.3702  -22.0091   20.3994 C   0  0  0  0  0  0
  -31.0651  -23.5937   19.4997 C   0  0  0  0  0  0
  -30.0390  -25.2795   21.0862 C   0  0  0  0  0  0
  -29.3355  -22.8056   21.2113 C   0  0  0  0  0  0
  -28.7849  -26.1488   21.2949 C   0  0  0  0  0  0
  -27.6411  -21.6416   19.6089 C   0  0  0  0  0  0
  -29.7968  -23.9705   20.2915 C   0  0  2  0  0  0
  -28.9137  -21.4970   20.4898 C   0  0  2  0  0  0
  -30.8112  -17.4732   20.4658 N   0  0  0  0  0  0
  -28.7640  -20.3995   21.4485 N   0  0  0  0  0  0
  -30.0180  -15.3379   21.3534 N   0  0  0  0  0  0
  -28.7278  -17.7302   21.9973 S   0  0  0  0  0  0
  -31.4706  -12.4108   19.1100 H   0  0  0  0  0  0
  -30.3391  -11.2778   19.7880 H   0  0  0  0  0  0
  -29.7286  -11.8051   17.4135 H   0  0  0  0  0  0
  -29.6648  -13.5087   17.7818 H   0  0  0  0  0  0
  -27.8126  -11.3209   18.7889 H   0  0  0  0  0  0
  -27.3661  -12.6765   17.7881 H   0  0  0  0  0  0
  -27.7253  -14.2528   19.6163 H   0  0  0  0  0  0
  -28.6757  -11.8801   21.2885 H   0  0  0  0  0  0
  -28.4531  -13.4796   21.9065 H   0  0  0  0  0  0
  -25.2747   -9.5685   22.4744 H   0  0  0  0  0  0
  -24.0005   -7.4630   22.7465 H   0  0  0  0  0  0
  -21.0832   -8.8754   19.8940 H   0  0  0  0  0  0
  -22.3676  -10.9663   19.6163 H   0  0  0  0  0  0
  -21.1996   -7.6138   23.9712 H   0  0  0  0  0  0
  -21.1492   -6.0515   25.9071 H   0  0  0  0  0  0
  -22.0600   -2.7611   23.2847 H   0  0  0  0  0  0
  -22.4137  -11.9885   22.4767 H   0  0  0  0  0  0
  -21.1138  -13.1256   22.2616 H   0  0  0  0  0  0
  -24.6700  -15.8430   20.5130 H   0  0  0  0  0  0
  -26.2866  -15.6222   20.0813 H   0  0  0  0  0  0
  -26.7111  -32.5565   23.1196 H   0  0  0  0  0  0
  -25.0099  -33.9808   25.0523 H   0  0  0  0  0  0
  -22.6869  -31.3068   21.4118 H   0  0  0  0  0  0
  -23.3765  -35.9629   23.3285 H   0  0  0  0  0  0
  -24.3600  -36.8939   22.2056 H   0  0  0  0  0  0
  -23.7213  -37.6505   23.6653 H   0  0  0  0  0  0
  -26.0347  -31.6036   20.5939 H   0  0  0  0  0  0
  -26.8155  -30.8975   21.9814 H   0  0  0  0  0  0
  -28.0991  -29.1299   21.1702 H   0  0  0  0  0  0
  -26.0973  -25.9763   19.0236 H   0  0  0  0  0  0
  -23.9865  -27.2791   19.0494 H   0  0  0  0  0  0
  -23.7184  -30.5930   19.4066 H   0  0  0  0  0  0
  -22.7348  -29.2390   19.8719 H   0  0  0  0  0  0
  -25.1278  -36.1997   25.0838 H   0  0  0  0  0  0
  -20.9941  -28.3218   24.1454 H   0  0  0  0  0  0
  -20.5676  -26.2265   23.3609 H   0  0  0  0  0  0
  -21.6635  -26.7453   22.1207 H   0  0  0  0  0  0
  -19.6900  -25.6295   21.1242 H   0  0  0  0  0  0
  -19.6678  -27.3200   20.6760 H   0  0  0  0  0  0
  -17.4191  -26.6697   21.4013 H   0  0  0  0  0  0
  -18.0291  -26.0054   22.9005 H   0  0  0  0  0  0
  -19.7926  -30.7248   24.2308 H   0  0  0  0  0  0
  -17.5003  -31.6262   24.5162 H   0  0  0  0  0  0
  -15.5342  -30.2994   23.7620 H   0  0  0  0  0  0
  -15.8663  -28.0822   22.7050 H   0  0  0  0  0  0
  -24.5899  -30.7062   25.7817 H   0  0  0  0  0  0
  -24.8973  -32.2844   26.4990 H   0  0  0  0  0  0
  -25.8114  -30.8803   27.0216 H   0  0  0  0  0  0
  -26.2831  -29.6812   24.1155 H   0  0  0  0  0  0
  -27.4117  -29.7282   25.4508 H   0  0  0  0  0  0
  -27.8645  -30.4392   23.9189 H   0  0  0  0  0  0
  -27.2679  -33.3582   26.2128 H   0  0  0  0  0  0
  -28.3827  -32.6924   25.0281 H   0  0  0  0  0  0
  -28.0777  -31.8398   26.5341 H   0  0  0  0  0  0
  -28.2590  -38.0125   24.7553 H   0  0  0  0  0  0
  -28.1112  -36.2660   24.6226 H   0  0  0  0  0  0
  -27.2323  -37.1383   25.8867 H   0  0  0  0  0  0
  -20.9294  -29.8741   21.6961 H   0  0  0  0  0  0
  -26.0189  -38.2884   24.1443 H   0  0  0  0  0  0
  -31.1053  -19.5118   19.8898 H   0  0  0  0  0  0
  -26.5970  -20.5682   18.0234 H   0  0  0  0  0  0
  -27.1236  -19.5327   19.3457 H   0  0  0  0  0  0
  -28.2932  -20.1354   18.1726 H   0  0  0  0  0  0
  -25.5191  -22.1276   19.7281 H   0  0  0  0  0  0
  -26.4821  -22.9520   20.9338 H   0  0  0  0  0  0
  -26.1057  -21.2404   21.1257 H   0  0  0  0  0  0
  -31.4222  -24.4322   18.9004 H   0  0  0  0  0  0
  -30.8845  -22.7748   18.8029 H   0  0  0  0  0  0
  -31.8757  -23.2936   20.1644 H   0  0  0  0  0  0
  -30.4840  -25.0425   22.0535 H   0  0  0  0  0  0
  -30.7781  -25.8987   20.5760 H   0  0  0  0  0  0
  -28.5246  -23.1476   21.8545 H   0  0  0  0  0  0
  -30.1556  -22.5755   21.8931 H   0  0  0  0  0  0
  -29.0124  -26.9477   22.0017 H   0  0  0  0  0  0
  -27.9746  -25.5563   21.7234 H   0  0  0  0  0  0
  -27.8190  -22.4525   18.9032 H   0  0  0  0  0  0
  -29.0148  -24.1829   19.5621 H   0  0  0  0  0  0
  -29.7292  -21.2403   19.8170 H   0  0  0  0  0  0
  -27.8847  -20.3991   21.9569 H   0  0  0  0  0  0
  -29.2396  -14.9439   21.8586 H   0  0  0  0  0  0
  1 25  1  0  0  0
  1 30  2  0  0  0
  1 85  1  0  0  0
  2  3  1  0  0  0
  2 25  1  0  0  0
  2 87  1  0  0  0
  2 88  1  0  0  0
  3  4  1  0  0  0
  3 89  1  0  0  0
  3 90  1  0  0  0
  4  5  1  0  0  0
  4 91  1  0  0  0
  4 92  1  0  0  0
  5  6  1  0  0  0
  5 26  1  0  0  0
  5 93  1  0  0  0
  6 25  1  0  0  0
  6 94  1  0  0  0
  6 95  1  0  0  0
  7  8  2  0  0  0
  7 26  1  0  0  0
  7 29  1  0  0  0
  8  9  1  0  0  0
  8 22  1  0  0  0
  9 10  1  0  0  0
  9 27  2  0  0  0
 10 11  2  0  0  0
 10 15  1  0  0  0
 11 12  1  0  0  0
 11 96  1  0  0  0
 12 13  2  0  0  0
 12 97  1  0  0  0
 13 14  1  0  0  0
 13 31  1  0  0  0
 14 15  2  0  0  0
 14 98  1  0  0  0
 15 99  1  0  0  0
 16 17  2  0  0  0
 16 21  1  0  0  0
 16 31  1  0  0  0
 17 18  1  0  0  0
 17100  1  0  0  0
 18 19  2  0  0  0
 18101  1  0  0  0
 19 20  1  0  0  0
 19 24  1  0  0  0
 20 21  2  0  0  0
 20102  1  0  0  0
 21 23  1  0  0  0
 22 28  1  0  0  0
 22 32  2  0  0  0
 26 27  1  0  0  0
 28103  1  0  0  0
 28104  1  0  0  0
 29105  1  0  0  0
 29106  1  0  0  0
 33 34  1  0  0  0
 33 66  1  0  0  0
 33 70  2  0  0  0
 34 36  1  0  0  0
 34 59  1  0  0  0
 34107  1  0  0  0
 35 44  2  0  0  0
 35 45  1  0  0  0
 35 68  1  0  0  0
 36 56  1  0  0  0
 36108  1  0  0  0
 37 39  1  0  0  0
 37 47  1  0  0  0
 37 66  1  0  0  0
 37109  1  0  0  0
 38 43  2  0  0  0
 38 46  1  0  0  0
 38 47  1  0  0  0
 39 64  1  0  0  0
 39 67  2  0  0  0
 40 52  1  0  0  0
 40 53  2  0  0  0
 40 58  1  0  0  0
 41110  1  0  0  0
 41111  1  0  0  0
 41112  1  0  0  0
 41 48  1  0  0  0
 42 43  1  0  0  0
 42 66  1  0  0  0
 42113  1  0  0  0
 42114  1  0  0  0
 43 44  1  0  0  0
 44115  1  0  0  0
 45 46  2  0  0  0
 45116  1  0  0  0
 46117  1  0  0  0
 47118  1  0  0  0
 47119  1  0  0  0
 48 56  1  0  0  0
 48 65  1  0  0  0
 48120  1  0  0  0
 49 50  1  0  0  0
 49 53  1  0  0  0
 49 64  1  0  0  0
 49121  1  0  0  0
 50 51  1  0  0  0
 50122  1  0  0  0
 50123  1  0  0  0
 51 52  1  0  0  0
 51124  1  0  0  0
 51125  1  0  0  0
 52126  1  0  0  0
 52127  1  0  0  0
 53 54  1  0  0  0
 54 55  2  0  0  0
 54128  1  0  0  0
 55 57  1  0  0  0
 55129  1  0  0  0
 56 69  2  0  0  0
 57 58  2  0  0  0
 57130  1  0  0  0
 58131  1  0  0  0
 59 60  1  0  0  0
 59 61  1  0  0  0
 59 62  1  0  0  0
 60132  1  0  0  0
 60133  1  0  0  0
 60134  1  0  0  0
 61135  1  0  0  0
 61136  1  0  0  0
 61137  1  0  0  0
 62138  1  0  0  0
 62139  1  0  0  0
 62140  1  0  0  0
 63 65  1  0  0  0
 63141  1  0  0  0
 63142  1  0  0  0
 63143  1  0  0  0
 64144  1  0  0  0
 65145  1  0  0  0
 68 79  1  0  0  0
 71 72  2  0  0  0
 71 83  1  0  0  0
 71146  1  0  0  0
 72 84  1  0  0  0
 72 86  1  0  0  0
 73 83  2  0  0  0
 73 85  1  0  0  0
 73 86  1  0  0  0
 74147  1  0  0  0
 74148  1  0  0  0
 74149  1  0  0  0
 74 80  1  0  0  0
 75 80  1  0  0  0
 75150  1  0  0  0
 75151  1  0  0  0
 75152  1  0  0  0
 76153  1  0  0  0
 76154  1  0  0  0
 76155  1  0  0  0
 76 81  1  0  0  0
 77 79  1  0  0  0
 77 81  1  0  0  0
 77156  1  0  0  0
 77157  1  0  0  0
 78 81  1  0  0  0
 78158  1  0  0  0
 78159  1  0  0  0
 78 82  1  0  0  0
 79160  1  0  0  0
 79161  1  0  0  0
 80 82  1  0  0  0
 80162  1  0  0  0
 81163  1  0  0  0
 82 84  1  0  0  0
 82164  1  0  0  0
 84165  1  0  0  0
 85166  1  0  0  0
M  ISO  4   1 100  68 101  79 101  85 100
M  END
> <chiral flag>
0

> <version>
0

> <s_m_source_file>
/data/baiqing/PycharmProjects/Reinvent-master-3.2/result/LINK_invent/BTK/process_docking_weight1_custom_product_contain_oxygen_bond_distance_aromatic_linkinvent_7_9_3/rearranged_h_0191.sdf

> <i_m_source_file_index>
67

> <r_mmod_Potential_Energy-OPLS-2005>
-54.3935165405273

> <r_mmod_Stretch_Energy-OPLS-2005>
34.3862609863281

> <r_mmod_Bend_Energy-OPLS-2005>
102.272758483887

> <r_mmod_Torsional_Energy-OPLS-2005>
260.499176025391

> <r_mmod_Improper_Torsional_Energy-OPLS-2005>
5.5610818862915

> <r_mmod_Van_der_Waal_Energy-OPLS-2005>
125.367706298828

> <r_mmod_Electrostatic_Energy-OPLS-2005>
-371.990509033203

> <r_mmod_Solvation_Energy-OPLS-2005>
-218.749526977539

> <b_mmod_Minimization_Converged-OPLS-2005>
0

> <r_mmod_RMS_Derivative-OPLS-2005>
1.42998552322388

$$$$
69
                    3D
 Structure written by MMmdl.
171179  0  0  1  0            999 V2000
  -30.7123  -14.4397   20.6180 C   0  0  0  0  0  0
  -30.4227  -12.3032   19.4099 C   0  0  0  0  0  0
  -29.4903  -12.5129   18.1995 C   0  0  0  0  0  0
  -28.0122  -12.3693   18.6137 C   0  0  0  0  0  0
  -27.6619  -13.2011   19.8762 C   0  0  2  0  0  0
  -28.7020  -12.9611   20.9934 C   0  0  0  0  0  0
  -25.2592  -13.8149   20.5676 C   0  0  0  0  0  0
  -24.1838  -13.0437   20.9182 C   0  0  0  0  0  0
  -24.6380  -11.6901   20.8733 C   0  0  0  0  0  0
  -23.9045  -10.4293   21.0406 C   0  0  0  0  0  0
  -24.3602   -9.4210   21.9184 C   0  0  0  0  0  0
  -23.6284   -8.2243   22.0754 C   0  0  0  0  0  0
  -22.4270   -8.0276   21.3541 C   0  0  0  0  0  0
  -21.9897   -9.0249   20.4647 C   0  0  0  0  0  0
  -22.7218  -10.2134   20.3055 C   0  0  0  0  0  0
  -21.6853   -6.0733   22.5280 C   0  0  0  0  0  0
  -21.4012   -6.5636   23.8213 C   0  0  0  0  0  0
  -21.3661   -5.6789   24.9175 C   0  0  0  0  0  0
  -21.6042   -4.3052   24.7225 C   0  0  0  0  0  0
  -21.8818   -3.8145   23.4347 C   0  0  0  0  0  0
  -21.9192   -4.6961   22.3403 C   0  0  0  0  0  0
  -22.7864  -13.5248   21.1844 C   0  0  0  0  0  0
  -22.1662   -4.2147   21.0981 F   0  0  0  0  0  0
  -21.5631   -3.4535   25.7738 F   0  0  0  0  0  0
  -30.0350  -13.2722   20.4461 N   0  0  0  0  0  0
  -26.3018  -12.9308   20.3356 N   0  0  0  0  0  0
  -25.9302  -11.6475   20.5755 N   0  0  0  0  0  0
  -22.0489  -12.8253   22.0398 N   0  0  0  0  0  0
  -25.4322  -15.1866   20.4076 N   0  0  0  0  0  0
  -31.8209  -14.6446   20.1110 O   0  0  0  0  0  0
  -21.6636   -6.8874   21.4242 O   0  0  0  0  0  0
  -22.3562  -14.5556   20.6687 O   0  0  0  0  0  0
  -24.6116  -31.8695   23.2112 C   0  0  0  0  0  0
  -25.9019  -32.4831   23.8404 C   0  0  1  0  0  0
  -27.2373  -27.4544   20.1009 C   0  0  0  0  0  0
  -25.5886  -33.8629   24.2336 N   0  0  0  0  0  0
  -23.3997  -30.4916   21.5503 C   0  0  2  0  0  0
  -24.8489  -28.9557   20.1188 C   0  0  0  0  0  0
  -22.7395  -29.4664   22.4994 C   0  0  0  0  0  0
  -18.0269  -28.1377   22.8497 C   0  0  0  0  0  0
  -24.1484  -36.7324   23.2640 C   0  0  0  0  0  0
  -25.9253  -30.8392   21.3633 C   0  0  0  0  0  0
  -26.0045  -29.4712   20.7208 C   0  0  0  0  0  0
  -27.2025  -28.7245   20.7182 C   0  0  0  0  0  0
  -26.0734  -26.9489   19.4908 C   0  0  0  0  0  0
  -24.8757  -27.6899   19.5048 C   0  0  0  0  0  0
  -23.6094  -29.8209   20.1654 C   0  0  0  0  0  0
  -25.4105  -36.3119   24.0343 C   0  0  1  0  0  0
  -20.5858  -28.3658   23.1326 C   0  0  2  0  0  0
  -20.6761  -26.9398   22.5417 C   0  0  0  0  0  0
  -19.5740  -26.6386   21.5213 C   0  0  0  0  0  0
  -18.1918  -26.7925   22.1625 C   0  0  0  0  0  0
  -19.1518  -28.8834   23.2910 C   0  0  0  0  0  0
  -18.9449  -30.1443   23.8915 C   0  0  0  0  0  0
  -17.6452  -30.6586   24.0569 C   0  0  0  0  0  0
  -25.9030  -34.9482   23.5135 C   0  0  0  0  0  0
  -16.5342  -29.9089   23.6326 C   0  0  0  0  0  0
  -16.7258  -28.6506   23.0346 C   0  0  0  0  0  0
  -26.4461  -31.6599   25.0720 C   0  0  0  0  0  0
  -25.3742  -31.3700   26.1480 C   0  0  0  0  0  0
  -27.0290  -30.3047   24.6074 C   0  0  0  0  0  0
  -27.6041  -32.4315   25.7480 C   0  0  0  0  0  0
  -27.5580  -37.1816   24.8467 C   0  0  0  0  0  0
  -21.4126  -29.3031   22.3738 N   0  0  0  0  0  0
  -26.4292  -37.3801   23.9410 N   0  0  0  0  0  0
  -24.6635  -31.0813   22.1005 N   0  0  0  0  0  0
  -23.4174  -28.8211   23.3038 O   0  0  0  0  0  0
  -28.3904  -26.7124   20.0376 O   0  0  0  0  0  0
  -26.5591  -34.8927   22.4696 O   0  0  0  0  0  0
  -23.5314  -32.1433   23.7520 O   0  0  0  0  0  0
  -29.4063  -17.7241   21.5313 C   0  0  0  0  0  0
  -31.9243  -18.3595   22.2177 C   0  0  0  0  0  0
  -30.4190  -16.7278   21.5581 C   0  0  0  0  0  0
  -30.9053  -19.3431   22.1984 C   0  0  0  0  0  0
  -30.5876  -20.6872   27.0459 C   0  0  0  0  0  0
  -28.7561  -20.0701   24.6049 C   0  0  0  0  0  0
  -28.3053  -24.1781   23.7604 C   0  0  0  0  0  0
  -30.9993  -20.8137   25.5709 C   0  0  0  0  0  0
  -28.5776  -24.6045   21.2665 C   0  0  0  0  0  0
  -29.3385  -22.3349   22.2694 C   0  0  0  0  0  0
  -28.8170  -26.1351   21.2709 C   0  0  0  0  0  0
  -29.8339  -21.1699   24.6201 C   0  0  1  0  0  0
  -29.1517  -23.8691   22.5085 C   0  0  2  0  0  0
  -30.3548  -21.6326   23.2207 C   0  0  1  0  0  0
  -31.6887  -17.0640   21.9035 N   0  0  0  0  0  0
  -29.6432  -19.0284   21.8270 N   0  0  0  0  0  0
  -30.0216  -15.3975   21.2618 N   0  0  0  0  0  0
  -31.2308  -20.6619   22.5489 N   0  0  0  0  0  0
  -31.4660  -12.4078   19.1065 H   0  0  0  0  0  0
  -30.3270  -11.2867   19.7953 H   0  0  0  0  0  0
  -29.7280  -11.7963   17.4123 H   0  0  0  0  0  0
  -29.6569  -13.5030   17.7722 H   0  0  0  0  0  0
  -27.8224  -11.3122   18.8038 H   0  0  0  0  0  0
  -27.3597  -12.6493   17.7859 H   0  0  0  0  0  0
  -27.7122  -14.2515   19.5888 H   0  0  0  0  0  0
  -28.6765  -11.9180   21.3129 H   0  0  0  0  0  0
  -28.4575  -13.5380   21.8865 H   0  0  0  0  0  0
  -25.2745   -9.5694   22.4758 H   0  0  0  0  0  0
  -23.9998   -7.4634   22.7470 H   0  0  0  0  0  0
  -21.0828   -8.8762   19.8954 H   0  0  0  0  0  0
  -22.3670  -10.9671   19.6166 H   0  0  0  0  0  0
  -21.2003   -7.6144   23.9717 H   0  0  0  0  0  0
  -21.1485   -6.0518   25.9078 H   0  0  0  0  0  0
  -22.0598   -2.7608   23.2846 H   0  0  0  0  0  0
  -22.4089  -11.9916   22.4801 H   0  0  0  0  0  0
  -21.1104  -13.1294   22.2584 H   0  0  0  0  0  0
  -24.6601  -15.8377   20.5038 H   0  0  0  0  0  0
  -26.2727  -15.6222   20.0502 H   0  0  0  0  0  0
  -26.7094  -32.5557   23.1177 H   0  0  0  0  0  0
  -25.0046  -33.9796   25.0489 H   0  0  0  0  0  0
  -22.6874  -31.3072   21.4100 H   0  0  0  0  0  0
  -23.3736  -35.9668   23.3316 H   0  0  0  0  0  0
  -24.3580  -36.8921   22.2052 H   0  0  0  0  0  0
  -23.7245  -37.6539   23.6640 H   0  0  0  0  0  0
  -26.0313  -31.6006   20.5891 H   0  0  0  0  0  0
  -26.8159  -30.8997   21.9766 H   0  0  0  0  0  0
  -28.0972  -29.1234   21.1756 H   0  0  0  0  0  0
  -26.0975  -25.9814   19.0089 H   0  0  0  0  0  0
  -23.9889  -27.2867   19.0356 H   0  0  0  0  0  0
  -23.7164  -30.5944   19.4039 H   0  0  0  0  0  0
  -22.7347  -29.2382   19.8704 H   0  0  0  0  0  0
  -25.1279  -36.1990   25.0837 H   0  0  0  0  0  0
  -20.9951  -28.3219   24.1445 H   0  0  0  0  0  0
  -20.5668  -26.2266   23.3603 H   0  0  0  0  0  0
  -21.6635  -26.7447   22.1211 H   0  0  0  0  0  0
  -19.6902  -25.6301   21.1233 H   0  0  0  0  0  0
  -19.6680  -27.3212   20.6756 H   0  0  0  0  0  0
  -17.4192  -26.6678   21.4023 H   0  0  0  0  0  0
  -18.0315  -26.0061   22.9016 H   0  0  0  0  0  0
  -19.7926  -30.7259   24.2287 H   0  0  0  0  0  0
  -17.5008  -31.6267   24.5169 H   0  0  0  0  0  0
  -15.5344  -30.3000   23.7640 H   0  0  0  0  0  0
  -15.8658  -28.0836   22.7043 H   0  0  0  0  0  0
  -24.5905  -30.7055   25.7824 H   0  0  0  0  0  0
  -24.8950  -32.2859   26.4949 H   0  0  0  0  0  0
  -25.8111  -30.8856   27.0224 H   0  0  0  0  0  0
  -26.2827  -29.6813   24.1135 H   0  0  0  0  0  0
  -27.4082  -29.7269   25.4513 H   0  0  0  0  0  0
  -27.8651  -30.4375   23.9204 H   0  0  0  0  0  0
  -27.2656  -33.3595   26.2100 H   0  0  0  0  0  0
  -28.3830  -32.6908   25.0297 H   0  0  0  0  0  0
  -28.0736  -31.8417   26.5363 H   0  0  0  0  0  0
  -28.2611  -38.0101   24.7505 H   0  0  0  0  0  0
  -28.1059  -36.2633   24.6298 H   0  0  0  0  0  0
  -27.2301  -37.1482   25.8871 H   0  0  0  0  0  0
  -20.9277  -29.8755   21.6970 H   0  0  0  0  0  0
  -26.0182  -38.2884   24.1397 H   0  0  0  0  0  0
  -28.3896  -17.4752   21.2634 H   0  0  0  0  0  0
  -32.9369  -18.6096   22.4995 H   0  0  0  0  0  0
  -31.4598  -20.5100   27.6758 H   0  0  0  0  0  0
  -29.8997  -19.8567   27.2050 H   0  0  0  0  0  0
  -30.1044  -21.5976   27.4022 H   0  0  0  0  0  0
  -28.2283  -20.0276   25.5574 H   0  0  0  0  0  0
  -29.1865  -19.0837   24.4385 H   0  0  0  0  0  0
  -28.0029  -20.2468   23.8384 H   0  0  0  0  0  0
  -27.9612  -25.2109   23.7861 H   0  0  0  0  0  0
  -28.8801  -24.0454   24.6744 H   0  0  0  0  0  0
  -27.4192  -23.5444   23.8147 H   0  0  0  0  0  0
  -31.4757  -19.8871   25.2477 H   0  0  0  0  0  0
  -31.7667  -21.5858   25.5009 H   0  0  0  0  0  0
  -29.0467  -24.2074   20.3657 H   0  0  0  0  0  0
  -27.5122  -24.3929   21.1654 H   0  0  0  0  0  0
  -29.7124  -22.2124   21.2518 H   0  0  0  0  0  0
  -28.3758  -21.8242   22.2722 H   0  0  0  0  0  0
  -29.8830  -26.3383   21.3778 H   0  0  0  0  0  0
  -28.3296  -26.6084   22.1238 H   0  0  0  0  0  0
  -29.3477  -22.0311   25.0673 H   0  0  0  0  0  0
  -30.1450  -24.2911   22.6697 H   0  0  0  0  0  0
  -31.0701  -22.4218   23.4562 H   0  0  0  0  0  0
  -29.0697  -15.1583   21.4909 H   0  0  0  0  0  0
  -32.2174  -20.7954   22.7478 H   0  0  0  0  0  0
  1 25  1  0  0  0
  1 30  2  0  0  0
  1 87  1  0  0  0
  2  3  1  0  0  0
  2 25  1  0  0  0
  2 89  1  0  0  0
  2 90  1  0  0  0
  3  4  1  0  0  0
  3 91  1  0  0  0
  3 92  1  0  0  0
  4  5  1  0  0  0
  4 93  1  0  0  0
  4 94  1  0  0  0
  5  6  1  0  0  0
  5 26  1  0  0  0
  5 95  1  0  0  0
  6 25  1  0  0  0
  6 96  1  0  0  0
  6 97  1  0  0  0
  7  8  2  0  0  0
  7 26  1  0  0  0
  7 29  1  0  0  0
  8  9  1  0  0  0
  8 22  1  0  0  0
  9 10  1  0  0  0
  9 27  2  0  0  0
 10 11  2  0  0  0
 10 15  1  0  0  0
 11 12  1  0  0  0
 11 98  1  0  0  0
 12 13  2  0  0  0
 12 99  1  0  0  0
 13 14  1  0  0  0
 13 31  1  0  0  0
 14 15  2  0  0  0
 14100  1  0  0  0
 15101  1  0  0  0
 16 17  2  0  0  0
 16 21  1  0  0  0
 16 31  1  0  0  0
 17 18  1  0  0  0
 17102  1  0  0  0
 18 19  2  0  0  0
 18103  1  0  0  0
 19 20  1  0  0  0
 19 24  1  0  0  0
 20 21  2  0  0  0
 20104  1  0  0  0
 21 23  1  0  0  0
 22 28  1  0  0  0
 22 32  2  0  0  0
 26 27  1  0  0  0
 28105  1  0  0  0
 28106  1  0  0  0
 29107  1  0  0  0
 29108  1  0  0  0
 33 34  1  0  0  0
 33 66  1  0  0  0
 33 70  2  0  0  0
 34 36  1  0  0  0
 34 59  1  0  0  0
 34109  1  0  0  0
 35 44  2  0  0  0
 35 45  1  0  0  0
 35 68  1  0  0  0
 36 56  1  0  0  0
 36110  1  0  0  0
 37 39  1  0  0  0
 37 47  1  0  0  0
 37 66  1  0  0  0
 37111  1  0  0  0
 38 43  2  0  0  0
 38 46  1  0  0  0
 38 47  1  0  0  0
 39 64  1  0  0  0
 39 67  2  0  0  0
 40 52  1  0  0  0
 40 53  2  0  0  0
 40 58  1  0  0  0
 41112  1  0  0  0
 41113  1  0  0  0
 41114  1  0  0  0
 41 48  1  0  0  0
 42 43  1  0  0  0
 42 66  1  0  0  0
 42115  1  0  0  0
 42116  1  0  0  0
 43 44  1  0  0  0
 44117  1  0  0  0
 45 46  2  0  0  0
 45118  1  0  0  0
 46119  1  0  0  0
 47120  1  0  0  0
 47121  1  0  0  0
 48 56  1  0  0  0
 48 65  1  0  0  0
 48122  1  0  0  0
 49 50  1  0  0  0
 49 53  1  0  0  0
 49 64  1  0  0  0
 49123  1  0  0  0
 50 51  1  0  0  0
 50124  1  0  0  0
 50125  1  0  0  0
 51 52  1  0  0  0
 51126  1  0  0  0
 51127  1  0  0  0
 52128  1  0  0  0
 52129  1  0  0  0
 53 54  1  0  0  0
 54 55  2  0  0  0
 54130  1  0  0  0
 55 57  1  0  0  0
 55131  1  0  0  0
 56 69  2  0  0  0
 57 58  2  0  0  0
 57132  1  0  0  0
 58133  1  0  0  0
 59 60  1  0  0  0
 59 61  1  0  0  0
 59 62  1  0  0  0
 60134  1  0  0  0
 60135  1  0  0  0
 60136  1  0  0  0
 61137  1  0  0  0
 61138  1  0  0  0
 61139  1  0  0  0
 62140  1  0  0  0
 62141  1  0  0  0
 62142  1  0  0  0
 63 65  1  0  0  0
 63143  1  0  0  0
 63144  1  0  0  0
 63145  1  0  0  0
 64146  1  0  0  0
 65147  1  0  0  0
 68 81  1  0  0  0
 71 73  2  0  0  0
 71 86  1  0  0  0
 71148  1  0  0  0
 72 74  1  0  0  0
 72 85  2  0  0  0
 72149  1  0  0  0
 73 85  1  0  0  0
 73 87  1  0  0  0
 74 86  2  0  0  0
 74 88  1  0  0  0
 75 78  1  0  0  0
 75150  1  0  0  0
 75151  1  0  0  0
 75152  1  0  0  0
 76153  1  0  0  0
 76154  1  0  0  0
 76155  1  0  0  0
 76 82  1  0  0  0
 77156  1  0  0  0
 77157  1  0  0  0
 77158  1  0  0  0
 77 83  1  0  0  0
 78 82  1  0  0  0
 78159  1  0  0  0
 78160  1  0  0  0
 79 81  1  0  0  0
 79 83  1  0  0  0
 79161  1  0  0  0
 79162  1  0  0  0
 80 83  1  0  0  0
 80163  1  0  0  0
 80164  1  0  0  0
 80 84  1  0  0  0
 81165  1  0  0  0
 81166  1  0  0  0
 82 84  1  0  0  0
 82167  1  0  0  0
 83168  1  0  0  0
 84 88  1  0  0  0
 84169  1  0  0  0
 87170  1  0  0  0
 88171  1  0  0  0
M  ISO  4   1 100  68 101  81 101  87 100
M  END
> <chiral flag>
0

> <version>
0

> <s_m_source_file>
/data/baiqing/PycharmProjects/Reinvent-master-3.2/result/LINK_invent/BTK/process_docking_weight1_custom_product_contain_oxygen_bond_distance_aromatic_linkinvent_7_9_3/rearranged_h_0191.sdf

> <i_m_source_file_index>
68

> <r_mmod_Potential_Energy-OPLS-2005>
-11.0157499313354

> <r_mmod_Stretch_Energy-OPLS-2005>
40.0962715148926

> <r_mmod_Bend_Energy-OPLS-2005>
128.231140136719

> <r_mmod_Torsional_Energy-OPLS-2005>
264.373260498047

> <r_mmod_Improper_Torsional_Energy-OPLS-2005>
5.3436107635498

> <r_mmod_Van_der_Waal_Energy-OPLS-2005>
157.37922668457

> <r_mmod_Electrostatic_Energy-OPLS-2005>
-385.603179931641

> <r_mmod_Solvation_Energy-OPLS-2005>
-229.560409545898

> <b_mmod_Minimization_Converged-OPLS-2005>
0

> <r_mmod_RMS_Derivative-OPLS-2005>
0.66777515411377

$$$$
70
                    3D
 Structure written by MMmdl.
155163  0  0  1  0            999 V2000
  -30.6511  -14.5361   20.6015 C   0  0  0  0  0  0
  -30.4475  -12.3532   19.4344 C   0  0  0  0  0  0
  -29.5072  -12.5102   18.2185 C   0  0  0  0  0  0
  -28.0294  -12.3533   18.6317 C   0  0  0  0  0  0
  -27.6653  -13.1995   19.8799 C   0  0  2  0  0  0
  -28.7056  -12.9735   21.0003 C   0  0  0  0  0  0
  -25.2603  -13.8141   20.5676 C   0  0  0  0  0  0
  -24.1838  -13.0431   20.9173 C   0  0  0  0  0  0
  -24.6375  -11.6891   20.8721 C   0  0  0  0  0  0
  -23.9032  -10.4281   21.0387 C   0  0  0  0  0  0
  -24.3583   -9.4201   21.9166 C   0  0  0  0  0  0
  -23.6262   -8.2241   22.0748 C   0  0  0  0  0  0
  -22.4254   -8.0268   21.3537 C   0  0  0  0  0  0
  -21.9880   -9.0238   20.4645 C   0  0  0  0  0  0
  -22.7201  -10.2120   20.3045 C   0  0  0  0  0  0
  -21.6854   -6.0717   22.5273 C   0  0  0  0  0  0
  -21.4017   -6.5623   23.8203 C   0  0  0  0  0  0
  -21.3661   -5.6782   24.9171 C   0  0  0  0  0  0
  -21.6045   -4.3042   24.7224 C   0  0  0  0  0  0
  -21.8815   -3.8132   23.4345 C   0  0  0  0  0  0
  -21.9194   -4.6947   22.3402 C   0  0  0  0  0  0
  -22.7860  -13.5235   21.1834 C   0  0  0  0  0  0
  -22.1656   -4.2126   21.0981 F   0  0  0  0  0  0
  -21.5629   -3.4529   25.7742 F   0  0  0  0  0  0
  -30.0348  -13.3236   20.4623 N   0  0  0  0  0  0
  -26.3030  -12.9290   20.3366 N   0  0  0  0  0  0
  -25.9306  -11.6457   20.5752 N   0  0  0  0  0  0
  -22.0506  -12.8243   22.0406 N   0  0  0  0  0  0
  -25.4369  -15.1856   20.4088 N   0  0  0  0  0  0
  -31.7351  -14.7956   20.0693 O   0  0  0  0  0  0
  -21.6635   -6.8859   21.4233 O   0  0  0  0  0  0
  -22.3550  -14.5547   20.6692 O   0  0  0  0  0  0
  -24.6224  -31.8628   23.2091 C   0  0  0  0  0  0
  -25.9094  -32.4799   23.8398 C   0  0  1  0  0  0
  -27.2193  -27.3668   20.0942 C   0  0  0  0  0  0
  -25.5929  -33.8595   24.2319 N   0  0  0  0  0  0
  -23.4121  -30.4914   21.5519 C   0  0  2  0  0  0
  -24.8550  -28.9595   20.1116 C   0  0  0  0  0  0
  -22.7445  -29.4632   22.4955 C   0  0  0  0  0  0
  -18.0283  -28.1384   22.8483 C   0  0  0  0  0  0
  -24.1490  -36.7302   23.2634 C   0  0  0  0  0  0
  -25.9513  -30.8090   21.3724 C   0  0  0  0  0  0
  -26.0240  -29.4414   20.7133 C   0  0  0  0  0  0
  -27.2093  -28.6550   20.6977 C   0  0  0  0  0  0
  -26.0226  -26.9290   19.4751 C   0  0  0  0  0  0
  -24.8537  -27.7073   19.4854 C   0  0  0  0  0  0
  -23.6217  -29.8341   20.1647 C   0  0  0  0  0  0
  -25.4114  -36.3101   24.0332 C   0  0  1  0  0  0
  -20.5882  -28.3677   23.1292 C   0  0  2  0  0  0
  -20.6764  -26.9401   22.5409 C   0  0  0  0  0  0
  -19.5744  -26.6385   21.5202 C   0  0  0  0  0  0
  -18.1930  -26.7935   22.1614 C   0  0  0  0  0  0
  -19.1535  -28.8852   23.2893 C   0  0  0  0  0  0
  -18.9450  -30.1452   23.8908 C   0  0  0  0  0  0
  -17.6450  -30.6592   24.0562 C   0  0  0  0  0  0
  -25.9031  -34.9459   23.5115 C   0  0  0  0  0  0
  -16.5346  -29.9080   23.6333 C   0  0  0  0  0  0
  -16.7267  -28.6505   23.0342 C   0  0  0  0  0  0
  -26.4513  -31.6592   25.0738 C   0  0  0  0  0  0
  -25.3775  -31.3685   26.1481 C   0  0  0  0  0  0
  -27.0337  -30.3032   24.6126 C   0  0  0  0  0  0
  -27.6090  -32.4307   25.7505 C   0  0  0  0  0  0
  -27.5585  -37.1801   24.8467 C   0  0  0  0  0  0
  -21.4165  -29.3030   22.3688 N   0  0  0  0  0  0
  -26.4298  -37.3790   23.9411 N   0  0  0  0  0  0
  -24.6815  -31.0688   22.1028 N   0  0  0  0  0  0
  -23.4193  -28.8122   23.2984 O   0  0  0  0  0  0
  -28.3541  -26.5506   20.1294 O   0  0  0  0  0  0
  -26.5585  -34.8911   22.4665 O   0  0  0  0  0  0
  -23.5394  -32.1395   23.7445 O   0  0  0  0  0  0
  -29.6349  -18.7494   22.7145 C   0  0  0  0  0  0
  -29.9331  -19.3594   21.5118 C   0  0  0  0  0  0
  -30.0396  -16.8430   21.5062 C   0  0  0  0  0  0
  -29.2501  -19.4247   23.9975 C   0  0  0  0  0  0
  -29.2722  -24.0954   20.2358 C   0  0  0  0  0  0
  -29.9652  -21.4707   20.0183 C   0  0  0  0  0  0
  -28.1355  -25.1217   19.9050 C   0  0  0  0  0  0
  -28.8833  -22.6065   19.8988 C   0  0  1  0  0  0
  -29.6711  -17.3472   22.6865 N   0  0  0  0  0  0
  -29.9283  -20.7677   21.3169 N   0  0  0  0  0  0
  -29.9636  -15.4211   21.3563 N   0  0  0  0  0  0
  -27.8381  -22.1583   20.7356 O   0  0  0  0  0  0
  -30.3455  -18.1238   20.3017 S   0  0  0  0  0  0
  -31.4864  -12.4947   19.1302 H   0  0  0  0  0  0
  -30.3962  -11.3408   19.8358 H   0  0  0  0  0  0
  -29.7603  -11.7758   17.4518 H   0  0  0  0  0  0
  -29.6551  -13.4910   17.7641 H   0  0  0  0  0  0
  -27.8550  -11.2965   18.8405 H   0  0  0  0  0  0
  -27.3743  -12.6058   17.7985 H   0  0  0  0  0  0
  -27.7119  -14.2466   19.5808 H   0  0  0  0  0  0
  -28.7018  -11.9271   21.3070 H   0  0  0  0  0  0
  -28.4371  -13.5283   21.9009 H   0  0  0  0  0  0
  -25.2725   -9.5682   22.4736 H   0  0  0  0  0  0
  -23.9972   -7.4634   22.7469 H   0  0  0  0  0  0
  -21.0808   -8.8746   19.8957 H   0  0  0  0  0  0
  -22.3643  -10.9648   19.6151 H   0  0  0  0  0  0
  -21.2019   -7.6131   23.9697 H   0  0  0  0  0  0
  -21.1486   -6.0516   25.9066 H   0  0  0  0  0  0
  -22.0602   -2.7595   23.2859 H   0  0  0  0  0  0
  -22.4125  -11.9890   22.4768 H   0  0  0  0  0  0
  -21.1132  -13.1287   22.2649 H   0  0  0  0  0  0
  -24.6789  -15.8485   20.5257 H   0  0  0  0  0  0
  -26.2952  -15.6173   20.0886 H   0  0  0  0  0  0
  -26.7151  -32.5497   23.1138 H   0  0  0  0  0  0
  -25.0139  -33.9744   25.0513 H   0  0  0  0  0  0
  -22.7071  -31.3140   21.4168 H   0  0  0  0  0  0
  -23.3746  -35.9641   23.3313 H   0  0  0  0  0  0
  -24.3583  -36.8890   22.2043 H   0  0  0  0  0  0
  -23.7238  -37.6506   23.6641 H   0  0  0  0  0  0
  -26.0739  -31.5747   20.6042 H   0  0  0  0  0  0
  -26.8369  -30.8585   21.9943 H   0  0  0  0  0  0
  -28.1092  -29.0173   21.1732 H   0  0  0  0  0  0
  -25.9507  -25.9741   18.9777 H   0  0  0  0  0  0
  -23.9567  -27.3371   19.0086 H   0  0  0  0  0  0
  -23.7368  -30.6151   19.4123 H   0  0  0  0  0  0
  -22.7420  -29.2633   19.8608 H   0  0  0  0  0  0
  -25.1285  -36.1965   25.0827 H   0  0  0  0  0  0
  -20.9998  -28.3250   24.1401 H   0  0  0  0  0  0
  -20.5657  -26.2268   23.3592 H   0  0  0  0  0  0
  -21.6630  -26.7418   22.1198 H   0  0  0  0  0  0
  -19.6895  -25.6296   21.1217 H   0  0  0  0  0  0
  -19.6703  -27.3201   20.6743 H   0  0  0  0  0  0
  -17.4188  -26.6683   21.4026 H   0  0  0  0  0  0
  -18.0344  -26.0087   22.9021 H   0  0  0  0  0  0
  -19.7920  -30.7274   24.2282 H   0  0  0  0  0  0
  -17.4994  -31.6270   24.5151 H   0  0  0  0  0  0
  -15.5340  -30.2968   23.7668 H   0  0  0  0  0  0
  -15.8668  -28.0825   22.7039 H   0  0  0  0  0  0
  -24.5965  -30.7015   25.7818 H   0  0  0  0  0  0
  -24.8949  -32.2822   26.4959 H   0  0  0  0  0  0
  -25.8134  -30.8839   27.0225 H   0  0  0  0  0  0
  -26.2873  -29.6791   24.1193 H   0  0  0  0  0  0
  -27.4110  -29.7283   25.4595 H   0  0  0  0  0  0
  -27.8730  -30.4351   23.9291 H   0  0  0  0  0  0
  -27.2727  -33.3595   26.2135 H   0  0  0  0  0  0
  -28.3894  -32.6871   25.0326 H   0  0  0  0  0  0
  -28.0786  -31.8391   26.5374 H   0  0  0  0  0  0
  -28.2601  -38.0099   24.7502 H   0  0  0  0  0  0
  -28.1073  -36.2612   24.6318 H   0  0  0  0  0  0
  -27.2288  -37.1492   25.8867 H   0  0  0  0  0  0
  -20.9319  -29.8791   21.6947 H   0  0  0  0  0  0
  -26.0178  -38.2860   24.1423 H   0  0  0  0  0  0
  -29.1441  -20.5019   23.8776 H   0  0  0  0  0  0
  -29.9990  -19.2568   24.7703 H   0  0  0  0  0  0
  -28.2942  -19.0519   24.3668 H   0  0  0  0  0  0
  -29.5561  -24.1856   21.2844 H   0  0  0  0  0  0
  -30.1559  -24.3646   19.6554 H   0  0  0  0  0  0
  -29.8008  -20.7448   19.2205 H   0  0  0  0  0  0
  -30.9607  -21.8822   19.8405 H   0  0  0  0  0  0
  -27.2657  -24.8137   20.4891 H   0  0  0  0  0  0
  -27.8774  -24.9762   18.8548 H   0  0  0  0  0  0
  -28.5209  -22.5884   18.8687 H   0  0  0  0  0  0
  -30.0549  -21.3657   22.1322 H   0  0  0  0  0  0
  -29.2034  -14.9980   21.8625 H   0  0  0  0  0  0
  -28.2430  -21.4064   21.1791 H   0  0  0  0  0  0
  1 25  1  0  0  0
  1 30  2  0  0  0
  1 81  1  0  0  0
  2  3  1  0  0  0
  2 25  1  0  0  0
  2 84  1  0  0  0
  2 85  1  0  0  0
  3  4  1  0  0  0
  3 86  1  0  0  0
  3 87  1  0  0  0
  4  5  1  0  0  0
  4 88  1  0  0  0
  4 89  1  0  0  0
  5  6  1  0  0  0
  5 26  1  0  0  0
  5 90  1  0  0  0
  6 25  1  0  0  0
  6 91  1  0  0  0
  6 92  1  0  0  0
  7  8  2  0  0  0
  7 26  1  0  0  0
  7 29  1  0  0  0
  8  9  1  0  0  0
  8 22  1  0  0  0
  9 10  1  0  0  0
  9 27  2  0  0  0
 10 11  2  0  0  0
 10 15  1  0  0  0
 11 12  1  0  0  0
 11 93  1  0  0  0
 12 13  2  0  0  0
 12 94  1  0  0  0
 13 14  1  0  0  0
 13 31  1  0  0  0
 14 15  2  0  0  0
 14 95  1  0  0  0
 15 96  1  0  0  0
 16 17  2  0  0  0
 16 21  1  0  0  0
 16 31  1  0  0  0
 17 18  1  0  0  0
 17 97  1  0  0  0
 18 19  2  0  0  0
 18 98  1  0  0  0
 19 20  1  0  0  0
 19 24  1  0  0  0
 20 21  2  0  0  0
 20 99  1  0  0  0
 21 23  1  0  0  0
 22 28  1  0  0  0
 22 32  2  0  0  0
 26 27  1  0  0  0
 28100  1  0  0  0
 28101  1  0  0  0
 29102  1  0  0  0
 29103  1  0  0  0
 33 34  1  0  0  0
 33 66  1  0  0  0
 33 70  2  0  0  0
 34 36  1  0  0  0
 34 59  1  0  0  0
 34104  1  0  0  0
 35 44  2  0  0  0
 35 45  1  0  0  0
 35 68  1  0  0  0
 36 56  1  0  0  0
 36105  1  0  0  0
 37 39  1  0  0  0
 37 47  1  0  0  0
 37 66  1  0  0  0
 37106  1  0  0  0
 38 43  2  0  0  0
 38 46  1  0  0  0
 38 47  1  0  0  0
 39 64  1  0  0  0
 39 67  2  0  0  0
 40 52  1  0  0  0
 40 53  2  0  0  0
 40 58  1  0  0  0
 41107  1  0  0  0
 41108  1  0  0  0
 41109  1  0  0  0
 41 48  1  0  0  0
 42 43  1  0  0  0
 42 66  1  0  0  0
 42110  1  0  0  0
 42111  1  0  0  0
 43 44  1  0  0  0
 44112  1  0  0  0
 45 46  2  0  0  0
 45113  1  0  0  0
 46114  1  0  0  0
 47115  1  0  0  0
 47116  1  0  0  0
 48 56  1  0  0  0
 48 65  1  0  0  0
 48117  1  0  0  0
 49 50  1  0  0  0
 49 53  1  0  0  0
 49 64  1  0  0  0
 49118  1  0  0  0
 50 51  1  0  0  0
 50119  1  0  0  0
 50120  1  0  0  0
 51 52  1  0  0  0
 51121  1  0  0  0
 51122  1  0  0  0
 52123  1  0  0  0
 52124  1  0  0  0
 53 54  1  0  0  0
 54 55  2  0  0  0
 54125  1  0  0  0
 55 57  1  0  0  0
 55126  1  0  0  0
 56 69  2  0  0  0
 57 58  2  0  0  0
 57127  1  0  0  0
 58128  1  0  0  0
 59 60  1  0  0  0
 59 61  1  0  0  0
 59 62  1  0  0  0
 60129  1  0  0  0
 60130  1  0  0  0
 60131  1  0  0  0
 61132  1  0  0  0
 61133  1  0  0  0
 61134  1  0  0  0
 62135  1  0  0  0
 62136  1  0  0  0
 62137  1  0  0  0
 63 65  1  0  0  0
 63138  1  0  0  0
 63139  1  0  0  0
 63140  1  0  0  0
 64141  1  0  0  0
 65142  1  0  0  0
 68 77  1  0  0  0
 71 72  2  0  0  0
 71 74  1  0  0  0
 71 79  1  0  0  0
 72 80  1  0  0  0
 72 83  1  0  0  0
 73 79  2  0  0  0
 73 81  1  0  0  0
 73 83  1  0  0  0
 74143  1  0  0  0
 74144  1  0  0  0
 74145  1  0  0  0
 75 77  1  0  0  0
 75 78  1  0  0  0
 75146  1  0  0  0
 75147  1  0  0  0
 76 78  1  0  0  0
 76 80  1  0  0  0
 76148  1  0  0  0
 76149  1  0  0  0
 77150  1  0  0  0
 77151  1  0  0  0
 78 82  1  0  0  0
 78152  1  0  0  0
 80153  1  0  0  0
 81154  1  0  0  0
 82155  1  0  0  0
M  ISO  4   1 100  68 101  77 101  81 100
M  END
> <chiral flag>
0

> <version>
0

> <s_m_source_file>
/data/baiqing/PycharmProjects/Reinvent-master-3.2/result/LINK_invent/BTK/process_docking_weight1_custom_product_contain_oxygen_bond_distance_aromatic_linkinvent_7_9_3/rearranged_h_0191.sdf

> <i_m_source_file_index>
69

> <r_mmod_Potential_Energy-OPLS-2005>
-89.9350128173828

> <r_mmod_Stretch_Energy-OPLS-2005>
52.6915969848633

> <r_mmod_Bend_Energy-OPLS-2005>
140.771331787109

> <r_mmod_Torsional_Energy-OPLS-2005>
249.259750366211

> <r_mmod_Improper_Torsional_Energy-OPLS-2005>
3.1975564956665

> <r_mmod_Van_der_Waal_Energy-OPLS-2005>
142.421279907227

> <r_mmod_Electrostatic_Energy-OPLS-2005>
-473.127685546875

> <r_mmod_Solvation_Energy-OPLS-2005>
-231.539733886719

> <b_mmod_Minimization_Converged-OPLS-2005>
0

> <r_mmod_RMS_Derivative-OPLS-2005>
2.44037127494812

$$$$
71
                    3D
 Structure written by MMmdl.
167175  0  0  1  0            999 V2000
  -30.7100  -14.4914   20.5784 C   0  0  0  0  0  0
  -30.4274  -12.3134   19.4321 C   0  0  0  0  0  0
  -29.5019  -12.5117   18.2120 C   0  0  0  0  0  0
  -28.0232  -12.3667   18.6241 C   0  0  0  0  0  0
  -27.6675  -13.2076   19.8793 C   0  0  2  0  0  0
  -28.7122  -12.9960   21.0013 C   0  0  0  0  0  0
  -25.2647  -13.8161   20.5687 C   0  0  0  0  0  0
  -24.1882  -13.0432   20.9150 C   0  0  0  0  0  0
  -24.6419  -11.6908   20.8686 C   0  0  0  0  0  0
  -23.9065  -10.4296   21.0359 C   0  0  0  0  0  0
  -24.3613   -9.4215   21.9145 C   0  0  0  0  0  0
  -23.6282   -8.2260   22.0736 C   0  0  0  0  0  0
  -22.4267   -8.0288   21.3528 C   0  0  0  0  0  0
  -21.9896   -9.0258   20.4635 C   0  0  0  0  0  0
  -22.7230  -10.2133   20.3026 C   0  0  0  0  0  0
  -21.6864   -6.0736   22.5270 C   0  0  0  0  0  0
  -21.4030   -6.5642   23.8201 C   0  0  0  0  0  0
  -21.3653   -5.6780   24.9164 C   0  0  0  0  0  0
  -21.6048   -4.3045   24.7210 C   0  0  0  0  0  0
  -21.8824   -3.8141   23.4328 C   0  0  0  0  0  0
  -21.9198   -4.6964   22.3387 C   0  0  0  0  0  0
  -22.7911  -13.5238   21.1816 C   0  0  0  0  0  0
  -22.1667   -4.2155   21.0959 F   0  0  0  0  0  0
  -21.5621   -3.4528   25.7717 F   0  0  0  0  0  0
  -30.0454  -13.3039   20.4538 N   0  0  0  0  0  0
  -26.3072  -12.9325   20.3371 N   0  0  0  0  0  0
  -25.9357  -11.6490   20.5756 N   0  0  0  0  0  0
  -22.0564  -12.8218   22.0382 N   0  0  0  0  0  0
  -25.4383  -15.1882   20.4176 N   0  0  0  0  0  0
  -31.8164  -14.6843   20.0637 O   0  0  0  0  0  0
  -21.6640   -6.8878   21.4235 O   0  0  0  0  0  0
  -22.3586  -14.5532   20.6658 O   0  0  0  0  0  0
  -24.6171  -31.8654   23.2068 C   0  0  0  0  0  0
  -25.9057  -32.4820   23.8374 C   0  0  1  0  0  0
  -27.2407  -27.4149   20.0763 C   0  0  0  0  0  0
  -25.5918  -33.8617   24.2310 N   0  0  0  0  0  0
  -23.4039  -30.4944   21.5452 C   0  0  2  0  0  0
  -24.8465  -28.9568   20.1150 C   0  0  0  0  0  0
  -22.7430  -29.4667   22.4930 C   0  0  0  0  0  0
  -18.0281  -28.1392   22.8445 C   0  0  0  0  0  0
  -24.1486  -36.7315   23.2640 C   0  0  0  0  0  0
  -25.9358  -30.8275   21.3580 C   0  0  0  0  0  0
  -26.0103  -29.4586   20.7088 C   0  0  0  0  0  0
  -27.2037  -28.6956   20.6864 C   0  0  0  0  0  0
  -26.0390  -26.9292   19.5008 C   0  0  0  0  0  0
  -24.8564  -27.6909   19.5144 C   0  0  0  0  0  0
  -23.6120  -29.8295   20.1594 C   0  0  0  0  0  0
  -25.4107  -36.3107   24.0328 C   0  0  1  0  0  0
  -20.5878  -28.3677   23.1269 C   0  0  2  0  0  0
  -20.6751  -26.9406   22.5381 C   0  0  0  0  0  0
  -19.5732  -26.6389   21.5166 C   0  0  0  0  0  0
  -18.1917  -26.7934   22.1593 C   0  0  0  0  0  0
  -19.1534  -28.8843   23.2865 C   0  0  0  0  0  0
  -18.9470  -30.1455   23.8876 C   0  0  0  0  0  0
  -17.6469  -30.6580   24.0571 C   0  0  0  0  0  0
  -25.9040  -34.9471   23.5116 C   0  0  0  0  0  0
  -16.5357  -29.9078   23.6328 C   0  0  0  0  0  0
  -16.7276  -28.6521   23.0319 C   0  0  0  0  0  0
  -26.4501  -31.6602   25.0698 C   0  0  0  0  0  0
  -25.3763  -31.3698   26.1446 C   0  0  0  0  0  0
  -27.0352  -30.3046   24.6090 C   0  0  0  0  0  0
  -27.6108  -32.4297   25.7448 C   0  0  0  0  0  0
  -27.5569  -37.1808   24.8469 C   0  0  0  0  0  0
  -21.4157  -29.3061   22.3687 N   0  0  0  0  0  0
  -26.4283  -37.3792   23.9403 N   0  0  0  0  0  0
  -24.6715  -31.0765   22.0962 N   0  0  0  0  0  0
  -23.4196  -28.8208   23.2982 O   0  0  0  0  0  0
  -28.4430  -26.7141   20.0729 O   0  0  0  0  0  0
  -26.5593  -34.8923   22.4673 O   0  0  0  0  0  0
  -23.5356  -32.1420   23.7442 O   0  0  0  0  0  0
  -30.0638  -16.8464   20.9232 C   0  0  0  0  0  0
  -29.3813  -18.6506   20.1846 C   0  0  0  0  0  0
  -33.2833  -24.1994   21.6572 C   0  0  0  0  0  0
  -30.6626  -23.0679   23.0588 C   0  0  0  0  0  0
  -32.5296  -22.8830   21.3785 C   0  0  0  0  0  0
  -30.3833  -21.5615   21.0108 C   0  0  0  0  0  0
  -30.4186  -24.1652   20.7687 C   0  0  0  0  0  0
  -30.9657  -20.2114   21.5549 C   0  0  0  0  0  0
  -28.5731  -25.4352   19.4059 C   0  0  0  0  0  0
  -28.9280  -24.2361   20.3369 C   0  0  2  0  0  0
  -30.9786  -22.9140   21.5530 C   0  0  1  0  0  0
  -29.1311  -17.3529   20.0638 N   0  0  0  0  0  0
  -30.8175  -17.7527   21.5610 N   0  0  0  0  0  0
  -30.3628  -18.9481   21.0621 N   0  0  0  0  0  0
  -28.6783  -19.6086   19.4878 N   0  0  0  0  0  0
  -30.0577  -15.4606   21.2486 N   0  0  0  0  0  0
  -28.0304  -24.2099   21.4316 O   0  0  0  0  0  0
  -31.4761  -12.3936   19.1368 H   0  0  0  0  0  0
  -30.3145  -11.3053   19.8315 H   0  0  0  0  0  0
  -29.7445  -11.7881   17.4335 H   0  0  0  0  0  0
  -29.6700  -13.4988   17.7763 H   0  0  0  0  0  0
  -27.8395  -11.3098   18.8229 H   0  0  0  0  0  0
  -27.3706  -12.6366   17.7929 H   0  0  0  0  0  0
  -27.7083  -14.2552   19.5782 H   0  0  0  0  0  0
  -28.6947  -11.9593   21.3416 H   0  0  0  0  0  0
  -28.4679  -13.5892   21.8827 H   0  0  0  0  0  0
  -25.2769   -9.5703   22.4704 H   0  0  0  0  0  0
  -24.0005   -7.4653   22.7453 H   0  0  0  0  0  0
  -21.0820   -8.8754   19.8938 H   0  0  0  0  0  0
  -22.3667  -10.9657   19.6121 H   0  0  0  0  0  0
  -21.2039   -7.6154   23.9710 H   0  0  0  0  0  0
  -21.1467   -6.0508   25.9055 H   0  0  0  0  0  0
  -22.0610   -2.7614   23.2813 H   0  0  0  0  0  0
  -22.4188  -11.9878   22.4759 H   0  0  0  0  0  0
  -21.1185  -13.1235   22.2599 H   0  0  0  0  0  0
  -24.6791  -15.8471   20.5474 H   0  0  0  0  0  0
  -26.3003  -15.6298   20.1180 H   0  0  0  0  0  0
  -26.7126  -32.5502   23.1132 H   0  0  0  0  0  0
  -25.0119  -33.9784   25.0493 H   0  0  0  0  0  0
  -22.6928  -31.3112   21.4042 H   0  0  0  0  0  0
  -23.3737  -35.9663   23.3331 H   0  0  0  0  0  0
  -24.3592  -36.8901   22.2057 H   0  0  0  0  0  0
  -23.7244  -37.6530   23.6637 H   0  0  0  0  0  0
  -26.0365  -31.5886   20.5828 H   0  0  0  0  0  0
  -26.8323  -30.8911   21.9636 H   0  0  0  0  0  0
  -28.1064  -29.0899   21.1321 H   0  0  0  0  0  0
  -25.9556  -25.9627   19.0359 H   0  0  0  0  0  0
  -23.9566  -27.2923   19.0643 H   0  0  0  0  0  0
  -23.7203  -30.6048   19.3992 H   0  0  0  0  0  0
  -22.7347  -29.2517   19.8624 H   0  0  0  0  0  0
  -25.1285  -36.1977   25.0819 H   0  0  0  0  0  0
  -20.9976  -28.3238   24.1385 H   0  0  0  0  0  0
  -20.5571  -26.2313   23.3588 H   0  0  0  0  0  0
  -21.6628  -26.7375   22.1223 H   0  0  0  0  0  0
  -19.6893  -25.6294   21.1202 H   0  0  0  0  0  0
  -19.6670  -27.3192   20.6690 H   0  0  0  0  0  0
  -17.4176  -26.6657   21.4020 H   0  0  0  0  0  0
  -18.0337  -26.0093   22.9010 H   0  0  0  0  0  0
  -19.7954  -30.7270   24.2212 H   0  0  0  0  0  0
  -17.5037  -31.6246   24.5204 H   0  0  0  0  0  0
  -15.5361  -30.2987   23.7665 H   0  0  0  0  0  0
  -15.8682  -28.0858   22.6989 H   0  0  0  0  0  0
  -24.5943  -30.7050   25.7762 H   0  0  0  0  0  0
  -24.8944  -32.2848   26.4900 H   0  0  0  0  0  0
  -25.8113  -30.8848   27.0194 H   0  0  0  0  0  0
  -26.2884  -29.6751   24.1233 H   0  0  0  0  0  0
  -27.4245  -29.7340   25.4537 H   0  0  0  0  0  0
  -27.8665  -30.4394   23.9160 H   0  0  0  0  0  0
  -27.2787  -33.3595   26.2075 H   0  0  0  0  0  0
  -28.3899  -32.6847   25.0250 H   0  0  0  0  0  0
  -28.0815  -31.8374   26.5312 H   0  0  0  0  0  0
  -28.2618  -38.0081   24.7496 H   0  0  0  0  0  0
  -28.1033  -36.2606   24.6320 H   0  0  0  0  0  0
  -27.2285  -37.1495   25.8877 H   0  0  0  0  0  0
  -20.9279  -29.8867   21.7000 H   0  0  0  0  0  0
  -26.0178  -38.2863   24.1426 H   0  0  0  0  0  0
  -34.3570  -24.0520   21.5426 H   0  0  0  0  0  0
  -33.1194  -24.5609   22.6722 H   0  0  0  0  0  0
  -33.0025  -24.9943   20.9656 H   0  0  0  0  0  0
  -31.1433  -22.2950   23.6578 H   0  0  0  0  0  0
  -29.5964  -23.0137   23.2685 H   0  0  0  0  0  0
  -31.0198  -24.0225   23.4461 H   0  0  0  0  0  0
  -32.9560  -22.1236   22.0347 H   0  0  0  0  0  0
  -32.7789  -22.5659   20.3641 H   0  0  0  0  0  0
  -29.3117  -21.5627   21.2096 H   0  0  0  0  0  0
  -30.5034  -21.5627   19.9269 H   0  0  0  0  0  0
  -30.6544  -25.0804   21.3135 H   0  0  0  0  0  0
  -30.9902  -24.2363   19.8417 H   0  0  0  0  0  0
  -30.8826  -20.2028   22.6419 H   0  0  0  0  0  0
  -32.0297  -20.1585   21.3277 H   0  0  0  0  0  0
  -27.7420  -25.1554   18.7692 H   0  0  0  0  0  0
  -29.3850  -25.5452   18.6878 H   0  0  0  0  0  0
  -28.7334  -23.3390   19.7483 H   0  0  0  0  0  0
  -27.8427  -19.3623   18.9717 H   0  0  0  0  0  0
  -28.7874  -20.5864   19.7224 H   0  0  0  0  0  0
  -29.2010  -15.1360   21.6657 H   0  0  0  0  0  0
  -28.4303  -23.6871   22.1176 H   0  0  0  0  0  0
  1 25  1  0  0  0
  1 30  2  0  0  0
  1 86  1  0  0  0
  2  3  1  0  0  0
  2 25  1  0  0  0
  2 88  1  0  0  0
  2 89  1  0  0  0
  3  4  1  0  0  0
  3 90  1  0  0  0
  3 91  1  0  0  0
  4  5  1  0  0  0
  4 92  1  0  0  0
  4 93  1  0  0  0
  5  6  1  0  0  0
  5 26  1  0  0  0
  5 94  1  0  0  0
  6 25  1  0  0  0
  6 95  1  0  0  0
  6 96  1  0  0  0
  7  8  2  0  0  0
  7 26  1  0  0  0
  7 29  1  0  0  0
  8  9  1  0  0  0
  8 22  1  0  0  0
  9 10  1  0  0  0
  9 27  2  0  0  0
 10 11  2  0  0  0
 10 15  1  0  0  0
 11 12  1  0  0  0
 11 97  1  0  0  0
 12 13  2  0  0  0
 12 98  1  0  0  0
 13 14  1  0  0  0
 13 31  1  0  0  0
 14 15  2  0  0  0
 14 99  1  0  0  0
 15100  1  0  0  0
 16 17  2  0  0  0
 16 21  1  0  0  0
 16 31  1  0  0  0
 17 18  1  0  0  0
 17101  1  0  0  0
 18 19  2  0  0  0
 18102  1  0  0  0
 19 20  1  0  0  0
 19 24  1  0  0  0
 20 21  2  0  0  0
 20103  1  0  0  0
 21 23  1  0  0  0
 22 28  1  0  0  0
 22 32  2  0  0  0
 26 27  1  0  0  0
 28104  1  0  0  0
 28105  1  0  0  0
 29106  1  0  0  0
 29107  1  0  0  0
 33 34  1  0  0  0
 33 66  1  0  0  0
 33 70  2  0  0  0
 34 36  1  0  0  0
 34 59  1  0  0  0
 34108  1  0  0  0
 35 44  2  0  0  0
 35 45  1  0  0  0
 35 68  1  0  0  0
 36 56  1  0  0  0
 36109  1  0  0  0
 37 39  1  0  0  0
 37 47  1  0  0  0
 37 66  1  0  0  0
 37110  1  0  0  0
 38 43  2  0  0  0
 38 46  1  0  0  0
 38 47  1  0  0  0
 39 64  1  0  0  0
 39 67  2  0  0  0
 40 52  1  0  0  0
 40 53  2  0  0  0
 40 58  1  0  0  0
 41111  1  0  0  0
 41112  1  0  0  0
 41113  1  0  0  0
 41 48  1  0  0  0
 42 43  1  0  0  0
 42 66  1  0  0  0
 42114  1  0  0  0
 42115  1  0  0  0
 43 44  1  0  0  0
 44116  1  0  0  0
 45 46  2  0  0  0
 45117  1  0  0  0
 46118  1  0  0  0
 47119  1  0  0  0
 47120  1  0  0  0
 48 56  1  0  0  0
 48 65  1  0  0  0
 48121  1  0  0  0
 49 50  1  0  0  0
 49 53  1  0  0  0
 49 64  1  0  0  0
 49122  1  0  0  0
 50 51  1  0  0  0
 50123  1  0  0  0
 50124  1  0  0  0
 51 52  1  0  0  0
 51125  1  0  0  0
 51126  1  0  0  0
 52127  1  0  0  0
 52128  1  0  0  0
 53 54  1  0  0  0
 54 55  2  0  0  0
 54129  1  0  0  0
 55 57  1  0  0  0
 55130  1  0  0  0
 56 69  2  0  0  0
 57 58  2  0  0  0
 57131  1  0  0  0
 58132  1  0  0  0
 59 60  1  0  0  0
 59 61  1  0  0  0
 59 62  1  0  0  0
 60133  1  0  0  0
 60134  1  0  0  0
 60135  1  0  0  0
 61136  1  0  0  0
 61137  1  0  0  0
 61138  1  0  0  0
 62139  1  0  0  0
 62140  1  0  0  0
 62141  1  0  0  0
 63 65  1  0  0  0
 63142  1  0  0  0
 63143  1  0  0  0
 63144  1  0  0  0
 64145  1  0  0  0
 65146  1  0  0  0
 68 79  1  0  0  0
 71 82  1  0  0  0
 71 83  2  0  0  0
 71 86  1  0  0  0
 72 82  2  0  0  0
 72 84  1  0  0  0
 72 85  1  0  0  0
 73 75  1  0  0  0
 73147  1  0  0  0
 73148  1  0  0  0
 73149  1  0  0  0
 74150  1  0  0  0
 74151  1  0  0  0
 74152  1  0  0  0
 74 81  1  0  0  0
 75 81  1  0  0  0
 75153  1  0  0  0
 75154  1  0  0  0
 76 78  1  0  0  0
 76 81  1  0  0  0
 76155  1  0  0  0
 76156  1  0  0  0
 77 80  1  0  0  0
 77 81  1  0  0  0
 77157  1  0  0  0
 77158  1  0  0  0
 78 84  1  0  0  0
 78159  1  0  0  0
 78160  1  0  0  0
 79 80  1  0  0  0
 79161  1  0  0  0
 79162  1  0  0  0
 80 87  1  0  0  0
 80163  1  0  0  0
 83 84  1  0  0  0
 85164  1  0  0  0
 85165  1  0  0  0
 86166  1  0  0  0
 87167  1  0  0  0
M  ISO  4   1 100  68 101  79 101  86 100
M  END
> <chiral flag>
0

> <version>
0

> <s_m_source_file>
/data/baiqing/PycharmProjects/Reinvent-master-3.2/result/LINK_invent/BTK/process_docking_weight1_custom_product_contain_oxygen_bond_distance_aromatic_linkinvent_7_9_3/rearranged_h_0191.sdf

> <i_m_source_file_index>
70

> <r_mmod_Potential_Energy-OPLS-2005>
-58.0800018310547

> <r_mmod_Stretch_Energy-OPLS-2005>
50.3282699584961

> <r_mmod_Bend_Energy-OPLS-2005>
152.548675537109

> <r_mmod_Torsional_Energy-OPLS-2005>
283.164184570312

> <r_mmod_Improper_Torsional_Energy-OPLS-2005>
6.41946935653687

> <r_mmod_Van_der_Waal_Energy-OPLS-2005>
134.120880126953

> <r_mmod_Electrostatic_Energy-OPLS-2005>
-456.667633056641

> <r_mmod_Solvation_Energy-OPLS-2005>
-241.875549316406

> <b_mmod_Minimization_Converged-OPLS-2005>
0

> <r_mmod_RMS_Derivative-OPLS-2005>
3.18195390701294

$$$$
72
                    3D
 Structure written by MMmdl.
174182  0  0  1  0            999 V2000
  -30.6860  -14.4725   20.5258 C   0  0  0  0  0  0
  -30.4228  -12.2906   19.4245 C   0  0  0  0  0  0
  -29.4932  -12.4948   18.2084 C   0  0  0  0  0  0
  -28.0143  -12.3551   18.6213 C   0  0  0  0  0  0
  -27.6607  -13.1959   19.8772 C   0  0  2  0  0  0
  -28.7061  -12.9831   20.9977 C   0  0  0  0  0  0
  -25.2589  -13.8124   20.5707 C   0  0  0  0  0  0
  -24.1834  -13.0406   20.9174 C   0  0  0  0  0  0
  -24.6381  -11.6878   20.8735 C   0  0  0  0  0  0
  -23.9054  -10.4271   21.0403 C   0  0  0  0  0  0
  -24.3610   -9.4190   21.9180 C   0  0  0  0  0  0
  -23.6287   -8.2228   22.0755 C   0  0  0  0  0  0
  -22.4270   -8.0269   21.3545 C   0  0  0  0  0  0
  -21.9905   -9.0242   20.4644 C   0  0  0  0  0  0
  -22.7235  -10.2119   20.3049 C   0  0  0  0  0  0
  -21.6850   -6.0732   22.5282 C   0  0  0  0  0  0
  -21.4010   -6.5637   23.8216 C   0  0  0  0  0  0
  -21.3657   -5.6793   24.9179 C   0  0  0  0  0  0
  -21.6041   -4.3057   24.7232 C   0  0  0  0  0  0
  -21.8818   -3.8147   23.4353 C   0  0  0  0  0  0
  -21.9193   -4.6959   22.3405 C   0  0  0  0  0  0
  -22.7860  -13.5214   21.1848 C   0  0  0  0  0  0
  -22.1662   -4.2145   21.0981 F   0  0  0  0  0  0
  -21.5630   -3.4541   25.7744 F   0  0  0  0  0  0
  -30.0386  -13.2788   20.4425 N   0  0  0  0  0  0
  -26.3020  -12.9278   20.3400 N   0  0  0  0  0  0
  -25.9304  -11.6446   20.5786 N   0  0  0  0  0  0
  -22.0510  -12.8198   22.0403 N   0  0  0  0  0  0
  -25.4301  -15.1851   20.4175 N   0  0  0  0  0  0
  -31.8392  -14.6414   20.1176 O   0  0  0  0  0  0
  -21.6632   -6.8870   21.4242 O   0  0  0  0  0  0
  -22.3544  -14.5528   20.6711 O   0  0  0  0  0  0
  -24.6128  -31.8686   23.2106 C   0  0  0  0  0  0
  -25.9024  -32.4826   23.8400 C   0  0  1  0  0  0
  -27.2364  -27.4505   20.0983 C   0  0  0  0  0  0
  -25.5883  -33.8627   24.2331 N   0  0  0  0  0  0
  -23.4002  -30.4910   21.5509 C   0  0  2  0  0  0
  -24.8482  -28.9562   20.1171 C   0  0  0  0  0  0
  -22.7396  -29.4661   22.5004 C   0  0  0  0  0  0
  -18.0262  -28.1385   22.8503 C   0  0  0  0  0  0
  -24.1483  -36.7318   23.2639 C   0  0  0  0  0  0
  -25.9261  -30.8397   21.3608 C   0  0  0  0  0  0
  -26.0056  -29.4725   20.7141 C   0  0  0  0  0  0
  -27.2045  -28.7251   20.7043 C   0  0  0  0  0  0
  -26.0703  -26.9483   19.4871 C   0  0  0  0  0  0
  -24.8741  -27.6918   19.5011 C   0  0  0  0  0  0
  -23.6078  -29.8202   20.1663 C   0  0  0  0  0  0
  -25.4103  -36.3117   24.0339 C   0  0  1  0  0  0
  -20.5851  -28.3667   23.1330 C   0  0  2  0  0  0
  -20.6755  -26.9405   22.5426 C   0  0  0  0  0  0
  -19.5732  -26.6392   21.5222 C   0  0  0  0  0  0
  -18.1905  -26.7934   22.1626 C   0  0  0  0  0  0
  -19.1511  -28.8843   23.2915 C   0  0  0  0  0  0
  -18.9442  -30.1450   23.8925 C   0  0  0  0  0  0
  -17.6445  -30.6591   24.0576 C   0  0  0  0  0  0
  -25.9026  -34.9477   23.5134 C   0  0  0  0  0  0
  -16.5338  -29.9096   23.6332 C   0  0  0  0  0  0
  -16.7253  -28.6514   23.0354 C   0  0  0  0  0  0
  -26.4456  -31.6602   25.0725 C   0  0  0  0  0  0
  -25.3719  -31.3680   26.1469 C   0  0  0  0  0  0
  -27.0310  -30.3063   24.6079 C   0  0  0  0  0  0
  -27.6039  -32.4319   25.7477 C   0  0  0  0  0  0
  -27.5579  -37.1809   24.8463 C   0  0  0  0  0  0
  -21.4127  -29.3036   22.3741 N   0  0  0  0  0  0
  -26.4291  -37.3799   23.9414 N   0  0  0  0  0  0
  -24.6644  -31.0807   22.0994 N   0  0  0  0  0  0
  -23.4175  -28.8205   23.3043 O   0  0  0  0  0  0
  -28.4002  -26.7206   20.0708 O   0  0  0  0  0  0
  -26.5593  -34.8927   22.4694 O   0  0  0  0  0  0
  -23.5328  -32.1429   23.7514 O   0  0  0  0  0  0
  -28.8674  -16.9859   19.2956 C   0  0  0  0  0  0
  -29.8577  -16.7310   20.2108 C   0  0  0  0  0  0
  -30.5405  -18.7830   19.4900 C   0  0  0  0  0  0
  -33.6534  -18.1342   15.7367 C   0  0  0  0  0  0
  -34.8273  -18.1539   18.6126 C   0  0  0  0  0  0
  -27.0814  -23.5026   20.3919 C   0  0  0  0  0  0
  -33.3279  -19.1704   16.8214 C   0  0  0  0  0  0
  -32.9254  -19.6568   19.3147 C   0  0  0  0  0  0
  -31.0462  -21.2026   20.2152 C   0  0  0  0  0  0
  -29.6206  -23.3256   20.6046 C   0  0  0  0  0  0
  -28.4397  -25.5920   20.9535 C   0  0  0  0  0  0
  -31.4125  -19.9963   19.3057 C   0  0  2  0  0  0
  -33.4017  -18.6196   18.2651 C   0  0  2  0  0  0
  -28.4243  -24.2346   20.1964 C   0  0  2  0  0  0
  -29.8652  -22.0798   19.7145 C   0  0  1  0  0  0
  -30.7535  -17.7978   20.3825 N   0  0  0  0  0  0
  -29.9112  -15.5011   20.9161 N   0  0  0  0  0  0
  -30.1431  -22.5507   18.4049 O   0  0  0  0  0  0
  -29.1096  -18.5142   18.4995 S   0  0  0  0  0  0
  -31.4683  -12.3818   19.1242 H   0  0  0  0  0  0
  -30.3149  -11.2816   19.8249 H   0  0  0  0  0  0
  -29.7310  -11.7714   17.4272 H   0  0  0  0  0  0
  -29.6623  -13.4815   17.7738 H   0  0  0  0  0  0
  -27.8256  -11.2992   18.8199 H   0  0  0  0  0  0
  -27.3628  -12.6273   17.7901 H   0  0  0  0  0  0
  -27.6983  -14.2384   19.5712 H   0  0  0  0  0  0
  -28.6787  -11.9499   21.3471 H   0  0  0  0  0  0
  -28.4763  -13.5919   21.8737 H   0  0  0  0  0  0
  -25.2759   -9.5657   22.4750 H   0  0  0  0  0  0
  -23.9999   -7.4614   22.7468 H   0  0  0  0  0  0
  -21.0844   -8.8758   19.8941 H   0  0  0  0  0  0
  -22.3708  -10.9656   19.6149 H   0  0  0  0  0  0
  -21.1999   -7.6144   23.9716 H   0  0  0  0  0  0
  -21.1481   -6.0527   25.9081 H   0  0  0  0  0  0
  -22.0599   -2.7609   23.2864 H   0  0  0  0  0  0
  -22.4141  -11.9846   22.4754 H   0  0  0  0  0  0
  -21.1124  -13.1205   22.2627 H   0  0  0  0  0  0
  -24.6620  -15.8370   20.5373 H   0  0  0  0  0  0
  -26.2908  -15.6401   20.1488 H   0  0  0  0  0  0
  -26.7103  -32.5551   23.1177 H   0  0  0  0  0  0
  -25.0053  -33.9792   25.0489 H   0  0  0  0  0  0
  -22.6888  -31.3071   21.4107 H   0  0  0  0  0  0
  -23.3744  -35.9651   23.3307 H   0  0  0  0  0  0
  -24.3586  -36.8934   22.2055 H   0  0  0  0  0  0
  -23.7235  -37.6520   23.6658 H   0  0  0  0  0  0
  -26.0313  -31.6033   20.5890 H   0  0  0  0  0  0
  -26.8162  -30.8996   21.9750 H   0  0  0  0  0  0
  -28.1006  -29.1194   21.1633 H   0  0  0  0  0  0
  -26.0911  -25.9928   18.9851 H   0  0  0  0  0  0
  -23.9871  -27.2928   19.0284 H   0  0  0  0  0  0
  -23.7098  -30.5922   19.4027 H   0  0  0  0  0  0
  -22.7336  -29.2355   19.8754 H   0  0  0  0  0  0
  -25.1277  -36.1985   25.0833 H   0  0  0  0  0  0
  -20.9940  -28.3238   24.1452 H   0  0  0  0  0  0
  -20.5671  -26.2274   23.3612 H   0  0  0  0  0  0
  -21.6625  -26.7459   22.1214 H   0  0  0  0  0  0
  -19.6894  -25.6311   21.1238 H   0  0  0  0  0  0
  -19.6673  -27.3216   20.6764 H   0  0  0  0  0  0
  -17.4179  -26.6709   21.4018 H   0  0  0  0  0  0
  -18.0284  -26.0066   22.9008 H   0  0  0  0  0  0
  -19.7913  -30.7266   24.2312 H   0  0  0  0  0  0
  -17.4993  -31.6271   24.5173 H   0  0  0  0  0  0
  -15.5339  -30.3007   23.7644 H   0  0  0  0  0  0
  -15.8650  -28.0846   22.7058 H   0  0  0  0  0  0
  -24.5935  -30.6975   25.7802 H   0  0  0  0  0  0
  -24.8841  -32.2812   26.4888 H   0  0  0  0  0  0
  -25.8072  -30.8886   27.0245 H   0  0  0  0  0  0
  -26.2860  -29.6806   24.1145 H   0  0  0  0  0  0
  -27.4128  -29.7311   25.4523 H   0  0  0  0  0  0
  -27.8657  -30.4422   23.9200 H   0  0  0  0  0  0
  -27.2683  -33.3634   26.2049 H   0  0  0  0  0  0
  -28.3837  -32.6855   25.0282 H   0  0  0  0  0  0
  -28.0711  -31.8438   26.5387 H   0  0  0  0  0  0
  -28.2589  -38.0115   24.7533 H   0  0  0  0  0  0
  -28.1083  -36.2649   24.6260 H   0  0  0  0  0  0
  -27.2303  -37.1427   25.8867 H   0  0  0  0  0  0
  -20.9282  -29.8769   21.6974 H   0  0  0  0  0  0
  -26.0180  -38.2875   24.1423 H   0  0  0  0  0  0
  -28.0413  -16.3661   18.9830 H   0  0  0  0  0  0
  -33.4924  -18.5546   14.7438 H   0  0  0  0  0  0
  -33.0181  -17.2522   15.8288 H   0  0  0  0  0  0
  -34.6925  -17.8094   15.7820 H   0  0  0  0  0  0
  -35.1614  -17.3478   17.9603 H   0  0  0  0  0  0
  -34.8804  -17.7710   19.6326 H   0  0  0  0  0  0
  -35.5447  -18.9712   18.5286 H   0  0  0  0  0  0
  -26.9923  -22.6438   19.7277 H   0  0  0  0  0  0
  -26.2309  -24.1495   20.1837 H   0  0  0  0  0  0
  -26.9690  -23.1451   21.4157 H   0  0  0  0  0  0
  -32.3256  -19.5423   16.6123 H   0  0  0  0  0  0
  -33.9918  -20.0299   16.7152 H   0  0  0  0  0  0
  -33.1742  -19.2930   20.3127 H   0  0  0  0  0  0
  -33.5039  -20.5719   19.1846 H   0  0  0  0  0  0
  -31.9179  -21.8518   20.3032 H   0  0  0  0  0  0
  -30.8514  -20.8465   21.2279 H   0  0  0  0  0  0
  -29.4826  -23.0037   21.6380 H   0  0  0  0  0  0
  -30.5321  -23.9256   20.6114 H   0  0  0  0  0  0
  -29.3626  -25.6905   21.5258 H   0  0  0  0  0  0
  -27.6451  -25.6340   21.7018 H   0  0  0  0  0  0
  -31.2146  -20.3250   18.2891 H   0  0  0  0  0  0
  -32.7572  -17.7411   18.3281 H   0  0  0  0  0  0
  -28.5240  -24.4640   19.1350 H   0  0  0  0  0  0
  -28.9658  -21.4634   19.6810 H   0  0  0  0  0  0
  -29.0269  -15.1847   21.2806 H   0  0  0  0  0  0
  -30.8935  -23.1353   18.4476 H   0  0  0  0  0  0
  1 25  1  0  0  0
  1 30  2  0  0  0
  1 87  1  0  0  0
  2  3  1  0  0  0
  2 25  1  0  0  0
  2 90  1  0  0  0
  2 91  1  0  0  0
  3  4  1  0  0  0
  3 92  1  0  0  0
  3 93  1  0  0  0
  4  5  1  0  0  0
  4 94  1  0  0  0
  4 95  1  0  0  0
  5  6  1  0  0  0
  5 26  1  0  0  0
  5 96  1  0  0  0
  6 25  1  0  0  0
  6 97  1  0  0  0
  6 98  1  0  0  0
  7  8  2  0  0  0
  7 26  1  0  0  0
  7 29  1  0  0  0
  8  9  1  0  0  0
  8 22  1  0  0  0
  9 10  1  0  0  0
  9 27  2  0  0  0
 10 11  2  0  0  0
 10 15  1  0  0  0
 11 12  1  0  0  0
 11 99  1  0  0  0
 12 13  2  0  0  0
 12100  1  0  0  0
 13 14  1  0  0  0
 13 31  1  0  0  0
 14 15  2  0  0  0
 14101  1  0  0  0
 15102  1  0  0  0
 16 17  2  0  0  0
 16 21  1  0  0  0
 16 31  1  0  0  0
 17 18  1  0  0  0
 17103  1  0  0  0
 18 19  2  0  0  0
 18104  1  0  0  0
 19 20  1  0  0  0
 19 24  1  0  0  0
 20 21  2  0  0  0
 20105  1  0  0  0
 21 23  1  0  0  0
 22 28  1  0  0  0
 22 32  2  0  0  0
 26 27  1  0  0  0
 28106  1  0  0  0
 28107  1  0  0  0
 29108  1  0  0  0
 29109  1  0  0  0
 33 34  1  0  0  0
 33 66  1  0  0  0
 33 70  2  0  0  0
 34 36  1  0  0  0
 34 59  1  0  0  0
 34110  1  0  0  0
 35 44  2  0  0  0
 35 45  1  0  0  0
 35 68  1  0  0  0
 36 56  1  0  0  0
 36111  1  0  0  0
 37 39  1  0  0  0
 37 47  1  0  0  0
 37 66  1  0  0  0
 37112  1  0  0  0
 38 43  2  0  0  0
 38 46  1  0  0  0
 38 47  1  0  0  0
 39 64  1  0  0  0
 39 67  2  0  0  0
 40 52  1  0  0  0
 40 53  2  0  0  0
 40 58  1  0  0  0
 41113  1  0  0  0
 41114  1  0  0  0
 41115  1  0  0  0
 41 48  1  0  0  0
 42 43  1  0  0  0
 42 66  1  0  0  0
 42116  1  0  0  0
 42117  1  0  0  0
 43 44  1  0  0  0
 44118  1  0  0  0
 45 46  2  0  0  0
 45119  1  0  0  0
 46120  1  0  0  0
 47121  1  0  0  0
 47122  1  0  0  0
 48 56  1  0  0  0
 48 65  1  0  0  0
 48123  1  0  0  0
 49 50  1  0  0  0
 49 53  1  0  0  0
 49 64  1  0  0  0
 49124  1  0  0  0
 50 51  1  0  0  0
 50125  1  0  0  0
 50126  1  0  0  0
 51 52  1  0  0  0
 51127  1  0  0  0
 51128  1  0  0  0
 52129  1  0  0  0
 52130  1  0  0  0
 53 54  1  0  0  0
 54 55  2  0  0  0
 54131  1  0  0  0
 55 57  1  0  0  0
 55132  1  0  0  0
 56 69  2  0  0  0
 57 58  2  0  0  0
 57133  1  0  0  0
 58134  1  0  0  0
 59 60  1  0  0  0
 59 61  1  0  0  0
 59 62  1  0  0  0
 60135  1  0  0  0
 60136  1  0  0  0
 60137  1  0  0  0
 61138  1  0  0  0
 61139  1  0  0  0
 61140  1  0  0  0
 62141  1  0  0  0
 62142  1  0  0  0
 62143  1  0  0  0
 63 65  1  0  0  0
 63144  1  0  0  0
 63145  1  0  0  0
 63146  1  0  0  0
 64147  1  0  0  0
 65148  1  0  0  0
 68 81  1  0  0  0
 71 72  2  0  0  0
 71 89  1  0  0  0
 71149  1  0  0  0
 72 86  1  0  0  0
 72 87  1  0  0  0
 73 82  1  0  0  0
 73 86  2  0  0  0
 73 89  1  0  0  0
 74 77  1  0  0  0
 74150  1  0  0  0
 74151  1  0  0  0
 74152  1  0  0  0
 75153  1  0  0  0
 75154  1  0  0  0
 75155  1  0  0  0
 75 83  1  0  0  0
 76156  1  0  0  0
 76157  1  0  0  0
 76158  1  0  0  0
 76 84  1  0  0  0
 77 83  1  0  0  0
 77159  1  0  0  0
 77160  1  0  0  0
 78 83  1  0  0  0
 78161  1  0  0  0
 78162  1  0  0  0
 78 82  1  0  0  0
 79 82  1  0  0  0
 79 85  1  0  0  0
 79163  1  0  0  0
 79164  1  0  0  0
 80 84  1  0  0  0
 80 85  1  0  0  0
 80165  1  0  0  0
 80166  1  0  0  0
 81 84  1  0  0  0
 81167  1  0  0  0
 81168  1  0  0  0
 82169  1  0  0  0
 83170  1  0  0  0
 84171  1  0  0  0
 85 88  1  0  0  0
 85172  1  0  0  0
 87173  1  0  0  0
 88174  1  0  0  0
M  ISO  4   1 100  68 101  81 101  87 100
M  END
> <chiral flag>
0

> <version>
0

> <s_m_source_file>
/data/baiqing/PycharmProjects/Reinvent-master-3.2/result/LINK_invent/BTK/process_docking_weight1_custom_product_contain_oxygen_bond_distance_aromatic_linkinvent_7_9_3/rearranged_h_0191.sdf

> <i_m_source_file_index>
71

> <r_mmod_Potential_Energy-OPLS-2005>
-51.8749122619629

> <r_mmod_Stretch_Energy-OPLS-2005>
36.5088844299316

> <r_mmod_Bend_Energy-OPLS-2005>
105.406433105469

> <r_mmod_Torsional_Energy-OPLS-2005>
274.309967041016

> <r_mmod_Improper_Torsional_Energy-OPLS-2005>
7.26465845108032

> <r_mmod_Van_der_Waal_Energy-OPLS-2005>
119.032852172852

> <r_mmod_Electrostatic_Energy-OPLS-2005>
-379.19140625

> <r_mmod_Solvation_Energy-OPLS-2005>
-227.725891113281

> <b_mmod_Minimization_Converged-OPLS-2005>
0

> <r_mmod_RMS_Derivative-OPLS-2005>
1.08176136016846

$$$$
73
                    3D
 Structure written by MMmdl.
176184  0  0  1  0            999 V2000
  -30.5749  -14.1534   20.9539 C   0  0  0  0  0  0
  -30.7037  -12.3778   19.1500 C   0  0  0  0  0  0
  -29.6653  -12.5686   17.9816 C   0  0  0  0  0  0
  -28.1575  -12.5445   18.3611 C   0  0  0  0  0  0
  -28.0305  -13.2449   19.7013 C   0  0  2  0  0  0
  -28.9609  -12.4313   20.6267 C   0  0  0  0  0  0
  -25.9511  -14.1158   20.2911 C   0  0  0  0  0  0
  -24.3009  -13.3620   21.1345 C   0  0  0  0  0  0
  -24.2651  -12.1011   21.5864 C   0  0  0  0  0  0
  -23.7837  -10.6673   21.2269 C   0  0  0  0  0  0
  -24.2957   -9.5746   21.9854 C   0  0  0  0  0  0
  -23.6540   -8.3106   22.0463 C   0  0  0  0  0  0
  -22.4641   -8.0854   21.3207 C   0  0  0  0  0  0
  -22.0230   -9.1085   20.4554 C   0  0  0  0  0  0
  -22.6737  -10.3694   20.3933 C   0  0  0  0  0  0
  -21.7183   -6.1007   22.5018 C   0  0  0  0  0  0
  -21.4267   -6.5858   23.7990 C   0  0  0  0  0  0
  -21.3753   -5.6997   24.8966 C   0  0  0  0  0  0
  -21.6041   -4.3239   24.7065 C   0  0  0  0  0  0
  -21.8774   -3.8321   23.4183 C   0  0  0  0  0  0
  -21.9288   -4.7153   22.3235 C   0  0  0  0  0  0
  -22.6445  -13.7337   21.3320 C   0  0  0  0  0  0
  -22.1688   -4.2243   21.0848 F   0  0  0  0  0  0
  -21.5570   -3.4710   25.7585 F   0  0  0  0  0  0
  -30.2324  -12.9791   20.3958 N   0  0  0  0  0  0
  -26.6656  -13.6310   20.1856 N   0  0  0  0  0  0
  -24.9548  -13.2421   20.9658 N   0  0  0  0  0  0
  -21.8957  -12.9995   22.1617 N   0  0  0  0  0  0
  -26.5151  -15.2923   19.6008 N   0  0  0  0  0  0
  -31.5637  -14.7696   20.5120 O   0  0  0  0  0  0
  -21.7234   -6.9186   21.3885 O   0  0  0  0  0  0
  -22.0782  -14.6629   20.7634 O   0  0  0  0  0  0
  -24.6687  -31.8212   23.1806 C   0  0  0  0  0  0
  -25.9400  -32.4516   23.8185 C   0  0  1  0  0  0
  -26.8258  -26.7134   20.2464 C   0  0  0  0  0  0
  -25.6079  -33.8357   24.2044 N   0  0  0  0  0  0
  -23.4667  -30.4644   21.5335 C   0  0  2  0  0  0
  -24.8578  -28.8683   20.0762 C   0  0  0  0  0  0
  -22.7644  -29.4479   22.4729 C   0  0  0  0  0  0
  -18.0332  -28.1418   22.8468 C   0  0  0  0  0  0
  -24.1518  -36.7188   23.2630 C   0  0  0  0  0  0
  -26.0460  -30.5487   21.4461 C   0  0  0  0  0  0
  -26.0404  -29.1366   20.7764 C   0  0  0  0  0  0
  -27.0492  -28.0628   20.8521 C   0  0  0  0  0  0
  -25.7447  -26.7053   19.3682 C   0  0  0  0  0  0
  -24.7566  -27.6950   19.3310 C   0  0  0  0  0  0
  -23.6912  -29.8403   20.1346 C   0  0  0  0  0  0
  -25.4163  -36.2923   24.0265 C   0  0  1  0  0  0
  -20.5951  -28.3758   23.1175 C   0  0  2  0  0  0
  -20.6819  -26.9441   22.5389 C   0  0  0  0  0  0
  -19.5775  -26.6380   21.5223 C   0  0  0  0  0  0
  -18.1958  -26.7952   22.1630 C   0  0  0  0  0  0
  -19.1591  -28.8908   23.2814 C   0  0  0  0  0  0
  -18.9503  -30.1508   23.8832 C   0  0  0  0  0  0
  -17.6493  -30.6597   24.0561 C   0  0  0  0  0  0
  -25.9151  -34.9308   23.4956 C   0  0  0  0  0  0
  -16.5384  -29.9083   23.6352 C   0  0  0  0  0  0
  -16.7318  -28.6518   23.0348 C   0  0  0  0  0  0
  -26.4607  -31.6523   25.0768 C   0  0  0  0  0  0
  -25.3662  -31.3844   26.1367 C   0  0  0  0  0  0
  -27.0504  -30.2844   24.6664 C   0  0  0  0  0  0
  -27.6098  -32.4360   25.7524 C   0  0  0  0  0  0
  -27.5590  -37.1747   24.8449 C   0  0  0  0  0  0
  -21.4317  -29.3058   22.3499 N   0  0  0  0  0  0
  -26.4287  -37.3682   23.9402 N   0  0  0  0  0  0
  -24.7522  -30.9798   22.0997 N   0  0  0  0  0  0
  -23.4233  -28.7990   23.2908 O   0  0  0  0  0  0
  -27.3978  -25.3364   20.4294 O   0  0  0  0  0  0
  -26.5754  -34.8849   22.4547 O   0  0  0  0  0  0
  -23.5780  -32.1294   23.6883 O   0  0  0  0  0  0
  -24.1666  -14.3094   19.0269 C   0  0  0  0  0  0
  -25.1556  -12.2535   19.0335 C   0  0  0  0  0  0
  -24.5174  -15.6899   20.8728 C   0  0  0  0  0  0
  -26.6008  -13.0039   22.3938 C   0  0  0  0  0  0
  -23.4340  -14.8334   17.8128 C   0  0  0  0  0  0
  -25.3467   -9.8396   18.1939 C   0  0  0  0  0  0
  -25.3884  -11.7460   16.5296 C   0  0  0  0  0  0
  -29.8473  -13.6851   24.3481 C   0  0  0  0  0  0
  -29.5202  -14.7724   22.0018 C   0  0  0  0  0  0
  -25.6332  -18.5879   20.7990 C   0  0  0  0  0  0
  -26.4799  -23.8623   20.4103 C   0  0  0  0  0  0
  -24.8756  -11.2736   17.8960 C   0  0  0  0  0  0
  -28.7962  -14.0699   23.2963 C   0  0  1  0  0  0
  -25.4787  -20.4639   20.6957 C   0  0  2  0  0  0
  -26.6197  -21.9769   20.5484 C   0  0  1  0  0  0
  -26.3704  -11.5615   20.7834 N   0  0  0  0  0  0
  -25.7225  -14.8607   22.4005 N   0  0  0  0  0  0
  -24.5464  -17.2871   20.7503 N   0  0  0  0  0  0
  -27.7174  -12.9986   23.2458 N   0  0  0  0  0  0
  -24.7905  -20.7005   21.9053 O   0  0  0  0  0  0
  -27.2892  -21.6734   19.3357 O   0  0  0  0  0  0
  -31.6679  -12.7977   18.8580 H   0  0  0  0  0  0
  -30.9027  -11.3176   19.3124 H   0  0  0  0  0  0
  -29.8602  -11.8370   17.1981 H   0  0  0  0  0  0
  -29.8656  -13.5351   17.5166 H   0  0  0  0  0  0
  -27.7917  -11.5237   18.3956 H   0  0  0  0  0  0
  -27.5874  -13.0796   17.6028 H   0  0  0  0  0  0
  -28.5226  -14.1860   19.4644 H   0  0  0  0  0  0
  -28.9260  -11.3893   20.2955 H   0  0  0  0  0  0
  -28.8907  -12.1433   21.6327 H   0  0  0  0  0  0
  -25.1479   -9.7486   22.6263 H   0  0  0  0  0  0
  -24.0541   -7.5483   22.6989 H   0  0  0  0  0  0
  -21.1222   -8.9519   19.8772 H   0  0  0  0  0  0
  -22.2210  -11.1533   19.8036 H   0  0  0  0  0  0
  -21.2339   -7.6383   23.9518 H   0  0  0  0  0  0
  -21.1598   -6.0745   25.8871 H   0  0  0  0  0  0
  -22.0424   -2.7761   23.2671 H   0  0  0  0  0  0
  -22.2624  -12.2185   22.6875 H   0  0  0  0  0  0
  -20.9200  -13.2337   22.2635 H   0  0  0  0  0  0
  -25.8772  -15.9351   19.1437 H   0  0  0  0  0  0
  -27.4122  -15.2716   19.1423 H   0  0  0  0  0  0
  -26.7404  -32.4927   23.0816 H   0  0  0  0  0  0
  -25.0164  -33.9418   25.0153 H   0  0  0  0  0  0
  -22.7861  -31.3071   21.3972 H   0  0  0  0  0  0
  -23.3793  -35.9503   23.3219 H   0  0  0  0  0  0
  -24.3599  -36.8928   22.2061 H   0  0  0  0  0  0
  -23.7258  -37.6336   23.6756 H   0  0  0  0  0  0
  -26.2856  -31.2839   20.6774 H   0  0  0  0  0  0
  -26.8956  -30.5650   22.1151 H   0  0  0  0  0  0
  -27.9100  -28.2096   21.4902 H   0  0  0  0  0  0
  -25.5524  -25.8324   18.7665 H   0  0  0  0  0  0
  -23.8827  -27.5209   18.7177 H   0  0  0  0  0  0
  -23.8864  -30.6346   19.4145 H   0  0  0  0  0  0
  -22.7830  -29.3453   19.7844 H   0  0  0  0  0  0
  -25.1363  -36.1691   25.0754 H   0  0  0  0  0  0
  -21.0065  -28.3395   24.1298 H   0  0  0  0  0  0
  -20.5730  -26.2386   23.3637 H   0  0  0  0  0  0
  -21.6673  -26.7443   22.1169 H   0  0  0  0  0  0
  -19.6911  -25.6280   21.1287 H   0  0  0  0  0  0
  -19.6693  -27.3162   20.6730 H   0  0  0  0  0  0
  -17.4226  -26.6719   21.4035 H   0  0  0  0  0  0
  -18.0341  -26.0114   22.9043 H   0  0  0  0  0  0
  -19.7969  -30.7360   24.2162 H   0  0  0  0  0  0
  -17.5027  -31.6254   24.5192 H   0  0  0  0  0  0
  -15.5371  -30.2942   23.7709 H   0  0  0  0  0  0
  -15.8740  -28.0807   22.7071 H   0  0  0  0  0  0
  -24.5878  -30.7167   25.7659 H   0  0  0  0  0  0
  -24.8808  -32.3060   26.4584 H   0  0  0  0  0  0
  -25.7818  -30.9130   27.0272 H   0  0  0  0  0  0
  -26.3181  -29.6454   24.1715 H   0  0  0  0  0  0
  -27.3959  -29.7310   25.5406 H   0  0  0  0  0  0
  -27.9192  -30.3953   24.0172 H   0  0  0  0  0  0
  -27.2689  -33.3732   26.1930 H   0  0  0  0  0  0
  -28.3968  -32.6797   25.0375 H   0  0  0  0  0  0
  -28.0688  -31.8591   26.5555 H   0  0  0  0  0  0
  -28.2532  -38.0116   24.7559 H   0  0  0  0  0  0
  -28.1162  -36.2638   24.6206 H   0  0  0  0  0  0
  -27.2307  -37.1295   25.8848 H   0  0  0  0  0  0
  -20.9560  -29.8789   21.6663 H   0  0  0  0  0  0
  -26.0117  -38.2723   24.1440 H   0  0  0  0  0  0
  -22.5414  -14.2445   17.6120 H   0  0  0  0  0  0
  -23.1316  -15.8680   17.9832 H   0  0  0  0  0  0
  -24.0771  -14.8000   16.9352 H   0  0  0  0  0  0
  -24.8559   -9.4283   19.0720 H   0  0  0  0  0  0
  -26.4192   -9.7876   18.3762 H   0  0  0  0  0  0
  -25.1178   -9.1702   17.3647 H   0  0  0  0  0  0
  -25.1493  -12.7955   16.3594 H   0  0  0  0  0  0
  -24.9255  -11.1784   15.7245 H   0  0  0  0  0  0
  -26.4614  -11.6081   16.4233 H   0  0  0  0  0  0
  -30.5030  -14.5303   24.5633 H   0  0  0  0  0  0
  -30.4645  -12.8521   24.0121 H   0  0  0  0  0  0
  -29.3801  -13.4017   25.2941 H   0  0  0  0  0  0
  -30.0622  -15.6258   22.4088 H   0  0  0  0  0  0
  -28.7390  -15.2609   21.4228 H   0  0  0  0  0  0
  -26.2356  -18.3889   21.6875 H   0  0  0  0  0  0
  -26.3033  -18.3430   19.9720 H   0  0  0  0  0  0
  -25.7624  -24.0838   21.1999 H   0  0  0  0  0  0
  -25.8912  -23.9448   19.5026 H   0  0  0  0  0  0
  -23.7895  -11.2487   17.8176 H   0  0  0  0  0  0
  -28.2586  -14.9051   23.7487 H   0  0  0  0  0  0
  -24.7491  -20.6095   19.8983 H   0  0  0  0  0  0
  -27.3382  -21.8359   21.3570 H   0  0  0  0  0  0
  -23.7701  -17.5499   20.1550 H   0  0  0  0  0  0
  -28.0804  -12.0612   23.3854 H   0  0  0  0  0  0
  -24.1546  -19.9966   22.0046 H   0  0  0  0  0  0
  -26.6563  -21.7617   18.6278 H   0  0  0  0  0  0
  1 25  1  0  0  0
  1 30  2  0  0  0
  1 79  1  0  0  0
  2  3  1  0  0  0
  2 25  1  0  0  0
  2 92  1  0  0  0
  2 93  1  0  0  0
  3  4  1  0  0  0
  3 94  1  0  0  0
  3 95  1  0  0  0
  4  5  1  0  0  0
  4 96  1  0  0  0
  4 97  1  0  0  0
  5  6  1  0  0  0
  5 26  1  0  0  0
  5 98  1  0  0  0
  6 25  1  0  0  0
  6 99  1  0  0  0
  6100  1  0  0  0
  7  8  2  0  0  0
  7 26  1  0  0  0
  7 29  1  0  0  0
  8  9  1  0  0  0
  8 22  1  0  0  0
  9 10  1  0  0  0
  9 27  2  0  0  0
 10 11  2  0  0  0
 10 15  1  0  0  0
 11 12  1  0  0  0
 11101  1  0  0  0
 12 13  2  0  0  0
 12102  1  0  0  0
 13 14  1  0  0  0
 13 31  1  0  0  0
 14 15  2  0  0  0
 14103  1  0  0  0
 15104  1  0  0  0
 16 17  2  0  0  0
 16 21  1  0  0  0
 16 31  1  0  0  0
 17 18  1  0  0  0
 17105  1  0  0  0
 18 19  2  0  0  0
 18106  1  0  0  0
 19 20  1  0  0  0
 19 24  1  0  0  0
 20 21  2  0  0  0
 20107  1  0  0  0
 21 23  1  0  0  0
 22 28  1  0  0  0
 22 32  2  0  0  0
 26 27  1  0  0  0
 28108  1  0  0  0
 28109  1  0  0  0
 29110  1  0  0  0
 29111  1  0  0  0
 33 34  1  0  0  0
 33 66  1  0  0  0
 33 70  2  0  0  0
 34 36  1  0  0  0
 34 59  1  0  0  0
 34112  1  0  0  0
 35 44  2  0  0  0
 35 45  1  0  0  0
 35 68  1  0  0  0
 36 56  1  0  0  0
 36113  1  0  0  0
 37 39  1  0  0  0
 37 47  1  0  0  0
 37 66  1  0  0  0
 37114  1  0  0  0
 38 43  2  0  0  0
 38 46  1  0  0  0
 38 47  1  0  0  0
 39 64  1  0  0  0
 39 67  2  0  0  0
 40 52  1  0  0  0
 40 53  2  0  0  0
 40 58  1  0  0  0
 41115  1  0  0  0
 41116  1  0  0  0
 41117  1  0  0  0
 41 48  1  0  0  0
 42 43  1  0  0  0
 42 66  1  0  0  0
 42118  1  0  0  0
 42119  1  0  0  0
 43 44  1  0  0  0
 44120  1  0  0  0
 45 46  2  0  0  0
 45121  1  0  0  0
 46122  1  0  0  0
 47123  1  0  0  0
 47124  1  0  0  0
 48 56  1  0  0  0
 48 65  1  0  0  0
 48125  1  0  0  0
 49 50  1  0  0  0
 49 53  1  0  0  0
 49 64  1  0  0  0
 49126  1  0  0  0
 50 51  1  0  0  0
 50127  1  0  0  0
 50128  1  0  0  0
 51 52  1  0  0  0
 51129  1  0  0  0
 51130  1  0  0  0
 52131  1  0  0  0
 52132  1  0  0  0
 53 54  1  0  0  0
 54 55  2  0  0  0
 54133  1  0  0  0
 55 57  1  0  0  0
 55134  1  0  0  0
 56 69  2  0  0  0
 57 58  2  0  0  0
 57135  1  0  0  0
 58136  1  0  0  0
 59 60  1  0  0  0
 59 61  1  0  0  0
 59 62  1  0  0  0
 60137  1  0  0  0
 60138  1  0  0  0
 60139  1  0  0  0
 61140  1  0  0  0
 61141  1  0  0  0
 61142  1  0  0  0
 62143  1  0  0  0
 62144  1  0  0  0
 62145  1  0  0  0
 63 65  1  0  0  0
 63146  1  0  0  0
 63147  1  0  0  0
 63148  1  0  0  0
 64149  1  0  0  0
 65150  1  0  0  0
 68 81  1  0  0  0
 71 72  2  0  0  0
 71 73  1  0  0  0
 71 75  1  0  0  0
 72 82  1  0  0  0
 72 86  1  0  0  0
 73 87  2  0  0  0
 73 88  1  0  0  0
 74 86  2  0  0  0
 74 87  1  0  0  0
 74 89  1  0  0  0
 75151  1  0  0  0
 75152  1  0  0  0
 75153  1  0  0  0
 76154  1  0  0  0
 76155  1  0  0  0
 76156  1  0  0  0
 76 82  1  0  0  0
 77 82  1  0  0  0
 77157  1  0  0  0
 77158  1  0  0  0
 77159  1  0  0  0
 78160  1  0  0  0
 78161  1  0  0  0
 78162  1  0  0  0
 78 83  1  0  0  0
 79 83  1  0  0  0
 79163  1  0  0  0
 79164  1  0  0  0
 80 84  1  0  0  0
 80 88  1  0  0  0
 80165  1  0  0  0
 80166  1  0  0  0
 81 85  1  0  0  0
 81167  1  0  0  0
 81168  1  0  0  0
 82169  1  0  0  0
 83 89  1  0  0  0
 83170  1  0  0  0
 84 85  1  0  0  0
 84 90  1  0  0  0
 84171  1  0  0  0
 85 91  1  0  0  0
 85172  1  0  0  0
 88173  1  0  0  0
 89174  1  0  0  0
 90175  1  0  0  0
 91176  1  0  0  0
M  ISO  4   1 100  68 101  79 100  81 101
M  END
> <chiral flag>
0

> <version>
0

> <s_m_source_file>
/data/baiqing/PycharmProjects/Reinvent-master-3.2/result/LINK_invent/BTK/process_docking_weight1_custom_product_contain_oxygen_bond_distance_aromatic_linkinvent_7_9_3/rearranged_h_0191.sdf

> <i_m_source_file_index>
72

> <r_mmod_Potential_Energy-OPLS-2005>
19333.923828125

> <r_mmod_Stretch_Energy-OPLS-2005>
11740.2421875

> <r_mmod_Bend_Energy-OPLS-2005>
2153.80615234375

> <r_mmod_Torsional_Energy-OPLS-2005>
388.416320800781

> <r_mmod_Improper_Torsional_Energy-OPLS-2005>
59.4616470336914

> <r_mmod_Van_der_Waal_Energy-OPLS-2005>
4496.49755859375

> <r_mmod_Electrostatic_Energy-OPLS-2005>
-694.227844238281

> <r_mmod_Solvation_Energy-OPLS-2005>
-304.904602050781

> <b_mmod_Minimization_Converged-OPLS-2005>
0

> <r_mmod_RMS_Derivative-OPLS-2005>
7.07509756088257

$$$$
74
                    3D
 Structure written by MMmdl.
161169  0  0  1  0            999 V2000
  -30.7018  -14.5216   20.4865 C   0  0  0  0  0  0
  -30.4097  -12.3134   19.4523 C   0  0  0  0  0  0
  -29.5010  -12.4965   18.2186 C   0  0  0  0  0  0
  -28.0203  -12.3657   18.6236 C   0  0  0  0  0  0
  -27.6559  -13.2236   19.8656 C   0  0  2  0  0  0
  -28.6974  -13.0663   20.9981 C   0  0  0  0  0  0
  -25.2559  -13.8171   20.5685 C   0  0  0  0  0  0
  -24.1826  -13.0437   20.9189 C   0  0  0  0  0  0
  -24.6414  -11.6920   20.8742 C   0  0  0  0  0  0
  -23.9085  -10.4300   21.0405 C   0  0  0  0  0  0
  -24.3634   -9.4207   21.9179 C   0  0  0  0  0  0
  -23.6304   -8.2246   22.0752 C   0  0  0  0  0  0
  -22.4283   -8.0291   21.3541 C   0  0  0  0  0  0
  -21.9922   -9.0280   20.4649 C   0  0  0  0  0  0
  -22.7259  -10.2156   20.3050 C   0  0  0  0  0  0
  -21.6859   -6.0746   22.5274 C   0  0  0  0  0  0
  -21.4030   -6.5643   23.8216 C   0  0  0  0  0  0
  -21.3658   -5.6782   24.9169 C   0  0  0  0  0  0
  -21.6034   -4.3049   24.7216 C   0  0  0  0  0  0
  -21.8813   -3.8155   23.4337 C   0  0  0  0  0  0
  -21.9191   -4.6969   22.3396 C   0  0  0  0  0  0
  -22.7840  -13.5243   21.1839 C   0  0  0  0  0  0
  -22.1649   -4.2162   21.0973 F   0  0  0  0  0  0
  -21.5622   -3.4531   25.7733 F   0  0  0  0  0  0
  -30.0265  -13.3399   20.4343 N   0  0  0  0  0  0
  -26.3007  -12.9385   20.3331 N   0  0  0  0  0  0
  -25.9350  -11.6534   20.5763 N   0  0  0  0  0  0
  -22.0462  -12.8276   22.0410 N   0  0  0  0  0  0
  -25.4221  -15.1896   20.4073 N   0  0  0  0  0  0
  -31.8939  -14.5947   20.1666 O   0  0  0  0  0  0
  -21.6635   -6.8904   21.4247 O   0  0  0  0  0  0
  -22.3530  -14.5542   20.6664 O   0  0  0  0  0  0
  -24.6177  -31.8678   23.2121 C   0  0  0  0  0  0
  -25.9063  -32.4827   23.8404 C   0  0  1  0  0  0
  -27.2162  -27.4008   20.0868 C   0  0  0  0  0  0
  -25.5916  -33.8630   24.2313 N   0  0  0  0  0  0
  -23.4052  -30.4946   21.5557 C   0  0  2  0  0  0
  -24.8460  -28.9686   20.1127 C   0  0  0  0  0  0
  -22.7444  -29.4643   22.5009 C   0  0  0  0  0  0
  -18.0273  -28.1357   22.8504 C   0  0  0  0  0  0
  -24.1484  -36.7315   23.2632 C   0  0  0  0  0  0
  -25.9411  -30.8223   21.3716 C   0  0  0  0  0  0
  -26.0146  -29.4582   20.7097 C   0  0  0  0  0  0
  -27.2030  -28.6833   20.6936 C   0  0  0  0  0  0
  -26.0263  -26.9564   19.4567 C   0  0  0  0  0  0
  -24.8490  -27.7177   19.4830 C   0  0  0  0  0  0
  -23.6120  -29.8379   20.1682 C   0  0  0  0  0  0
  -25.4106  -36.3111   24.0329 C   0  0  1  0  0  0
  -20.5866  -28.3646   23.1332 C   0  0  2  0  0  0
  -20.6763  -26.9384   22.5418 C   0  0  0  0  0  0
  -19.5733  -26.6366   21.5218 C   0  0  0  0  0  0
  -18.1914  -26.7901   22.1632 C   0  0  0  0  0  0
  -19.1524  -28.8818   23.2905 C   0  0  0  0  0  0
  -18.9449  -30.1428   23.8913 C   0  0  0  0  0  0
  -17.6456  -30.6578   24.0542 C   0  0  0  0  0  0
  -25.9045  -34.9483   23.5112 C   0  0  0  0  0  0
  -16.5345  -29.9074   23.6315 C   0  0  0  0  0  0
  -16.7267  -28.6475   23.0364 C   0  0  0  0  0  0
  -26.4468  -31.6625   25.0755 C   0  0  0  0  0  0
  -25.3738  -31.3765   26.1514 C   0  0  0  0  0  0
  -27.0283  -30.3055   24.6150 C   0  0  0  0  0  0
  -27.6024  -32.4366   25.7531 C   0  0  0  0  0  0
  -27.5575  -37.1810   24.8457 C   0  0  0  0  0  0
  -21.4164  -29.3029   22.3764 N   0  0  0  0  0  0
  -26.4281  -37.3802   23.9417 N   0  0  0  0  0  0
  -24.6732  -31.0755   22.1036 N   0  0  0  0  0  0
  -23.4206  -28.8176   23.3043 O   0  0  0  0  0  0
  -28.3527  -26.6001   20.1346 O   0  0  0  0  0  0
  -26.5601  -34.8932   22.4671 O   0  0  0  0  0  0
  -23.5372  -32.1455   23.7504 O   0  0  0  0  0  0
  -30.1161  -19.1249   18.6098 C   0  0  0  0  0  0
  -29.5523  -19.1172   19.9227 C   0  0  0  0  0  0
  -30.0635  -16.8532   20.0513 C   0  0  0  0  0  0
  -30.0540  -20.2511   17.6278 C   0  0  0  0  0  0
  -31.3251  -20.5046   16.8206 C   0  0  0  0  0  0
  -31.1105  -21.6023   20.5800 C   0  0  0  0  0  0
  -28.7938  -22.7238   20.1891 C   0  0  0  0  0  0
  -28.1325  -25.1812   19.9183 C   0  0  0  0  0  0
  -29.5917  -21.5435   20.8370 C   0  0  1  0  0  0
  -29.1671  -24.2062   20.5411 C   0  0  1  0  0  0
  -30.6565  -17.9837   18.1156 N   0  0  0  0  0  0
  -29.5091  -17.9435   20.6232 N   0  0  0  0  0  0
  -30.6278  -16.8549   18.8290 N   0  0  0  0  0  0
  -28.9615  -20.2196   20.5930 N   0  0  0  0  0  0
  -29.9630  -15.6346   20.7094 N   0  0  0  0  0  0
  -29.0510  -20.9283   17.3881 O   0  0  0  0  0  0
  -29.0852  -24.3920   21.9428 O   0  0  0  0  0  0
  -31.4607  -12.3767   19.1643 H   0  0  0  0  0  0
  -30.2762  -11.3196   19.8812 H   0  0  0  0  0  0
  -29.7488  -11.7549   17.4577 H   0  0  0  0  0  0
  -29.6772  -13.4708   17.7589 H   0  0  0  0  0  0
  -27.8280  -11.3129   18.8283 H   0  0  0  0  0  0
  -27.3768  -12.6296   17.7828 H   0  0  0  0  0  0
  -27.6789  -14.2646   19.5420 H   0  0  0  0  0  0
  -28.6713  -12.0568   21.4111 H   0  0  0  0  0  0
  -28.4702  -13.7352   21.8289 H   0  0  0  0  0  0
  -25.2783   -9.5672   22.4751 H   0  0  0  0  0  0
  -24.0000   -7.4636   22.7467 H   0  0  0  0  0  0
  -21.0845   -8.8802   19.8985 H   0  0  0  0  0  0
  -22.3698  -10.9693   19.6161 H   0  0  0  0  0  0
  -21.2038   -7.6151   23.9728 H   0  0  0  0  0  0
  -21.1479   -6.0509   25.9071 H   0  0  0  0  0  0
  -22.0602   -2.7619   23.2818 H   0  0  0  0  0  0
  -22.4070  -11.9970   22.4861 H   0  0  0  0  0  0
  -21.1069  -13.1331   22.2557 H   0  0  0  0  0  0
  -24.6529  -15.8399   20.5244 H   0  0  0  0  0  0
  -26.2654  -15.6377   20.0760 H   0  0  0  0  0  0
  -26.7141  -32.5499   23.1166 H   0  0  0  0  0  0
  -25.0091  -33.9799   25.0472 H   0  0  0  0  0  0
  -22.6923  -31.3110   21.4224 H   0  0  0  0  0  0
  -23.3750  -35.9643   23.3294 H   0  0  0  0  0  0
  -24.3584  -36.8939   22.2049 H   0  0  0  0  0  0
  -23.7237  -37.6515   23.6657 H   0  0  0  0  0  0
  -26.0622  -31.5929   20.6082 H   0  0  0  0  0  0
  -26.8263  -30.8673   21.9941 H   0  0  0  0  0  0
  -28.0997  -29.0560   21.1690 H   0  0  0  0  0  0
  -25.9669  -26.0104   18.9398 H   0  0  0  0  0  0
  -23.9534  -27.3342   19.0132 H   0  0  0  0  0  0
  -23.7267  -30.6174   19.4150 H   0  0  0  0  0  0
  -22.7326  -29.2661   19.8660 H   0  0  0  0  0  0
  -25.1279  -36.1962   25.0821 H   0  0  0  0  0  0
  -20.9941  -28.3185   24.1453 H   0  0  0  0  0  0
  -20.5679  -26.2245   23.3602 H   0  0  0  0  0  0
  -21.6633  -26.7437   22.1195 H   0  0  0  0  0  0
  -19.6897  -25.6278   21.1239 H   0  0  0  0  0  0
  -19.6663  -27.3182   20.6756 H   0  0  0  0  0  0
  -17.4190  -26.6666   21.4022 H   0  0  0  0  0  0
  -18.0300  -26.0024   22.9012 H   0  0  0  0  0  0
  -19.7933  -30.7218   24.2299 H   0  0  0  0  0  0
  -17.5024  -31.6270   24.5121 H   0  0  0  0  0  0
  -15.5351  -30.2986   23.7630 H   0  0  0  0  0  0
  -15.8659  -28.0795   22.7099 H   0  0  0  0  0  0
  -24.5884  -30.7120   25.7887 H   0  0  0  0  0  0
  -24.8960  -32.2945   26.4962 H   0  0  0  0  0  0
  -25.8104  -30.8952   27.0280 H   0  0  0  0  0  0
  -26.2829  -29.6861   24.1144 H   0  0  0  0  0  0
  -27.3972  -29.7249   25.4618 H   0  0  0  0  0  0
  -27.8709  -30.4357   23.9352 H   0  0  0  0  0  0
  -27.2600  -33.3655   26.2115 H   0  0  0  0  0  0
  -28.3837  -32.6969   25.0373 H   0  0  0  0  0  0
  -28.0690  -31.8505   26.5462 H   0  0  0  0  0  0
  -28.2582  -38.0118   24.7525 H   0  0  0  0  0  0
  -28.1080  -36.2654   24.6246 H   0  0  0  0  0  0
  -27.2306  -37.1421   25.8861 H   0  0  0  0  0  0
  -20.9330  -29.8776   21.7008 H   0  0  0  0  0  0
  -26.0162  -38.2871   24.1438 H   0  0  0  0  0  0
  -31.3477  -19.8548   15.9456 H   0  0  0  0  0  0
  -32.2049  -20.2893   17.4260 H   0  0  0  0  0  0
  -31.3826  -21.5442   16.4971 H   0  0  0  0  0  0
  -31.5284  -22.5106   21.0152 H   0  0  0  0  0  0
  -31.3684  -21.6261   19.5249 H   0  0  0  0  0  0
  -31.6335  -20.7669   21.0453 H   0  0  0  0  0  0
  -27.7401  -22.5778   20.4327 H   0  0  0  0  0  0
  -28.8424  -22.6422   19.1067 H   0  0  0  0  0  0
  -27.1658  -24.8717   20.3218 H   0  0  0  0  0  0
  -28.0950  -25.0134   18.8406 H   0  0  0  0  0  0
  -29.4840  -21.6794   21.9150 H   0  0  0  0  0  0
  -30.1708  -24.4474   20.1874 H   0  0  0  0  0  0
  -28.3874  -19.9217   21.3756 H   0  0  0  0  0  0
  -29.0993  -15.4983   21.2040 H   0  0  0  0  0  0
  -29.0707  -25.3362   22.0889 H   0  0  0  0  0  0
  1 25  1  0  0  0
  1 30  2  0  0  0
  1 85  1  0  0  0
  2  3  1  0  0  0
  2 25  1  0  0  0
  2 88  1  0  0  0
  2 89  1  0  0  0
  3  4  1  0  0  0
  3 90  1  0  0  0
  3 91  1  0  0  0
  4  5  1  0  0  0
  4 92  1  0  0  0
  4 93  1  0  0  0
  5  6  1  0  0  0
  5 26  1  0  0  0
  5 94  1  0  0  0
  6 25  1  0  0  0
  6 95  1  0  0  0
  6 96  1  0  0  0
  7  8  2  0  0  0
  7 26  1  0  0  0
  7 29  1  0  0  0
  8  9  1  0  0  0
  8 22  1  0  0  0
  9 10  1  0  0  0
  9 27  2  0  0  0
 10 11  2  0  0  0
 10 15  1  0  0  0
 11 12  1  0  0  0
 11 97  1  0  0  0
 12 13  2  0  0  0
 12 98  1  0  0  0
 13 14  1  0  0  0
 13 31  1  0  0  0
 14 15  2  0  0  0
 14 99  1  0  0  0
 15100  1  0  0  0
 16 17  2  0  0  0
 16 21  1  0  0  0
 16 31  1  0  0  0
 17 18  1  0  0  0
 17101  1  0  0  0
 18 19  2  0  0  0
 18102  1  0  0  0
 19 20  1  0  0  0
 19 24  1  0  0  0
 20 21  2  0  0  0
 20103  1  0  0  0
 21 23  1  0  0  0
 22 28  1  0  0  0
 22 32  2  0  0  0
 26 27  1  0  0  0
 28104  1  0  0  0
 28105  1  0  0  0
 29106  1  0  0  0
 29107  1  0  0  0
 33 34  1  0  0  0
 33 66  1  0  0  0
 33 70  2  0  0  0
 34 36  1  0  0  0
 34 59  1  0  0  0
 34108  1  0  0  0
 35 44  2  0  0  0
 35 45  1  0  0  0
 35 68  1  0  0  0
 36 56  1  0  0  0
 36109  1  0  0  0
 37 39  1  0  0  0
 37 47  1  0  0  0
 37 66  1  0  0  0
 37110  1  0  0  0
 38 43  2  0  0  0
 38 46  1  0  0  0
 38 47  1  0  0  0
 39 64  1  0  0  0
 39 67  2  0  0  0
 40 52  1  0  0  0
 40 53  2  0  0  0
 40 58  1  0  0  0
 41111  1  0  0  0
 41112  1  0  0  0
 41113  1  0  0  0
 41 48  1  0  0  0
 42 43  1  0  0  0
 42 66  1  0  0  0
 42114  1  0  0  0
 42115  1  0  0  0
 43 44  1  0  0  0
 44116  1  0  0  0
 45 46  2  0  0  0
 45117  1  0  0  0
 46118  1  0  0  0
 47119  1  0  0  0
 47120  1  0  0  0
 48 56  1  0  0  0
 48 65  1  0  0  0
 48121  1  0  0  0
 49 50  1  0  0  0
 49 53  1  0  0  0
 49 64  1  0  0  0
 49122  1  0  0  0
 50 51  1  0  0  0
 50123  1  0  0  0
 50124  1  0  0  0
 51 52  1  0  0  0
 51125  1  0  0  0
 51126  1  0  0  0
 52127  1  0  0  0
 52128  1  0  0  0
 53 54  1  0  0  0
 54 55  2  0  0  0
 54129  1  0  0  0
 55 57  1  0  0  0
 55130  1  0  0  0
 56 69  2  0  0  0
 57 58  2  0  0  0
 57131  1  0  0  0
 58132  1  0  0  0
 59 60  1  0  0  0
 59 61  1  0  0  0
 59 62  1  0  0  0
 60133  1  0  0  0
 60134  1  0  0  0
 60135  1  0  0  0
 61136  1  0  0  0
 61137  1  0  0  0
 61138  1  0  0  0
 62139  1  0  0  0
 62140  1  0  0  0
 62141  1  0  0  0
 63 65  1  0  0  0
 63142  1  0  0  0
 63143  1  0  0  0
 63144  1  0  0  0
 64145  1  0  0  0
 65146  1  0  0  0
 68 78  1  0  0  0
 71 72  2  0  0  0
 71 74  1  0  0  0
 71 81  1  0  0  0
 72 82  1  0  0  0
 72 84  1  0  0  0
 73 82  2  0  0  0
 73 83  1  0  0  0
 73 85  1  0  0  0
 74 75  1  0  0  0
 74 86  2  0  0  0
 75147  1  0  0  0
 75148  1  0  0  0
 75149  1  0  0  0
 76150  1  0  0  0
 76151  1  0  0  0
 76152  1  0  0  0
 76 79  1  0  0  0
 77 79  1  0  0  0
 77 80  1  0  0  0
 77153  1  0  0  0
 77154  1  0  0  0
 78 80  1  0  0  0
 78155  1  0  0  0
 78156  1  0  0  0
 79 84  1  0  0  0
 79157  1  0  0  0
 80 87  1  0  0  0
 80158  1  0  0  0
 81 83  2  0  0  0
 84159  1  0  0  0
 85160  1  0  0  0
 87161  1  0  0  0
M  ISO  4   1 100  68 101  78 101  85 100
M  END
> <chiral flag>
0

> <version>
0

> <s_m_source_file>
/data/baiqing/PycharmProjects/Reinvent-master-3.2/result/LINK_invent/BTK/process_docking_weight1_custom_product_contain_oxygen_bond_distance_aromatic_linkinvent_7_9_3/rearranged_h_0191.sdf

> <i_m_source_file_index>
73

> <r_mmod_Potential_Energy-OPLS-2005>
98.0741500854492

> <r_mmod_Stretch_Energy-OPLS-2005>
51.9324607849121

> <r_mmod_Bend_Energy-OPLS-2005>
140.927444458008

> <r_mmod_Torsional_Energy-OPLS-2005>
268.162109375

> <r_mmod_Improper_Torsional_Energy-OPLS-2005>
9.32586669921875

> <r_mmod_Van_der_Waal_Energy-OPLS-2005>
170.033096313477

> <r_mmod_Electrostatic_Energy-OPLS-2005>
-315.079528808594

> <r_mmod_Solvation_Energy-OPLS-2005>
-254.067718505859

> <b_mmod_Minimization_Converged-OPLS-2005>
0

> <r_mmod_RMS_Derivative-OPLS-2005>
3.0012378692627

$$$$
75
                    3D
 Structure written by MMmdl.
168176  0  0  1  0            999 V2000
  -30.6976  -14.5071   20.5469 C   0  0  0  0  0  0
  -30.4216  -12.3201   19.4406 C   0  0  0  0  0  0
  -29.5012  -12.5222   18.2180 C   0  0  0  0  0  0
  -28.0223  -12.3785   18.6231 C   0  0  0  0  0  0
  -27.6647  -13.2145   19.8811 C   0  0  2  0  0  0
  -28.7065  -13.0169   21.0076 C   0  0  0  0  0  0
  -25.2605  -13.8177   20.5675 C   0  0  0  0  0  0
  -24.1854  -13.0451   20.9173 C   0  0  0  0  0  0
  -24.6418  -11.6915   20.8725 C   0  0  0  0  0  0
  -23.9078  -10.4294   21.0397 C   0  0  0  0  0  0
  -24.3623   -9.4210   21.9184 C   0  0  0  0  0  0
  -23.6295   -8.2252   22.0751 C   0  0  0  0  0  0
  -22.4279   -8.0289   21.3548 C   0  0  0  0  0  0
  -21.9921   -9.0259   20.4645 C   0  0  0  0  0  0
  -22.7247  -10.2144   20.3052 C   0  0  0  0  0  0
  -21.6853   -6.0744   22.5275 C   0  0  0  0  0  0
  -21.4018   -6.5644   23.8207 C   0  0  0  0  0  0
  -21.3666   -5.6796   24.9170 C   0  0  0  0  0  0
  -21.6034   -4.3054   24.7214 C   0  0  0  0  0  0
  -21.8823   -3.8155   23.4334 C   0  0  0  0  0  0
  -21.9194   -4.6975   22.3394 C   0  0  0  0  0  0
  -22.7876  -13.5251   21.1826 C   0  0  0  0  0  0
  -22.1660   -4.2159   21.0973 F   0  0  0  0  0  0
  -21.5628   -3.4537   25.7732 F   0  0  0  0  0  0
  -30.0394  -13.3164   20.4574 N   0  0  0  0  0  0
  -26.3052  -12.9357   20.3396 N   0  0  0  0  0  0
  -25.9354  -11.6508   20.5776 N   0  0  0  0  0  0
  -22.0519  -12.8233   22.0378 N   0  0  0  0  0  0
  -25.4350  -15.1885   20.4056 N   0  0  0  0  0  0
  -31.8175  -14.6786   20.0561 O   0  0  0  0  0  0
  -21.6647   -6.8890   21.4238 O   0  0  0  0  0  0
  -22.3567  -14.5562   20.6679 O   0  0  0  0  0  0
  -24.6180  -31.8663   23.2097 C   0  0  0  0  0  0
  -25.9072  -32.4816   23.8389 C   0  0  1  0  0  0
  -27.2232  -27.4093   20.0980 C   0  0  0  0  0  0
  -25.5943  -33.8618   24.2326 N   0  0  0  0  0  0
  -23.4080  -30.4889   21.5504 C   0  0  2  0  0  0
  -24.8564  -28.9630   20.1037 C   0  0  0  0  0  0
  -22.7443  -29.4606   22.4955 C   0  0  0  0  0  0
  -18.0277  -28.1328   22.8449 C   0  0  0  0  0  0
  -24.1499  -36.7314   23.2630 C   0  0  0  0  0  0
  -25.9403  -30.8267   21.3648 C   0  0  0  0  0  0
  -26.0196  -29.4613   20.7071 C   0  0  0  0  0  0
  -27.2113  -28.6915   20.7017 C   0  0  0  0  0  0
  -26.0511  -26.9487   19.4593 C   0  0  0  0  0  0
  -24.8685  -27.7084   19.4736 C   0  0  0  0  0  0
  -23.6189  -29.8310   20.1612 C   0  0  0  0  0  0
  -25.4120  -36.3113   24.0322 C   0  0  1  0  0  0
  -20.5875  -28.3623   23.1288 C   0  0  2  0  0  0
  -20.6777  -26.9357   22.5395 C   0  0  0  0  0  0
  -19.5778  -26.6341   21.5165 C   0  0  0  0  0  0
  -18.1943  -26.7881   22.1565 C   0  0  0  0  0  0
  -19.1526  -28.8783   23.2863 C   0  0  0  0  0  0
  -18.9465  -30.1393   23.8877 C   0  0  0  0  0  0
  -17.6470  -30.6544   24.0519 C   0  0  0  0  0  0
  -25.9039  -34.9473   23.5112 C   0  0  0  0  0  0
  -16.5359  -29.9041   23.6296 C   0  0  0  0  0  0
  -16.7264  -28.6458   23.0313 C   0  0  0  0  0  0
  -26.4487  -31.6595   25.0725 C   0  0  0  0  0  0
  -25.3744  -31.3758   26.1480 C   0  0  0  0  0  0
  -27.0292  -30.3023   24.6095 C   0  0  0  0  0  0
  -27.6066  -32.4295   25.7519 C   0  0  0  0  0  0
  -27.5586  -37.1824   24.8461 C   0  0  0  0  0  0
  -21.4159  -29.3005   22.3714 N   0  0  0  0  0  0
  -26.4302  -37.3794   23.9395 N   0  0  0  0  0  0
  -24.6735  -31.0745   22.1008 N   0  0  0  0  0  0
  -23.4206  -28.8132   23.2985 O   0  0  0  0  0  0
  -28.3231  -26.5710   20.1644 O   0  0  0  0  0  0
  -26.5570  -34.8924   22.4660 O   0  0  0  0  0  0
  -23.5368  -32.1425   23.7469 O   0  0  0  0  0  0
  -30.6589  -17.4628   19.6755 C   0  0  0  0  0  0
  -30.1523  -16.8693   20.8161 C   0  0  0  0  0  0
  -30.1323  -19.3959   20.7961 C   0  0  0  0  0  0
  -27.5405  -23.3954   24.3102 C   0  0  0  0  0  0
  -25.8845  -22.4720   20.8668 C   0  0  0  0  0  0
  -26.9893  -20.9555   22.4935 C   0  0  0  0  0  0
  -30.1731  -20.8776   21.1390 C   0  0  0  0  0  0
  -26.5885  -23.3300   23.1052 C   0  0  0  0  0  0
  -28.0454  -25.3588   20.9191 C   0  0  0  0  0  0
  -28.4404  -22.7299   21.2901 C   0  0  1  0  0  0
  -28.6229  -24.0144   20.3707 C   0  0  1  0  0  0
  -27.0124  -22.4029   21.9213 C   0  0  0  0  0  0
  -30.6251  -18.8697   19.6685 N   0  0  0  0  0  0
  -30.0214  -15.5344   21.1102 N   0  0  0  0  0  0
  -28.9487  -21.5143   20.5784 N   0  3  0  0  0  0
  -28.0374  -23.7477   19.1046 O   0  0  0  0  0  0
  -29.5907  -18.1269   21.9133 S   0  0  0  0  0  0
  -31.4685  -12.4055   19.1451 H   0  0  0  0  0  0
  -30.3086  -11.3104   19.8394 H   0  0  0  0  0  0
  -29.7444  -11.8045   17.4337 H   0  0  0  0  0  0
  -29.6693  -13.5118   17.7883 H   0  0  0  0  0  0
  -27.8302  -11.3217   18.8109 H   0  0  0  0  0  0
  -27.3755  -12.6621   17.7922 H   0  0  0  0  0  0
  -27.7049  -14.2620   19.5815 H   0  0  0  0  0  0
  -28.6838  -11.9892   21.3737 H   0  0  0  0  0  0
  -28.4654  -13.6393   21.8702 H   0  0  0  0  0  0
  -25.2775   -9.5690   22.4753 H   0  0  0  0  0  0
  -24.0001   -7.4656   22.7479 H   0  0  0  0  0  0
  -21.0852   -8.8786   19.8953 H   0  0  0  0  0  0
  -22.3705  -10.9686   19.6158 H   0  0  0  0  0  0
  -21.2013   -7.6154   23.9710 H   0  0  0  0  0  0
  -21.1479   -6.0528   25.9074 H   0  0  0  0  0  0
  -22.0594   -2.7614   23.2829 H   0  0  0  0  0  0
  -22.4141  -11.9877   22.4729 H   0  0  0  0  0  0
  -21.1147  -13.1264   22.2600 H   0  0  0  0  0  0
  -24.6703  -15.8477   20.5008 H   0  0  0  0  0  0
  -26.2908  -15.6187   20.0786 H   0  0  0  0  0  0
  -26.7160  -32.5527   23.1169 H   0  0  0  0  0  0
  -25.0218  -33.9804   25.0555 H   0  0  0  0  0  0
  -22.6946  -31.3041   21.4141 H   0  0  0  0  0  0
  -23.3763  -35.9646   23.3285 H   0  0  0  0  0  0
  -24.3591  -36.8945   22.2051 H   0  0  0  0  0  0
  -23.7248  -37.6508   23.6654 H   0  0  0  0  0  0
  -26.0489  -31.5943   20.5960 H   0  0  0  0  0  0
  -26.8286  -30.8840   21.9821 H   0  0  0  0  0  0
  -28.1052  -29.0580   21.1892 H   0  0  0  0  0  0
  -26.0388  -25.9802   18.9802 H   0  0  0  0  0  0
  -23.9760  -27.3227   18.9983 H   0  0  0  0  0  0
  -23.7320  -30.6122   19.4089 H   0  0  0  0  0  0
  -22.7422  -29.2567   19.8565 H   0  0  0  0  0  0
  -25.1300  -36.1976   25.0808 H   0  0  0  0  0  0
  -20.9940  -28.3195   24.1419 H   0  0  0  0  0  0
  -20.5651  -26.2233   23.3584 H   0  0  0  0  0  0
  -21.6655  -26.7387   22.1224 H   0  0  0  0  0  0
  -19.6963  -25.6247   21.1202 H   0  0  0  0  0  0
  -19.6743  -27.3133   20.6688 H   0  0  0  0  0  0
  -17.4225  -26.6577   21.3969 H   0  0  0  0  0  0
  -18.0362  -26.0018   22.8956 H   0  0  0  0  0  0
  -19.7949  -30.7160   24.2280 H   0  0  0  0  0  0
  -17.5043  -31.6232   24.5104 H   0  0  0  0  0  0
  -15.5359  -30.2932   23.7637 H   0  0  0  0  0  0
  -15.8670  -28.0770   22.7041 H   0  0  0  0  0  0
  -24.5945  -30.7044   25.7880 H   0  0  0  0  0  0
  -24.8898  -32.2938   26.4815 H   0  0  0  0  0  0
  -25.8098  -30.9062   27.0306 H   0  0  0  0  0  0
  -26.2838  -29.6826   24.1104 H   0  0  0  0  0  0
  -27.4019  -29.7217   25.4536 H   0  0  0  0  0  0
  -27.8689  -30.4332   23.9267 H   0  0  0  0  0  0
  -27.2698  -33.3623   26.2048 H   0  0  0  0  0  0
  -28.3933  -32.6787   25.0390 H   0  0  0  0  0  0
  -28.0645  -31.8425   26.5489 H   0  0  0  0  0  0
  -28.2607  -38.0122   24.7488 H   0  0  0  0  0  0
  -28.1077  -36.2640   24.6306 H   0  0  0  0  0  0
  -27.2285  -37.1506   25.8862 H   0  0  0  0  0  0
  -20.9317  -29.8794   21.6999 H   0  0  0  0  0  0
  -26.0188  -38.2867   24.1398 H   0  0  0  0  0  0
  -31.0596  -16.9590   18.8066 H   0  0  0  0  0  0
  -27.1043  -24.0234   25.0875 H   0  0  0  0  0  0
  -28.5053  -23.8292   24.0540 H   0  0  0  0  0  0
  -27.7117  -22.4154   24.7551 H   0  0  0  0  0  0
  -24.9325  -22.1353   21.2802 H   0  0  0  0  0  0
  -26.0942  -21.8475   19.9992 H   0  0  0  0  0  0
  -25.7200  -23.4846   20.5001 H   0  0  0  0  0  0
  -26.1086  -20.7779   23.1135 H   0  0  0  0  0  0
  -27.8564  -20.7450   23.1205 H   0  0  0  0  0  0
  -26.9557  -20.1930   21.7134 H   0  0  0  0  0  0
  -31.0687  -21.3393   20.7220 H   0  0  0  0  0  0
  -30.2271  -20.9737   22.2237 H   0  0  0  0  0  0
  -26.3754  -24.3437   22.7833 H   0  0  0  0  0  0
  -25.6213  -22.9891   23.4793 H   0  0  0  0  0  0
  -28.4366  -25.5220   21.9247 H   0  0  0  0  0  0
  -26.9748  -25.2375   21.0441 H   0  0  0  0  0  0
  -29.1142  -22.8979   22.1289 H   0  0  0  0  0  0
  -29.6927  -24.1596   20.2061 H   0  0  0  0  0  0
  -29.2362  -15.2769   21.6886 H   0  0  0  0  0  0
  -28.2133  -20.8296   20.6268 H   0  0  0  0  0  0
  -29.0750  -21.7551   19.6068 H   0  0  0  0  0  0
  -28.0857  -24.5546   18.6005 H   0  0  0  0  0  0
  1 25  1  0  0  0
  1 30  2  0  0  0
  1 84  1  0  0  0
  2  3  1  0  0  0
  2 25  1  0  0  0
  2 88  1  0  0  0
  2 89  1  0  0  0
  3  4  1  0  0  0
  3 90  1  0  0  0
  3 91  1  0  0  0
  4  5  1  0  0  0
  4 92  1  0  0  0
  4 93  1  0  0  0
  5  6  1  0  0  0
  5 26  1  0  0  0
  5 94  1  0  0  0
  6 25  1  0  0  0
  6 95  1  0  0  0
  6 96  1  0  0  0
  7  8  2  0  0  0
  7 26  1  0  0  0
  7 29  1  0  0  0
  8  9  1  0  0  0
  8 22  1  0  0  0
  9 10  1  0  0  0
  9 27  2  0  0  0
 10 11  2  0  0  0
 10 15  1  0  0  0
 11 12  1  0  0  0
 11 97  1  0  0  0
 12 13  2  0  0  0
 12 98  1  0  0  0
 13 14  1  0  0  0
 13 31  1  0  0  0
 14 15  2  0  0  0
 14 99  1  0  0  0
 15100  1  0  0  0
 16 17  2  0  0  0
 16 21  1  0  0  0
 16 31  1  0  0  0
 17 18  1  0  0  0
 17101  1  0  0  0
 18 19  2  0  0  0
 18102  1  0  0  0
 19 20  1  0  0  0
 19 24  1  0  0  0
 20 21  2  0  0  0
 20103  1  0  0  0
 21 23  1  0  0  0
 22 28  1  0  0  0
 22 32  2  0  0  0
 26 27  1  0  0  0
 28104  1  0  0  0
 28105  1  0  0  0
 29106  1  0  0  0
 29107  1  0  0  0
 33 34  1  0  0  0
 33 66  1  0  0  0
 33 70  2  0  0  0
 34 36  1  0  0  0
 34 59  1  0  0  0
 34108  1  0  0  0
 35 44  2  0  0  0
 35 45  1  0  0  0
 35 68  1  0  0  0
 36 56  1  0  0  0
 36109  1  0  0  0
 37 39  1  0  0  0
 37 47  1  0  0  0
 37 66  1  0  0  0
 37110  1  0  0  0
 38 43  2  0  0  0
 38 46  1  0  0  0
 38 47  1  0  0  0
 39 64  1  0  0  0
 39 67  2  0  0  0
 40 52  1  0  0  0
 40 53  2  0  0  0
 40 58  1  0  0  0
 41111  1  0  0  0
 41112  1  0  0  0
 41113  1  0  0  0
 41 48  1  0  0  0
 42 43  1  0  0  0
 42 66  1  0  0  0
 42114  1  0  0  0
 42115  1  0  0  0
 43 44  1  0  0  0
 44116  1  0  0  0
 45 46  2  0  0  0
 45117  1  0  0  0
 46118  1  0  0  0
 47119  1  0  0  0
 47120  1  0  0  0
 48 56  1  0  0  0
 48 65  1  0  0  0
 48121  1  0  0  0
 49 50  1  0  0  0
 49 53  1  0  0  0
 49 64  1  0  0  0
 49122  1  0  0  0
 50 51  1  0  0  0
 50123  1  0  0  0
 50124  1  0  0  0
 51 52  1  0  0  0
 51125  1  0  0  0
 51126  1  0  0  0
 52127  1  0  0  0
 52128  1  0  0  0
 53 54  1  0  0  0
 54 55  2  0  0  0
 54129  1  0  0  0
 55 57  1  0  0  0
 55130  1  0  0  0
 56 69  2  0  0  0
 57 58  2  0  0  0
 57131  1  0  0  0
 58132  1  0  0  0
 59 60  1  0  0  0
 59 61  1  0  0  0
 59 62  1  0  0  0
 60133  1  0  0  0
 60134  1  0  0  0
 60135  1  0  0  0
 61136  1  0  0  0
 61137  1  0  0  0
 61138  1  0  0  0
 62139  1  0  0  0
 62140  1  0  0  0
 62141  1  0  0  0
 63 65  1  0  0  0
 63142  1  0  0  0
 63143  1  0  0  0
 63144  1  0  0  0
 64145  1  0  0  0
 65146  1  0  0  0
 68 79  1  0  0  0
 71 72  2  0  0  0
 71 83  1  0  0  0
 71147  1  0  0  0
 72 84  1  0  0  0
 72 87  1  0  0  0
 73 77  1  0  0  0
 73 83  2  0  0  0
 73 87  1  0  0  0
 74 78  1  0  0  0
 74148  1  0  0  0
 74149  1  0  0  0
 74150  1  0  0  0
 75151  1  0  0  0
 75152  1  0  0  0
 75153  1  0  0  0
 75 82  1  0  0  0
 76 82  1  0  0  0
 76154  1  0  0  0
 76155  1  0  0  0
 76156  1  0  0  0
 77 85  1  0  0  0
 77157  1  0  0  0
 77158  1  0  0  0
 78 82  1  0  0  0
 78159  1  0  0  0
 78160  1  0  0  0
 79 81  1  0  0  0
 79161  1  0  0  0
 79162  1  0  0  0
 80 81  1  0  0  0
 80 82  1  0  0  0
 80 85  1  0  0  0
 80163  1  0  0  0
 81 86  1  0  0  0
 81164  1  0  0  0
 84165  1  0  0  0
 85166  1  0  0  0
 85167  1  0  0  0
 86168  1  0  0  0
M  CHG  1  85   1
M  ISO  4   1 100  68 101  79 101  84 100
M  END
> <chiral flag>
0

> <version>
0

> <s_m_source_file>
/data/baiqing/PycharmProjects/Reinvent-master-3.2/result/LINK_invent/BTK/process_docking_weight1_custom_product_contain_oxygen_bond_distance_aromatic_linkinvent_7_9_3/rearranged_h_0191.sdf

> <i_m_source_file_index>
74

> <r_mmod_Potential_Energy-OPLS-2005>
-227.290649414062

> <r_mmod_Stretch_Energy-OPLS-2005>
53.5135116577148

> <r_mmod_Bend_Energy-OPLS-2005>
125.050575256348

> <r_mmod_Torsional_Energy-OPLS-2005>
313.047576904297

> <r_mmod_Improper_Torsional_Energy-OPLS-2005>
3.63686609268188

> <r_mmod_Van_der_Waal_Energy-OPLS-2005>
137.421569824219

> <r_mmod_Electrostatic_Energy-OPLS-2005>
-431.422729492188

> <r_mmod_Solvation_Energy-OPLS-2005>
-449.574340820312

> <b_mmod_Minimization_Converged-OPLS-2005>
0

> <r_mmod_RMS_Derivative-OPLS-2005>
2.5348584651947

$$$$
76
                    3D
 Structure written by MMmdl.
154162  0  0  1  0            999 V2000
  -30.7011  -14.5010   20.5275 C   0  0  0  0  0  0
  -30.4234  -12.3087   19.4292 C   0  0  0  0  0  0
  -29.4967  -12.5002   18.2093 C   0  0  0  0  0  0
  -28.0166  -12.3673   18.6216 C   0  0  0  0  0  0
  -27.6621  -13.2146   19.8738 C   0  0  2  0  0  0
  -28.7098  -13.0116   20.9913 C   0  0  0  0  0  0
  -25.2604  -13.8174   20.5688 C   0  0  0  0  0  0
  -24.1853  -13.0433   20.9155 C   0  0  0  0  0  0
  -24.6424  -11.6908   20.8726 C   0  0  0  0  0  0
  -23.9094  -10.4286   21.0391 C   0  0  0  0  0  0
  -24.3629   -9.4205   21.9173 C   0  0  0  0  0  0
  -23.6290   -8.2252   22.0751 C   0  0  0  0  0  0
  -22.4277   -8.0290   21.3540 C   0  0  0  0  0  0
  -21.9921   -9.0274   20.4648 C   0  0  0  0  0  0
  -22.7262  -10.2143   20.3051 C   0  0  0  0  0  0
  -21.6861   -6.0736   22.5274 C   0  0  0  0  0  0
  -21.4021   -6.5638   23.8208 C   0  0  0  0  0  0
  -21.3653   -5.6789   24.9167 C   0  0  0  0  0  0
  -21.6034   -4.3053   24.7222 C   0  0  0  0  0  0
  -21.8821   -3.8149   23.4343 C   0  0  0  0  0  0
  -21.9194   -4.6964   22.3401 C   0  0  0  0  0  0
  -22.7874  -13.5223   21.1814 C   0  0  0  0  0  0
  -22.1662   -4.2153   21.0978 F   0  0  0  0  0  0
  -21.5634   -3.4531   25.7737 F   0  0  0  0  0  0
  -30.0355  -13.3135   20.4332 N   0  0  0  0  0  0
  -26.3055  -12.9358   20.3396 N   0  0  0  0  0  0
  -25.9354  -11.6508   20.5767 N   0  0  0  0  0  0
  -22.0535  -12.8217   22.0378 N   0  0  0  0  0  0
  -25.4312  -15.1893   20.4112 N   0  0  0  0  0  0
  -31.8571  -14.6152   20.1091 O   0  0  0  0  0  0
  -21.6641   -6.8888   21.4237 O   0  0  0  0  0  0
  -22.3553  -14.5521   20.6658 O   0  0  0  0  0  0
  -24.6182  -31.8678   23.2124 C   0  0  0  0  0  0
  -25.9065  -32.4827   23.8413 C   0  0  1  0  0  0
  -27.2197  -27.3966   20.0785 C   0  0  0  0  0  0
  -25.5921  -33.8628   24.2340 N   0  0  0  0  0  0
  -23.4080  -30.4958   21.5569 C   0  0  2  0  0  0
  -24.8497  -28.9710   20.1116 C   0  0  0  0  0  0
  -22.7421  -29.4662   22.4985 C   0  0  0  0  0  0
  -18.0277  -28.1381   22.8500 C   0  0  0  0  0  0
  -24.1489  -36.7312   23.2637 C   0  0  0  0  0  0
  -25.9452  -30.8169   21.3775 C   0  0  0  0  0  0
  -26.0180  -29.4546   20.7135 C   0  0  0  0  0  0
  -27.2052  -28.6747   20.6969 C   0  0  0  0  0  0
  -26.0262  -26.9629   19.4452 C   0  0  0  0  0  0
  -24.8506  -27.7244   19.4757 C   0  0  0  0  0  0
  -23.6159  -29.8405   20.1681 C   0  0  0  0  0  0
  -25.4114  -36.3122   24.0339 C   0  0  1  0  0  0
  -20.5869  -28.3681   23.1308 C   0  0  2  0  0  0
  -20.6773  -26.9407   22.5431 C   0  0  0  0  0  0
  -19.5761  -26.6377   21.5235 C   0  0  0  0  0  0
  -18.1931  -26.7931   22.1630 C   0  0  0  0  0  0
  -19.1529  -28.8848   23.2898 C   0  0  0  0  0  0
  -18.9453  -30.1457   23.8911 C   0  0  0  0  0  0
  -17.6457  -30.6597   24.0560 C   0  0  0  0  0  0
  -25.9035  -34.9478   23.5134 C   0  0  0  0  0  0
  -16.5343  -29.9097   23.6336 C   0  0  0  0  0  0
  -16.7265  -28.6509   23.0358 C   0  0  0  0  0  0
  -26.4475  -31.6605   25.0746 C   0  0  0  0  0  0
  -25.3727  -31.3706   26.1480 C   0  0  0  0  0  0
  -27.0310  -30.3045   24.6153 C   0  0  0  0  0  0
  -27.6056  -32.4325   25.7498 C   0  0  0  0  0  0
  -27.5583  -37.1803   24.8462 C   0  0  0  0  0  0
  -21.4145  -29.3051   22.3708 N   0  0  0  0  0  0
  -26.4299  -37.3807   23.9407 N   0  0  0  0  0  0
  -24.6760  -31.0734   22.1065 N   0  0  0  0  0  0
  -23.4170  -28.8167   23.3016 O   0  0  0  0  0  0
  -28.3541  -26.5836   20.1188 O   0  0  0  0  0  0
  -26.5587  -34.8921   22.4689 O   0  0  0  0  0  0
  -23.5363  -32.1449   23.7497 O   0  0  0  0  0  0
  -30.2267  -16.8650   18.6238 C   0  0  0  0  0  0
  -30.0176  -16.9492   19.9832 C   0  0  0  0  0  0
  -29.7125  -19.1474   19.3541 C   0  0  0  0  0  0
  -29.4834  -21.4600   20.3206 C   0  0  0  0  0  0
  -27.4658  -22.4375   21.4255 C   0  0  0  0  0  0
  -29.9928  -15.8055   21.0045 C   0  0  0  0  0  0
  -29.1272  -24.1010   20.3610 C   0  0  0  0  0  0
  -28.1147  -25.1724   19.8623 C   0  0  0  0  0  0
  -28.5022  -22.6611   20.3021 C   0  0  1  0  0  0
  -29.7310  -18.2778   20.3825 N   0  0  0  0  0  0
  -29.2254  -20.4809   19.4321 N   0  0  0  0  0  0
  -30.4245  -21.4339   21.1174 O   0  0  0  0  0  0
  -30.0600  -18.3970   17.8077 S   0  0  0  0  0  0
  -31.4678  -12.3910   19.1248 H   0  0  0  0  0  0
  -30.3154  -11.3027   19.8383 H   0  0  0  0  0  0
  -29.7355  -11.7670   17.4379 H   0  0  0  0  0  0
  -29.6697  -13.4807   17.7636 H   0  0  0  0  0  0
  -27.8236  -11.3131   18.8227 H   0  0  0  0  0  0
  -27.3692  -12.6397   17.7887 H   0  0  0  0  0  0
  -27.6999  -14.2595   19.5657 H   0  0  0  0  0  0
  -28.6899  -11.9773   21.3408 H   0  0  0  0  0  0
  -28.4816  -13.6153   21.8696 H   0  0  0  0  0  0
  -25.2775   -9.5675   22.4738 H   0  0  0  0  0  0
  -23.9999   -7.4642   22.7469 H   0  0  0  0  0  0
  -21.0855   -8.8795   19.8952 H   0  0  0  0  0  0
  -22.3723  -10.9679   19.6164 H   0  0  0  0  0  0
  -21.2018   -7.6147   23.9714 H   0  0  0  0  0  0
  -21.1472   -6.0514   25.9062 H   0  0  0  0  0  0
  -22.0607   -2.7608   23.2841 H   0  0  0  0  0  0
  -22.4147  -11.9873   22.4775 H   0  0  0  0  0  0
  -21.1165  -13.1241   22.2611 H   0  0  0  0  0  0
  -24.6648  -15.8445   20.5244 H   0  0  0  0  0  0
  -26.2865  -15.6322   20.0992 H   0  0  0  0  0  0
  -26.7126  -32.5502   23.1155 H   0  0  0  0  0  0
  -25.0086  -33.9808   25.0490 H   0  0  0  0  0  0
  -22.7021  -31.3163   21.4216 H   0  0  0  0  0  0
  -23.3766  -35.9627   23.3310 H   0  0  0  0  0  0
  -24.3577  -36.8916   22.2047 H   0  0  0  0  0  0
  -23.7221  -37.6507   23.6645 H   0  0  0  0  0  0
  -26.0706  -31.5870   20.6152 H   0  0  0  0  0  0
  -26.8286  -30.8604   22.0016 H   0  0  0  0  0  0
  -28.1009  -29.0382   21.1797 H   0  0  0  0  0  0
  -25.9613  -26.0253   18.9155 H   0  0  0  0  0  0
  -23.9548  -27.3518   18.9973 H   0  0  0  0  0  0
  -23.7257  -30.6206   19.4146 H   0  0  0  0  0  0
  -22.7379  -29.2663   19.8677 H   0  0  0  0  0  0
  -25.1291  -36.1991   25.0835 H   0  0  0  0  0  0
  -20.9965  -28.3255   24.1424 H   0  0  0  0  0  0
  -20.5709  -26.2286   23.3622 H   0  0  0  0  0  0
  -21.6633  -26.7461   22.1200 H   0  0  0  0  0  0
  -19.6908  -25.6286   21.1279 H   0  0  0  0  0  0
  -19.6712  -27.3178   20.6758 H   0  0  0  0  0  0
  -17.4206  -26.6684   21.4027 H   0  0  0  0  0  0
  -18.0312  -26.0088   22.9035 H   0  0  0  0  0  0
  -19.7929  -30.7277   24.2270 H   0  0  0  0  0  0
  -17.5010  -31.6280   24.5149 H   0  0  0  0  0  0
  -15.5345  -30.3002   23.7654 H   0  0  0  0  0  0
  -15.8664  -28.0831   22.7076 H   0  0  0  0  0  0
  -24.5926  -30.7043   25.7792 H   0  0  0  0  0  0
  -24.8903  -32.2866   26.4909 H   0  0  0  0  0  0
  -25.8074  -30.8877   27.0249 H   0  0  0  0  0  0
  -26.2870  -29.6800   24.1211 H   0  0  0  0  0  0
  -27.4060  -29.7281   25.4616 H   0  0  0  0  0  0
  -27.8719  -30.4346   23.9342 H   0  0  0  0  0  0
  -27.2691  -33.3628   26.2090 H   0  0  0  0  0  0
  -28.3857  -32.6884   25.0316 H   0  0  0  0  0  0
  -28.0749  -31.8452   26.5401 H   0  0  0  0  0  0
  -28.2600  -38.0100   24.7537 H   0  0  0  0  0  0
  -28.1081  -36.2635   24.6276 H   0  0  0  0  0  0
  -27.2292  -37.1438   25.8859 H   0  0  0  0  0  0
  -20.9291  -29.8777   21.6936 H   0  0  0  0  0  0
  -26.0193  -38.2885   24.1424 H   0  0  0  0  0  0
  -30.4568  -15.9821   18.0399 H   0  0  0  0  0  0
  -27.1803  -21.3872   21.5084 H   0  0  0  0  0  0
  -26.5434  -22.9908   21.2492 H   0  0  0  0  0  0
  -27.8579  -22.7418   22.3962 H   0  0  0  0  0  0
  -28.9570  -15.6184   21.2738 H   0  0  0  0  0  0
  -30.4843  -16.1187   21.9264 H   0  0  0  0  0  0
  -29.4259  -24.3256   21.3846 H   0  0  0  0  0  0
  -30.0355  -24.1484   19.7590 H   0  0  0  0  0  0
  -27.1755  -24.9079   20.3460 H   0  0  0  0  0  0
  -27.9722  -25.0339   18.7893 H   0  0  0  0  0  0
  -27.9691  -22.5927   19.3527 H   0  0  0  0  0  0
  -28.5622  -20.7212   18.7097 H   0  0  0  0  0  0
  1 25  1  0  0  0
  1 30  2  0  0  0
  1 76  1  0  0  0
  2  3  1  0  0  0
  2 25  1  0  0  0
  2 84  1  0  0  0
  2 85  1  0  0  0
  3  4  1  0  0  0
  3 86  1  0  0  0
  3 87  1  0  0  0
  4  5  1  0  0  0
  4 88  1  0  0  0
  4 89  1  0  0  0
  5  6  1  0  0  0
  5 26  1  0  0  0
  5 90  1  0  0  0
  6 25  1  0  0  0
  6 91  1  0  0  0
  6 92  1  0  0  0
  7  8  2  0  0  0
  7 26  1  0  0  0
  7 29  1  0  0  0
  8  9  1  0  0  0
  8 22  1  0  0  0
  9 10  1  0  0  0
  9 27  2  0  0  0
 10 11  2  0  0  0
 10 15  1  0  0  0
 11 12  1  0  0  0
 11 93  1  0  0  0
 12 13  2  0  0  0
 12 94  1  0  0  0
 13 14  1  0  0  0
 13 31  1  0  0  0
 14 15  2  0  0  0
 14 95  1  0  0  0
 15 96  1  0  0  0
 16 17  2  0  0  0
 16 21  1  0  0  0
 16 31  1  0  0  0
 17 18  1  0  0  0
 17 97  1  0  0  0
 18 19  2  0  0  0
 18 98  1  0  0  0
 19 20  1  0  0  0
 19 24  1  0  0  0
 20 21  2  0  0  0
 20 99  1  0  0  0
 21 23  1  0  0  0
 22 28  1  0  0  0
 22 32  2  0  0  0
 26 27  1  0  0  0
 28100  1  0  0  0
 28101  1  0  0  0
 29102  1  0  0  0
 29103  1  0  0  0
 33 34  1  0  0  0
 33 66  1  0  0  0
 33 70  2  0  0  0
 34 36  1  0  0  0
 34 59  1  0  0  0
 34104  1  0  0  0
 35 44  2  0  0  0
 35 45  1  0  0  0
 35 68  1  0  0  0
 36 56  1  0  0  0
 36105  1  0  0  0
 37 39  1  0  0  0
 37 47  1  0  0  0
 37 66  1  0  0  0
 37106  1  0  0  0
 38 43  2  0  0  0
 38 46  1  0  0  0
 38 47  1  0  0  0
 39 64  1  0  0  0
 39 67  2  0  0  0
 40 52  1  0  0  0
 40 53  2  0  0  0
 40 58  1  0  0  0
 41107  1  0  0  0
 41108  1  0  0  0
 41109  1  0  0  0
 41 48  1  0  0  0
 42 43  1  0  0  0
 42 66  1  0  0  0
 42110  1  0  0  0
 42111  1  0  0  0
 43 44  1  0  0  0
 44112  1  0  0  0
 45 46  2  0  0  0
 45113  1  0  0  0
 46114  1  0  0  0
 47115  1  0  0  0
 47116  1  0  0  0
 48 56  1  0  0  0
 48 65  1  0  0  0
 48117  1  0  0  0
 49 50  1  0  0  0
 49 53  1  0  0  0
 49 64  1  0  0  0
 49118  1  0  0  0
 50 51  1  0  0  0
 50119  1  0  0  0
 50120  1  0  0  0
 51 52  1  0  0  0
 51121  1  0  0  0
 51122  1  0  0  0
 52123  1  0  0  0
 52124  1  0  0  0
 53 54  1  0  0  0
 54 55  2  0  0  0
 54125  1  0  0  0
 55 57  1  0  0  0
 55126  1  0  0  0
 56 69  2  0  0  0
 57 58  2  0  0  0
 57127  1  0  0  0
 58128  1  0  0  0
 59 60  1  0  0  0
 59 61  1  0  0  0
 59 62  1  0  0  0
 60129  1  0  0  0
 60130  1  0  0  0
 60131  1  0  0  0
 61132  1  0  0  0
 61133  1  0  0  0
 61134  1  0  0  0
 62135  1  0  0  0
 62136  1  0  0  0
 62137  1  0  0  0
 63 65  1  0  0  0
 63138  1  0  0  0
 63139  1  0  0  0
 63140  1  0  0  0
 64141  1  0  0  0
 65142  1  0  0  0
 68 78  1  0  0  0
 71 72  2  0  0  0
 71 83  1  0  0  0
 71143  1  0  0  0
 72 76  1  0  0  0
 72 80  1  0  0  0
 73 80  2  0  0  0
 73 81  1  0  0  0
 73 83  1  0  0  0
 74 79  1  0  0  0
 74 81  1  0  0  0
 74 82  2  0  0  0
 75144  1  0  0  0
 75145  1  0  0  0
 75146  1  0  0  0
 75 79  1  0  0  0
 76147  1  0  0  0
 76148  1  0  0  0
 77 78  1  0  0  0
 77 79  1  0  0  0
 77149  1  0  0  0
 77150  1  0  0  0
 78151  1  0  0  0
 78152  1  0  0  0
 79153  1  0  0  0
 81154  1  0  0  0
M  ISO  4   1 100  68 101  76 100  78 101
M  END
> <chiral flag>
0

> <version>
0

> <s_m_source_file>
/data/baiqing/PycharmProjects/Reinvent-master-3.2/result/LINK_invent/BTK/process_docking_weight1_custom_product_contain_oxygen_bond_distance_aromatic_linkinvent_7_9_3/rearranged_h_0191.sdf

> <i_m_source_file_index>
75

> <r_mmod_Potential_Energy-OPLS-2005>
-63.2783584594727

> <r_mmod_Stretch_Energy-OPLS-2005>
45.3745346069336

> <r_mmod_Bend_Energy-OPLS-2005>
115.730361938477

> <r_mmod_Torsional_Energy-OPLS-2005>
204.019729614258

> <r_mmod_Improper_Torsional_Energy-OPLS-2005>
4.54916191101074

> <r_mmod_Van_der_Waal_Energy-OPLS-2005>
138.418151855469

> <r_mmod_Electrostatic_Energy-OPLS-2005>
-353.054931640625

> <r_mmod_Solvation_Energy-OPLS-2005>
-240.028717041016

> <b_mmod_Minimization_Converged-OPLS-2005>
0

> <r_mmod_RMS_Derivative-OPLS-2005>
2.22651839256287

$$$$
77
                    3D
 Structure written by MMmdl.
157165  0  0  1  0            999 V2000
  -30.6450  -14.6935   20.4597 C   0  0  0  0  0  0
  -30.4173  -12.4230   19.4683 C   0  0  0  0  0  0
  -29.4994  -12.4975   18.2307 C   0  0  0  0  0  0
  -28.0259  -12.3364   18.6444 C   0  0  0  0  0  0
  -27.6358  -13.2357   19.8492 C   0  0  2  0  0  0
  -28.6822  -13.1676   20.9825 C   0  0  0  0  0  0
  -25.2476  -13.8217   20.5745 C   0  0  0  0  0  0
  -24.1787  -13.0428   20.9254 C   0  0  0  0  0  0
  -24.6393  -11.6914   20.8798 C   0  0  0  0  0  0
  -23.9076  -10.4301   21.0452 C   0  0  0  0  0  0
  -24.3625   -9.4199   21.9206 C   0  0  0  0  0  0
  -23.6292   -8.2241   22.0761 C   0  0  0  0  0  0
  -22.4285   -8.0292   21.3542 C   0  0  0  0  0  0
  -21.9931   -9.0269   20.4653 C   0  0  0  0  0  0
  -22.7264  -10.2142   20.3084 C   0  0  0  0  0  0
  -21.6837   -6.0760   22.5296 C   0  0  0  0  0  0
  -21.4021   -6.5660   23.8232 C   0  0  0  0  0  0
  -21.3662   -5.6807   24.9193 C   0  0  0  0  0  0
  -21.6048   -4.3068   24.7231 C   0  0  0  0  0  0
  -21.8794   -3.8162   23.4341 C   0  0  0  0  0  0
  -21.9174   -4.6993   22.3409 C   0  0  0  0  0  0
  -22.7811  -13.5196   21.1869 C   0  0  0  0  0  0
  -22.1642   -4.2175   21.0982 F   0  0  0  0  0  0
  -21.5609   -3.4548   25.7732 F   0  0  0  0  0  0
  -29.9872  -13.4923   20.3966 N   0  0  0  0  0  0
  -26.2912  -12.9436   20.3308 N   0  0  0  0  0  0
  -25.9317  -11.6554   20.5788 N   0  0  0  0  0  0
  -22.0462  -12.8225   22.0454 N   0  0  0  0  0  0
  -25.4087  -15.1959   20.4142 N   0  0  0  0  0  0
  -31.8381  -14.7628   20.1517 O   0  0  0  0  0  0
  -21.6614   -6.8908   21.4263 O   0  0  0  0  0  0
  -22.3505  -14.5486   20.6693 O   0  0  0  0  0  0
  -24.6279  -31.8551   23.2045 C   0  0  0  0  0  0
  -25.9134  -32.4735   23.8349 C   0  0  1  0  0  0
  -27.2146  -27.2913   20.1246 C   0  0  0  0  0  0
  -25.5933  -33.8542   24.2258 N   0  0  0  0  0  0
  -23.4235  -30.4769   21.5504 C   0  0  2  0  0  0
  -24.8675  -28.9248   20.1251 C   0  0  0  0  0  0
  -22.7466  -29.4579   22.4985 C   0  0  0  0  0  0
  -18.0270  -28.1392   22.8499 C   0  0  0  0  0  0
  -24.1487  -36.7309   23.2652 C   0  0  0  0  0  0
  -25.9653  -30.7751   21.3831 C   0  0  0  0  0  0
  -26.0366  -29.3941   20.7377 C   0  0  0  0  0  0
  -27.2148  -28.5862   20.7350 C   0  0  0  0  0  0
  -26.0362  -26.8930   19.4694 C   0  0  0  0  0  0
  -24.8673  -27.6763   19.4860 C   0  0  0  0  0  0
  -23.6396  -29.8107   20.1669 C   0  0  0  0  0  0
  -25.4106  -36.3051   24.0328 C   0  0  1  0  0  0
  -20.5865  -28.3667   23.1316 C   0  0  2  0  0  0
  -20.6770  -26.9400   22.5425 C   0  0  0  0  0  0
  -19.5751  -26.6391   21.5227 C   0  0  0  0  0  0
  -18.1925  -26.7937   22.1628 C   0  0  0  0  0  0
  -19.1527  -28.8853   23.2900 C   0  0  0  0  0  0
  -18.9436  -30.1456   23.8922 C   0  0  0  0  0  0
  -17.6441  -30.6594   24.0563 C   0  0  0  0  0  0
  -25.9046  -34.9426   23.5084 C   0  0  0  0  0  0
  -16.5336  -29.9087   23.6328 C   0  0  0  0  0  0
  -16.7263  -28.6500   23.0363 C   0  0  0  0  0  0
  -26.4532  -31.6553   25.0719 C   0  0  0  0  0  0
  -25.3748  -31.3747   26.1435 C   0  0  0  0  0  0
  -27.0389  -30.2957   24.6222 C   0  0  0  0  0  0
  -27.6056  -32.4339   25.7481 C   0  0  0  0  0  0
  -27.5574  -37.1786   24.8462 C   0  0  0  0  0  0
  -21.4180  -29.3015   22.3698 N   0  0  0  0  0  0
  -26.4276  -37.3746   23.9408 N   0  0  0  0  0  0
  -24.6916  -31.0527   22.1030 N   0  0  0  0  0  0
  -23.4172  -28.8117   23.3087 O   0  0  0  0  0  0
  -28.3436  -26.4660   20.0079 O   0  0  0  0  0  0
  -26.5611  -34.8888   22.4640 O   0  0  0  0  0  0
  -23.5438  -32.1375   23.7347 O   0  0  0  0  0  0
  -28.3692  -18.8874   20.1790 C   0  0  0  0  0  0
  -29.6849  -18.5895   20.4975 C   0  0  0  0  0  0
  -29.0569  -21.1079   20.4248 C   0  0  0  0  0  0
  -30.3553  -26.5417   21.9213 C   0  0  0  0  0  0
  -26.7253  -23.3504   20.0996 C   0  0  0  0  0  0
  -30.5084  -17.2526   20.5488 C   0  0  0  0  0  0
  -29.9794  -25.2577   21.1594 C   0  0  0  0  0  0
  -28.2112  -23.7345   20.0116 C   0  0  1  0  0  0
  -28.4941  -25.1727   20.7332 C   0  0  2  0  0  0
  -28.0403  -20.2777   20.1337 N   0  0  0  0  0  0
  -29.0395  -22.5488   20.4596 N   0  0  0  0  0  0
  -29.9204  -15.8564   20.6459 N   0  0  0  0  0  0
  -30.5173  -20.1401   20.7852 S   0  0  0  0  0  0
  -31.4604  -12.5327   19.1680 H   0  0  0  0  0  0
  -30.3417  -11.4477   19.9507 H   0  0  0  0  0  0
  -29.7669  -11.7241   17.5084 H   0  0  0  0  0  0
  -29.6390  -13.4544   17.7248 H   0  0  0  0  0  0
  -27.8735  -11.2892   18.9036 H   0  0  0  0  0  0
  -27.3685  -12.5377   17.7990 H   0  0  0  0  0  0
  -27.6254  -14.2584   19.4688 H   0  0  0  0  0  0
  -28.7063  -12.1754   21.4337 H   0  0  0  0  0  0
  -28.4312  -13.8684   21.7814 H   0  0  0  0  0  0
  -25.2779   -9.5634   22.4775 H   0  0  0  0  0  0
  -23.9978   -7.4618   22.7489 H   0  0  0  0  0  0
  -21.0842   -8.8804   19.8958 H   0  0  0  0  0  0
  -22.3745  -10.9679   19.6194 H   0  0  0  0  0  0
  -21.2049   -7.6171   23.9760 H   0  0  0  0  0  0
  -21.1507   -6.0531   25.9093 H   0  0  0  0  0  0
  -22.0569   -2.7621   23.2836 H   0  0  0  0  0  0
  -22.4038  -11.9883   22.4868 H   0  0  0  0  0  0
  -21.1082  -13.1263   22.2638 H   0  0  0  0  0  0
  -24.6307  -15.8353   20.5404 H   0  0  0  0  0  0
  -26.2332  -15.6430   20.0365 H   0  0  0  0  0  0
  -26.7194  -32.5409   23.1099 H   0  0  0  0  0  0
  -25.0041  -33.9679   25.0375 H   0  0  0  0  0  0
  -22.7193  -31.2979   21.4051 H   0  0  0  0  0  0
  -23.3705  -35.9688   23.3314 H   0  0  0  0  0  0
  -24.3607  -36.8944   22.2076 H   0  0  0  0  0  0
  -23.7294  -37.6529   23.6682 H   0  0  0  0  0  0
  -26.0934  -31.5329   20.6085 H   0  0  0  0  0  0
  -26.8477  -30.8312   22.0087 H   0  0  0  0  0  0
  -28.1170  -28.9479   21.2047 H   0  0  0  0  0  0
  -26.0234  -25.9830   18.8971 H   0  0  0  0  0  0
  -23.9796  -27.3209   18.9850 H   0  0  0  0  0  0
  -23.7665  -30.5885   19.4124 H   0  0  0  0  0  0
  -22.7582  -29.2454   19.8573 H   0  0  0  0  0  0
  -25.1276  -36.1899   25.0820 H   0  0  0  0  0  0
  -20.9938  -28.3236   24.1450 H   0  0  0  0  0  0
  -20.5706  -26.2259   23.3611 H   0  0  0  0  0  0
  -21.6624  -26.7475   22.1185 H   0  0  0  0  0  0
  -19.6919  -25.6303   21.1255 H   0  0  0  0  0  0
  -19.6709  -27.3200   20.6756 H   0  0  0  0  0  0
  -17.4195  -26.6697   21.4030 H   0  0  0  0  0  0
  -18.0324  -26.0085   22.9022 H   0  0  0  0  0  0
  -19.7914  -30.7261   24.2324 H   0  0  0  0  0  0
  -17.4989  -31.6277   24.5152 H   0  0  0  0  0  0
  -15.5333  -30.2985   23.7664 H   0  0  0  0  0  0
  -15.8658  -28.0813   22.7093 H   0  0  0  0  0  0
  -24.5897  -30.7128   25.7773 H   0  0  0  0  0  0
  -24.8972  -32.2946   26.4810 H   0  0  0  0  0  0
  -25.8035  -30.8945   27.0236 H   0  0  0  0  0  0
  -26.2983  -29.6676   24.1262 H   0  0  0  0  0  0
  -27.4083  -29.7250   25.4751 H   0  0  0  0  0  0
  -27.8844  -30.4221   23.9462 H   0  0  0  0  0  0
  -27.2617  -33.3649   26.2001 H   0  0  0  0  0  0
  -28.3862  -32.6909   25.0310 H   0  0  0  0  0  0
  -28.0727  -31.8531   26.5447 H   0  0  0  0  0  0
  -28.2540  -38.0114   24.7460 H   0  0  0  0  0  0
  -28.1094  -36.2628   24.6297 H   0  0  0  0  0  0
  -27.2296  -37.1451   25.8863 H   0  0  0  0  0  0
  -20.9383  -29.8711   21.6871 H   0  0  0  0  0  0
  -26.0153  -38.2817   24.1376 H   0  0  0  0  0  0
  -27.5934  -18.1751   19.9312 H   0  0  0  0  0  0
  -31.3775  -26.4789   22.2931 H   0  0  0  0  0  0
  -29.6974  -26.6986   22.7761 H   0  0  0  0  0  0
  -30.2957  -27.4237   21.2831 H   0  0  0  0  0  0
  -26.0713  -24.1201   19.7100 H   0  0  0  0  0  0
  -26.4257  -23.1749   21.1305 H   0  0  0  0  0  0
  -26.5102  -22.4503   19.5230 H   0  0  0  0  0  0
  -31.2195  -17.3377   21.3729 H   0  0  0  0  0  0
  -31.1393  -17.2527   19.6554 H   0  0  0  0  0  0
  -30.2318  -24.4158   21.8039 H   0  0  0  0  0  0
  -30.6058  -25.1735   20.2687 H   0  0  0  0  0  0
  -28.4577  -23.8663   18.9569 H   0  0  0  0  0  0
  -27.8904  -25.2191   21.6409 H   0  0  0  0  0  0
  -29.9567  -22.8810   20.7407 H   0  0  0  0  0  0
  -28.9332  -15.7696   20.8324 H   0  0  0  0  0  0
  1 25  1  0  0  0
  1 30  2  0  0  0
  1 82  1  0  0  0
  2  3  1  0  0  0
  2 25  1  0  0  0
  2 84  1  0  0  0
  2 85  1  0  0  0
  3  4  1  0  0  0
  3 86  1  0  0  0
  3 87  1  0  0  0
  4  5  1  0  0  0
  4 88  1  0  0  0
  4 89  1  0  0  0
  5  6  1  0  0  0
  5 26  1  0  0  0
  5 90  1  0  0  0
  6 25  1  0  0  0
  6 91  1  0  0  0
  6 92  1  0  0  0
  7  8  2  0  0  0
  7 26  1  0  0  0
  7 29  1  0  0  0
  8  9  1  0  0  0
  8 22  1  0  0  0
  9 10  1  0  0  0
  9 27  2  0  0  0
 10 11  2  0  0  0
 10 15  1  0  0  0
 11 12  1  0  0  0
 11 93  1  0  0  0
 12 13  2  0  0  0
 12 94  1  0  0  0
 13 14  1  0  0  0
 13 31  1  0  0  0
 14 15  2  0  0  0
 14 95  1  0  0  0
 15 96  1  0  0  0
 16 17  2  0  0  0
 16 21  1  0  0  0
 16 31  1  0  0  0
 17 18  1  0  0  0
 17 97  1  0  0  0
 18 19  2  0  0  0
 18 98  1  0  0  0
 19 20  1  0  0  0
 19 24  1  0  0  0
 20 21  2  0  0  0
 20 99  1  0  0  0
 21 23  1  0  0  0
 22 28  1  0  0  0
 22 32  2  0  0  0
 26 27  1  0  0  0
 28100  1  0  0  0
 28101  1  0  0  0
 29102  1  0  0  0
 29103  1  0  0  0
 33 34  1  0  0  0
 33 66  1  0  0  0
 33 70  2  0  0  0
 34 36  1  0  0  0
 34 59  1  0  0  0
 34104  1  0  0  0
 35 44  2  0  0  0
 35 45  1  0  0  0
 35 68  1  0  0  0
 36 56  1  0  0  0
 36105  1  0  0  0
 37 39  1  0  0  0
 37 47  1  0  0  0
 37 66  1  0  0  0
 37106  1  0  0  0
 38 43  2  0  0  0
 38 46  1  0  0  0
 38 47  1  0  0  0
 39 64  1  0  0  0
 39 67  2  0  0  0
 40 52  1  0  0  0
 40 53  2  0  0  0
 40 58  1  0  0  0
 41107  1  0  0  0
 41108  1  0  0  0
 41109  1  0  0  0
 41 48  1  0  0  0
 42 43  1  0  0  0
 42 66  1  0  0  0
 42110  1  0  0  0
 42111  1  0  0  0
 43 44  1  0  0  0
 44112  1  0  0  0
 45 46  2  0  0  0
 45113  1  0  0  0
 46114  1  0  0  0
 47115  1  0  0  0
 47116  1  0  0  0
 48 56  1  0  0  0
 48 65  1  0  0  0
 48117  1  0  0  0
 49 50  1  0  0  0
 49 53  1  0  0  0
 49 64  1  0  0  0
 49118  1  0  0  0
 50 51  1  0  0  0
 50119  1  0  0  0
 50120  1  0  0  0
 51 52  1  0  0  0
 51121  1  0  0  0
 51122  1  0  0  0
 52123  1  0  0  0
 52124  1  0  0  0
 53 54  1  0  0  0
 54 55  2  0  0  0
 54125  1  0  0  0
 55 57  1  0  0  0
 55126  1  0  0  0
 56 69  2  0  0  0
 57 58  2  0  0  0
 57127  1  0  0  0
 58128  1  0  0  0
 59 60  1  0  0  0
 59 61  1  0  0  0
 59 62  1  0  0  0
 60129  1  0  0  0
 60130  1  0  0  0
 60131  1  0  0  0
 61132  1  0  0  0
 61133  1  0  0  0
 61134  1  0  0  0
 62135  1  0  0  0
 62136  1  0  0  0
 62137  1  0  0  0
 63 65  1  0  0  0
 63138  1  0  0  0
 63139  1  0  0  0
 63140  1  0  0  0
 64141  1  0  0  0
 65142  1  0  0  0
 68 79  1  0  0  0
 71 72  2  0  0  0
 71 80  1  0  0  0
 71143  1  0  0  0
 72 76  1  0  0  0
 72 83  1  0  0  0
 73 80  2  0  0  0
 73 81  1  0  0  0
 73 83  1  0  0  0
 74 77  1  0  0  0
 74144  1  0  0  0
 74145  1  0  0  0
 74146  1  0  0  0
 75147  1  0  0  0
 75148  1  0  0  0
 75149  1  0  0  0
 75 78  1  0  0  0
 76 82  1  0  0  0
 76150  1  0  0  0
 76151  1  0  0  0
 77152  1  0  0  0
 77153  1  0  0  0
 77 79  1  0  0  0
 78 79  1  0  0  0
 78 81  1  0  0  0
 78154  1  0  0  0
 79155  1  0  0  0
 81156  1  0  0  0
 82157  1  0  0  0
M  ISO  4   1 100  68 101  79 101  82 100
M  END
> <chiral flag>
0

> <version>
0

> <s_m_source_file>
/data/baiqing/PycharmProjects/Reinvent-master-3.2/result/LINK_invent/BTK/process_docking_weight1_custom_product_contain_oxygen_bond_distance_aromatic_linkinvent_7_9_3/rearranged_h_0191.sdf

> <i_m_source_file_index>
76

> <r_mmod_Potential_Energy-OPLS-2005>
23.9178428649902

> <r_mmod_Stretch_Energy-OPLS-2005>
96.2516937255859

> <r_mmod_Bend_Energy-OPLS-2005>
175.821548461914

> <r_mmod_Torsional_Energy-OPLS-2005>
232.581436157227

> <r_mmod_Improper_Torsional_Energy-OPLS-2005>
6.19670057296753

> <r_mmod_Van_der_Waal_Energy-OPLS-2005>
116.888305664062

> <r_mmod_Electrostatic_Energy-OPLS-2005>
-446.053405761719

> <r_mmod_Solvation_Energy-OPLS-2005>
-221.102355957031

> <b_mmod_Minimization_Converged-OPLS-2005>
0

> <r_mmod_RMS_Derivative-OPLS-2005>
4.30557203292847

$$$$
78
                    3D
 Structure written by MMmdl.
162170  0  0  1  0            999 V2000
  -30.7304  -14.4957   20.6163 C   0  0  0  0  0  0
  -30.4248  -12.3315   19.4344 C   0  0  0  0  0  0
  -29.4990  -12.5207   18.2122 C   0  0  0  0  0  0
  -28.0165  -12.3907   18.6173 C   0  0  0  0  0  0
  -27.6683  -13.2092   19.8895 C   0  0  2  0  0  0
  -28.7119  -12.9408   20.9943 C   0  0  0  0  0  0
  -25.2595  -13.8173   20.5674 C   0  0  0  0  0  0
  -24.1847  -13.0441   20.9180 C   0  0  0  0  0  0
  -24.6423  -11.6910   20.8752 C   0  0  0  0  0  0
  -23.9079  -10.4304   21.0398 C   0  0  0  0  0  0
  -24.3625   -9.4229   21.9167 C   0  0  0  0  0  0
  -23.6299   -8.2269   22.0733 C   0  0  0  0  0  0
  -22.4281   -8.0318   21.3523 C   0  0  0  0  0  0
  -21.9910   -9.0292   20.4640 C   0  0  0  0  0  0
  -22.7252  -10.2177   20.3057 C   0  0  0  0  0  0
  -21.6861   -6.0782   22.5292 C   0  0  0  0  0  0
  -21.4019   -6.5670   23.8228 C   0  0  0  0  0  0
  -21.3646   -5.6811   24.9174 C   0  0  0  0  0  0
  -21.6008   -4.3073   24.7220 C   0  0  0  0  0  0
  -21.8822   -3.8184   23.4329 C   0  0  0  0  0  0
  -21.9171   -4.6997   22.3399 C   0  0  0  0  0  0
  -22.7881  -13.5238   21.1859 C   0  0  0  0  0  0
  -22.1662   -4.2210   21.0971 F   0  0  0  0  0  0
  -21.5594   -3.4552   25.7714 F   0  0  0  0  0  0
  -30.0325  -13.3200   20.4659 N   0  0  0  0  0  0
  -26.3068  -12.9334   20.3454 N   0  0  0  0  0  0
  -25.9346  -11.6494   20.5807 N   0  0  0  0  0  0
  -22.0532  -12.8226   22.0438 N   0  0  0  0  0  0
  -25.4237  -15.1883   20.3994 N   0  0  0  0  0  0
  -31.8271  -14.6190   20.0603 O   0  0  0  0  0  0
  -21.6622   -6.8935   21.4258 O   0  0  0  0  0  0
  -22.3534  -14.5536   20.6701 O   0  0  0  0  0  0
  -24.6163  -31.8664   23.2057 C   0  0  0  0  0  0
  -25.9042  -32.4807   23.8364 C   0  0  1  0  0  0
  -27.2354  -27.4095   20.1096 C   0  0  0  0  0  0
  -25.5891  -33.8606   24.2295 N   0  0  0  0  0  0
  -23.4054  -30.4912   21.5455 C   0  0  2  0  0  0
  -24.8524  -28.9542   20.1152 C   0  0  0  0  0  0
  -22.7417  -29.4673   22.4961 C   0  0  0  0  0  0
  -18.0280  -28.1378   22.8507 C   0  0  0  0  0  0
  -24.1488  -36.7314   23.2640 C   0  0  0  0  0  0
  -25.9360  -30.8273   21.3618 C   0  0  0  0  0  0
  -26.0135  -29.4589   20.7124 C   0  0  0  0  0  0
  -27.2056  -28.6941   20.7070 C   0  0  0  0  0  0
  -26.0516  -26.9288   19.4977 C   0  0  0  0  0  0
  -24.8677  -27.6902   19.5056 C   0  0  0  0  0  0
  -23.6129  -29.8219   20.1621 C   0  0  0  0  0  0
  -25.4106  -36.3099   24.0332 C   0  0  1  0  0  0
  -20.5890  -28.3670   23.1313 C   0  0  2  0  0  0
  -20.6770  -26.9391   22.5441 C   0  0  0  0  0  0
  -19.5749  -26.6384   21.5225 C   0  0  0  0  0  0
  -18.1920  -26.7934   22.1624 C   0  0  0  0  0  0
  -19.1539  -28.8828   23.2922 C   0  0  0  0  0  0
  -18.9459  -30.1442   23.8918 C   0  0  0  0  0  0
  -17.6467  -30.6578   24.0567 C   0  0  0  0  0  0
  -25.9042  -34.9466   23.5118 C   0  0  0  0  0  0
  -16.5354  -29.9084   23.6324 C   0  0  0  0  0  0
  -16.7274  -28.6502   23.0338 C   0  0  0  0  0  0
  -26.4468  -31.6599   25.0697 C   0  0  0  0  0  0
  -25.3702  -31.3758   26.1436 C   0  0  0  0  0  0
  -27.0284  -30.3021   24.6111 C   0  0  0  0  0  0
  -27.6073  -32.4307   25.7424 C   0  0  0  0  0  0
  -27.5591  -37.1791   24.8461 C   0  0  0  0  0  0
  -21.4146  -29.3033   22.3703 N   0  0  0  0  0  0
  -26.4288  -37.3777   23.9425 N   0  0  0  0  0  0
  -24.6702  -31.0767   22.0961 N   0  0  0  0  0  0
  -23.4187  -28.8208   23.2999 O   0  0  0  0  0  0
  -28.4068  -26.6679   20.1504 O   0  0  0  0  0  0
  -26.5617  -34.8925   22.4692 O   0  0  0  0  0  0
  -23.5356  -32.1415   23.7461 O   0  0  0  0  0  0
  -29.5381  -17.0483   19.1974 C   0  0  0  0  0  0
  -29.9400  -16.9939   20.5121 C   0  0  0  0  0  0
  -29.6326  -19.2815   20.2700 C   0  0  0  0  0  0
  -26.4998  -22.5214   19.2357 C   0  0  0  0  0  0
  -29.1717  -15.6451   22.4749 C   0  0  0  0  0  0
  -27.6355  -21.5037   19.3760 C   0  0  0  0  0  0
  -29.5973  -24.4640   20.2793 C   0  0  0  0  0  0
  -28.3208  -25.2510   19.8877 C   0  0  0  0  0  0
  -30.2504  -15.7806   21.3925 C   0  0  1  0  0  0
  -28.8165  -21.8597   20.3130 C   0  0  2  0  0  0
  -29.7535  -22.9942   19.7487 C   0  0  2  0  0  0
  -30.0035  -18.2869   21.0875 N   0  0  0  0  0  0
  -29.5506  -20.6207   20.6924 N   0  0  0  0  0  0
  -31.0640  -22.5837   20.0794 O   0  0  0  0  0  0
  -29.2178  -18.6877   18.6637 S   0  0  0  0  0  0
  -31.4699  -12.4109   19.1313 H   0  0  0  0  0  0
  -30.3257  -11.3150   19.8231 H   0  0  0  0  0  0
  -29.7369  -11.7858   17.4418 H   0  0  0  0  0  0
  -29.6719  -13.4984   17.7609 H   0  0  0  0  0  0
  -27.8159  -11.3317   18.7903 H   0  0  0  0  0  0
  -27.3692  -12.6921   17.7947 H   0  0  0  0  0  0
  -27.7263  -14.2675   19.6302 H   0  0  0  0  0  0
  -28.7153  -11.8779   21.2446 H   0  0  0  0  0  0
  -28.4306  -13.3949   21.9328 H   0  0  0  0  0  0
  -25.2804   -9.5695   22.4698 H   0  0  0  0  0  0
  -24.0021   -7.4650   22.7440 H   0  0  0  0  0  0
  -21.0832   -8.8814   19.8965 H   0  0  0  0  0  0
  -22.3715  -10.9687   19.6156 H   0  0  0  0  0  0
  -21.2080   -7.6192   23.9778 H   0  0  0  0  0  0
  -21.1435   -6.0530   25.9078 H   0  0  0  0  0  0
  -22.0603   -2.7652   23.2806 H   0  0  0  0  0  0
  -22.4190  -11.9942   22.4877 H   0  0  0  0  0  0
  -21.1154  -13.1262   22.2635 H   0  0  0  0  0  0
  -24.6469  -15.8329   20.5070 H   0  0  0  0  0  0
  -26.2646  -15.6419   20.0612 H   0  0  0  0  0  0
  -26.7125  -32.5519   23.1142 H   0  0  0  0  0  0
  -24.9984  -33.9744   25.0404 H   0  0  0  0  0  0
  -22.6951  -31.3090   21.4049 H   0  0  0  0  0  0
  -23.3737  -35.9662   23.3300 H   0  0  0  0  0  0
  -24.3594  -36.8925   22.2058 H   0  0  0  0  0  0
  -23.7259  -37.6526   23.6653 H   0  0  0  0  0  0
  -26.0518  -31.5874   20.5876 H   0  0  0  0  0  0
  -26.8230  -30.8839   21.9805 H   0  0  0  0  0  0
  -28.0997  -29.0761   21.1803 H   0  0  0  0  0  0
  -26.0126  -25.9627   19.0166 H   0  0  0  0  0  0
  -23.9741  -27.2956   19.0413 H   0  0  0  0  0  0
  -23.7178  -30.5930   19.3976 H   0  0  0  0  0  0
  -22.7353  -29.2404   19.8712 H   0  0  0  0  0  0
  -25.1286  -36.1961   25.0821 H   0  0  0  0  0  0
  -21.0011  -28.3249   24.1421 H   0  0  0  0  0  0
  -20.5654  -26.2273   23.3642 H   0  0  0  0  0  0
  -21.6641  -26.7401   22.1246 H   0  0  0  0  0  0
  -19.6914  -25.6296   21.1241 H   0  0  0  0  0  0
  -19.6705  -27.3206   20.6765 H   0  0  0  0  0  0
  -17.4216  -26.6726   21.3996 H   0  0  0  0  0  0
  -18.0283  -26.0037   22.8974 H   0  0  0  0  0  0
  -19.7931  -30.7270   24.2286 H   0  0  0  0  0  0
  -17.5004  -31.6249   24.5182 H   0  0  0  0  0  0
  -15.5358  -30.2991   23.7609 H   0  0  0  0  0  0
  -15.8684  -28.0832   22.7022 H   0  0  0  0  0  0
  -24.5931  -30.7024   25.7819 H   0  0  0  0  0  0
  -24.8800  -32.2914   26.4752 H   0  0  0  0  0  0
  -25.8016  -30.9067   27.0284 H   0  0  0  0  0  0
  -26.2832  -29.6785   24.1158 H   0  0  0  0  0  0
  -27.4034  -29.7278   25.4603 H   0  0  0  0  0  0
  -27.8680  -30.4327   23.9269 H   0  0  0  0  0  0
  -27.2720  -33.3582   26.2088 H   0  0  0  0  0  0
  -28.3797  -32.6924   25.0168 H   0  0  0  0  0  0
  -28.0842  -31.8376   26.5239 H   0  0  0  0  0  0
  -28.2632  -38.0063   24.7475 H   0  0  0  0  0  0
  -28.1054  -36.2605   24.6295 H   0  0  0  0  0  0
  -27.2322  -37.1457   25.8863 H   0  0  0  0  0  0
  -20.9310  -29.8752   21.6929 H   0  0  0  0  0  0
  -26.0188  -38.2861   24.1417 H   0  0  0  0  0  0
  -29.4047  -16.2280   18.5048 H   0  0  0  0  0  0
  -25.6842  -22.0798   18.6659 H   0  0  0  0  0  0
  -26.7989  -23.4054   18.6803 H   0  0  0  0  0  0
  -26.0981  -22.8181   20.2044 H   0  0  0  0  0  0
  -29.1237  -16.5505   23.0786 H   0  0  0  0  0  0
  -29.3902  -14.8311   23.1663 H   0  0  0  0  0  0
  -28.1826  -15.5213   22.0379 H   0  0  0  0  0  0
  -28.0113  -21.2703   18.3795 H   0  0  0  0  0  0
  -27.1737  -20.5883   19.7438 H   0  0  0  0  0  0
  -29.7052  -24.4788   21.3645 H   0  0  0  0  0  0
  -30.4354  -25.0424   19.8845 H   0  0  0  0  0  0
  -27.4841  -24.8323   20.4478 H   0  0  0  0  0  0
  -28.1308  -25.1252   18.8227 H   0  0  0  0  0  0
  -31.1474  -16.0375   21.9585 H   0  0  0  0  0  0
  -28.4018  -22.2181   21.2588 H   0  0  0  0  0  0
  -29.6988  -23.0016   18.6596 H   0  0  0  0  0  0
  -29.7694  -20.6492   21.6828 H   0  0  0  0  0  0
  -30.9528  -21.6379   20.2221 H   0  0  0  0  0  0
  1 25  1  0  0  0
  1 30  2  0  0  0
  1 79  1  0  0  0
  2  3  1  0  0  0
  2 25  1  0  0  0
  2 86  1  0  0  0
  2 87  1  0  0  0
  3  4  1  0  0  0
  3 88  1  0  0  0
  3 89  1  0  0  0
  4  5  1  0  0  0
  4 90  1  0  0  0
  4 91  1  0  0  0
  5  6  1  0  0  0
  5 26  1  0  0  0
  5 92  1  0  0  0
  6 25  1  0  0  0
  6 93  1  0  0  0
  6 94  1  0  0  0
  7  8  2  0  0  0
  7 26  1  0  0  0
  7 29  1  0  0  0
  8  9  1  0  0  0
  8 22  1  0  0  0
  9 10  1  0  0  0
  9 27  2  0  0  0
 10 11  2  0  0  0
 10 15  1  0  0  0
 11 12  1  0  0  0
 11 95  1  0  0  0
 12 13  2  0  0  0
 12 96  1  0  0  0
 13 14  1  0  0  0
 13 31  1  0  0  0
 14 15  2  0  0  0
 14 97  1  0  0  0
 15 98  1  0  0  0
 16 17  2  0  0  0
 16 21  1  0  0  0
 16 31  1  0  0  0
 17 18  1  0  0  0
 17 99  1  0  0  0
 18 19  2  0  0  0
 18100  1  0  0  0
 19 20  1  0  0  0
 19 24  1  0  0  0
 20 21  2  0  0  0
 20101  1  0  0  0
 21 23  1  0  0  0
 22 28  1  0  0  0
 22 32  2  0  0  0
 26 27  1  0  0  0
 28102  1  0  0  0
 28103  1  0  0  0
 29104  1  0  0  0
 29105  1  0  0  0
 33 34  1  0  0  0
 33 66  1  0  0  0
 33 70  2  0  0  0
 34 36  1  0  0  0
 34 59  1  0  0  0
 34106  1  0  0  0
 35 44  2  0  0  0
 35 45  1  0  0  0
 35 68  1  0  0  0
 36 56  1  0  0  0
 36107  1  0  0  0
 37 39  1  0  0  0
 37 47  1  0  0  0
 37 66  1  0  0  0
 37108  1  0  0  0
 38 43  2  0  0  0
 38 46  1  0  0  0
 38 47  1  0  0  0
 39 64  1  0  0  0
 39 67  2  0  0  0
 40 52  1  0  0  0
 40 53  2  0  0  0
 40 58  1  0  0  0
 41109  1  0  0  0
 41110  1  0  0  0
 41111  1  0  0  0
 41 48  1  0  0  0
 42 43  1  0  0  0
 42 66  1  0  0  0
 42112  1  0  0  0
 42113  1  0  0  0
 43 44  1  0  0  0
 44114  1  0  0  0
 45 46  2  0  0  0
 45115  1  0  0  0
 46116  1  0  0  0
 47117  1  0  0  0
 47118  1  0  0  0
 48 56  1  0  0  0
 48 65  1  0  0  0
 48119  1  0  0  0
 49 50  1  0  0  0
 49 53  1  0  0  0
 49 64  1  0  0  0
 49120  1  0  0  0
 50 51  1  0  0  0
 50121  1  0  0  0
 50122  1  0  0  0
 51 52  1  0  0  0
 51123  1  0  0  0
 51124  1  0  0  0
 52125  1  0  0  0
 52126  1  0  0  0
 53 54  1  0  0  0
 54 55  2  0  0  0
 54127  1  0  0  0
 55 57  1  0  0  0
 55128  1  0  0  0
 56 69  2  0  0  0
 57 58  2  0  0  0
 57129  1  0  0  0
 58130  1  0  0  0
 59 60  1  0  0  0
 59 61  1  0  0  0
 59 62  1  0  0  0
 60131  1  0  0  0
 60132  1  0  0  0
 60133  1  0  0  0
 61134  1  0  0  0
 61135  1  0  0  0
 61136  1  0  0  0
 62137  1  0  0  0
 62138  1  0  0  0
 62139  1  0  0  0
 63 65  1  0  0  0
 63140  1  0  0  0
 63141  1  0  0  0
 63142  1  0  0  0
 64143  1  0  0  0
 65144  1  0  0  0
 68 78  1  0  0  0
 71 72  2  0  0  0
 71 85  1  0  0  0
 71145  1  0  0  0
 72 79  1  0  0  0
 72 82  1  0  0  0
 73 82  2  0  0  0
 73 83  1  0  0  0
 73 85  1  0  0  0
 74 76  1  0  0  0
 74146  1  0  0  0
 74147  1  0  0  0
 74148  1  0  0  0
 75149  1  0  0  0
 75150  1  0  0  0
 75151  1  0  0  0
 75 79  1  0  0  0
 76152  1  0  0  0
 76153  1  0  0  0
 76 80  1  0  0  0
 77 78  1  0  0  0
 77 81  1  0  0  0
 77154  1  0  0  0
 77155  1  0  0  0
 78156  1  0  0  0
 78157  1  0  0  0
 79158  1  0  0  0
 80 81  1  0  0  0
 80 83  1  0  0  0
 80159  1  0  0  0
 81 84  1  0  0  0
 81160  1  0  0  0
 83161  1  0  0  0
 84162  1  0  0  0
M  ISO  4   1 100  68 101  78 101  79 100
M  END
> <chiral flag>
0

> <version>
0

> <s_m_source_file>
/data/baiqing/PycharmProjects/Reinvent-master-3.2/result/LINK_invent/BTK/process_docking_weight1_custom_product_contain_oxygen_bond_distance_aromatic_linkinvent_7_9_3/rearranged_h_0191.sdf

> <i_m_source_file_index>
77

> <r_mmod_Potential_Energy-OPLS-2005>
-85.4325332641602

> <r_mmod_Stretch_Energy-OPLS-2005>
51.4659805297852

> <r_mmod_Bend_Energy-OPLS-2005>
154.085235595703

> <r_mmod_Torsional_Energy-OPLS-2005>
220.627197265625

> <r_mmod_Improper_Torsional_Energy-OPLS-2005>
3.96805286407471

> <r_mmod_Van_der_Waal_Energy-OPLS-2005>
144.19792175293

> <r_mmod_Electrostatic_Energy-OPLS-2005>
-457.818664550781

> <r_mmod_Solvation_Energy-OPLS-2005>
-217.554077148438

> <b_mmod_Minimization_Converged-OPLS-2005>
0

> <r_mmod_RMS_Derivative-OPLS-2005>
4.71065378189087

$$$$
79
                    3D
 Structure written by MMmdl.
172180  0  0  1  0            999 V2000
  -30.6841  -14.5151   20.5538 C   0  0  0  0  0  0
  -30.4322  -12.3259   19.4243 C   0  0  0  0  0  0
  -29.4967  -12.4989   18.2092 C   0  0  0  0  0  0
  -28.0169  -12.3600   18.6255 C   0  0  0  0  0  0
  -27.6627  -13.2072   19.8765 C   0  0  2  0  0  0
  -28.7091  -12.9981   20.9954 C   0  0  0  0  0  0
  -25.2634  -13.8163   20.5767 C   0  0  0  0  0  0
  -24.1862  -13.0430   20.9181 C   0  0  0  0  0  0
  -24.6403  -11.6901   20.8728 C   0  0  0  0  0  0
  -23.9036  -10.4297   21.0384 C   0  0  0  0  0  0
  -24.3593   -9.4241   21.9189 C   0  0  0  0  0  0
  -23.6288   -8.2271   22.0769 C   0  0  0  0  0  0
  -22.4274   -8.0269   21.3552 C   0  0  0  0  0  0
  -21.9886   -9.0234   20.4656 C   0  0  0  0  0  0
  -22.7189  -10.2129   20.3048 C   0  0  0  0  0  0
  -21.6837   -6.0728   22.5273 C   0  0  0  0  0  0
  -21.4013   -6.5649   23.8199 C   0  0  0  0  0  0
  -21.3656   -5.6814   24.9175 C   0  0  0  0  0  0
  -21.6025   -4.3072   24.7234 C   0  0  0  0  0  0
  -21.8825   -3.8149   23.4362 C   0  0  0  0  0  0
  -21.9207   -4.6963   22.3406 C   0  0  0  0  0  0
  -22.7891  -13.5214   21.1858 C   0  0  0  0  0  0
  -22.1671   -4.2136   21.0991 F   0  0  0  0  0  0
  -21.5642   -3.4551   25.7758 F   0  0  0  0  0  0
  -30.0400  -13.3178   20.4438 N   0  0  0  0  0  0
  -26.3038  -12.9330   20.3371 N   0  0  0  0  0  0
  -25.9332  -11.6483   20.5761 N   0  0  0  0  0  0
  -22.0552  -12.8183   22.0419 N   0  0  0  0  0  0
  -25.4493  -15.1884   20.4353 N   0  0  0  0  0  0
  -31.7972  -14.7236   20.0641 O   0  0  0  0  0  0
  -21.6648   -6.8864   21.4227 O   0  0  0  0  0  0
  -22.3570  -14.5530   20.6733 O   0  0  0  0  0  0
  -24.6131  -31.8650   23.2112 C   0  0  0  0  0  0
  -25.9006  -32.4813   23.8413 C   0  0  1  0  0  0
  -27.2343  -27.4188   20.1013 C   0  0  0  0  0  0
  -25.5865  -33.8617   24.2332 N   0  0  0  0  0  0
  -23.4058  -30.4864   21.5528 C   0  0  2  0  0  0
  -24.8530  -28.9523   20.1155 C   0  0  0  0  0  0
  -22.7420  -29.4608   22.5007 C   0  0  0  0  0  0
  -18.0261  -28.1371   22.8472 C   0  0  0  0  0  0
  -24.1478  -36.7298   23.2650 C   0  0  0  0  0  0
  -25.9328  -30.8276   21.3644 C   0  0  0  0  0  0
  -26.0131  -29.4614   20.7100 C   0  0  0  0  0  0
  -27.2092  -28.7040   20.6951 C   0  0  0  0  0  0
  -26.0497  -26.9198   19.5157 C   0  0  0  0  0  0
  -24.8649  -27.6811   19.5181 C   0  0  0  0  0  0
  -23.6133  -29.8201   20.1671 C   0  0  0  0  0  0
  -25.4100  -36.3128   24.0351 C   0  0  1  0  0  0
  -20.5855  -28.3658   23.1327 C   0  0  2  0  0  0
  -20.6741  -26.9385   22.5433 C   0  0  0  0  0  0
  -19.5742  -26.6388   21.5198 C   0  0  0  0  0  0
  -18.1913  -26.7926   22.1616 C   0  0  0  0  0  0
  -19.1508  -28.8828   23.2903 C   0  0  0  0  0  0
  -18.9444  -30.1434   23.8922 C   0  0  0  0  0  0
  -17.6456  -30.6573   24.0563 C   0  0  0  0  0  0
  -25.9036  -34.9489   23.5155 C   0  0  0  0  0  0
  -16.5335  -29.9074   23.6317 C   0  0  0  0  0  0
  -16.7263  -28.6483   23.0329 C   0  0  0  0  0  0
  -26.4464  -31.6565   25.0706 C   0  0  0  0  0  0
  -25.3761  -31.3632   26.1472 C   0  0  0  0  0  0
  -27.0314  -30.3027   24.6059 C   0  0  0  0  0  0
  -27.6067  -32.4236   25.7442 C   0  0  0  0  0  0
  -27.5585  -37.1812   24.8482 C   0  0  0  0  0  0
  -21.4139  -29.3008   22.3707 N   0  0  0  0  0  0
  -26.4299  -37.3795   23.9414 N   0  0  0  0  0  0
  -24.6692  -31.0733   22.1029 N   0  0  0  0  0  0
  -23.4169  -28.8156   23.3078 O   0  0  0  0  0  0
  -28.4066  -26.6813   20.0971 O   0  0  0  0  0  0
  -26.5619  -34.8951   22.4727 O   0  0  0  0  0  0
  -23.5295  -32.1402   23.7474 O   0  0  0  0  0  0
  -30.2951  -19.0334   21.9136 C   0  0  0  0  0  0
  -29.6248  -19.3464   20.7330 C   0  0  0  0  0  0
  -30.1275  -16.9033   21.0424 C   0  0  0  0  0  0
  -30.4813  -21.7487   18.7348 C   0  0  0  0  0  0
  -30.7418  -21.3617   22.9976 C   0  0  0  0  0  0
  -31.0973  -23.8243   16.3531 C   0  0  0  0  0  0
  -32.8151  -22.3746   19.5568 C   0  0  0  0  0  0
  -30.6282  -19.8464   23.1422 C   0  0  0  0  0  0
  -32.1104  -23.0271   17.1921 C   0  0  0  0  0  0
  -28.4423  -24.2998   19.2674 C   0  0  0  0  0  0
  -28.3152  -25.2858   20.4639 C   0  0  0  0  0  0
  -31.6367  -22.7802   18.6497 C   0  0  1  0  0  0
  -29.4977  -21.8323   19.9307 C   0  0  1  0  0  0
  -28.2810  -22.7612   19.5607 C   0  0  2  0  0  0
  -30.5682  -17.6552   22.0552 N   0  0  0  0  0  0
  -28.9270  -20.4938   20.2718 N   0  0  0  0  0  0
  -29.9851  -15.4888   21.1753 N   0  0  0  0  0  0
  -30.3483  -20.8862   17.8600 O   0  0  0  0  0  0
  -27.3213  -22.5595   20.5847 O   0  0  0  0  0  0
  -29.4048  -17.8803   19.7675 S   0  0  0  0  0  0
  -31.4747  -12.4351   19.1172 H   0  0  0  0  0  0
  -30.3541  -11.3158   19.8314 H   0  0  0  0  0  0
  -29.7404  -11.7693   17.4367 H   0  0  0  0  0  0
  -29.6609  -13.4779   17.7636 H   0  0  0  0  0  0
  -27.8337  -11.3058   18.8320 H   0  0  0  0  0  0
  -27.3669  -12.6218   17.7930 H   0  0  0  0  0  0
  -27.7060  -14.2527   19.5723 H   0  0  0  0  0  0
  -28.6993  -11.9611   21.3412 H   0  0  0  0  0  0
  -28.4598  -13.5900   21.8777 H   0  0  0  0  0  0
  -25.2742   -9.5742   22.4739 H   0  0  0  0  0  0
  -24.0009   -7.4671   22.7472 H   0  0  0  0  0  0
  -21.0836   -8.8711   19.8949 H   0  0  0  0  0  0
  -22.3621  -10.9661   19.6145 H   0  0  0  0  0  0
  -21.1991   -7.6157   23.9690 H   0  0  0  0  0  0
  -21.1466   -6.0562   25.9076 H   0  0  0  0  0  0
  -22.0610   -2.7604   23.2867 H   0  0  0  0  0  0
  -22.4147  -11.9739   22.4631 H   0  0  0  0  0  0
  -21.1167  -13.1190   22.2663 H   0  0  0  0  0  0
  -24.7187  -15.8632   20.6273 H   0  0  0  0  0  0
  -26.3272  -15.6234   20.1811 H   0  0  0  0  0  0
  -26.7055  -32.5549   23.1155 H   0  0  0  0  0  0
  -24.9954  -33.9750   25.0439 H   0  0  0  0  0  0
  -22.6971  -31.3069   21.4179 H   0  0  0  0  0  0
  -23.3753  -35.9615   23.3326 H   0  0  0  0  0  0
  -24.3588  -36.8900   22.2070 H   0  0  0  0  0  0
  -23.7229  -37.6511   23.6650 H   0  0  0  0  0  0
  -26.0433  -31.5926   20.5963 H   0  0  0  0  0  0
  -26.8174  -30.8841   21.9851 H   0  0  0  0  0  0
  -28.1056  -29.0935   21.1567 H   0  0  0  0  0  0
  -26.0258  -25.9424   19.0579 H   0  0  0  0  0  0
  -23.9681  -27.2815   19.0662 H   0  0  0  0  0  0
  -23.7190  -30.5957   19.4083 H   0  0  0  0  0  0
  -22.7390  -29.2356   19.8762 H   0  0  0  0  0  0
  -25.1275  -36.2020   25.0838 H   0  0  0  0  0  0
  -20.9933  -28.3200   24.1479 H   0  0  0  0  0  0
  -20.5596  -26.2260   23.3627 H   0  0  0  0  0  0
  -21.6614  -26.7398   22.1275 H   0  0  0  0  0  0
  -19.6907  -25.6308   21.1215 H   0  0  0  0  0  0
  -19.6702  -27.3213   20.6749 H   0  0  0  0  0  0
  -17.4198  -26.6657   21.4008 H   0  0  0  0  0  0
  -18.0303  -26.0067   22.9030 H   0  0  0  0  0  0
  -19.7924  -30.7203   24.2318 H   0  0  0  0  0  0
  -17.5026  -31.6271   24.5150 H   0  0  0  0  0  0
  -15.5338  -30.2990   23.7647 H   0  0  0  0  0  0
  -15.8658  -28.0826   22.7038 H   0  0  0  0  0  0
  -24.5863  -30.7079   25.7767 H   0  0  0  0  0  0
  -24.9034  -32.2790   26.5052 H   0  0  0  0  0  0
  -25.8114  -30.8665   27.0158 H   0  0  0  0  0  0
  -26.2856  -29.6768   24.1149 H   0  0  0  0  0  0
  -27.4186  -29.7258   25.4474 H   0  0  0  0  0  0
  -27.8643  -30.4366   23.9141 H   0  0  0  0  0  0
  -27.2731  -33.3519   26.2065 H   0  0  0  0  0  0
  -28.3850  -32.6785   25.0238 H   0  0  0  0  0  0
  -28.0767  -31.8333   26.5322 H   0  0  0  0  0  0
  -28.2615  -38.0096   24.7508 H   0  0  0  0  0  0
  -28.1092  -36.2649   24.6329 H   0  0  0  0  0  0
  -27.2330  -37.1447   25.8895 H   0  0  0  0  0  0
  -20.9305  -29.8767   21.6937 H   0  0  0  0  0  0
  -26.0222  -38.2886   24.1414 H   0  0  0  0  0  0
  -29.7725  -21.8069   22.7799 H   0  0  0  0  0  0
  -31.4654  -21.6399   22.2344 H   0  0  0  0  0  0
  -31.0773  -21.8066   23.9341 H   0  0  0  0  0  0
  -31.4174  -23.9048   15.3140 H   0  0  0  0  0  0
  -30.9943  -24.8395   16.7394 H   0  0  0  0  0  0
  -30.1093  -23.3633   16.3557 H   0  0  0  0  0  0
  -32.6767  -22.7733   20.5634 H   0  0  0  0  0  0
  -33.7634  -22.7782   19.2020 H   0  0  0  0  0  0
  -32.9333  -21.2931   19.6284 H   0  0  0  0  0  0
  -31.5696  -19.4817   23.5564 H   0  0  0  0  0  0
  -29.8819  -19.6428   23.9083 H   0  0  0  0  0  0
  -33.0486  -23.5849   17.1920 H   0  0  0  0  0  0
  -32.3392  -22.0834   16.6938 H   0  0  0  0  0  0
  -29.3652  -24.5046   18.7294 H   0  0  0  0  0  0
  -27.6626  -24.5679   18.5545 H   0  0  0  0  0  0
  -29.1244  -25.0814   21.1654 H   0  0  0  0  0  0
  -27.3936  -25.1035   21.0183 H   0  0  0  0  0  0
  -31.2761  -23.7338   19.0361 H   0  0  0  0  0  0
  -30.0276  -22.2670   20.7678 H   0  0  0  0  0  0
  -27.8385  -22.3354   18.6583 H   0  0  0  0  0  0
  -28.3878  -20.1812   19.4690 H   0  0  0  0  0  0
  -29.1125  -15.1868   21.5754 H   0  0  0  0  0  0
  -27.4750  -21.6584   20.8663 H   0  0  0  0  0  0
  1 25  1  0  0  0
  1 30  2  0  0  0
  1 87  1  0  0  0
  2  3  1  0  0  0
  2 25  1  0  0  0
  2 91  1  0  0  0
  2 92  1  0  0  0
  3  4  1  0  0  0
  3 93  1  0  0  0
  3 94  1  0  0  0
  4  5  1  0  0  0
  4 95  1  0  0  0
  4 96  1  0  0  0
  5  6  1  0  0  0
  5 26  1  0  0  0
  5 97  1  0  0  0
  6 25  1  0  0  0
  6 98  1  0  0  0
  6 99  1  0  0  0
  7  8  2  0  0  0
  7 26  1  0  0  0
  7 29  1  0  0  0
  8  9  1  0  0  0
  8 22  1  0  0  0
  9 10  1  0  0  0
  9 27  2  0  0  0
 10 11  2  0  0  0
 10 15  1  0  0  0
 11 12  1  0  0  0
 11100  1  0  0  0
 12 13  2  0  0  0
 12101  1  0  0  0
 13 14  1  0  0  0
 13 31  1  0  0  0
 14 15  2  0  0  0
 14102  1  0  0  0
 15103  1  0  0  0
 16 17  2  0  0  0
 16 21  1  0  0  0
 16 31  1  0  0  0
 17 18  1  0  0  0
 17104  1  0  0  0
 18 19  2  0  0  0
 18105  1  0  0  0
 19 20  1  0  0  0
 19 24  1  0  0  0
 20 21  2  0  0  0
 20106  1  0  0  0
 21 23  1  0  0  0
 22 28  1  0  0  0
 22 32  2  0  0  0
 26 27  1  0  0  0
 28107  1  0  0  0
 28108  1  0  0  0
 29109  1  0  0  0
 29110  1  0  0  0
 33 34  1  0  0  0
 33 66  1  0  0  0
 33 70  2  0  0  0
 34 36  1  0  0  0
 34 59  1  0  0  0
 34111  1  0  0  0
 35 44  2  0  0  0
 35 45  1  0  0  0
 35 68  1  0  0  0
 36 56  1  0  0  0
 36112  1  0  0  0
 37 39  1  0  0  0
 37 47  1  0  0  0
 37 66  1  0  0  0
 37113  1  0  0  0
 38 43  2  0  0  0
 38 46  1  0  0  0
 38 47  1  0  0  0
 39 64  1  0  0  0
 39 67  2  0  0  0
 40 52  1  0  0  0
 40 53  2  0  0  0
 40 58  1  0  0  0
 41114  1  0  0  0
 41115  1  0  0  0
 41116  1  0  0  0
 41 48  1  0  0  0
 42 43  1  0  0  0
 42 66  1  0  0  0
 42117  1  0  0  0
 42118  1  0  0  0
 43 44  1  0  0  0
 44119  1  0  0  0
 45 46  2  0  0  0
 45120  1  0  0  0
 46121  1  0  0  0
 47122  1  0  0  0
 47123  1  0  0  0
 48 56  1  0  0  0
 48 65  1  0  0  0
 48124  1  0  0  0
 49 50  1  0  0  0
 49 53  1  0  0  0
 49 64  1  0  0  0
 49125  1  0  0  0
 50 51  1  0  0  0
 50126  1  0  0  0
 50127  1  0  0  0
 51 52  1  0  0  0
 51128  1  0  0  0
 51129  1  0  0  0
 52130  1  0  0  0
 52131  1  0  0  0
 53 54  1  0  0  0
 54 55  2  0  0  0
 54132  1  0  0  0
 55 57  1  0  0  0
 55133  1  0  0  0
 56 69  2  0  0  0
 57 58  2  0  0  0
 57134  1  0  0  0
 58135  1  0  0  0
 59 60  1  0  0  0
 59 61  1  0  0  0
 59 62  1  0  0  0
 60136  1  0  0  0
 60137  1  0  0  0
 60138  1  0  0  0
 61139  1  0  0  0
 61140  1  0  0  0
 61141  1  0  0  0
 62142  1  0  0  0
 62143  1  0  0  0
 62144  1  0  0  0
 63 65  1  0  0  0
 63145  1  0  0  0
 63146  1  0  0  0
 63147  1  0  0  0
 64148  1  0  0  0
 65149  1  0  0  0
 68 81  1  0  0  0
 71 72  2  0  0  0
 71 78  1  0  0  0
 71 85  1  0  0  0
 72 86  1  0  0  0
 72 90  1  0  0  0
 73 85  2  0  0  0
 73 87  1  0  0  0
 73 90  1  0  0  0
 74 82  1  0  0  0
 74 83  1  0  0  0
 74 88  2  0  0  0
 75 78  1  0  0  0
 75150  1  0  0  0
 75151  1  0  0  0
 75152  1  0  0  0
 76 79  1  0  0  0
 76153  1  0  0  0
 76154  1  0  0  0
 76155  1  0  0  0
 77156  1  0  0  0
 77157  1  0  0  0
 77158  1  0  0  0
 77 82  1  0  0  0
 78159  1  0  0  0
 78160  1  0  0  0
 79 82  1  0  0  0
 79161  1  0  0  0
 79162  1  0  0  0
 80 81  1  0  0  0
 80 84  1  0  0  0
 80163  1  0  0  0
 80164  1  0  0  0
 81165  1  0  0  0
 81166  1  0  0  0
 82167  1  0  0  0
 83 84  1  0  0  0
 83 86  1  0  0  0
 83168  1  0  0  0
 84 89  1  0  0  0
 84169  1  0  0  0
 86170  1  0  0  0
 87171  1  0  0  0
 89172  1  0  0  0
M  ISO  4   1 100  68 101  81 101  87 100
M  END
> <chiral flag>
0

> <version>
0

> <s_m_source_file>
/data/baiqing/PycharmProjects/Reinvent-master-3.2/result/LINK_invent/BTK/process_docking_weight1_custom_product_contain_oxygen_bond_distance_aromatic_linkinvent_7_9_3/rearranged_h_0191.sdf

> <i_m_source_file_index>
78

> <r_mmod_Potential_Energy-OPLS-2005>
55.7015953063965

> <r_mmod_Stretch_Energy-OPLS-2005>
51.5060386657715

> <r_mmod_Bend_Energy-OPLS-2005>
149.41731262207

> <r_mmod_Torsional_Energy-OPLS-2005>
300.724639892578

> <r_mmod_Improper_Torsional_Energy-OPLS-2005>
11.9227485656738

> <r_mmod_Van_der_Waal_Energy-OPLS-2005>
125.944725036621

> <r_mmod_Electrostatic_Energy-OPLS-2005>
-361.817230224609

> <r_mmod_Solvation_Energy-OPLS-2005>
-237.923934936523

> <b_mmod_Minimization_Converged-OPLS-2005>
0

> <r_mmod_RMS_Derivative-OPLS-2005>
5.92279148101807

$$$$
80
                    3D
 Structure written by MMmdl.
158166  0  0  1  0            999 V2000
  -30.7040  -14.5771   20.5126 C   0  0  0  0  0  0
  -30.4210  -12.3613   19.4646 C   0  0  0  0  0  0
  -29.5112  -12.5199   18.2303 C   0  0  0  0  0  0
  -28.0304  -12.3701   18.6296 C   0  0  0  0  0  0
  -27.6533  -13.2348   19.8641 C   0  0  2  0  0  0
  -28.6965  -13.1072   21.0002 C   0  0  0  0  0  0
  -25.2518  -13.8206   20.5655 C   0  0  0  0  0  0
  -24.1815  -13.0449   20.9153 C   0  0  0  0  0  0
  -24.6405  -11.6905   20.8672 C   0  0  0  0  0  0
  -23.9068  -10.4274   21.0339 C   0  0  0  0  0  0
  -24.3609   -9.4198   21.9137 C   0  0  0  0  0  0
  -23.6276   -8.2243   22.0741 C   0  0  0  0  0  0
  -22.4276   -8.0251   21.3532 C   0  0  0  0  0  0
  -21.9882   -9.0226   20.4662 C   0  0  0  0  0  0
  -22.7212  -10.2101   20.3028 C   0  0  0  0  0  0
  -21.6845   -6.0700   22.5275 C   0  0  0  0  0  0
  -21.4025   -6.5601   23.8216 C   0  0  0  0  0  0
  -21.3680   -5.6765   24.9179 C   0  0  0  0  0  0
  -21.6029   -4.3031   24.7227 C   0  0  0  0  0  0
  -21.8826   -3.8110   23.4360 C   0  0  0  0  0  0
  -21.9199   -4.6925   22.3404 C   0  0  0  0  0  0
  -22.7828  -13.5232   21.1820 C   0  0  0  0  0  0
  -22.1647   -4.2103   21.0985 F   0  0  0  0  0  0
  -21.5637   -3.4515   25.7748 F   0  0  0  0  0  0
  -30.0249  -13.3935   20.4413 N   0  0  0  0  0  0
  -26.3002  -12.9431   20.3335 N   0  0  0  0  0  0
  -25.9340  -11.6552   20.5705 N   0  0  0  0  0  0
  -22.0446  -12.8229   22.0380 N   0  0  0  0  0  0
  -25.4161  -15.1934   20.3995 N   0  0  0  0  0  0
  -31.8576  -14.6855   20.0943 O   0  0  0  0  0  0
  -21.6645   -6.8845   21.4233 O   0  0  0  0  0  0
  -22.3491  -14.5518   20.6652 O   0  0  0  0  0  0
  -24.6140  -31.8725   23.2170 C   0  0  0  0  0  0
  -25.9011  -32.4883   23.8486 C   0  0  1  0  0  0
  -27.2163  -27.4381   20.1023 C   0  0  0  0  0  0
  -25.5845  -33.8666   24.2404 N   0  0  0  0  0  0
  -23.4039  -30.5002   21.5618 C   0  0  2  0  0  0
  -24.8432  -28.9814   20.1107 C   0  0  0  0  0  0
  -22.7427  -29.4681   22.5061 C   0  0  0  0  0  0
  -18.0279  -28.1390   22.8492 C   0  0  0  0  0  0
  -24.1454  -36.7313   23.2643 C   0  0  0  0  0  0
  -25.9331  -30.8427   21.3670 C   0  0  0  0  0  0
  -26.0092  -29.4823   20.7061 C   0  0  0  0  0  0
  -27.2026  -28.7228   20.6915 C   0  0  0  0  0  0
  -26.0408  -26.9778   19.4660 C   0  0  0  0  0  0
  -24.8570  -27.7315   19.4765 C   0  0  0  0  0  0
  -23.6068  -29.8466   20.1709 C   0  0  0  0  0  0
  -25.4084  -36.3167   24.0375 C   0  0  1  0  0  0
  -20.5854  -28.3665   23.1323 C   0  0  2  0  0  0
  -20.6764  -26.9404   22.5430 C   0  0  0  0  0  0
  -19.5743  -26.6386   21.5219 C   0  0  0  0  0  0
  -18.1915  -26.7934   22.1624 C   0  0  0  0  0  0
  -19.1523  -28.8868   23.2911 C   0  0  0  0  0  0
  -18.9437  -30.1462   23.8932 C   0  0  0  0  0  0
  -17.6438  -30.6595   24.0547 C   0  0  0  0  0  0
  -25.9012  -34.9528   23.5211 C   0  0  0  0  0  0
  -16.5331  -29.9086   23.6325 C   0  0  0  0  0  0
  -16.7269  -28.6501   23.0366 C   0  0  0  0  0  0
  -26.4413  -31.6660   25.0815 C   0  0  0  0  0  0
  -25.3671  -31.3738   26.1569 C   0  0  0  0  0  0
  -27.0213  -30.3123   24.6143 C   0  0  0  0  0  0
  -27.6036  -32.4339   25.7537 C   0  0  0  0  0  0
  -27.5580  -37.1834   24.8473 C   0  0  0  0  0  0
  -21.4164  -29.2994   22.3722 N   0  0  0  0  0  0
  -26.4286  -37.3843   23.9427 N   0  0  0  0  0  0
  -24.6693  -31.0845   22.1076 N   0  0  0  0  0  0
  -23.4197  -28.8187   23.3087 O   0  0  0  0  0  0
  -28.3359  -26.6286   20.1928 O   0  0  0  0  0  0
  -26.5548  -34.8959   22.4770 O   0  0  0  0  0  0
  -23.5334  -32.1431   23.7588 O   0  0  0  0  0  0
  -29.4585  -19.4139   23.4058 C   0  0  0  0  0  0
  -29.8057  -18.2065   22.7574 C   0  0  0  0  0  0
  -29.9824  -18.2754   21.3555 C   0  0  0  0  0  0
  -29.5552  -20.5511   21.4462 C   0  0  0  0  0  0
  -30.4050  -17.0757   20.4645 C   0  0  0  0  0  0
  -28.6146  -22.8636   21.1203 C   0  0  0  0  0  0
  -27.9976  -25.2746   20.5647 C   0  0  0  0  0  0
  -29.1586  -24.3259   20.9564 C   0  0  2  0  0  0
  -29.3373  -20.5790   22.7480 N   0  0  0  0  0  0
  -29.8628  -19.4758   20.7258 N   0  0  0  0  0  0
  -29.9794  -17.0326   23.5010 N   0  0  0  0  0  0
  -29.5356  -21.7626   20.7687 N   0  0  0  0  0  0
  -29.9966  -15.6872   20.8350 N   0  0  0  0  0  0
  -30.2785  -24.4159   19.9922 N   0  3  0  0  0  0
  -31.4672  -12.4420   19.1697 H   0  0  0  0  0  0
  -30.3121  -11.3676   19.9011 H   0  0  0  0  0  0
  -29.7772  -11.7818   17.4725 H   0  0  0  0  0  0
  -29.6750  -13.5005   17.7758 H   0  0  0  0  0  0
  -27.8558  -11.3159   18.8477 H   0  0  0  0  0  0
  -27.3930  -12.6227   17.7829 H   0  0  0  0  0  0
  -27.6650  -14.2721   19.5219 H   0  0  0  0  0  0
  -28.6752  -12.1066   21.4355 H   0  0  0  0  0  0
  -28.4541  -13.7930   21.8144 H   0  0  0  0  0  0
  -25.2737   -9.5681   22.4729 H   0  0  0  0  0  0
  -23.9977   -7.4634   22.7469 H   0  0  0  0  0  0
  -21.0801   -8.8753   19.8965 H   0  0  0  0  0  0
  -22.3654  -10.9633   19.6153 H   0  0  0  0  0  0
  -21.2024   -7.6106   23.9709 H   0  0  0  0  0  0
  -21.1493   -6.0491   25.9094 H   0  0  0  0  0  0
  -22.0588   -2.7552   23.2876 H   0  0  0  0  0  0
  -22.4030  -11.9936   22.4886 H   0  0  0  0  0  0
  -21.1079  -13.1300   22.2562 H   0  0  0  0  0  0
  -24.6369  -15.8391   20.4762 H   0  0  0  0  0  0
  -26.2635  -15.6267   20.0519 H   0  0  0  0  0  0
  -26.7102  -32.5581   23.1283 H   0  0  0  0  0  0
  -25.0045  -33.9847   25.0581 H   0  0  0  0  0  0
  -22.6904  -31.3152   21.4349 H   0  0  0  0  0  0
  -23.3752  -35.9607   23.3332 H   0  0  0  0  0  0
  -24.3547  -36.8883   22.2047 H   0  0  0  0  0  0
  -23.7148  -37.6526   23.6597 H   0  0  0  0  0  0
  -26.0442  -31.6142   20.6027 H   0  0  0  0  0  0
  -26.8202  -30.8923   21.9882 H   0  0  0  0  0  0
  -28.0970  -29.1021   21.1657 H   0  0  0  0  0  0
  -26.0030  -26.0314   18.9498 H   0  0  0  0  0  0
  -23.9671  -27.3476   18.9930 H   0  0  0  0  0  0
  -23.7119  -30.6288   19.4175 H   0  0  0  0  0  0
  -22.7274  -29.2697   19.8754 H   0  0  0  0  0  0
  -25.1261  -36.2104   25.0868 H   0  0  0  0  0  0
  -20.9945  -28.3225   24.1448 H   0  0  0  0  0  0
  -20.5662  -26.2278   23.3614 H   0  0  0  0  0  0
  -21.6639  -26.7452   22.1215 H   0  0  0  0  0  0
  -19.6883  -25.6300   21.1245 H   0  0  0  0  0  0
  -19.6676  -27.3206   20.6749 H   0  0  0  0  0  0
  -17.4183  -26.6688   21.4013 H   0  0  0  0  0  0
  -18.0300  -26.0081   22.9035 H   0  0  0  0  0  0
  -19.7929  -30.7251   24.2301 H   0  0  0  0  0  0
  -17.5017  -31.6275   24.5157 H   0  0  0  0  0  0
  -15.5353  -30.3006   23.7655 H   0  0  0  0  0  0
  -15.8653  -28.0830   22.7094 H   0  0  0  0  0  0
  -24.5908  -30.6997   25.7933 H   0  0  0  0  0  0
  -24.8743  -32.2845   26.4977 H   0  0  0  0  0  0
  -25.8032  -30.8995   27.0368 H   0  0  0  0  0  0
  -26.2759  -29.6985   24.1078 H   0  0  0  0  0  0
  -27.3869  -29.7286   25.4595 H   0  0  0  0  0  0
  -27.8641  -30.4490   23.9366 H   0  0  0  0  0  0
  -27.2743  -33.3684   26.2091 H   0  0  0  0  0  0
  -28.3833  -32.6822   25.0321 H   0  0  0  0  0  0
  -28.0685  -31.8452   26.5455 H   0  0  0  0  0  0
  -28.2661  -38.0081   24.7551 H   0  0  0  0  0  0
  -28.1032  -36.2644   24.6287 H   0  0  0  0  0  0
  -27.2303  -37.1487   25.8876 H   0  0  0  0  0  0
  -20.9325  -29.8754   21.6954 H   0  0  0  0  0  0
  -26.0217  -38.2945   24.1429 H   0  0  0  0  0  0
  -29.2893  -19.4472   24.4728 H   0  0  0  0  0  0
  -31.4892  -17.1441   20.3554 H   0  0  0  0  0  0
  -30.0170  -17.2601   19.4588 H   0  0  0  0  0  0
  -27.7398  -22.7452   20.4789 H   0  0  0  0  0  0
  -28.2262  -22.7539   22.1338 H   0  0  0  0  0  0
  -27.2965  -25.3020   21.4042 H   0  0  0  0  0  0
  -27.4753  -24.7970   19.7367 H   0  0  0  0  0  0
  -29.5439  -24.6519   21.9234 H   0  0  0  0  0  0
  -29.7251  -17.0028   24.4893 H   0  0  0  0  0  0
  -29.9165  -16.1396   23.0212 H   0  0  0  0  0  0
  -29.6569  -21.6196   19.7748 H   0  0  0  0  0  0
  -29.0555  -15.5773   21.1744 H   0  0  0  0  0  0
  -29.9797  -24.2425   19.0497 H   0  0  0  0  0  0
  -30.9856  -23.7458   20.2385 H   0  0  0  0  0  0
  -30.6839  -25.3368   20.0282 H   0  0  0  0  0  0
  1 25  1  0  0  0
  1 30  2  0  0  0
  1 83  1  0  0  0
  2  3  1  0  0  0
  2 25  1  0  0  0
  2 85  1  0  0  0
  2 86  1  0  0  0
  3  4  1  0  0  0
  3 87  1  0  0  0
  3 88  1  0  0  0
  4  5  1  0  0  0
  4 89  1  0  0  0
  4 90  1  0  0  0
  5  6  1  0  0  0
  5 26  1  0  0  0
  5 91  1  0  0  0
  6 25  1  0  0  0
  6 92  1  0  0  0
  6 93  1  0  0  0
  7  8  2  0  0  0
  7 26  1  0  0  0
  7 29  1  0  0  0
  8  9  1  0  0  0
  8 22  1  0  0  0
  9 10  1  0  0  0
  9 27  2  0  0  0
 10 11  2  0  0  0
 10 15  1  0  0  0
 11 12  1  0  0  0
 11 94  1  0  0  0
 12 13  2  0  0  0
 12 95  1  0  0  0
 13 14  1  0  0  0
 13 31  1  0  0  0
 14 15  2  0  0  0
 14 96  1  0  0  0
 15 97  1  0  0  0
 16 17  2  0  0  0
 16 21  1  0  0  0
 16 31  1  0  0  0
 17 18  1  0  0  0
 17 98  1  0  0  0
 18 19  2  0  0  0
 18 99  1  0  0  0
 19 20  1  0  0  0
 19 24  1  0  0  0
 20 21  2  0  0  0
 20100  1  0  0  0
 21 23  1  0  0  0
 22 28  1  0  0  0
 22 32  2  0  0  0
 26 27  1  0  0  0
 28101  1  0  0  0
 28102  1  0  0  0
 29103  1  0  0  0
 29104  1  0  0  0
 33 34  1  0  0  0
 33 66  1  0  0  0
 33 70  2  0  0  0
 34 36  1  0  0  0
 34 59  1  0  0  0
 34105  1  0  0  0
 35 44  2  0  0  0
 35 45  1  0  0  0
 35 68  1  0  0  0
 36 56  1  0  0  0
 36106  1  0  0  0
 37 39  1  0  0  0
 37 47  1  0  0  0
 37 66  1  0  0  0
 37107  1  0  0  0
 38 43  2  0  0  0
 38 46  1  0  0  0
 38 47  1  0  0  0
 39 64  1  0  0  0
 39 67  2  0  0  0
 40 52  1  0  0  0
 40 53  2  0  0  0
 40 58  1  0  0  0
 41108  1  0  0  0
 41109  1  0  0  0
 41110  1  0  0  0
 41 48  1  0  0  0
 42 43  1  0  0  0
 42 66  1  0  0  0
 42111  1  0  0  0
 42112  1  0  0  0
 43 44  1  0  0  0
 44113  1  0  0  0
 45 46  2  0  0  0
 45114  1  0  0  0
 46115  1  0  0  0
 47116  1  0  0  0
 47117  1  0  0  0
 48 56  1  0  0  0
 48 65  1  0  0  0
 48118  1  0  0  0
 49 50  1  0  0  0
 49 53  1  0  0  0
 49 64  1  0  0  0
 49119  1  0  0  0
 50 51  1  0  0  0
 50120  1  0  0  0
 50121  1  0  0  0
 51 52  1  0  0  0
 51122  1  0  0  0
 51123  1  0  0  0
 52124  1  0  0  0
 52125  1  0  0  0
 53 54  1  0  0  0
 54 55  2  0  0  0
 54126  1  0  0  0
 55 57  1  0  0  0
 55127  1  0  0  0
 56 69  2  0  0  0
 57 58  2  0  0  0
 57128  1  0  0  0
 58129  1  0  0  0
 59 60  1  0  0  0
 59 61  1  0  0  0
 59 62  1  0  0  0
 60130  1  0  0  0
 60131  1  0  0  0
 60132  1  0  0  0
 61133  1  0  0  0
 61134  1  0  0  0
 61135  1  0  0  0
 62136  1  0  0  0
 62137  1  0  0  0
 62138  1  0  0  0
 63 65  1  0  0  0
 63139  1  0  0  0
 63140  1  0  0  0
 63141  1  0  0  0
 64142  1  0  0  0
 65143  1  0  0  0
 68 77  1  0  0  0
 71 72  2  0  0  0
 71 79  1  0  0  0
 71144  1  0  0  0
 72 73  1  0  0  0
 72 81  1  0  0  0
 73 75  1  0  0  0
 73 80  2  0  0  0
 74 79  2  0  0  0
 74 80  1  0  0  0
 74 82  1  0  0  0
 75 83  1  0  0  0
 75145  1  0  0  0
 75146  1  0  0  0
 76 78  1  0  0  0
 76 82  1  0  0  0
 76147  1  0  0  0
 76148  1  0  0  0
 77 78  1  0  0  0
 77149  1  0  0  0
 77150  1  0  0  0
 78 84  1  0  0  0
 78151  1  0  0  0
 81152  1  0  0  0
 81153  1  0  0  0
 82154  1  0  0  0
 83155  1  0  0  0
 84156  1  0  0  0
 84157  1  0  0  0
 84158  1  0  0  0
M  CHG  1  84   1
M  ISO  4   1 100  68 101  77 101  83 100
M  END
> <chiral flag>
0

> <version>
0

> <s_m_source_file>
/data/baiqing/PycharmProjects/Reinvent-master-3.2/result/LINK_invent/BTK/process_docking_weight1_custom_product_contain_oxygen_bond_distance_aromatic_linkinvent_7_9_3/rearranged_h_0191.sdf

> <i_m_source_file_index>
79

> <r_mmod_Potential_Energy-OPLS-2005>
-804.152221679688

> <r_mmod_Stretch_Energy-OPLS-2005>
44.8026008605957

> <r_mmod_Bend_Energy-OPLS-2005>
118.348266601562

> <r_mmod_Torsional_Energy-OPLS-2005>
251.265472412109

> <r_mmod_Improper_Torsional_Energy-OPLS-2005>
11.6453351974487

> <r_mmod_Van_der_Waal_Energy-OPLS-2005>
174.465866088867

> <r_mmod_Electrostatic_Energy-OPLS-2005>
-931.290954589844

> <r_mmod_Solvation_Energy-OPLS-2005>
-502.753936767578

> <b_mmod_Minimization_Converged-OPLS-2005>
0

> <r_mmod_RMS_Derivative-OPLS-2005>
6.85823535919189

$$$$
81
                    3D
 Structure written by MMmdl.
162170  0  0  1  0            999 V2000
  -30.5487  -14.7431   20.4603 C   0  0  0  0  0  0
  -30.4450  -12.4492   19.4719 C   0  0  0  0  0  0
  -29.5183  -12.5094   18.2356 C   0  0  0  0  0  0
  -28.0385  -12.3339   18.6393 C   0  0  0  0  0  0
  -27.6433  -13.2172   19.8539 C   0  0  2  0  0  0
  -28.6845  -13.1095   20.9890 C   0  0  0  0  0  0
  -25.2509  -13.8148   20.5668 C   0  0  0  0  0  0
  -24.1790  -13.0415   20.9180 C   0  0  0  0  0  0
  -24.6364  -11.6898   20.8727 C   0  0  0  0  0  0
  -23.9050  -10.4273   21.0385 C   0  0  0  0  0  0
  -24.3598   -9.4196   21.9181 C   0  0  0  0  0  0
  -23.6274   -8.2230   22.0753 C   0  0  0  0  0  0
  -22.4277   -8.0246   21.3530 C   0  0  0  0  0  0
  -21.9894   -9.0212   20.4636 C   0  0  0  0  0  0
  -22.7205  -10.2106   20.3045 C   0  0  0  0  0  0
  -21.6858   -6.0714   22.5275 C   0  0  0  0  0  0
  -21.3996   -6.5616   23.8201 C   0  0  0  0  0  0
  -21.3674   -5.6776   24.9159 C   0  0  0  0  0  0
  -21.6062   -4.3045   24.7228 C   0  0  0  0  0  0
  -21.8809   -3.8129   23.4350 C   0  0  0  0  0  0
  -21.9192   -4.6942   22.3404 C   0  0  0  0  0  0
  -22.7819  -13.5217   21.1848 C   0  0  0  0  0  0
  -22.1659   -4.2143   21.0984 F   0  0  0  0  0  0
  -21.5660   -3.4527   25.7742 F   0  0  0  0  0  0
  -29.9874  -13.4861   20.4221 N   0  0  0  0  0  0
  -26.2922  -12.9322   20.3252 N   0  0  0  0  0  0
  -25.9298  -11.6492   20.5721 N   0  0  0  0  0  0
  -22.0471  -12.8208   22.0400 N   0  0  0  0  0  0
  -25.4196  -15.1867   20.4101 N   0  0  0  0  0  0
  -31.7224  -14.9017   20.1059 O   0  0  0  0  0  0
  -21.6638   -6.8853   21.4239 O   0  0  0  0  0  0
  -22.3543  -14.5550   20.6702 O   0  0  0  0  0  0
  -24.6334  -31.8556   23.1965 C   0  0  0  0  0  0
  -25.9165  -32.4756   23.8333 C   0  0  1  0  0  0
  -27.2120  -27.2574   20.1266 C   0  0  0  0  0  0
  -25.5969  -33.8546   24.2266 N   0  0  0  0  0  0
  -23.4266  -30.4772   21.5438 C   0  0  2  0  0  0
  -24.8662  -28.9078   20.1246 C   0  0  0  0  0  0
  -22.7487  -29.4613   22.4946 C   0  0  0  0  0  0
  -18.0290  -28.1387   22.8492 C   0  0  0  0  0  0
  -24.1470  -36.7232   23.2639 C   0  0  0  0  0  0
  -25.9704  -30.7671   21.3689 C   0  0  0  0  0  0
  -26.0395  -29.3815   20.7218 C   0  0  0  0  0  0
  -27.2196  -28.5723   20.7014 C   0  0  0  0  0  0
  -26.0107  -26.8306   19.5285 C   0  0  0  0  0  0
  -24.8535  -27.6377   19.5206 C   0  0  0  0  0  0
  -23.6409  -29.8029   20.1624 C   0  0  0  0  0  0
  -25.4095  -36.3052   24.0346 C   0  0  1  0  0  0
  -20.5894  -28.3669   23.1279 C   0  0  2  0  0  0
  -20.6780  -26.9397   22.5405 C   0  0  0  0  0  0
  -19.5743  -26.6392   21.5221 C   0  0  0  0  0  0
  -18.1921  -26.7948   22.1625 C   0  0  0  0  0  0
  -19.1548  -28.8851   23.2886 C   0  0  0  0  0  0
  -18.9477  -30.1462   23.8899 C   0  0  0  0  0  0
  -17.6482  -30.6601   24.0569 C   0  0  0  0  0  0
  -25.9062  -34.9437   23.5099 C   0  0  0  0  0  0
  -16.5358  -29.9100   23.6342 C   0  0  0  0  0  0
  -16.7284  -28.6504   23.0365 C   0  0  0  0  0  0
  -26.4536  -31.6569   25.0708 C   0  0  0  0  0  0
  -25.3761  -31.3714   26.1438 C   0  0  0  0  0  0
  -27.0373  -30.2994   24.6144 C   0  0  0  0  0  0
  -27.6104  -32.4286   25.7489 C   0  0  0  0  0  0
  -27.5589  -37.1726   24.8450 C   0  0  0  0  0  0
  -21.4209  -29.3020   22.3668 N   0  0  0  0  0  0
  -26.4240  -37.3784   23.9489 N   0  0  0  0  0  0
  -24.6980  -31.0512   22.0930 N   0  0  0  0  0  0
  -23.4199  -28.8174   23.3055 O   0  0  0  0  0  0
  -28.3544  -26.4440   20.0113 O   0  0  0  0  0  0
  -26.5616  -34.8940   22.4664 O   0  0  0  0  0  0
  -23.5492  -32.1381   23.7274 O   0  0  0  0  0  0
  -29.6881  -17.2542   20.5549 C   0  0  0  0  0  0
  -29.1795  -19.7492   20.3612 C   0  0  0  0  0  0
  -29.0984  -21.3492   15.7776 C   0  0  0  0  0  0
  -26.9530  -21.4789   17.9652 C   0  0  0  0  0  0
  -28.3979  -25.2669   22.1358 C   0  0  0  0  0  0
  -29.4259  -21.4997   17.2745 C   0  0  0  0  0  0
  -27.8522  -23.6823   20.1677 C   0  0  0  0  0  0
  -28.3211  -22.1849   18.1135 C   0  0  2  0  0  0
  -28.7120  -22.4063   19.6140 C   0  0  2  0  0  0
  -28.5334  -25.0819   20.6184 C   0  0  1  0  0  0
  -30.6673  -17.9735   19.9624 N   0  0  0  0  0  0
  -30.3756  -19.3743   19.8526 N   0  0  0  0  0  0
  -29.6879  -15.7866   20.7573 N   0  0  0  0  0  0
  -28.6122  -21.0861   20.3619 N   0  0  0  0  0  0
  -28.3220  -18.3238   21.0423 S   0  0  0  0  0  0
  -31.4839  -12.5987   19.1754 H   0  0  0  0  0  0
  -30.4100  -11.4641   19.9391 H   0  0  0  0  0  0
  -29.8046  -11.7383   17.5188 H   0  0  0  0  0  0
  -29.6492  -13.4663   17.7269 H   0  0  0  0  0  0
  -27.8866  -11.2822   18.8849 H   0  0  0  0  0  0
  -27.3858  -12.5462   17.7896 H   0  0  0  0  0  0
  -27.6468  -14.2444   19.4954 H   0  0  0  0  0  0
  -28.7212  -12.0909   21.3781 H   0  0  0  0  0  0
  -28.4152  -13.7440   21.8331 H   0  0  0  0  0  0
  -25.2740   -9.5706   22.4755 H   0  0  0  0  0  0
  -24.0007   -7.4641   22.7459 H   0  0  0  0  0  0
  -21.0847   -8.8676   19.8935 H   0  0  0  0  0  0
  -22.3625  -10.9627   19.6152 H   0  0  0  0  0  0
  -21.1946   -7.6124   23.9701 H   0  0  0  0  0  0
  -21.1536   -6.0509   25.9069 H   0  0  0  0  0  0
  -22.0592   -2.7607   23.2841 H   0  0  0  0  0  0
  -22.4069  -11.9852   22.4782 H   0  0  0  0  0  0
  -21.1094  -13.1205   22.2589 H   0  0  0  0  0  0
  -24.6381  -15.8267   20.5030 H   0  0  0  0  0  0
  -26.2425  -15.6291   20.0226 H   0  0  0  0  0  0
  -26.7214  -32.5405   23.1067 H   0  0  0  0  0  0
  -25.0160  -33.9693   25.0444 H   0  0  0  0  0  0
  -22.7259  -31.3016   21.3937 H   0  0  0  0  0  0
  -23.3831  -35.9458   23.3174 H   0  0  0  0  0  0
  -24.3602  -36.8980   22.2081 H   0  0  0  0  0  0
  -23.7086  -37.6335   23.6733 H   0  0  0  0  0  0
  -26.0985  -31.5240   20.5940 H   0  0  0  0  0  0
  -26.8542  -30.8272   21.9932 H   0  0  0  0  0  0
  -28.1354  -28.9434   21.1356 H   0  0  0  0  0  0
  -25.9639  -25.8628   19.0489 H   0  0  0  0  0  0
  -23.9487  -27.2670   19.0599 H   0  0  0  0  0  0
  -23.7739  -30.5792   19.4056 H   0  0  0  0  0  0
  -22.7570  -29.2411   19.8515 H   0  0  0  0  0  0
  -25.1265  -36.1873   25.0824 H   0  0  0  0  0  0
  -20.9984  -28.3241   24.1404 H   0  0  0  0  0  0
  -20.5685  -26.2285   23.3608 H   0  0  0  0  0  0
  -21.6634  -26.7442   22.1166 H   0  0  0  0  0  0
  -19.6908  -25.6314   21.1229 H   0  0  0  0  0  0
  -19.6694  -27.3230   20.6773 H   0  0  0  0  0  0
  -17.4195  -26.6734   21.4022 H   0  0  0  0  0  0
  -18.0286  -26.0098   22.9007 H   0  0  0  0  0  0
  -19.7955  -30.7274   24.2272 H   0  0  0  0  0  0
  -17.5037  -31.6299   24.5134 H   0  0  0  0  0  0
  -15.5361  -30.3001   23.7690 H   0  0  0  0  0  0
  -15.8677  -28.0842   22.7091 H   0  0  0  0  0  0
  -24.5942  -30.7069   25.7757 H   0  0  0  0  0  0
  -24.8974  -32.2881   26.4866 H   0  0  0  0  0  0
  -25.8076  -30.8880   27.0213 H   0  0  0  0  0  0
  -26.2919  -29.6746   24.1206 H   0  0  0  0  0  0
  -27.4135  -29.7258   25.4630 H   0  0  0  0  0  0
  -27.8775  -30.4321   23.9328 H   0  0  0  0  0  0
  -27.2747  -33.3620   26.2025 H   0  0  0  0  0  0
  -28.3949  -32.6760   25.0320 H   0  0  0  0  0  0
  -28.0737  -31.8419   26.5436 H   0  0  0  0  0  0
  -28.2447  -38.0174   24.7728 H   0  0  0  0  0  0
  -28.1240  -36.2722   24.5976 H   0  0  0  0  0  0
  -27.2366  -37.1003   25.8853 H   0  0  0  0  0  0
  -20.9411  -29.8695   21.6829 H   0  0  0  0  0  0
  -26.0123  -38.2816   24.1673 H   0  0  0  0  0  0
  -29.9877  -21.0635   15.2140 H   0  0  0  0  0  0
  -28.7162  -22.2761   15.3465 H   0  0  0  0  0  0
  -28.3568  -20.5687   15.6080 H   0  0  0  0  0  0
  -26.6352  -21.4364   16.9228 H   0  0  0  0  0  0
  -26.1663  -22.0034   18.5081 H   0  0  0  0  0  0
  -26.9729  -20.4517   18.3337 H   0  0  0  0  0  0
  -28.6876  -24.3611   22.6723 H   0  0  0  0  0  0
  -27.3707  -25.5009   22.4120 H   0  0  0  0  0  0
  -29.0366  -26.0763   22.4918 H   0  0  0  0  0  0
  -30.3446  -22.0798   17.3684 H   0  0  0  0  0  0
  -29.6510  -20.5120   17.6647 H   0  0  0  0  0  0
  -27.2698  -23.3206   21.0155 H   0  0  0  0  0  0
  -27.0705  -23.9323   19.4531 H   0  0  0  0  0  0
  -28.2133  -23.1738   17.6626 H   0  0  0  0  0  0
  -29.7590  -22.7079   19.6482 H   0  0  0  0  0  0
  -29.5953  -24.9057   20.4471 H   0  0  0  0  0  0
  -28.8043  -15.4465   21.1017 H   0  0  0  0  0  0
  -27.8142  -21.0982   20.9878 H   0  0  0  0  0  0
  1 25  1  0  0  0
  1 30  2  0  0  0
  1 83  1  0  0  0
  2  3  1  0  0  0
  2 25  1  0  0  0
  2 86  1  0  0  0
  2 87  1  0  0  0
  3  4  1  0  0  0
  3 88  1  0  0  0
  3 89  1  0  0  0
  4  5  1  0  0  0
  4 90  1  0  0  0
  4 91  1  0  0  0
  5  6  1  0  0  0
  5 26  1  0  0  0
  5 92  1  0  0  0
  6 25  1  0  0  0
  6 93  1  0  0  0
  6 94  1  0  0  0
  7  8  2  0  0  0
  7 26  1  0  0  0
  7 29  1  0  0  0
  8  9  1  0  0  0
  8 22  1  0  0  0
  9 10  1  0  0  0
  9 27  2  0  0  0
 10 11  2  0  0  0
 10 15  1  0  0  0
 11 12  1  0  0  0
 11 95  1  0  0  0
 12 13  2  0  0  0
 12 96  1  0  0  0
 13 14  1  0  0  0
 13 31  1  0  0  0
 14 15  2  0  0  0
 14 97  1  0  0  0
 15 98  1  0  0  0
 16 17  2  0  0  0
 16 21  1  0  0  0
 16 31  1  0  0  0
 17 18  1  0  0  0
 17 99  1  0  0  0
 18 19  2  0  0  0
 18100  1  0  0  0
 19 20  1  0  0  0
 19 24  1  0  0  0
 20 21  2  0  0  0
 20101  1  0  0  0
 21 23  1  0  0  0
 22 28  1  0  0  0
 22 32  2  0  0  0
 26 27  1  0  0  0
 28102  1  0  0  0
 28103  1  0  0  0
 29104  1  0  0  0
 29105  1  0  0  0
 33 34  1  0  0  0
 33 66  1  0  0  0
 33 70  2  0  0  0
 34 36  1  0  0  0
 34 59  1  0  0  0
 34106  1  0  0  0
 35 44  2  0  0  0
 35 45  1  0  0  0
 35 68  1  0  0  0
 36 56  1  0  0  0
 36107  1  0  0  0
 37 39  1  0  0  0
 37 47  1  0  0  0
 37 66  1  0  0  0
 37108  1  0  0  0
 38 43  2  0  0  0
 38 46  1  0  0  0
 38 47  1  0  0  0
 39 64  1  0  0  0
 39 67  2  0  0  0
 40 52  1  0  0  0
 40 53  2  0  0  0
 40 58  1  0  0  0
 41109  1  0  0  0
 41110  1  0  0  0
 41111  1  0  0  0
 41 48  1  0  0  0
 42 43  1  0  0  0
 42 66  1  0  0  0
 42112  1  0  0  0
 42113  1  0  0  0
 43 44  1  0  0  0
 44114  1  0  0  0
 45 46  2  0  0  0
 45115  1  0  0  0
 46116  1  0  0  0
 47117  1  0  0  0
 47118  1  0  0  0
 48 56  1  0  0  0
 48 65  1  0  0  0
 48119  1  0  0  0
 49 50  1  0  0  0
 49 53  1  0  0  0
 49 64  1  0  0  0
 49120  1  0  0  0
 50 51  1  0  0  0
 50121  1  0  0  0
 50122  1  0  0  0
 51 52  1  0  0  0
 51123  1  0  0  0
 51124  1  0  0  0
 52125  1  0  0  0
 52126  1  0  0  0
 53 54  1  0  0  0
 54 55  2  0  0  0
 54127  1  0  0  0
 55 57  1  0  0  0
 55128  1  0  0  0
 56 69  2  0  0  0
 57 58  2  0  0  0
 57129  1  0  0  0
 58130  1  0  0  0
 59 60  1  0  0  0
 59 61  1  0  0  0
 59 62  1  0  0  0
 60131  1  0  0  0
 60132  1  0  0  0
 60133  1  0  0  0
 61134  1  0  0  0
 61135  1  0  0  0
 61136  1  0  0  0
 62137  1  0  0  0
 62138  1  0  0  0
 62139  1  0  0  0
 63 65  1  0  0  0
 63140  1  0  0  0
 63141  1  0  0  0
 63142  1  0  0  0
 64143  1  0  0  0
 65144  1  0  0  0
 68 80  1  0  0  0
 71 81  2  0  0  0
 71 83  1  0  0  0
 71 85  1  0  0  0
 72 82  2  0  0  0
 72 84  1  0  0  0
 72 85  1  0  0  0
 73 76  1  0  0  0
 73145  1  0  0  0
 73146  1  0  0  0
 73147  1  0  0  0
 74148  1  0  0  0
 74149  1  0  0  0
 74150  1  0  0  0
 74 78  1  0  0  0
 75151  1  0  0  0
 75152  1  0  0  0
 75153  1  0  0  0
 75 80  1  0  0  0
 76 78  1  0  0  0
 76154  1  0  0  0
 76155  1  0  0  0
 77 80  1  0  0  0
 77156  1  0  0  0
 77157  1  0  0  0
 77 79  1  0  0  0
 78 79  1  0  0  0
 78158  1  0  0  0
 79 84  1  0  0  0
 79159  1  0  0  0
 80160  1  0  0  0
 81 82  1  0  0  0
 83161  1  0  0  0
 84162  1  0  0  0
M  ISO  4   1 100  68 101  80 101  83 100
M  END
> <chiral flag>
0

> <version>
0

> <s_m_source_file>
/data/baiqing/PycharmProjects/Reinvent-master-3.2/result/LINK_invent/BTK/process_docking_weight1_custom_product_contain_oxygen_bond_distance_aromatic_linkinvent_7_9_3/rearranged_h_0191.sdf

> <i_m_source_file_index>
80

> <r_mmod_Potential_Energy-OPLS-2005>
116.127006530762

> <r_mmod_Stretch_Energy-OPLS-2005>
115.326866149902

> <r_mmod_Bend_Energy-OPLS-2005>
210.705459594727

> <r_mmod_Torsional_Energy-OPLS-2005>
261.728759765625

> <r_mmod_Improper_Torsional_Energy-OPLS-2005>
4.76567602157593

> <r_mmod_Van_der_Waal_Energy-OPLS-2005>
111.484664916992

> <r_mmod_Electrostatic_Energy-OPLS-2005>
-428.645812988281

> <r_mmod_Solvation_Energy-OPLS-2005>
-237.794631958008

> <b_mmod_Minimization_Converged-OPLS-2005>
0

> <r_mmod_RMS_Derivative-OPLS-2005>
4.03675317764282

$$$$
82
                    3D
 Structure written by MMmdl.
160168  0  0  1  0            999 V2000
  -30.6610  -14.5176   20.5770 C   0  0  0  0  0  0
  -30.4346  -12.3361   19.4279 C   0  0  0  0  0  0
  -29.5005  -12.5191   18.2118 C   0  0  0  0  0  0
  -28.0218  -12.3684   18.6214 C   0  0  0  0  0  0
  -27.6629  -13.2053   19.8778 C   0  0  2  0  0  0
  -28.7031  -12.9789   20.9983 C   0  0  0  0  0  0
  -25.2589  -13.8153   20.5675 C   0  0  0  0  0  0
  -24.1834  -13.0435   20.9164 C   0  0  0  0  0  0
  -24.6381  -11.6898   20.8718 C   0  0  0  0  0  0
  -23.9047  -10.4286   21.0395 C   0  0  0  0  0  0
  -24.3604   -9.4209   21.9177 C   0  0  0  0  0  0
  -23.6286   -8.2241   22.0751 C   0  0  0  0  0  0
  -22.4267   -8.0273   21.3545 C   0  0  0  0  0  0
  -21.9898   -9.0242   20.4646 C   0  0  0  0  0  0
  -22.7220  -10.2123   20.3049 C   0  0  0  0  0  0
  -21.6852   -6.0730   22.5280 C   0  0  0  0  0  0
  -21.4013   -6.5634   23.8213 C   0  0  0  0  0  0
  -21.3659   -5.6789   24.9175 C   0  0  0  0  0  0
  -21.6044   -4.3051   24.7228 C   0  0  0  0  0  0
  -21.8818   -3.8142   23.4349 C   0  0  0  0  0  0
  -21.9193   -4.6958   22.3405 C   0  0  0  0  0  0
  -22.7859  -13.5239   21.1839 C   0  0  0  0  0  0
  -22.1662   -4.2143   21.0983 F   0  0  0  0  0  0
  -21.5629   -3.4537   25.7743 F   0  0  0  0  0  0
  -30.0355  -13.3102   20.4587 N   0  0  0  0  0  0
  -26.3024  -12.9316   20.3359 N   0  0  0  0  0  0
  -25.9309  -11.6477   20.5743 N   0  0  0  0  0  0
  -22.0495  -12.8234   22.0395 N   0  0  0  0  0  0
  -25.4331  -15.1871   20.4097 N   0  0  0  0  0  0
  -31.7598  -14.7481   20.0603 O   0  0  0  0  0  0
  -21.6635   -6.8871   21.4241 O   0  0  0  0  0  0
  -22.3547  -14.5550   20.6693 O   0  0  0  0  0  0
  -24.6181  -31.8646   23.2064 C   0  0  0  0  0  0
  -25.9062  -32.4802   23.8371 C   0  0  1  0  0  0
  -27.2346  -27.3896   20.1085 C   0  0  0  0  0  0
  -25.5904  -33.8601   24.2298 N   0  0  0  0  0  0
  -23.4082  -30.4878   21.5474 C   0  0  2  0  0  0
  -24.8555  -28.9474   20.1140 C   0  0  0  0  0  0
  -22.7423  -29.4647   22.4965 C   0  0  0  0  0  0
  -18.0276  -28.1376   22.8491 C   0  0  0  0  0  0
  -24.1487  -36.7307   23.2638 C   0  0  0  0  0  0
  -25.9412  -30.8172   21.3662 C   0  0  0  0  0  0
  -26.0178  -29.4482   20.7130 C   0  0  0  0  0  0
  -27.2098  -28.6796   20.7011 C   0  0  0  0  0  0
  -26.0544  -26.9216   19.4881 C   0  0  0  0  0  0
  -24.8714  -27.6857   19.4957 C   0  0  0  0  0  0
  -23.6188  -29.8185   20.1630 C   0  0  0  0  0  0
  -25.4107  -36.3097   24.0333 C   0  0  1  0  0  0
  -20.5868  -28.3668   23.1307 C   0  0  2  0  0  0
  -20.6764  -26.9399   22.5415 C   0  0  0  0  0  0
  -19.5743  -26.6384   21.5210 C   0  0  0  0  0  0
  -18.1923  -26.7922   22.1624 C   0  0  0  0  0  0
  -19.1526  -28.8836   23.2900 C   0  0  0  0  0  0
  -18.9455  -30.1441   23.8910 C   0  0  0  0  0  0
  -17.6457  -30.6583   24.0564 C   0  0  0  0  0  0
  -25.9042  -34.9465   23.5115 C   0  0  0  0  0  0
  -16.5348  -29.9085   23.6326 C   0  0  0  0  0  0
  -16.7265  -28.6501   23.0346 C   0  0  0  0  0  0
  -26.4473  -31.6596   25.0717 C   0  0  0  0  0  0
  -25.3728  -31.3718   26.1459 C   0  0  0  0  0  0
  -27.0307  -30.3030   24.6125 C   0  0  0  0  0  0
  -27.6038  -32.4323   25.7486 C   0  0  0  0  0  0
  -27.5582  -37.1800   24.8456 C   0  0  0  0  0  0
  -21.4145  -29.3036   22.3706 N   0  0  0  0  0  0
  -26.4285  -37.3791   23.9415 N   0  0  0  0  0  0
  -24.6742  -31.0719   22.0980 N   0  0  0  0  0  0
  -23.4178  -28.8188   23.3021 O   0  0  0  0  0  0
  -28.4002  -26.6337   20.1125 O   0  0  0  0  0  0
  -26.5613  -34.8926   22.4683 O   0  0  0  0  0  0
  -23.5367  -32.1412   23.7441 O   0  0  0  0  0  0
  -29.9390  -16.8736   21.0958 C   0  0  0  0  0  0
  -29.8229  -19.2461   20.5261 C   0  0  0  0  0  0
  -32.2706  -22.3493   19.9663 C   0  0  0  0  0  0
  -31.5203  -21.6619   22.2822 C   0  0  0  0  0  0
  -29.2485  -24.4087   19.3565 C   0  0  0  0  0  0
  -28.3160  -25.1931   20.3254 C   0  0  0  0  0  0
  -31.1246  -22.4071   20.9959 C   0  0  0  0  0  0
  -29.7620  -21.9242   20.4312 C   0  0  1  0  0  0
  -29.2062  -22.8355   19.2811 C   0  0  1  0  0  0
  -29.3215  -17.6092   22.0357 N   0  0  0  0  0  0
  -29.2748  -18.9726   21.7186 N   0  0  0  0  0  0
  -29.9733  -15.4522   21.2659 N   0  0  0  0  0  0
  -29.8722  -20.5290   19.9538 N   0  0  0  0  0  0
  -27.8934  -22.3775   19.0412 O   0  0  0  0  0  0
  -30.5078  -17.8227   19.7085 S   0  0  0  0  0  0
  -31.4767  -12.4569   19.1258 H   0  0  0  0  0  0
  -30.3559  -11.3213   19.8211 H   0  0  0  0  0  0
  -29.7481  -11.7950   17.4346 H   0  0  0  0  0  0
  -29.6588  -13.5049   17.7713 H   0  0  0  0  0  0
  -27.8379  -11.3111   18.8167 H   0  0  0  0  0  0
  -27.3710  -12.6405   17.7893 H   0  0  0  0  0  0
  -27.7086  -14.2542   19.5839 H   0  0  0  0  0  0
  -28.6886  -11.9365   21.3197 H   0  0  0  0  0  0
  -28.4466  -13.5534   21.8889 H   0  0  0  0  0  0
  -25.2748   -9.5691   22.4751 H   0  0  0  0  0  0
  -24.0001   -7.4633   22.7466 H   0  0  0  0  0  0
  -21.0832   -8.8750   19.8955 H   0  0  0  0  0  0
  -22.3673  -10.9653   19.6153 H   0  0  0  0  0  0
  -21.2002   -7.6143   23.9712 H   0  0  0  0  0  0
  -21.1485   -6.0521   25.9077 H   0  0  0  0  0  0
  -22.0599   -2.7606   23.2849 H   0  0  0  0  0  0
  -22.4103  -11.9889   22.4780 H   0  0  0  0  0  0
  -21.1114  -13.1261   22.2600 H   0  0  0  0  0  0
  -24.6705  -15.8462   20.5238 H   0  0  0  0  0  0
  -26.2908  -15.6260   20.0996 H   0  0  0  0  0  0
  -26.7129  -32.5500   23.1128 H   0  0  0  0  0  0
  -25.0037  -33.9749   25.0431 H   0  0  0  0  0  0
  -22.6995  -31.3065   21.4062 H   0  0  0  0  0  0
  -23.3751  -35.9638   23.3287 H   0  0  0  0  0  0
  -24.3584  -36.8940   22.2055 H   0  0  0  0  0  0
  -23.7236  -37.6505   23.6664 H   0  0  0  0  0  0
  -26.0614  -31.5827   20.5983 H   0  0  0  0  0  0
  -26.8261  -30.8681   21.9888 H   0  0  0  0  0  0
  -28.1069  -29.0657   21.1646 H   0  0  0  0  0  0
  -26.0377  -25.9680   18.9810 H   0  0  0  0  0  0
  -23.9818  -27.2987   19.0181 H   0  0  0  0  0  0
  -23.7278  -30.5927   19.4025 H   0  0  0  0  0  0
  -22.7420  -29.2395   19.8674 H   0  0  0  0  0  0
  -25.1283  -36.1949   25.0824 H   0  0  0  0  0  0
  -20.9970  -28.3238   24.1424 H   0  0  0  0  0  0
  -20.5661  -26.2274   23.3604 H   0  0  0  0  0  0
  -21.6635  -26.7434   22.1213 H   0  0  0  0  0  0
  -19.6905  -25.6299   21.1229 H   0  0  0  0  0  0
  -19.6684  -27.3203   20.6746 H   0  0  0  0  0  0
  -17.4191  -26.6669   21.4027 H   0  0  0  0  0  0
  -18.0329  -26.0061   22.9018 H   0  0  0  0  0  0
  -19.7930  -30.7250   24.2290 H   0  0  0  0  0  0
  -17.5014  -31.6264   24.5164 H   0  0  0  0  0  0
  -15.5348  -30.2992   23.7641 H   0  0  0  0  0  0
  -15.8665  -28.0828   22.7049 H   0  0  0  0  0  0
  -24.5885  -30.7087   25.7792 H   0  0  0  0  0  0
  -24.8942  -32.2884   26.4920 H   0  0  0  0  0  0
  -25.8072  -30.8867   27.0210 H   0  0  0  0  0  0
  -26.2861  -29.6791   24.1170 H   0  0  0  0  0  0
  -27.4047  -29.7273   25.4602 H   0  0  0  0  0  0
  -27.8711  -30.4333   23.9302 H   0  0  0  0  0  0
  -27.2643  -33.3611   26.2084 H   0  0  0  0  0  0
  -28.3840  -32.6906   25.0312 H   0  0  0  0  0  0
  -28.0716  -31.8437   26.5388 H   0  0  0  0  0  0
  -28.2576  -38.0121   24.7541 H   0  0  0  0  0  0
  -28.1101  -36.2655   24.6226 H   0  0  0  0  0  0
  -27.2309  -37.1389   25.8859 H   0  0  0  0  0  0
  -20.9300  -29.8755   21.6929 H   0  0  0  0  0  0
  -26.0167  -38.2863   24.1437 H   0  0  0  0  0  0
  -33.1898  -22.7614   20.3833 H   0  0  0  0  0  0
  -32.0422  -22.9259   19.0704 H   0  0  0  0  0  0
  -32.4867  -21.3261   19.6569 H   0  0  0  0  0  0
  -32.4095  -22.1040   22.7327 H   0  0  0  0  0  0
  -31.7423  -20.6119   22.0916 H   0  0  0  0  0  0
  -30.7226  -21.7044   23.0246 H   0  0  0  0  0  0
  -30.2757  -24.7318   19.5239 H   0  0  0  0  0  0
  -29.0147  -24.7677   18.3537 H   0  0  0  0  0  0
  -28.6237  -24.9929   21.3519 H   0  0  0  0  0  0
  -27.3030  -24.8023   20.2525 H   0  0  0  0  0  0
  -31.0020  -23.4501   21.2897 H   0  0  0  0  0  0
  -29.0450  -21.9442   21.2548 H   0  0  0  0  0  0
  -29.7804  -22.5864   18.3866 H   0  0  0  0  0  0
  -29.2285  -15.0853   21.8352 H   0  0  0  0  0  0
  -30.2945  -20.4897   19.0336 H   0  0  0  0  0  0
  -27.9397  -21.4299   19.1536 H   0  0  0  0  0  0
  1 25  1  0  0  0
  1 30  2  0  0  0
  1 82  1  0  0  0
  2  3  1  0  0  0
  2 25  1  0  0  0
  2 86  1  0  0  0
  2 87  1  0  0  0
  3  4  1  0  0  0
  3 88  1  0  0  0
  3 89  1  0  0  0
  4  5  1  0  0  0
  4 90  1  0  0  0
  4 91  1  0  0  0
  5  6  1  0  0  0
  5 26  1  0  0  0
  5 92  1  0  0  0
  6 25  1  0  0  0
  6 93  1  0  0  0
  6 94  1  0  0  0
  7  8  2  0  0  0
  7 26  1  0  0  0
  7 29  1  0  0  0
  8  9  1  0  0  0
  8 22  1  0  0  0
  9 10  1  0  0  0
  9 27  2  0  0  0
 10 11  2  0  0  0
 10 15  1  0  0  0
 11 12  1  0  0  0
 11 95  1  0  0  0
 12 13  2  0  0  0
 12 96  1  0  0  0
 13 14  1  0  0  0
 13 31  1  0  0  0
 14 15  2  0  0  0
 14 97  1  0  0  0
 15 98  1  0  0  0
 16 17  2  0  0  0
 16 21  1  0  0  0
 16 31  1  0  0  0
 17 18  1  0  0  0
 17 99  1  0  0  0
 18 19  2  0  0  0
 18100  1  0  0  0
 19 20  1  0  0  0
 19 24  1  0  0  0
 20 21  2  0  0  0
 20101  1  0  0  0
 21 23  1  0  0  0
 22 28  1  0  0  0
 22 32  2  0  0  0
 26 27  1  0  0  0
 28102  1  0  0  0
 28103  1  0  0  0
 29104  1  0  0  0
 29105  1  0  0  0
 33 34  1  0  0  0
 33 66  1  0  0  0
 33 70  2  0  0  0
 34 36  1  0  0  0
 34 59  1  0  0  0
 34106  1  0  0  0
 35 44  2  0  0  0
 35 45  1  0  0  0
 35 68  1  0  0  0
 36 56  1  0  0  0
 36107  1  0  0  0
 37 39  1  0  0  0
 37 47  1  0  0  0
 37 66  1  0  0  0
 37108  1  0  0  0
 38 43  2  0  0  0
 38 46  1  0  0  0
 38 47  1  0  0  0
 39 64  1  0  0  0
 39 67  2  0  0  0
 40 52  1  0  0  0
 40 53  2  0  0  0
 40 58  1  0  0  0
 41109  1  0  0  0
 41110  1  0  0  0
 41111  1  0  0  0
 41 48  1  0  0  0
 42 43  1  0  0  0
 42 66  1  0  0  0
 42112  1  0  0  0
 42113  1  0  0  0
 43 44  1  0  0  0
 44114  1  0  0  0
 45 46  2  0  0  0
 45115  1  0  0  0
 46116  1  0  0  0
 47117  1  0  0  0
 47118  1  0  0  0
 48 56  1  0  0  0
 48 65  1  0  0  0
 48119  1  0  0  0
 49 50  1  0  0  0
 49 53  1  0  0  0
 49 64  1  0  0  0
 49120  1  0  0  0
 50 51  1  0  0  0
 50121  1  0  0  0
 50122  1  0  0  0
 51 52  1  0  0  0
 51123  1  0  0  0
 51124  1  0  0  0
 52125  1  0  0  0
 52126  1  0  0  0
 53 54  1  0  0  0
 54 55  2  0  0  0
 54127  1  0  0  0
 55 57  1  0  0  0
 55128  1  0  0  0
 56 69  2  0  0  0
 57 58  2  0  0  0
 57129  1  0  0  0
 58130  1  0  0  0
 59 60  1  0  0  0
 59 61  1  0  0  0
 59 62  1  0  0  0
 60131  1  0  0  0
 60132  1  0  0  0
 60133  1  0  0  0
 61134  1  0  0  0
 61135  1  0  0  0
 61136  1  0  0  0
 62137  1  0  0  0
 62138  1  0  0  0
 62139  1  0  0  0
 63 65  1  0  0  0
 63140  1  0  0  0
 63141  1  0  0  0
 63142  1  0  0  0
 64143  1  0  0  0
 65144  1  0  0  0
 68 76  1  0  0  0
 71 80  2  0  0  0
 71 82  1  0  0  0
 71 85  1  0  0  0
 72 81  2  0  0  0
 72 83  1  0  0  0
 72 85  1  0  0  0
 73145  1  0  0  0
 73146  1  0  0  0
 73147  1  0  0  0
 73 77  1  0  0  0
 74 77  1  0  0  0
 74148  1  0  0  0
 74149  1  0  0  0
 74150  1  0  0  0
 75 76  1  0  0  0
 75 79  1  0  0  0
 75151  1  0  0  0
 75152  1  0  0  0
 76153  1  0  0  0
 76154  1  0  0  0
 77 78  1  0  0  0
 77155  1  0  0  0
 78 79  1  0  0  0
 78 83  1  0  0  0
 78156  1  0  0  0
 79 84  1  0  0  0
 79157  1  0  0  0
 80 81  1  0  0  0
 82158  1  0  0  0
 83159  1  0  0  0
 84160  1  0  0  0
M  ISO  4   1 100  68 101  76 101  82 100
M  END
> <chiral flag>
0

> <version>
0

> <s_m_source_file>
/data/baiqing/PycharmProjects/Reinvent-master-3.2/result/LINK_invent/BTK/process_docking_weight1_custom_product_contain_oxygen_bond_distance_aromatic_linkinvent_7_9_3/rearranged_h_0191.sdf

> <i_m_source_file_index>
81

> <r_mmod_Potential_Energy-OPLS-2005>
-197.246551513672

> <r_mmod_Stretch_Energy-OPLS-2005>
46.719970703125

> <r_mmod_Bend_Energy-OPLS-2005>
128.840072631836

> <r_mmod_Torsional_Energy-OPLS-2005>
259.316680908203

> <r_mmod_Improper_Torsional_Energy-OPLS-2005>
3.77757859230042

> <r_mmod_Van_der_Waal_Energy-OPLS-2005>
122.641403198242

> <r_mmod_Electrostatic_Energy-OPLS-2005>
-541.595703125

> <r_mmod_Solvation_Energy-OPLS-2005>
-235.464080810547

> <b_mmod_Minimization_Converged-OPLS-2005>
0

> <r_mmod_RMS_Derivative-OPLS-2005>
0.697781205177307

$$$$
83
                    3D
 Structure written by MMmdl.
158166  0  0  1  0            999 V2000
  -30.6373  -14.5559   20.5347 C   0  0  0  0  0  0
  -30.4352  -12.3464   19.4518 C   0  0  0  0  0  0
  -29.5086  -12.5037   18.2243 C   0  0  0  0  0  0
  -28.0289  -12.3547   18.6290 C   0  0  0  0  0  0
  -27.6610  -13.2077   19.8719 C   0  0  2  0  0  0
  -28.6981  -13.0243   21.0043 C   0  0  0  0  0  0
  -25.2599  -13.8170   20.5704 C   0  0  0  0  0  0
  -24.1851  -13.0449   20.9188 C   0  0  0  0  0  0
  -24.6403  -11.6911   20.8739 C   0  0  0  0  0  0
  -23.9077  -10.4303   21.0403 C   0  0  0  0  0  0
  -24.3620   -9.4218   21.9194 C   0  0  0  0  0  0
  -23.6299   -8.2249   22.0750 C   0  0  0  0  0  0
  -22.4275   -8.0292   21.3547 C   0  0  0  0  0  0
  -21.9927   -9.0262   20.4641 C   0  0  0  0  0  0
  -22.7242  -10.2144   20.3065 C   0  0  0  0  0  0
  -21.6864   -6.0754   22.5282 C   0  0  0  0  0  0
  -21.4006   -6.5648   23.8220 C   0  0  0  0  0  0
  -21.3651   -5.6795   24.9179 C   0  0  0  0  0  0
  -21.6045   -4.3062   24.7227 C   0  0  0  0  0  0
  -21.8823   -3.8159   23.4345 C   0  0  0  0  0  0
  -21.9188   -4.6980   22.3401 C   0  0  0  0  0  0
  -22.7879  -13.5243   21.1864 C   0  0  0  0  0  0
  -22.1666   -4.2172   21.0986 F   0  0  0  0  0  0
  -21.5624   -3.4542   25.7740 F   0  0  0  0  0  0
  -30.0222  -13.3420   20.4569 N   0  0  0  0  0  0
  -26.3017  -12.9328   20.3347 N   0  0  0  0  0  0
  -25.9333  -11.6491   20.5763 N   0  0  0  0  0  0
  -22.0503  -12.8235   22.0385 N   0  0  0  0  0  0
  -25.4340  -15.1891   20.4119 N   0  0  0  0  0  0
  -31.7835  -14.7366   20.1101 O   0  0  0  0  0  0
  -21.6626   -6.8886   21.4244 O   0  0  0  0  0  0
  -22.3589  -14.5556   20.6707 O   0  0  0  0  0  0
  -24.6203  -31.8667   23.2048 C   0  0  0  0  0  0
  -25.9078  -32.4818   23.8362 C   0  0  1  0  0  0
  -27.2293  -27.3810   20.1240 C   0  0  0  0  0  0
  -25.5931  -33.8607   24.2308 N   0  0  0  0  0  0
  -23.4117  -30.4848   21.5492 C   0  0  2  0  0  0
  -24.8561  -28.9373   20.1226 C   0  0  0  0  0  0
  -22.7437  -29.4652   22.4995 C   0  0  0  0  0  0
  -18.0277  -28.1380   22.8481 C   0  0  0  0  0  0
  -24.1497  -36.7313   23.2642 C   0  0  0  0  0  0
  -25.9427  -30.8147   21.3638 C   0  0  0  0  0  0
  -26.0192  -29.4427   20.7170 C   0  0  0  0  0  0
  -27.2117  -28.6731   20.7064 C   0  0  0  0  0  0
  -26.0537  -26.8987   19.5180 C   0  0  0  0  0  0
  -24.8694  -27.6661   19.5186 C   0  0  0  0  0  0
  -23.6228  -29.8137   20.1677 C   0  0  0  0  0  0
  -25.4128  -36.3117   24.0336 C   0  0  1  0  0  0
  -20.5879  -28.3692   23.1303 C   0  0  2  0  0  0
  -20.6788  -26.9432   22.5414 C   0  0  0  0  0  0
  -19.5756  -26.6397   21.5226 C   0  0  0  0  0  0
  -18.1924  -26.7918   22.1619 C   0  0  0  0  0  0
  -19.1524  -28.8842   23.2878 C   0  0  0  0  0  0
  -18.9457  -30.1428   23.8911 C   0  0  0  0  0  0
  -17.6468  -30.6589   24.0553 C   0  0  0  0  0  0
  -25.9072  -34.9480   23.5149 C   0  0  0  0  0  0
  -16.5360  -29.9080   23.6312 C   0  0  0  0  0  0
  -16.7271  -28.6502   23.0329 C   0  0  0  0  0  0
  -26.4464  -31.6611   25.0712 C   0  0  0  0  0  0
  -25.3695  -31.3712   26.1451 C   0  0  0  0  0  0
  -27.0326  -30.3070   24.6076 C   0  0  0  0  0  0
  -27.6042  -32.4336   25.7457 C   0  0  0  0  0  0
  -27.5569  -37.1798   24.8453 C   0  0  0  0  0  0
  -21.4174  -29.3047   22.3711 N   0  0  0  0  0  0
  -26.4315  -37.3790   23.9385 N   0  0  0  0  0  0
  -24.6771  -31.0705   22.0988 N   0  0  0  0  0  0
  -23.4150  -28.8192   23.3078 O   0  0  0  0  0  0
  -28.3860  -26.6234   20.0815 O   0  0  0  0  0  0
  -26.5622  -34.8937   22.4692 O   0  0  0  0  0  0
  -23.5388  -32.1460   23.7425 O   0  0  0  0  0  0
  -28.4638  -17.9764   22.1774 C   0  0  0  0  0  0
  -29.1929  -18.0857   21.0176 C   0  0  0  0  0  0
  -28.4333  -20.2715   21.2372 C   0  0  0  0  0  0
  -29.3631  -16.8855   18.8305 C   0  0  0  0  0  0
  -29.3480  -22.2936   18.8746 C   0  0  0  0  0  0
  -28.4304  -25.3696   20.8201 C   0  0  0  0  0  0
  -29.9249  -16.9662   20.2627 C   0  0  2  0  0  0
  -28.8473  -22.7563   20.2525 C   0  0  1  0  0  0
  -27.9459  -24.0548   20.0953 C   0  0  1  0  0  0
  -29.2039  -19.4211   20.5346 N   0  0  0  0  0  0
  -28.1936  -21.6378   20.9732 N   0  0  0  0  0  0
  -29.8285  -15.6014   20.8506 N   0  0  0  0  0  0
  -26.6350  -23.7069   20.5105 O   0  0  0  0  0  0
  -27.6916  -19.4846   22.6251 S   0  0  0  0  0  0
  -31.4784  -12.4688   19.1503 H   0  0  0  0  0  0
  -30.3630  -11.3401   19.8668 H   0  0  0  0  0  0
  -29.7631  -11.7624   17.4648 H   0  0  0  0  0  0
  -29.6678  -13.4800   17.7629 H   0  0  0  0  0  0
  -27.8484  -11.3008   18.8405 H   0  0  0  0  0  0
  -27.3803  -12.6149   17.7922 H   0  0  0  0  0  0
  -27.6911  -14.2492   19.5518 H   0  0  0  0  0  0
  -28.6887  -11.9977   21.3741 H   0  0  0  0  0  0
  -28.4543  -13.6488   21.8652 H   0  0  0  0  0  0
  -25.2774   -9.5693   22.4770 H   0  0  0  0  0  0
  -24.0014   -7.4640   22.7477 H   0  0  0  0  0  0
  -21.0869   -8.8788   19.8943 H   0  0  0  0  0  0
  -22.3719  -10.9691   19.6178 H   0  0  0  0  0  0
  -21.1995   -7.6160   23.9737 H   0  0  0  0  0  0
  -21.1469   -6.0523   25.9087 H   0  0  0  0  0  0
  -22.0602   -2.7629   23.2840 H   0  0  0  0  0  0
  -22.4097  -11.9888   22.4772 H   0  0  0  0  0  0
  -21.1120  -13.1276   22.2561 H   0  0  0  0  0  0
  -24.6683  -15.8438   20.5260 H   0  0  0  0  0  0
  -26.2825  -15.6291   20.0782 H   0  0  0  0  0  0
  -26.7131  -32.5541   23.1109 H   0  0  0  0  0  0
  -25.0061  -33.9758   25.0435 H   0  0  0  0  0  0
  -22.7119  -31.3081   21.4038 H   0  0  0  0  0  0
  -23.3771  -35.9627   23.3334 H   0  0  0  0  0  0
  -24.3592  -36.8929   22.2048 H   0  0  0  0  0  0
  -23.7235  -37.6516   23.6661 H   0  0  0  0  0  0
  -26.0500  -31.5746   20.5909 H   0  0  0  0  0  0
  -26.8314  -30.8789   21.9778 H   0  0  0  0  0  0
  -28.1141  -29.0633   21.1593 H   0  0  0  0  0  0
  -26.0560  -25.9318   19.0393 H   0  0  0  0  0  0
  -23.9770  -27.2711   19.0564 H   0  0  0  0  0  0
  -23.7367  -30.5864   19.4055 H   0  0  0  0  0  0
  -22.7437  -29.2381   19.8729 H   0  0  0  0  0  0
  -25.1285  -36.1980   25.0823 H   0  0  0  0  0  0
  -20.9939  -28.3276   24.1440 H   0  0  0  0  0  0
  -20.5764  -26.2308   23.3620 H   0  0  0  0  0  0
  -21.6645  -26.7511   22.1172 H   0  0  0  0  0  0
  -19.6982  -25.6318   21.1241 H   0  0  0  0  0  0
  -19.6695  -27.3227   20.6780 H   0  0  0  0  0  0
  -17.4217  -26.6679   21.4017 H   0  0  0  0  0  0
  -18.0278  -26.0080   22.9018 H   0  0  0  0  0  0
  -19.7950  -30.7197   24.2323 H   0  0  0  0  0  0
  -17.5039  -31.6265   24.5139 H   0  0  0  0  0  0
  -15.5348  -30.2966   23.7666 H   0  0  0  0  0  0
  -15.8695  -28.0825   22.7029 H   0  0  0  0  0  0
  -24.5895  -30.7054   25.7744 H   0  0  0  0  0  0
  -24.8851  -32.2863   26.4870 H   0  0  0  0  0  0
  -25.8031  -30.8878   27.0226 H   0  0  0  0  0  0
  -26.2872  -29.6808   24.1174 H   0  0  0  0  0  0
  -27.4177  -29.7324   25.4513 H   0  0  0  0  0  0
  -27.8658  -30.4428   23.9184 H   0  0  0  0  0  0
  -27.2694  -33.3676   26.1978 H   0  0  0  0  0  0
  -28.3843  -32.6851   25.0258 H   0  0  0  0  0  0
  -28.0701  -31.8494   26.5400 H   0  0  0  0  0  0
  -28.2588  -38.0093   24.7529 H   0  0  0  0  0  0
  -28.1093  -36.2639   24.6285 H   0  0  0  0  0  0
  -27.2306  -37.1428   25.8865 H   0  0  0  0  0  0
  -20.9388  -29.8739   21.6889 H   0  0  0  0  0  0
  -26.0242  -38.2884   24.1383 H   0  0  0  0  0  0
  -28.3091  -17.0949   22.7863 H   0  0  0  0  0  0
  -29.4626  -17.8403   18.3155 H   0  0  0  0  0  0
  -28.3040  -16.6275   18.8390 H   0  0  0  0  0  0
  -29.8847  -16.1408   18.2262 H   0  0  0  0  0  0
  -29.8964  -23.0848   18.3614 H   0  0  0  0  0  0
  -28.5214  -21.9946   18.2277 H   0  0  0  0  0  0
  -30.0317  -21.4494   18.9528 H   0  0  0  0  0  0
  -29.4905  -25.2446   21.0446 H   0  0  0  0  0  0
  -27.9522  -25.4865   21.7941 H   0  0  0  0  0  0
  -30.9828  -17.2295   20.2010 H   0  0  0  0  0  0
  -29.7207  -23.0257   20.8511 H   0  0  0  0  0  0
  -27.8879  -24.2968   19.0328 H   0  0  0  0  0  0
  -27.4968  -22.0204   21.6092 H   0  0  0  0  0  0
  -28.9364  -15.3557   21.2478 H   0  0  0  0  0  0
  -26.4474  -22.8733   20.0819 H   0  0  0  0  0  0
  1 25  1  0  0  0
  1 30  2  0  0  0
  1 82  1  0  0  0
  2  3  1  0  0  0
  2 25  1  0  0  0
  2 85  1  0  0  0
  2 86  1  0  0  0
  3  4  1  0  0  0
  3 87  1  0  0  0
  3 88  1  0  0  0
  4  5  1  0  0  0
  4 89  1  0  0  0
  4 90  1  0  0  0
  5  6  1  0  0  0
  5 26  1  0  0  0
  5 91  1  0  0  0
  6 25  1  0  0  0
  6 92  1  0  0  0
  6 93  1  0  0  0
  7  8  2  0  0  0
  7 26  1  0  0  0
  7 29  1  0  0  0
  8  9  1  0  0  0
  8 22  1  0  0  0
  9 10  1  0  0  0
  9 27  2  0  0  0
 10 11  2  0  0  0
 10 15  1  0  0  0
 11 12  1  0  0  0
 11 94  1  0  0  0
 12 13  2  0  0  0
 12 95  1  0  0  0
 13 14  1  0  0  0
 13 31  1  0  0  0
 14 15  2  0  0  0
 14 96  1  0  0  0
 15 97  1  0  0  0
 16 17  2  0  0  0
 16 21  1  0  0  0
 16 31  1  0  0  0
 17 18  1  0  0  0
 17 98  1  0  0  0
 18 19  2  0  0  0
 18 99  1  0  0  0
 19 20  1  0  0  0
 19 24  1  0  0  0
 20 21  2  0  0  0
 20100  1  0  0  0
 21 23  1  0  0  0
 22 28  1  0  0  0
 22 32  2  0  0  0
 26 27  1  0  0  0
 28101  1  0  0  0
 28102  1  0  0  0
 29103  1  0  0  0
 29104  1  0  0  0
 33 34  1  0  0  0
 33 66  1  0  0  0
 33 70  2  0  0  0
 34 36  1  0  0  0
 34 59  1  0  0  0
 34105  1  0  0  0
 35 44  2  0  0  0
 35 45  1  0  0  0
 35 68  1  0  0  0
 36 56  1  0  0  0
 36106  1  0  0  0
 37 39  1  0  0  0
 37 47  1  0  0  0
 37 66  1  0  0  0
 37107  1  0  0  0
 38 43  2  0  0  0
 38 46  1  0  0  0
 38 47  1  0  0  0
 39 64  1  0  0  0
 39 67  2  0  0  0
 40 52  1  0  0  0
 40 53  2  0  0  0
 40 58  1  0  0  0
 41108  1  0  0  0
 41109  1  0  0  0
 41110  1  0  0  0
 41 48  1  0  0  0
 42 43  1  0  0  0
 42 66  1  0  0  0
 42111  1  0  0  0
 42112  1  0  0  0
 43 44  1  0  0  0
 44113  1  0  0  0
 45 46  2  0  0  0
 45114  1  0  0  0
 46115  1  0  0  0
 47116  1  0  0  0
 47117  1  0  0  0
 48 56  1  0  0  0
 48 65  1  0  0  0
 48118  1  0  0  0
 49 50  1  0  0  0
 49 53  1  0  0  0
 49 64  1  0  0  0
 49119  1  0  0  0
 50 51  1  0  0  0
 50120  1  0  0  0
 50121  1  0  0  0
 51 52  1  0  0  0
 51122  1  0  0  0
 51123  1  0  0  0
 52124  1  0  0  0
 52125  1  0  0  0
 53 54  1  0  0  0
 54 55  2  0  0  0
 54126  1  0  0  0
 55 57  1  0  0  0
 55127  1  0  0  0
 56 69  2  0  0  0
 57 58  2  0  0  0
 57128  1  0  0  0
 58129  1  0  0  0
 59 60  1  0  0  0
 59 61  1  0  0  0
 59 62  1  0  0  0
 60130  1  0  0  0
 60131  1  0  0  0
 60132  1  0  0  0
 61133  1  0  0  0
 61134  1  0  0  0
 61135  1  0  0  0
 62136  1  0  0  0
 62137  1  0  0  0
 62138  1  0  0  0
 63 65  1  0  0  0
 63139  1  0  0  0
 63140  1  0  0  0
 63141  1  0  0  0
 64142  1  0  0  0
 65143  1  0  0  0
 68 76  1  0  0  0
 71 72  2  0  0  0
 71 84  1  0  0  0
 71144  1  0  0  0
 72 77  1  0  0  0
 72 80  1  0  0  0
 73 80  2  0  0  0
 73 81  1  0  0  0
 73 84  1  0  0  0
 74145  1  0  0  0
 74146  1  0  0  0
 74147  1  0  0  0
 74 77  1  0  0  0
 75148  1  0  0  0
 75149  1  0  0  0
 75150  1  0  0  0
 75 78  1  0  0  0
 76 79  1  0  0  0
 76151  1  0  0  0
 76152  1  0  0  0
 77 82  1  0  0  0
 77153  1  0  0  0
 78 79  1  0  0  0
 78 81  1  0  0  0
 78154  1  0  0  0
 79 83  1  0  0  0
 79155  1  0  0  0
 81156  1  0  0  0
 82157  1  0  0  0
 83158  1  0  0  0
M  ISO  4   1 100  68 101  76 101  82 100
M  END
> <chiral flag>
0

> <version>
0

> <s_m_source_file>
/data/baiqing/PycharmProjects/Reinvent-master-3.2/result/LINK_invent/BTK/process_docking_weight1_custom_product_contain_oxygen_bond_distance_aromatic_linkinvent_7_9_3/rearranged_h_0191.sdf

> <i_m_source_file_index>
82

> <r_mmod_Potential_Energy-OPLS-2005>
-235.353469848633

> <r_mmod_Stretch_Energy-OPLS-2005>
51.4548721313477

> <r_mmod_Bend_Energy-OPLS-2005>
113.216690063477

> <r_mmod_Torsional_Energy-OPLS-2005>
266.533477783203

> <r_mmod_Improper_Torsional_Energy-OPLS-2005>
8.46906280517578

> <r_mmod_Van_der_Waal_Energy-OPLS-2005>
125.061393737793

> <r_mmod_Electrostatic_Energy-OPLS-2005>
-591.668701171875

> <r_mmod_Solvation_Energy-OPLS-2005>
-232.135894775391

> <b_mmod_Minimization_Converged-OPLS-2005>
0

> <r_mmod_RMS_Derivative-OPLS-2005>
4.46574115753174

$$$$
84
                    3D
 Structure written by MMmdl.
163171  0  0  1  0            999 V2000
  -30.7546  -14.3587   20.6842 C   0  0  0  0  0  0
  -30.4188  -12.2835   19.3858 C   0  0  0  0  0  0
  -29.4849  -12.5344   18.1874 C   0  0  0  0  0  0
  -28.0067  -12.3967   18.5992 C   0  0  0  0  0  0
  -27.6700  -13.2015   19.8818 C   0  0  2  0  0  0
  -28.7075  -12.9149   20.9908 C   0  0  0  0  0  0
  -25.2620  -13.8144   20.5614 C   0  0  0  0  0  0
  -24.1864  -13.0435   20.9165 C   0  0  0  0  0  0
  -24.6403  -11.6909   20.8717 C   0  0  0  0  0  0
  -23.9050  -10.4304   21.0403 C   0  0  0  0  0  0
  -24.3603   -9.4216   21.9187 C   0  0  0  0  0  0
  -23.6295   -8.2243   22.0756 C   0  0  0  0  0  0
  -22.4283   -8.0272   21.3528 C   0  0  0  0  0  0
  -21.9897   -9.0247   20.4636 C   0  0  0  0  0  0
  -22.7216  -10.2143   20.3056 C   0  0  0  0  0  0
  -21.6865   -6.0723   22.5275 C   0  0  0  0  0  0
  -21.4008   -6.5628   23.8203 C   0  0  0  0  0  0
  -21.3663   -5.6781   24.9169 C   0  0  0  0  0  0
  -21.6059   -4.3046   24.7219 C   0  0  0  0  0  0
  -21.8823   -3.8132   23.4340 C   0  0  0  0  0  0
  -21.9192   -4.6947   22.3396 C   0  0  0  0  0  0
  -22.7887  -13.5250   21.1824 C   0  0  0  0  0  0
  -22.1667   -4.2128   21.0976 F   0  0  0  0  0  0
  -21.5638   -3.4538   25.7740 F   0  0  0  0  0  0
  -30.0530  -13.2162   20.4625 N   0  0  0  0  0  0
  -26.3065  -12.9308   20.3368 N   0  0  0  0  0  0
  -25.9326  -11.6471   20.5744 N   0  0  0  0  0  0
  -22.0504  -12.8259   22.0383 N   0  0  0  0  0  0
  -25.4310  -15.1848   20.3887 N   0  0  0  0  0  0
  -31.7652  -14.6702   20.0467 O   0  0  0  0  0  0
  -21.6647   -6.8866   21.4238 O   0  0  0  0  0  0
  -22.3585  -14.5553   20.6668 O   0  0  0  0  0  0
  -24.6109  -31.8699   23.2086 C   0  0  0  0  0  0
  -25.9005  -32.4839   23.8372 C   0  0  1  0  0  0
  -27.2442  -27.4546   20.0939 C   0  0  0  0  0  0
  -25.5859  -33.8638   24.2312 N   0  0  0  0  0  0
  -23.3962  -30.4898   21.5484 C   0  0  2  0  0  0
  -24.8437  -28.9524   20.1147 C   0  0  0  0  0  0
  -22.7367  -29.4668   22.4994 C   0  0  0  0  0  0
  -18.0260  -28.1375   22.8489 C   0  0  0  0  0  0
  -24.1484  -36.7325   23.2633 C   0  0  0  0  0  0
  -25.9198  -30.8388   21.3582 C   0  0  0  0  0  0
  -25.9985  -29.4735   20.7100 C   0  0  0  0  0  0
  -27.1960  -28.7303   20.6966 C   0  0  0  0  0  0
  -26.0736  -26.9439   19.4850 C   0  0  0  0  0  0
  -24.8753  -27.6868   19.4994 C   0  0  0  0  0  0
  -23.6021  -29.8148   20.1647 C   0  0  0  0  0  0
  -25.4110  -36.3121   24.0323 C   0  0  1  0  0  0
  -20.5850  -28.3669   23.1327 C   0  0  2  0  0  0
  -20.6768  -26.9411   22.5422 C   0  0  0  0  0  0
  -19.5750  -26.6390   21.5215 C   0  0  0  0  0  0
  -18.1918  -26.7920   22.1623 C   0  0  0  0  0  0
  -19.1507  -28.8834   23.2913 C   0  0  0  0  0  0
  -18.9446  -30.1439   23.8930 C   0  0  0  0  0  0
  -17.6456  -30.6592   24.0565 C   0  0  0  0  0  0
  -25.9027  -34.9487   23.5121 C   0  0  0  0  0  0
  -16.5342  -29.9099   23.6321 C   0  0  0  0  0  0
  -16.7257  -28.6512   23.0346 C   0  0  0  0  0  0
  -26.4445  -31.6611   25.0696 C   0  0  0  0  0  0
  -25.3703  -31.3711   26.1440 C   0  0  0  0  0  0
  -27.0272  -30.3049   24.6077 C   0  0  0  0  0  0
  -27.6043  -32.4308   25.7473 C   0  0  0  0  0  0
  -27.5585  -37.1807   24.8460 C   0  0  0  0  0  0
  -21.4106  -29.3028   22.3725 N   0  0  0  0  0  0
  -26.4306  -37.3795   23.9399 N   0  0  0  0  0  0
  -24.6600  -31.0798   22.0977 N   0  0  0  0  0  0
  -23.4154  -28.8221   23.3033 O   0  0  0  0  0  0
  -28.4540  -26.7944   20.1138 O   0  0  0  0  0  0
  -26.5616  -34.8936   22.4701 O   0  0  0  0  0  0
  -23.5314  -32.1462   23.7498 O   0  0  0  0  0  0
  -28.4941  -17.3482   20.8733 C   0  0  0  0  0  0
  -29.8349  -17.4790   21.1393 C   0  0  0  0  0  0
  -29.5095  -19.3215   19.8398 C   0  0  0  0  0  0
  -27.5432  -22.8918   17.2287 C   0  0  0  0  0  0
  -30.0589  -21.0176   16.7385 C   0  0  0  0  0  0
  -30.6722  -16.5098   21.9336 C   0  0  0  0  0  0
  -29.2143  -25.0573   18.6291 C   0  0  0  0  0  0
  -29.6857  -23.5945   18.4474 C   0  0  0  0  0  0
  -28.5220  -25.3757   19.9631 C   0  0  0  0  0  0
  -28.5882  -22.5083   18.2931 C   0  0  2  0  0  0
  -29.1544  -21.0918   17.9819 C   0  0  2  0  0  0
  -30.3960  -18.6290   20.5617 N   0  0  0  0  0  0
  -29.8149  -20.4695   19.1216 N   0  0  0  0  0  0
  -30.2736  -15.1314   21.6622 N   0  0  0  0  0  0
  -27.8994  -18.6115   19.8324 S   0  0  0  0  0  0
  -31.4608  -12.3842   19.0774 H   0  0  0  0  0  0
  -30.3149  -11.2562   19.7362 H   0  0  0  0  0  0
  -29.7124  -11.8378   17.3785 H   0  0  0  0  0  0
  -29.6658  -13.5344   17.7881 H   0  0  0  0  0  0
  -27.7995  -11.3377   18.7576 H   0  0  0  0  0  0
  -27.3610  -12.7091   17.7777 H   0  0  0  0  0  0
  -27.7358  -14.2603   19.6300 H   0  0  0  0  0  0
  -28.6671  -11.8609   21.2727 H   0  0  0  0  0  0
  -28.4559  -13.4622   21.8999 H   0  0  0  0  0  0
  -25.2740   -9.5713   22.4760 H   0  0  0  0  0  0
  -24.0002   -7.4644   22.7485 H   0  0  0  0  0  0
  -21.0815   -8.8751   19.8954 H   0  0  0  0  0  0
  -22.3649  -10.9673   19.6164 H   0  0  0  0  0  0
  -21.1996   -7.6138   23.9693 H   0  0  0  0  0  0
  -21.1494   -6.0521   25.9072 H   0  0  0  0  0  0
  -22.0603   -2.7591   23.2851 H   0  0  0  0  0  0
  -22.4091  -11.9936   22.4820 H   0  0  0  0  0  0
  -21.1119  -13.1311   22.2534 H   0  0  0  0  0  0
  -24.6467  -15.8257   20.4438 H   0  0  0  0  0  0
  -26.2426  -15.5940   19.9438 H   0  0  0  0  0  0
  -26.7070  -32.5561   23.1135 H   0  0  0  0  0  0
  -24.9968  -33.9816   25.0425 H   0  0  0  0  0  0
  -22.6843  -31.3058   21.4062 H   0  0  0  0  0  0
  -23.3737  -35.9664   23.3323 H   0  0  0  0  0  0
  -24.3550  -36.8934   22.2040 H   0  0  0  0  0  0
  -23.7259  -37.6537   23.6652 H   0  0  0  0  0  0
  -26.0252  -31.5999   20.5841 H   0  0  0  0  0  0
  -26.8089  -30.8957   21.9731 H   0  0  0  0  0  0
  -28.0897  -29.1318   21.1527 H   0  0  0  0  0  0
  -26.0763  -25.9882   18.9801 H   0  0  0  0  0  0
  -23.9890  -27.2875   19.0241 H   0  0  0  0  0  0
  -23.7012  -30.5859   19.3997 H   0  0  0  0  0  0
  -22.7296  -29.2250   19.8764 H   0  0  0  0  0  0
  -25.1278  -36.1983   25.0810 H   0  0  0  0  0  0
  -20.9947  -28.3236   24.1448 H   0  0  0  0  0  0
  -20.5676  -26.2267   23.3600 H   0  0  0  0  0  0
  -21.6644  -26.7466   22.1211 H   0  0  0  0  0  0
  -19.6933  -25.6305   21.1234 H   0  0  0  0  0  0
  -19.6704  -27.3212   20.6760 H   0  0  0  0  0  0
  -17.4191  -26.6657   21.4019 H   0  0  0  0  0  0
  -18.0339  -26.0045   22.9015 H   0  0  0  0  0  0
  -19.7923  -30.7234   24.2319 H   0  0  0  0  0  0
  -17.5017  -31.6279   24.5158 H   0  0  0  0  0  0
  -15.5347  -30.3030   23.7629 H   0  0  0  0  0  0
  -15.8645  -28.0856   22.7063 H   0  0  0  0  0  0
  -24.5894  -30.7044   25.7764 H   0  0  0  0  0  0
  -24.8871  -32.2868   26.4862 H   0  0  0  0  0  0
  -25.8038  -30.8896   27.0218 H   0  0  0  0  0  0
  -26.2830  -29.6810   24.1130 H   0  0  0  0  0  0
  -27.4028  -29.7275   25.4534 H   0  0  0  0  0  0
  -27.8650  -30.4337   23.9225 H   0  0  0  0  0  0
  -27.2682  -33.3609   26.2078 H   0  0  0  0  0  0
  -28.3858  -32.6874   25.0300 H   0  0  0  0  0  0
  -28.0697  -31.8395   26.5376 H   0  0  0  0  0  0
  -28.2602  -38.0104   24.7517 H   0  0  0  0  0  0
  -28.1077  -36.2638   24.6274 H   0  0  0  0  0  0
  -27.2287  -37.1442   25.8856 H   0  0  0  0  0  0
  -20.9259  -29.8728   21.6939 H   0  0  0  0  0  0
  -26.0195  -38.2870   24.1402 H   0  0  0  0  0  0
  -27.8258  -16.5717   21.2161 H   0  0  0  0  0  0
  -26.9512  -23.7526   17.5383 H   0  0  0  0  0  0
  -26.8398  -22.0765   17.0552 H   0  0  0  0  0  0
  -28.0084  -23.1314   16.2718 H   0  0  0  0  0  0
  -30.3165  -19.9835   16.5047 H   0  0  0  0  0  0
  -30.9959  -21.5582   16.8703 H   0  0  0  0  0  0
  -29.5648  -21.4256   15.8572 H   0  0  0  0  0  0
  -30.5415  -16.6893   23.0018 H   0  0  0  0  0  0
  -31.7369  -16.6484   21.7363 H   0  0  0  0  0  0
  -28.5833  -25.3707   17.7984 H   0  0  0  0  0  0
  -30.1019  -25.6901   18.5610 H   0  0  0  0  0  0
  -30.3481  -23.3200   19.2696 H   0  0  0  0  0  0
  -30.3084  -23.5919   17.5531 H   0  0  0  0  0  0
  -29.1406  -25.0116   20.7839 H   0  0  0  0  0  0
  -27.5679  -24.8614   20.0677 H   0  0  0  0  0  0
  -28.0457  -22.4399   19.2382 H   0  0  0  0  0  0
  -28.2963  -20.4596   17.7557 H   0  0  0  0  0  0
  -30.7593  -20.8026   19.2807 H   0  0  0  0  0  0
  -29.4867  -14.7743   22.1807 H   0  0  0  0  0  0
  1 25  1  0  0  0
  1 30  2  0  0  0
  1 84  1  0  0  0
  2  3  1  0  0  0
  2 25  1  0  0  0
  2 86  1  0  0  0
  2 87  1  0  0  0
  3  4  1  0  0  0
  3 88  1  0  0  0
  3 89  1  0  0  0
  4  5  1  0  0  0
  4 90  1  0  0  0
  4 91  1  0  0  0
  5  6  1  0  0  0
  5 26  1  0  0  0
  5 92  1  0  0  0
  6 25  1  0  0  0
  6 93  1  0  0  0
  6 94  1  0  0  0
  7  8  2  0  0  0
  7 26  1  0  0  0
  7 29  1  0  0  0
  8  9  1  0  0  0
  8 22  1  0  0  0
  9 10  1  0  0  0
  9 27  2  0  0  0
 10 11  2  0  0  0
 10 15  1  0  0  0
 11 12  1  0  0  0
 11 95  1  0  0  0
 12 13  2  0  0  0
 12 96  1  0  0  0
 13 14  1  0  0  0
 13 31  1  0  0  0
 14 15  2  0  0  0
 14 97  1  0  0  0
 15 98  1  0  0  0
 16 17  2  0  0  0
 16 21  1  0  0  0
 16 31  1  0  0  0
 17 18  1  0  0  0
 17 99  1  0  0  0
 18 19  2  0  0  0
 18100  1  0  0  0
 19 20  1  0  0  0
 19 24  1  0  0  0
 20 21  2  0  0  0
 20101  1  0  0  0
 21 23  1  0  0  0
 22 28  1  0  0  0
 22 32  2  0  0  0
 26 27  1  0  0  0
 28102  1  0  0  0
 28103  1  0  0  0
 29104  1  0  0  0
 29105  1  0  0  0
 33 34  1  0  0  0
 33 66  1  0  0  0
 33 70  2  0  0  0
 34 36  1  0  0  0
 34 59  1  0  0  0
 34106  1  0  0  0
 35 44  2  0  0  0
 35 45  1  0  0  0
 35 68  1  0  0  0
 36 56  1  0  0  0
 36107  1  0  0  0
 37 39  1  0  0  0
 37 47  1  0  0  0
 37 66  1  0  0  0
 37108  1  0  0  0
 38 43  2  0  0  0
 38 46  1  0  0  0
 38 47  1  0  0  0
 39 64  1  0  0  0
 39 67  2  0  0  0
 40 52  1  0  0  0
 40 53  2  0  0  0
 40 58  1  0  0  0
 41109  1  0  0  0
 41110  1  0  0  0
 41111  1  0  0  0
 41 48  1  0  0  0
 42 43  1  0  0  0
 42 66  1  0  0  0
 42112  1  0  0  0
 42113  1  0  0  0
 43 44  1  0  0  0
 44114  1  0  0  0
 45 46  2  0  0  0
 45115  1  0  0  0
 46116  1  0  0  0
 47117  1  0  0  0
 47118  1  0  0  0
 48 56  1  0  0  0
 48 65  1  0  0  0
 48119  1  0  0  0
 49 50  1  0  0  0
 49 53  1  0  0  0
 49 64  1  0  0  0
 49120  1  0  0  0
 50 51  1  0  0  0
 50121  1  0  0  0
 50122  1  0  0  0
 51 52  1  0  0  0
 51123  1  0  0  0
 51124  1  0  0  0
 52125  1  0  0  0
 52126  1  0  0  0
 53 54  1  0  0  0
 54 55  2  0  0  0
 54127  1  0  0  0
 55 57  1  0  0  0
 55128  1  0  0  0
 56 69  2  0  0  0
 57 58  2  0  0  0
 57129  1  0  0  0
 58130  1  0  0  0
 59 60  1  0  0  0
 59 61  1  0  0  0
 59 62  1  0  0  0
 60131  1  0  0  0
 60132  1  0  0  0
 60133  1  0  0  0
 61134  1  0  0  0
 61135  1  0  0  0
 61136  1  0  0  0
 62137  1  0  0  0
 62138  1  0  0  0
 62139  1  0  0  0
 63 65  1  0  0  0
 63140  1  0  0  0
 63141  1  0  0  0
 63142  1  0  0  0
 64143  1  0  0  0
 65144  1  0  0  0
 68 79  1  0  0  0
 71 72  2  0  0  0
 71 85  1  0  0  0
 71145  1  0  0  0
 72 76  1  0  0  0
 72 82  1  0  0  0
 73 82  2  0  0  0
 73 83  1  0  0  0
 73 85  1  0  0  0
 74146  1  0  0  0
 74147  1  0  0  0
 74148  1  0  0  0
 74 80  1  0  0  0
 75149  1  0  0  0
 75150  1  0  0  0
 75151  1  0  0  0
 75 81  1  0  0  0
 76 84  1  0  0  0
 76152  1  0  0  0
 76153  1  0  0  0
 77 78  1  0  0  0
 77 79  1  0  0  0
 77154  1  0  0  0
 77155  1  0  0  0
 78 80  1  0  0  0
 78156  1  0  0  0
 78157  1  0  0  0
 79158  1  0  0  0
 79159  1  0  0  0
 80 81  1  0  0  0
 80160  1  0  0  0
 81 83  1  0  0  0
 81161  1  0  0  0
 83162  1  0  0  0
 84163  1  0  0  0
M  ISO  4   1 100  68 101  79 101  84 100
M  END
> <chiral flag>
0

> <version>
0

> <s_m_source_file>
/data/baiqing/PycharmProjects/Reinvent-master-3.2/result/LINK_invent/BTK/process_docking_weight1_custom_product_contain_oxygen_bond_distance_aromatic_linkinvent_7_9_3/rearranged_h_0191.sdf

> <i_m_source_file_index>
83

> <r_mmod_Potential_Energy-OPLS-2005>
-308.438507080078

> <r_mmod_Stretch_Energy-OPLS-2005>
32.8449783325195

> <r_mmod_Bend_Energy-OPLS-2005>
105.279876708984

> <r_mmod_Torsional_Energy-OPLS-2005>
204.958694458008

> <r_mmod_Improper_Torsional_Energy-OPLS-2005>
3.50631880760193

> <r_mmod_Van_der_Waal_Energy-OPLS-2005>
124.076042175293

> <r_mmod_Electrostatic_Energy-OPLS-2005>
-566.743347167969

> <r_mmod_Solvation_Energy-OPLS-2005>
-220.73811340332

> <b_mmod_Minimization_Converged-OPLS-2005>
0

> <r_mmod_RMS_Derivative-OPLS-2005>
2.73347330093384

$$$$
85
                    3D
 Structure written by MMmdl.
161169  0  0  1  0            999 V2000
  -30.6677  -14.4956   20.5828 C   0  0  0  0  0  0
  -30.4342  -12.3237   19.4226 C   0  0  0  0  0  0
  -29.5000  -12.5212   18.2089 C   0  0  0  0  0  0
  -28.0197  -12.3755   18.6172 C   0  0  0  0  0  0
  -27.6639  -13.2041   19.8798 C   0  0  2  0  0  0
  -28.7044  -12.9645   20.9976 C   0  0  0  0  0  0
  -25.2592  -13.8145   20.5666 C   0  0  0  0  0  0
  -24.1852  -13.0431   20.9185 C   0  0  0  0  0  0
  -24.6408  -11.6894   20.8754 C   0  0  0  0  0  0
  -23.9076  -10.4287   21.0423 C   0  0  0  0  0  0
  -24.3626   -9.4201   21.9198 C   0  0  0  0  0  0
  -23.6296   -8.2237   22.0757 C   0  0  0  0  0  0
  -22.4274   -8.0286   21.3548 C   0  0  0  0  0  0
  -21.9921   -9.0260   20.4646 C   0  0  0  0  0  0
  -22.7259  -10.2134   20.3060 C   0  0  0  0  0  0
  -21.6847   -6.0752   22.5291 C   0  0  0  0  0  0
  -21.4013   -6.5654   23.8228 C   0  0  0  0  0  0
  -21.3662   -5.6804   24.9187 C   0  0  0  0  0  0
  -21.6042   -4.3067   24.7230 C   0  0  0  0  0  0
  -21.8814   -3.8162   23.4351 C   0  0  0  0  0  0
  -21.9189   -4.6980   22.3409 C   0  0  0  0  0  0
  -22.7876  -13.5231   21.1844 C   0  0  0  0  0  0
  -22.1650   -4.2167   21.0982 F   0  0  0  0  0  0
  -21.5636   -3.4552   25.7748 F   0  0  0  0  0  0
  -30.0385  -13.2923   20.4574 N   0  0  0  0  0  0
  -26.3037  -12.9315   20.3374 N   0  0  0  0  0  0
  -25.9330  -11.6479   20.5768 N   0  0  0  0  0  0
  -22.0510  -12.8221   22.0392 N   0  0  0  0  0  0
  -25.4307  -15.1857   20.4011 N   0  0  0  0  0  0
  -31.7805  -14.7175   20.0912 O   0  0  0  0  0  0
  -21.6626   -6.8895   21.4252 O   0  0  0  0  0  0
  -22.3571  -14.5549   20.6713 O   0  0  0  0  0  0
  -24.6176  -31.8657   23.2088 C   0  0  0  0  0  0
  -25.9061  -32.4809   23.8375 C   0  0  1  0  0  0
  -27.2396  -27.4150   20.0829 C   0  0  0  0  0  0
  -25.5904  -33.8610   24.2303 N   0  0  0  0  0  0
  -23.4054  -30.4887   21.5517 C   0  0  2  0  0  0
  -24.8501  -28.9492   20.1154 C   0  0  0  0  0  0
  -22.7414  -29.4653   22.5009 C   0  0  0  0  0  0
  -18.0270  -28.1394   22.8503 C   0  0  0  0  0  0
  -24.1483  -36.7310   23.2641 C   0  0  0  0  0  0
  -25.9364  -30.8215   21.3661 C   0  0  0  0  0  0
  -26.0109  -29.4544   20.7117 C   0  0  0  0  0  0
  -27.2026  -28.6913   20.6982 C   0  0  0  0  0  0
  -26.0488  -26.9208   19.5004 C   0  0  0  0  0  0
  -24.8637  -27.6809   19.5117 C   0  0  0  0  0  0
  -23.6134  -29.8191   20.1667 C   0  0  0  0  0  0
  -25.4112  -36.3110   24.0331 C   0  0  1  0  0  0
  -20.5859  -28.3677   23.1329 C   0  0  2  0  0  0
  -20.6768  -26.9415   22.5435 C   0  0  0  0  0  0
  -19.5745  -26.6400   21.5233 C   0  0  0  0  0  0
  -18.1914  -26.7946   22.1629 C   0  0  0  0  0  0
  -19.1519  -28.8855   23.2913 C   0  0  0  0  0  0
  -18.9446  -30.1464   23.8921 C   0  0  0  0  0  0
  -17.6447  -30.6598   24.0578 C   0  0  0  0  0  0
  -25.9038  -34.9473   23.5115 C   0  0  0  0  0  0
  -16.5339  -29.9100   23.6340 C   0  0  0  0  0  0
  -16.7259  -28.6519   23.0359 C   0  0  0  0  0  0
  -26.4477  -31.6609   25.0719 C   0  0  0  0  0  0
  -25.3725  -31.3721   26.1452 C   0  0  0  0  0  0
  -27.0310  -30.3044   24.6117 C   0  0  0  0  0  0
  -27.6026  -32.4353   25.7497 C   0  0  0  0  0  0
  -27.5582  -37.1815   24.8461 C   0  0  0  0  0  0
  -21.4142  -29.3037   22.3733 N   0  0  0  0  0  0
  -26.4291  -37.3798   23.9402 N   0  0  0  0  0  0
  -24.6713  -31.0732   22.1003 N   0  0  0  0  0  0
  -23.4170  -28.8204   23.3071 O   0  0  0  0  0  0
  -28.4209  -26.6914   20.1198 O   0  0  0  0  0  0
  -26.5609  -34.8929   22.4684 O   0  0  0  0  0  0
  -23.5368  -32.1418   23.7482 O   0  0  0  0  0  0
  -30.6225  -18.9664   20.3964 C   0  0  0  0  0  0
  -28.7874  -17.4885   21.6950 C   0  0  0  0  0  0
  -29.4934  -19.5853   20.9945 C   0  0  0  0  0  0
  -29.9061  -16.8548   21.0935 C   0  0  0  0  0  0
  -27.1898  -20.7697   19.4404 C   0  0  0  0  0  0
  -28.0190  -23.1593   19.7051 C   0  0  0  0  0  0
  -28.6885  -25.6489   19.1610 C   0  0  0  0  0  0
  -29.2641  -21.1204   20.9656 C   0  0  1  0  0  0
  -28.4333  -21.6387   19.7353 C   0  0  1  0  0  0
  -29.1114  -24.2692   19.7829 C   0  0  2  0  0  0
  -28.5735  -18.8285   21.6513 N   0  0  0  0  0  0
  -30.8271  -17.6185   20.4409 N   0  0  0  0  0  0
  -29.9368  -15.4312   21.2228 N   0  0  0  0  0  0
  -28.6395  -21.5179   22.2385 N   0  3  0  0  0  0
  -30.2757  -23.8067   19.1175 O   0  0  0  0  0  0
  -31.4786  -12.4392   19.1250 H   0  0  0  0  0  0
  -30.3468  -11.3079   19.8103 H   0  0  0  0  0  0
  -29.7419  -11.8021   17.4258 H   0  0  0  0  0  0
  -29.6673  -13.5094   17.7768 H   0  0  0  0  0  0
  -27.8286  -11.3179   18.8028 H   0  0  0  0  0  0
  -27.3713  -12.6590   17.7876 H   0  0  0  0  0  0
  -27.7114  -14.2557   19.5955 H   0  0  0  0  0  0
  -28.6862  -11.9188   21.3087 H   0  0  0  0  0  0
  -28.4524  -13.5297   21.8953 H   0  0  0  0  0  0
  -25.2776   -9.5672   22.4768 H   0  0  0  0  0  0
  -24.0012   -7.4626   22.7465 H   0  0  0  0  0  0
  -21.0858   -8.8801   19.8938 H   0  0  0  0  0  0
  -22.3748  -10.9683   19.6164 H   0  0  0  0  0  0
  -21.2004   -7.6162   23.9747 H   0  0  0  0  0  0
  -21.1483   -6.0528   25.9094 H   0  0  0  0  0  0
  -22.0584   -2.7622   23.2851 H   0  0  0  0  0  0
  -22.4105  -11.9861   22.4757 H   0  0  0  0  0  0
  -21.1130  -13.1254   22.2589 H   0  0  0  0  0  0
  -24.6555  -15.8356   20.4785 H   0  0  0  0  0  0
  -26.2678  -15.6134   20.0285 H   0  0  0  0  0  0
  -26.7131  -32.5503   23.1138 H   0  0  0  0  0  0
  -25.0039  -33.9759   25.0441 H   0  0  0  0  0  0
  -22.6962  -31.3073   21.4119 H   0  0  0  0  0  0
  -23.3746  -35.9641   23.3305 H   0  0  0  0  0  0
  -24.3566  -36.8929   22.2051 H   0  0  0  0  0  0
  -23.7226  -37.6509   23.6656 H   0  0  0  0  0  0
  -26.0510  -31.5880   20.5985 H   0  0  0  0  0  0
  -26.8247  -30.8734   21.9839 H   0  0  0  0  0  0
  -28.0984  -29.0784   21.1624 H   0  0  0  0  0  0
  -25.9990  -25.9384   19.0564 H   0  0  0  0  0  0
  -23.9666  -27.2759   19.0642 H   0  0  0  0  0  0
  -23.7245  -30.5944   19.4080 H   0  0  0  0  0  0
  -22.7358  -29.2422   19.8692 H   0  0  0  0  0  0
  -25.1300  -36.1964   25.0825 H   0  0  0  0  0  0
  -20.9948  -28.3254   24.1454 H   0  0  0  0  0  0
  -20.5693  -26.2288   23.3624 H   0  0  0  0  0  0
  -21.6635  -26.7475   22.1213 H   0  0  0  0  0  0
  -19.6905  -25.6318   21.1247 H   0  0  0  0  0  0
  -19.6691  -27.3234   20.6779 H   0  0  0  0  0  0
  -17.4201  -26.6738   21.4008 H   0  0  0  0  0  0
  -18.0280  -26.0075   22.9000 H   0  0  0  0  0  0
  -19.7914  -30.7289   24.2293 H   0  0  0  0  0  0
  -17.4991  -31.6276   24.5184 H   0  0  0  0  0  0
  -15.5340  -30.3008   23.7651 H   0  0  0  0  0  0
  -15.8656  -28.0845   22.7060 H   0  0  0  0  0  0
  -24.5899  -30.7075   25.7774 H   0  0  0  0  0  0
  -24.8924  -32.2886   26.4892 H   0  0  0  0  0  0
  -25.8071  -30.8882   27.0209 H   0  0  0  0  0  0
  -26.2860  -29.6813   24.1149 H   0  0  0  0  0  0
  -27.4036  -29.7276   25.4594 H   0  0  0  0  0  0
  -27.8717  -30.4354   23.9299 H   0  0  0  0  0  0
  -27.2605  -33.3642   26.2079 H   0  0  0  0  0  0
  -28.3836  -32.6944   25.0333 H   0  0  0  0  0  0
  -28.0689  -31.8478   26.5416 H   0  0  0  0  0  0
  -28.2604  -38.0108   24.7511 H   0  0  0  0  0  0
  -28.1079  -36.2641   24.6296 H   0  0  0  0  0  0
  -27.2295  -37.1475   25.8862 H   0  0  0  0  0  0
  -20.9315  -29.8721   21.6916 H   0  0  0  0  0  0
  -26.0182  -38.2873   24.1409 H   0  0  0  0  0  0
  -31.3676  -19.5539   19.8799 H   0  0  0  0  0  0
  -28.0388  -16.9083   22.2167 H   0  0  0  0  0  0
  -26.6599  -21.1259   18.5565 H   0  0  0  0  0  0
  -26.4808  -20.7810   20.2681 H   0  0  0  0  0  0
  -27.4523  -19.7305   19.2398 H   0  0  0  0  0  0
  -27.2630  -23.3605   20.4657 H   0  0  0  0  0  0
  -27.4895  -23.3054   18.7627 H   0  0  0  0  0  0
  -27.9315  -25.5247   18.3890 H   0  0  0  0  0  0
  -29.5371  -26.0465   18.6025 H   0  0  0  0  0  0
  -30.2456  -21.5970   20.9375 H   0  0  0  0  0  0
  -29.0816  -21.4809   18.8719 H   0  0  0  0  0  0
  -29.3957  -24.4223   20.8247 H   0  0  0  0  0  0
  -29.1270  -15.0448   21.6810 H   0  0  0  0  0  0
  -27.7726  -21.0208   22.3409 H   0  0  0  0  0  0
  -28.4830  -22.5054   22.2956 H   0  0  0  0  0  0
  -29.2363  -21.2373   22.9955 H   0  0  0  0  0  0
  -30.1267  -23.8766   18.1788 H   0  0  0  0  0  0
  1 25  1  0  0  0
  1 30  2  0  0  0
  1 83  1  0  0  0
  2  3  1  0  0  0
  2 25  1  0  0  0
  2 86  1  0  0  0
  2 87  1  0  0  0
  3  4  1  0  0  0
  3 88  1  0  0  0
  3 89  1  0  0  0
  4  5  1  0  0  0
  4 90  1  0  0  0
  4 91  1  0  0  0
  5  6  1  0  0  0
  5 26  1  0  0  0
  5 92  1  0  0  0
  6 25  1  0  0  0
  6 93  1  0  0  0
  6 94  1  0  0  0
  7  8  2  0  0  0
  7 26  1  0  0  0
  7 29  1  0  0  0
  8  9  1  0  0  0
  8 22  1  0  0  0
  9 10  1  0  0  0
  9 27  2  0  0  0
 10 11  2  0  0  0
 10 15  1  0  0  0
 11 12  1  0  0  0
 11 95  1  0  0  0
 12 13  2  0  0  0
 12 96  1  0  0  0
 13 14  1  0  0  0
 13 31  1  0  0  0
 14 15  2  0  0  0
 14 97  1  0  0  0
 15 98  1  0  0  0
 16 17  2  0  0  0
 16 21  1  0  0  0
 16 31  1  0  0  0
 17 18  1  0  0  0
 17 99  1  0  0  0
 18 19  2  0  0  0
 18100  1  0  0  0
 19 20  1  0  0  0
 19 24  1  0  0  0
 20 21  2  0  0  0
 20101  1  0  0  0
 21 23  1  0  0  0
 22 28  1  0  0  0
 22 32  2  0  0  0
 26 27  1  0  0  0
 28102  1  0  0  0
 28103  1  0  0  0
 29104  1  0  0  0
 29105  1  0  0  0
 33 34  1  0  0  0
 33 66  1  0  0  0
 33 70  2  0  0  0
 34 36  1  0  0  0
 34 59  1  0  0  0
 34106  1  0  0  0
 35 44  2  0  0  0
 35 45  1  0  0  0
 35 68  1  0  0  0
 36 56  1  0  0  0
 36107  1  0  0  0
 37 39  1  0  0  0
 37 47  1  0  0  0
 37 66  1  0  0  0
 37108  1  0  0  0
 38 43  2  0  0  0
 38 46  1  0  0  0
 38 47  1  0  0  0
 39 64  1  0  0  0
 39 67  2  0  0  0
 40 52  1  0  0  0
 40 53  2  0  0  0
 40 58  1  0  0  0
 41109  1  0  0  0
 41110  1  0  0  0
 41111  1  0  0  0
 41 48  1  0  0  0
 42 43  1  0  0  0
 42 66  1  0  0  0
 42112  1  0  0  0
 42113  1  0  0  0
 43 44  1  0  0  0
 44114  1  0  0  0
 45 46  2  0  0  0
 45115  1  0  0  0
 46116  1  0  0  0
 47117  1  0  0  0
 47118  1  0  0  0
 48 56  1  0  0  0
 48 65  1  0  0  0
 48119  1  0  0  0
 49 50  1  0  0  0
 49 53  1  0  0  0
 49 64  1  0  0  0
 49120  1  0  0  0
 50 51  1  0  0  0
 50121  1  0  0  0
 50122  1  0  0  0
 51 52  1  0  0  0
 51123  1  0  0  0
 51124  1  0  0  0
 52125  1  0  0  0
 52126  1  0  0  0
 53 54  1  0  0  0
 54 55  2  0  0  0
 54127  1  0  0  0
 55 57  1  0  0  0
 55128  1  0  0  0
 56 69  2  0  0  0
 57 58  2  0  0  0
 57129  1  0  0  0
 58130  1  0  0  0
 59 60  1  0  0  0
 59 61  1  0  0  0
 59 62  1  0  0  0
 60131  1  0  0  0
 60132  1  0  0  0
 60133  1  0  0  0
 61134  1  0  0  0
 61135  1  0  0  0
 61136  1  0  0  0
 62137  1  0  0  0
 62138  1  0  0  0
 62139  1  0  0  0
 63 65  1  0  0  0
 63140  1  0  0  0
 63141  1  0  0  0
 63142  1  0  0  0
 64143  1  0  0  0
 65144  1  0  0  0
 68 77  1  0  0  0
 71 73  2  0  0  0
 71 82  1  0  0  0
 71145  1  0  0  0
 72 74  1  0  0  0
 72 81  2  0  0  0
 72146  1  0  0  0
 73 78  1  0  0  0
 73 81  1  0  0  0
 74 82  2  0  0  0
 74 83  1  0  0  0
 75147  1  0  0  0
 75148  1  0  0  0
 75149  1  0  0  0
 75 79  1  0  0  0
 76 79  1  0  0  0
 76 80  1  0  0  0
 76150  1  0  0  0
 76151  1  0  0  0
 77 80  1  0  0  0
 77152  1  0  0  0
 77153  1  0  0  0
 78 79  1  0  0  0
 78 84  1  0  0  0
 78154  1  0  0  0
 79155  1  0  0  0
 80 85  1  0  0  0
 80156  1  0  0  0
 83157  1  0  0  0
 84158  1  0  0  0
 84159  1  0  0  0
 84160  1  0  0  0
 85161  1  0  0  0
M  CHG  1  84   1
M  ISO  4   1 100  68 101  77 101  83 100
M  END
> <chiral flag>
0

> <version>
0

> <s_m_source_file>
/data/baiqing/PycharmProjects/Reinvent-master-3.2/result/LINK_invent/BTK/process_docking_weight1_custom_product_contain_oxygen_bond_distance_aromatic_linkinvent_7_9_3/rearranged_h_0191.sdf

> <i_m_source_file_index>
84

> <r_mmod_Potential_Energy-OPLS-2005>
-297.838256835938

> <r_mmod_Stretch_Energy-OPLS-2005>
50.2790565490723

> <r_mmod_Bend_Energy-OPLS-2005>
129.26643371582

> <r_mmod_Torsional_Energy-OPLS-2005>
225.718032836914

> <r_mmod_Improper_Torsional_Energy-OPLS-2005>
3.60505604743958

> <r_mmod_Van_der_Waal_Energy-OPLS-2005>
160.630035400391

> <r_mmod_Electrostatic_Energy-OPLS-2005>
-366.851440429688

> <r_mmod_Solvation_Energy-OPLS-2005>
-515.494079589844

> <b_mmod_Minimization_Converged-OPLS-2005>
0

> <r_mmod_RMS_Derivative-OPLS-2005>
1.38820397853851

$$$$
86
                    3D
 Structure written by MMmdl.
168176  0  0  1  0            999 V2000
  -30.6344  -14.5006   20.6704 C   0  0  0  0  0  0
  -30.4516  -12.3619   19.3970 C   0  0  0  0  0  0
  -29.4991  -12.5500   18.1965 C   0  0  0  0  0  0
  -28.0216  -12.3818   18.6112 C   0  0  0  0  0  0
  -27.6698  -13.1928   19.8864 C   0  0  2  0  0  0
  -28.7141  -12.9025   20.9862 C   0  0  0  0  0  0
  -25.2638  -13.8125   20.5680 C   0  0  0  0  0  0
  -24.1868  -13.0416   20.9158 C   0  0  0  0  0  0
  -24.6402  -11.6883   20.8719 C   0  0  0  0  0  0
  -23.9061  -10.4280   21.0414 C   0  0  0  0  0  0
  -24.3623   -9.4200   21.9190 C   0  0  0  0  0  0
  -23.6296   -8.2239   22.0760 C   0  0  0  0  0  0
  -22.4277   -8.0286   21.3551 C   0  0  0  0  0  0
  -21.9916   -9.0258   20.4643 C   0  0  0  0  0  0
  -22.7242  -10.2140   20.3055 C   0  0  0  0  0  0
  -21.6854   -6.0734   22.5274 C   0  0  0  0  0  0
  -21.4009   -6.5640   23.8206 C   0  0  0  0  0  0
  -21.3670   -5.6795   24.9170 C   0  0  0  0  0  0
  -21.6056   -4.3054   24.7218 C   0  0  0  0  0  0
  -21.8827   -3.8147   23.4335 C   0  0  0  0  0  0
  -21.9194   -4.6964   22.3392 C   0  0  0  0  0  0
  -22.7896  -13.5239   21.1833 C   0  0  0  0  0  0
  -22.1664   -4.2147   21.0977 F   0  0  0  0  0  0
  -21.5635   -3.4545   25.7732 F   0  0  0  0  0  0
  -30.0322  -13.2937   20.4560 N   0  0  0  0  0  0
  -26.3063  -12.9261   20.3405 N   0  0  0  0  0  0
  -25.9327  -11.6433   20.5765 N   0  0  0  0  0  0
  -22.0522  -12.8229   22.0376 N   0  0  0  0  0  0
  -25.4355  -15.1850   20.4120 N   0  0  0  0  0  0
  -31.7098  -14.7950   20.1325 O   0  0  0  0  0  0
  -21.6639   -6.8891   21.4245 O   0  0  0  0  0  0
  -22.3586  -14.5551   20.6700 O   0  0  0  0  0  0
  -24.6148  -31.8671   23.2084 C   0  0  0  0  0  0
  -25.9042  -32.4820   23.8392 C   0  0  1  0  0  0
  -27.2468  -27.4178   20.1067 C   0  0  0  0  0  0
  -25.5890  -33.8621   24.2317 N   0  0  0  0  0  0
  -23.4043  -30.4868   21.5490 C   0  0  2  0  0  0
  -24.8523  -28.9373   20.1285 C   0  0  0  0  0  0
  -22.7413  -29.4657   22.5005 C   0  0  0  0  0  0
  -18.0272  -28.1377   22.8493 C   0  0  0  0  0  0
  -24.1482  -36.7322   23.2642 C   0  0  0  0  0  0
  -25.9335  -30.8252   21.3635 C   0  0  0  0  0  0
  -26.0121  -29.4549   20.7170 C   0  0  0  0  0  0
  -27.2114  -28.7046   20.6948 C   0  0  0  0  0  0
  -26.0623  -26.9058   19.5348 C   0  0  0  0  0  0
  -24.8713  -27.6599   19.5381 C   0  0  0  0  0  0
  -23.6166  -29.8083   20.1682 C   0  0  0  0  0  0
  -25.4108  -36.3116   24.0334 C   0  0  1  0  0  0
  -20.5861  -28.3670   23.1322 C   0  0  2  0  0  0
  -20.6756  -26.9404   22.5424 C   0  0  0  0  0  0
  -19.5738  -26.6382   21.5219 C   0  0  0  0  0  0
  -18.1915  -26.7927   22.1623 C   0  0  0  0  0  0
  -19.1521  -28.8841   23.2900 C   0  0  0  0  0  0
  -18.9457  -30.1447   23.8906 C   0  0  0  0  0  0
  -17.6457  -30.6582   24.0575 C   0  0  0  0  0  0
  -25.9035  -34.9478   23.5121 C   0  0  0  0  0  0
  -16.5347  -29.9092   23.6326 C   0  0  0  0  0  0
  -16.7266  -28.6507   23.0343 C   0  0  0  0  0  0
  -26.4471  -31.6616   25.0737 C   0  0  0  0  0  0
  -25.3737  -31.3710   26.1481 C   0  0  0  0  0  0
  -27.0343  -30.3065   24.6145 C   0  0  0  0  0  0
  -27.6033  -32.4357   25.7494 C   0  0  0  0  0  0
  -27.5584  -37.1814   24.8460 C   0  0  0  0  0  0
  -21.4141  -29.3041   22.3738 N   0  0  0  0  0  0
  -26.4300  -37.3801   23.9409 N   0  0  0  0  0  0
  -24.6692  -31.0748   22.0991 N   0  0  0  0  0  0
  -23.4174  -28.8216   23.3070 O   0  0  0  0  0  0
  -28.4471  -26.7340   20.0462 O   0  0  0  0  0  0
  -26.5613  -34.8925   22.4690 O   0  0  0  0  0  0
  -23.5333  -32.1440   23.7460 O   0  0  0  0  0  0
  -30.0766  -17.9236   22.5657 C   0  0  0  0  0  0
  -30.0923  -17.0277   21.5086 C   0  0  0  0  0  0
  -29.8225  -19.4338   20.8580 C   0  0  0  0  0  0
  -28.6317  -17.7387   24.6189 C   0  0  0  0  0  0
  -31.0595  -18.4626   24.8466 C   0  0  0  0  0  0
  -28.6361  -24.9772   17.8667 C   0  0  0  0  0  0
  -29.7184  -22.5397   21.8486 C   0  0  0  0  0  0
  -29.9194  -15.5133   21.6243 C   0  0  0  0  0  0
  -28.5128  -25.3292   20.3793 C   0  0  0  0  0  0
  -30.0532  -17.6173   24.0476 C   0  0  0  0  0  0
  -28.3500  -24.2882   19.2237 C   0  0  2  0  0  0
  -29.0515  -21.9989   20.5732 C   0  0  1  0  0  0
  -29.2251  -22.9737   19.3488 C   0  0  1  0  0  0
  -29.8904  -19.2611   22.1753 N   0  0  0  0  0  0
  -29.5847  -20.6639   20.2282 N   0  0  0  0  0  0
  -28.9600  -22.1688   18.2009 O   0  0  0  0  0  0
  -29.9996  -17.9025   19.9813 S   0  0  0  0  0  0
  -31.4866  -12.5248   19.0911 H   0  0  0  0  0  0
  -30.4094  -11.3343   19.7608 H   0  0  0  0  0  0
  -29.7506  -11.8471   17.4014 H   0  0  0  0  0  0
  -29.6429  -13.5483   17.7783 H   0  0  0  0  0  0
  -27.8418  -11.3211   18.7892 H   0  0  0  0  0  0
  -27.3653  -12.6675   17.7887 H   0  0  0  0  0  0
  -27.7329  -14.2501   19.6276 H   0  0  0  0  0  0
  -28.7140  -11.8361   21.2171 H   0  0  0  0  0  0
  -28.4561  -13.3740   21.9336 H   0  0  0  0  0  0
  -25.2779   -9.5664   22.4756 H   0  0  0  0  0  0
  -23.9997   -7.4630   22.7491 H   0  0  0  0  0  0
  -21.0845   -8.8800   19.8941 H   0  0  0  0  0  0
  -22.3727  -10.9690   19.6165 H   0  0  0  0  0  0
  -21.1993   -7.6146   23.9704 H   0  0  0  0  0  0
  -21.1495   -6.0525   25.9079 H   0  0  0  0  0  0
  -22.0597   -2.7604   23.2837 H   0  0  0  0  0  0
  -22.4144  -11.9884   22.4751 H   0  0  0  0  0  0
  -21.1144  -13.1272   22.2600 H   0  0  0  0  0  0
  -24.6687  -15.8393   20.5233 H   0  0  0  0  0  0
  -26.2949  -15.6263   20.1093 H   0  0  0  0  0  0
  -26.7114  -32.5525   23.1154 H   0  0  0  0  0  0
  -25.0023  -33.9785   25.0451 H   0  0  0  0  0  0
  -22.6928  -31.3029   21.4033 H   0  0  0  0  0  0
  -23.3748  -35.9649   23.3307 H   0  0  0  0  0  0
  -24.3565  -36.8951   22.2055 H   0  0  0  0  0  0
  -23.7226  -37.6518   23.6673 H   0  0  0  0  0  0
  -26.0452  -31.5885   20.5923 H   0  0  0  0  0  0
  -26.8202  -30.8825   21.9843 H   0  0  0  0  0  0
  -28.1112  -29.1105   21.1353 H   0  0  0  0  0  0
  -26.0587  -25.9347   19.0644 H   0  0  0  0  0  0
  -23.9771  -27.2505   19.0891 H   0  0  0  0  0  0
  -23.7326  -30.5775   19.4039 H   0  0  0  0  0  0
  -22.7395  -29.2303   19.8709 H   0  0  0  0  0  0
  -25.1284  -36.1976   25.0831 H   0  0  0  0  0  0
  -20.9948  -28.3235   24.1448 H   0  0  0  0  0  0
  -20.5655  -26.2288   23.3619 H   0  0  0  0  0  0
  -21.6630  -26.7443   22.1226 H   0  0  0  0  0  0
  -19.6897  -25.6297   21.1247 H   0  0  0  0  0  0
  -19.6665  -27.3192   20.6749 H   0  0  0  0  0  0
  -17.4193  -26.6700   21.4014 H   0  0  0  0  0  0
  -18.0287  -26.0054   22.8999 H   0  0  0  0  0  0
  -19.7931  -30.7262   24.2270 H   0  0  0  0  0  0
  -17.5016  -31.6260   24.5185 H   0  0  0  0  0  0
  -15.5346  -30.3001   23.7637 H   0  0  0  0  0  0
  -15.8666  -28.0834   22.7045 H   0  0  0  0  0  0
  -24.5884  -30.7096   25.7802 H   0  0  0  0  0  0
  -24.8960  -32.2870   26.4973 H   0  0  0  0  0  0
  -25.8086  -30.8831   27.0218 H   0  0  0  0  0  0
  -26.2921  -29.6776   24.1217 H   0  0  0  0  0  0
  -27.4144  -29.7335   25.4619 H   0  0  0  0  0  0
  -27.8728  -30.4395   23.9301 H   0  0  0  0  0  0
  -27.2629  -33.3612   26.2145 H   0  0  0  0  0  0
  -28.3791  -32.7004   25.0302 H   0  0  0  0  0  0
  -28.0781  -31.8470   26.5351 H   0  0  0  0  0  0
  -28.2599  -38.0116   24.7524 H   0  0  0  0  0  0
  -28.1087  -36.2652   24.6271 H   0  0  0  0  0  0
  -27.2310  -37.1439   25.8865 H   0  0  0  0  0  0
  -20.9311  -29.8778   21.6968 H   0  0  0  0  0  0
  -26.0187  -38.2882   24.1418 H   0  0  0  0  0  0
  -27.9579  -17.0335   24.1319 H   0  0  0  0  0  0
  -28.2259  -18.7409   24.4737 H   0  0  0  0  0  0
  -28.6128  -17.5247   25.6876 H   0  0  0  0  0  0
  -32.0718  -18.3404   24.4611 H   0  0  0  0  0  0
  -31.0706  -18.1648   25.8954 H   0  0  0  0  0  0
  -30.8132  -19.5247   24.8105 H   0  0  0  0  0  0
  -28.0348  -25.8743   17.7256 H   0  0  0  0  0  0
  -28.4103  -24.3288   17.0208 H   0  0  0  0  0  0
  -29.6830  -25.2700   17.7902 H   0  0  0  0  0  0
  -29.2792  -23.4813   22.1694 H   0  0  0  0  0  0
  -30.7874  -22.7007   21.7046 H   0  0  0  0  0  0
  -29.5935  -21.8589   22.6900 H   0  0  0  0  0  0
  -28.8441  -15.3852   21.5317 H   0  0  0  0  0  0
  -30.1668  -15.1750   22.6278 H   0  0  0  0  0  0
  -29.5134  -25.2132   20.7936 H   0  0  0  0  0  0
  -27.8218  -25.1044   21.1927 H   0  0  0  0  0  0
  -30.3656  -16.5874   24.2104 H   0  0  0  0  0  0
  -27.3015  -23.9884   19.2154 H   0  0  0  0  0  0
  -27.9857  -21.8734   20.7722 H   0  0  0  0  0  0
  -30.2764  -23.2637   19.2948 H   0  0  0  0  0  0
  -29.6688  -20.6189   19.2134 H   0  0  0  0  0  0
  -28.0567  -21.8756   18.2647 H   0  0  0  0  0  0
  1 25  1  0  0  0
  1 30  2  0  0  0
  1 78  1  0  0  0
  2  3  1  0  0  0
  2 25  1  0  0  0
  2 88  1  0  0  0
  2 89  1  0  0  0
  3  4  1  0  0  0
  3 90  1  0  0  0
  3 91  1  0  0  0
  4  5  1  0  0  0
  4 92  1  0  0  0
  4 93  1  0  0  0
  5  6  1  0  0  0
  5 26  1  0  0  0
  5 94  1  0  0  0
  6 25  1  0  0  0
  6 95  1  0  0  0
  6 96  1  0  0  0
  7  8  2  0  0  0
  7 26  1  0  0  0
  7 29  1  0  0  0
  8  9  1  0  0  0
  8 22  1  0  0  0
  9 10  1  0  0  0
  9 27  2  0  0  0
 10 11  2  0  0  0
 10 15  1  0  0  0
 11 12  1  0  0  0
 11 97  1  0  0  0
 12 13  2  0  0  0
 12 98  1  0  0  0
 13 14  1  0  0  0
 13 31  1  0  0  0
 14 15  2  0  0  0
 14 99  1  0  0  0
 15100  1  0  0  0
 16 17  2  0  0  0
 16 21  1  0  0  0
 16 31  1  0  0  0
 17 18  1  0  0  0
 17101  1  0  0  0
 18 19  2  0  0  0
 18102  1  0  0  0
 19 20  1  0  0  0
 19 24  1  0  0  0
 20 21  2  0  0  0
 20103  1  0  0  0
 21 23  1  0  0  0
 22 28  1  0  0  0
 22 32  2  0  0  0
 26 27  1  0  0  0
 28104  1  0  0  0
 28105  1  0  0  0
 29106  1  0  0  0
 29107  1  0  0  0
 33 34  1  0  0  0
 33 66  1  0  0  0
 33 70  2  0  0  0
 34 36  1  0  0  0
 34 59  1  0  0  0
 34108  1  0  0  0
 35 44  2  0  0  0
 35 45  1  0  0  0
 35 68  1  0  0  0
 36 56  1  0  0  0
 36109  1  0  0  0
 37 39  1  0  0  0
 37 47  1  0  0  0
 37 66  1  0  0  0
 37110  1  0  0  0
 38 43  2  0  0  0
 38 46  1  0  0  0
 38 47  1  0  0  0
 39 64  1  0  0  0
 39 67  2  0  0  0
 40 52  1  0  0  0
 40 53  2  0  0  0
 40 58  1  0  0  0
 41111  1  0  0  0
 41112  1  0  0  0
 41113  1  0  0  0
 41 48  1  0  0  0
 42 43  1  0  0  0
 42 66  1  0  0  0
 42114  1  0  0  0
 42115  1  0  0  0
 43 44  1  0  0  0
 44116  1  0  0  0
 45 46  2  0  0  0
 45117  1  0  0  0
 46118  1  0  0  0
 47119  1  0  0  0
 47120  1  0  0  0
 48 56  1  0  0  0
 48 65  1  0  0  0
 48121  1  0  0  0
 49 50  1  0  0  0
 49 53  1  0  0  0
 49 64  1  0  0  0
 49122  1  0  0  0
 50 51  1  0  0  0
 50123  1  0  0  0
 50124  1  0  0  0
 51 52  1  0  0  0
 51125  1  0  0  0
 51126  1  0  0  0
 52127  1  0  0  0
 52128  1  0  0  0
 53 54  1  0  0  0
 54 55  2  0  0  0
 54129  1  0  0  0
 55 57  1  0  0  0
 55130  1  0  0  0
 56 69  2  0  0  0
 57 58  2  0  0  0
 57131  1  0  0  0
 58132  1  0  0  0
 59 60  1  0  0  0
 59 61  1  0  0  0
 59 62  1  0  0  0
 60133  1  0  0  0
 60134  1  0  0  0
 60135  1  0  0  0
 61136  1  0  0  0
 61137  1  0  0  0
 61138  1  0  0  0
 62139  1  0  0  0
 62140  1  0  0  0
 62141  1  0  0  0
 63 65  1  0  0  0
 63142  1  0  0  0
 63143  1  0  0  0
 63144  1  0  0  0
 64145  1  0  0  0
 65146  1  0  0  0
 68 79  1  0  0  0
 71 72  2  0  0  0
 71 80  1  0  0  0
 71 84  1  0  0  0
 72 78  1  0  0  0
 72 87  1  0  0  0
 73 84  2  0  0  0
 73 85  1  0  0  0
 73 87  1  0  0  0
 74147  1  0  0  0
 74148  1  0  0  0
 74149  1  0  0  0
 74 80  1  0  0  0
 75 80  1  0  0  0
 75150  1  0  0  0
 75151  1  0  0  0
 75152  1  0  0  0
 76153  1  0  0  0
 76154  1  0  0  0
 76155  1  0  0  0
 76 81  1  0  0  0
 77156  1  0  0  0
 77157  1  0  0  0
 77158  1  0  0  0
 77 82  1  0  0  0
 78159  1  0  0  0
 78160  1  0  0  0
 79 81  1  0  0  0
 79161  1  0  0  0
 79162  1  0  0  0
 80163  1  0  0  0
 81 83  1  0  0  0
 81164  1  0  0  0
 82 83  1  0  0  0
 82 85  1  0  0  0
 82165  1  0  0  0
 83 86  1  0  0  0
 83166  1  0  0  0
 85167  1  0  0  0
 86168  1  0  0  0
M  ISO  4   1 100  68 101  78 100  79 101
M  END
> <chiral flag>
0

> <version>
0

> <s_m_source_file>
/data/baiqing/PycharmProjects/Reinvent-master-3.2/result/LINK_invent/BTK/process_docking_weight1_custom_product_contain_oxygen_bond_distance_aromatic_linkinvent_7_9_3/rearranged_h_0191.sdf

> <i_m_source_file_index>
85

> <r_mmod_Potential_Energy-OPLS-2005>
-144.279571533203

> <r_mmod_Stretch_Energy-OPLS-2005>
49.3268165588379

> <r_mmod_Bend_Energy-OPLS-2005>
140.469985961914

> <r_mmod_Torsional_Energy-OPLS-2005>
211.687088012695

> <r_mmod_Improper_Torsional_Energy-OPLS-2005>
4.23204326629639

> <r_mmod_Van_der_Waal_Energy-OPLS-2005>
134.807861328125

> <r_mmod_Electrostatic_Energy-OPLS-2005>
-488.852691650391

> <r_mmod_Solvation_Energy-OPLS-2005>
-213.315689086914

> <b_mmod_Minimization_Converged-OPLS-2005>
0

> <r_mmod_RMS_Derivative-OPLS-2005>
2.02532315254211

$$$$
87
                    3D
 Structure written by MMmdl.
158166  0  0  1  0            999 V2000
  -30.6753  -14.4319   20.6534 C   0  0  0  0  0  0
  -30.4320  -12.3179   19.3769 C   0  0  0  0  0  0
  -29.4800  -12.5411   18.1833 C   0  0  0  0  0  0
  -28.0039  -12.3890   18.6043 C   0  0  0  0  0  0
  -27.6680  -13.1939   19.8858 C   0  0  2  0  0  0
  -28.7124  -12.8962   20.9840 C   0  0  0  0  0  0
  -25.2634  -13.8138   20.5696 C   0  0  0  0  0  0
  -24.1854  -13.0423   20.9165 C   0  0  0  0  0  0
  -24.6400  -11.6889   20.8735 C   0  0  0  0  0  0
  -23.9059  -10.4279   21.0417 C   0  0  0  0  0  0
  -24.3614   -9.4185   21.9190 C   0  0  0  0  0  0
  -23.6285   -8.2224   22.0761 C   0  0  0  0  0  0
  -22.4263   -8.0280   21.3554 C   0  0  0  0  0  0
  -21.9900   -9.0255   20.4650 C   0  0  0  0  0  0
  -22.7237  -10.2131   20.3057 C   0  0  0  0  0  0
  -21.6853   -6.0718   22.5278 C   0  0  0  0  0  0
  -21.4024   -6.5632   23.8211 C   0  0  0  0  0  0
  -21.3653   -5.6790   24.9179 C   0  0  0  0  0  0
  -21.6041   -4.3050   24.7227 C   0  0  0  0  0  0
  -21.8831   -3.8136   23.4351 C   0  0  0  0  0  0
  -21.9202   -4.6947   22.3405 C   0  0  0  0  0  0
  -22.7872  -13.5229   21.1827 C   0  0  0  0  0  0
  -22.1672   -4.2129   21.0980 F   0  0  0  0  0  0
  -21.5613   -3.4540   25.7741 F   0  0  0  0  0  0
  -30.0370  -13.2480   20.4444 N   0  0  0  0  0  0
  -26.3063  -12.9279   20.3437 N   0  0  0  0  0  0
  -25.9321  -11.6446   20.5771 N   0  0  0  0  0  0
  -22.0525  -12.8215   22.0399 N   0  0  0  0  0  0
  -25.4417  -15.1844   20.4082 N   0  0  0  0  0  0
  -31.7534  -14.7038   20.1104 O   0  0  0  0  0  0
  -21.6638   -6.8865   21.4242 O   0  0  0  0  0  0
  -22.3541  -14.5522   20.6670 O   0  0  0  0  0  0
  -24.6173  -31.8696   23.2099 C   0  0  0  0  0  0
  -25.9064  -32.4832   23.8402 C   0  0  1  0  0  0
  -27.2339  -27.4279   20.0903 C   0  0  0  0  0  0
  -25.5920  -33.8630   24.2334 N   0  0  0  0  0  0
  -23.4049  -30.4981   21.5493 C   0  0  2  0  0  0
  -24.8491  -28.9672   20.1128 C   0  0  0  0  0  0
  -22.7411  -29.4691   22.4939 C   0  0  0  0  0  0
  -18.0288  -28.1380   22.8488 C   0  0  0  0  0  0
  -24.1484  -36.7319   23.2631 C   0  0  0  0  0  0
  -25.9361  -30.8344   21.3642 C   0  0  0  0  0  0
  -26.0114  -29.4687   20.7111 C   0  0  0  0  0  0
  -27.2039  -28.7062   20.6985 C   0  0  0  0  0  0
  -26.0482  -26.9535   19.4755 C   0  0  0  0  0  0
  -24.8625  -27.7073   19.4955 C   0  0  0  0  0  0
  -23.6148  -29.8380   20.1616 C   0  0  0  0  0  0
  -25.4099  -36.3115   24.0339 C   0  0  1  0  0  0
  -20.5875  -28.3689   23.1286 C   0  0  2  0  0  0
  -20.6772  -26.9418   22.5401 C   0  0  0  0  0  0
  -19.5752  -26.6381   21.5195 C   0  0  0  0  0  0
  -18.1931  -26.7927   22.1609 C   0  0  0  0  0  0
  -19.1535  -28.8845   23.2894 C   0  0  0  0  0  0
  -18.9459  -30.1441   23.8917 C   0  0  0  0  0  0
  -17.6467  -30.6591   24.0556 C   0  0  0  0  0  0
  -25.9039  -34.9485   23.5127 C   0  0  0  0  0  0
  -16.5359  -29.9096   23.6314 C   0  0  0  0  0  0
  -16.7277  -28.6505   23.0349 C   0  0  0  0  0  0
  -26.4476  -31.6613   25.0736 C   0  0  0  0  0  0
  -25.3731  -31.3735   26.1478 C   0  0  0  0  0  0
  -27.0310  -30.3054   24.6122 C   0  0  0  0  0  0
  -27.6060  -32.4326   25.7505 C   0  0  0  0  0  0
  -27.5593  -37.1791   24.8446 C   0  0  0  0  0  0
  -21.4136  -29.3068   22.3681 N   0  0  0  0  0  0
  -26.4272  -37.3811   23.9439 N   0  0  0  0  0  0
  -24.6713  -31.0806   22.0999 N   0  0  0  0  0  0
  -23.4175  -28.8220   23.2978 O   0  0  0  0  0  0
  -28.4059  -26.6867   20.1251 O   0  0  0  0  0  0
  -26.5596  -34.8933   22.4685 O   0  0  0  0  0  0
  -23.5361  -32.1446   23.7488 O   0  0  0  0  0  0
  -31.1561  -19.0883   21.6973 C   0  0  0  0  0  0
  -31.2524  -17.6988   22.0322 C   0  0  0  0  0  0
  -30.3453  -16.9272   21.3484 C   0  0  0  0  0  0
  -30.1818  -19.3804   20.7683 C   0  0  0  0  0  0
  -29.9750  -21.8246   20.6981 C   0  0  0  0  0  0
  -32.1950  -17.1442   23.0565 C   0  0  0  0  0  0
  -30.8555  -24.9014   19.9069 C   0  0  0  0  0  0
  -29.9936  -15.4782   21.5715 C   0  0  0  0  0  0
  -29.2127  -22.9243   19.9343 C   0  0  0  0  0  0
  -28.3286  -25.2959   19.7626 C   0  0  0  0  0  0
  -29.4611  -24.4098   20.3404 C   0  0  2  0  0  0
  -29.7568  -20.5700   20.2591 N   0  0  0  0  0  0
  -30.7108  -22.1044   21.6470 O   0  0  0  0  0  0
  -29.4217  -17.9012   20.2321 S   0  0  0  0  0  0
  -31.4676  -12.4610   19.0642 H   0  0  0  0  0  0
  -30.3662  -11.2880   19.7322 H   0  0  0  0  0  0
  -29.7100  -11.8450   17.3758 H   0  0  0  0  0  0
  -29.6373  -13.5420   17.7785 H   0  0  0  0  0  0
  -27.8069  -11.3293   18.7716 H   0  0  0  0  0  0
  -27.3474  -12.6957   17.7887 H   0  0  0  0  0  0
  -27.7324  -14.2506   19.6271 H   0  0  0  0  0  0
  -28.6914  -11.8342   21.2314 H   0  0  0  0  0  0
  -28.4696  -13.3948   21.9223 H   0  0  0  0  0  0
  -25.2764   -9.5642   22.4761 H   0  0  0  0  0  0
  -23.9990   -7.4603   22.7472 H   0  0  0  0  0  0
  -21.0835   -8.8786   19.8936 H   0  0  0  0  0  0
  -22.3718  -10.9682   19.6164 H   0  0  0  0  0  0
  -21.2036   -7.6144   23.9708 H   0  0  0  0  0  0
  -21.1459   -6.0523   25.9083 H   0  0  0  0  0  0
  -22.0618   -2.7593   23.2867 H   0  0  0  0  0  0
  -22.4150  -11.9865   22.4755 H   0  0  0  0  0  0
  -21.1158  -13.1259   22.2633 H   0  0  0  0  0  0
  -24.6849  -15.8523   20.5070 H   0  0  0  0  0  0
  -26.3068  -15.6137   20.1030 H   0  0  0  0  0  0
  -26.7148  -32.5552   23.1183 H   0  0  0  0  0  0
  -25.0081  -33.9786   25.0487 H   0  0  0  0  0  0
  -22.6959  -31.3173   21.4116 H   0  0  0  0  0  0
  -23.3763  -35.9629   23.3229 H   0  0  0  0  0  0
  -24.3603  -36.8997   22.2059 H   0  0  0  0  0  0
  -23.7194  -37.6484   23.6690 H   0  0  0  0  0  0
  -26.0469  -31.5998   20.5944 H   0  0  0  0  0  0
  -26.8249  -30.8900   21.9812 H   0  0  0  0  0  0
  -28.0995  -29.0893   21.1671 H   0  0  0  0  0  0
  -26.0081  -26.0011   18.9686 H   0  0  0  0  0  0
  -23.9706  -27.3150   19.0263 H   0  0  0  0  0  0
  -23.7324  -30.6173   19.4078 H   0  0  0  0  0  0
  -22.7363  -29.2665   19.8569 H   0  0  0  0  0  0
  -25.1257  -36.1967   25.0827 H   0  0  0  0  0  0
  -20.9996  -28.3268   24.1392 H   0  0  0  0  0  0
  -20.5661  -26.2302   23.3597 H   0  0  0  0  0  0
  -21.6647  -26.7441   22.1210 H   0  0  0  0  0  0
  -19.6914  -25.6282   21.1246 H   0  0  0  0  0  0
  -19.6694  -27.3167   20.6704 H   0  0  0  0  0  0
  -17.4197  -26.6684   21.4010 H   0  0  0  0  0  0
  -18.0335  -26.0063   22.9001 H   0  0  0  0  0  0
  -19.7933  -30.7243   24.2307 H   0  0  0  0  0  0
  -17.5024  -31.6277   24.5145 H   0  0  0  0  0  0
  -15.5360  -30.3018   23.7595 H   0  0  0  0  0  0
  -15.8675  -28.0822   22.7066 H   0  0  0  0  0  0
  -24.5905  -30.7089   25.7806 H   0  0  0  0  0  0
  -24.8934  -32.2903   26.4910 H   0  0  0  0  0  0
  -25.8074  -30.8911   27.0242 H   0  0  0  0  0  0
  -26.2871  -29.6827   24.1147 H   0  0  0  0  0  0
  -27.4037  -29.7281   25.4591 H   0  0  0  0  0  0
  -27.8722  -30.4358   23.9310 H   0  0  0  0  0  0
  -27.2677  -33.3593   26.2157 H   0  0  0  0  0  0
  -28.3846  -32.6939   25.0324 H   0  0  0  0  0  0
  -28.0775  -31.8413   26.5365 H   0  0  0  0  0  0
  -28.2535  -38.0163   24.7607 H   0  0  0  0  0  0
  -28.1165  -36.2701   24.6119 H   0  0  0  0  0  0
  -27.2348  -37.1259   25.8853 H   0  0  0  0  0  0
  -20.9274  -29.8839   21.6957 H   0  0  0  0  0  0
  -26.0155  -38.2866   24.1527 H   0  0  0  0  0  0
  -31.7862  -19.8229   22.1794 H   0  0  0  0  0  0
  -32.9169  -17.8880   23.3928 H   0  0  0  0  0  0
  -32.7586  -16.3009   22.6548 H   0  0  0  0  0  0
  -31.6559  -16.7889   23.9354 H   0  0  0  0  0  0
  -31.6412  -24.3768   20.4522 H   0  0  0  0  0  0
  -30.9827  -25.9658   20.1044 H   0  0  0  0  0  0
  -31.0285  -24.7377   18.8435 H   0  0  0  0  0  0
  -28.9128  -15.4228   21.4580 H   0  0  0  0  0  0
  -30.1960  -15.1982   22.6046 H   0  0  0  0  0  0
  -28.1529  -22.6958   20.0578 H   0  0  0  0  0  0
  -29.4153  -22.8057   18.8694 H   0  0  0  0  0  0
  -27.4016  -24.8678   20.1465 H   0  0  0  0  0  0
  -28.3015  -25.2143   18.6746 H   0  0  0  0  0  0
  -29.4011  -24.4864   21.4271 H   0  0  0  0  0  0
  -29.1052  -20.4988   19.4878 H   0  0  0  0  0  0
  1 25  1  0  0  0
  1 30  2  0  0  0
  1 78  1  0  0  0
  2  3  1  0  0  0
  2 25  1  0  0  0
  2 85  1  0  0  0
  2 86  1  0  0  0
  3  4  1  0  0  0
  3 87  1  0  0  0
  3 88  1  0  0  0
  4  5  1  0  0  0
  4 89  1  0  0  0
  4 90  1  0  0  0
  5  6  1  0  0  0
  5 26  1  0  0  0
  5 91  1  0  0  0
  6 25  1  0  0  0
  6 92  1  0  0  0
  6 93  1  0  0  0
  7  8  2  0  0  0
  7 26  1  0  0  0
  7 29  1  0  0  0
  8  9  1  0  0  0
  8 22  1  0  0  0
  9 10  1  0  0  0
  9 27  2  0  0  0
 10 11  2  0  0  0
 10 15  1  0  0  0
 11 12  1  0  0  0
 11 94  1  0  0  0
 12 13  2  0  0  0
 12 95  1  0  0  0
 13 14  1  0  0  0
 13 31  1  0  0  0
 14 15  2  0  0  0
 14 96  1  0  0  0
 15 97  1  0  0  0
 16 17  2  0  0  0
 16 21  1  0  0  0
 16 31  1  0  0  0
 17 18  1  0  0  0
 17 98  1  0  0  0
 18 19  2  0  0  0
 18 99  1  0  0  0
 19 20  1  0  0  0
 19 24  1  0  0  0
 20 21  2  0  0  0
 20100  1  0  0  0
 21 23  1  0  0  0
 22 28  1  0  0  0
 22 32  2  0  0  0
 26 27  1  0  0  0
 28101  1  0  0  0
 28102  1  0  0  0
 29103  1  0  0  0
 29104  1  0  0  0
 33 34  1  0  0  0
 33 66  1  0  0  0
 33 70  2  0  0  0
 34 36  1  0  0  0
 34 59  1  0  0  0
 34105  1  0  0  0
 35 44  2  0  0  0
 35 45  1  0  0  0
 35 68  1  0  0  0
 36 56  1  0  0  0
 36106  1  0  0  0
 37 39  1  0  0  0
 37 47  1  0  0  0
 37 66  1  0  0  0
 37107  1  0  0  0
 38 43  2  0  0  0
 38 46  1  0  0  0
 38 47  1  0  0  0
 39 64  1  0  0  0
 39 67  2  0  0  0
 40 52  1  0  0  0
 40 53  2  0  0  0
 40 58  1  0  0  0
 41108  1  0  0  0
 41109  1  0  0  0
 41110  1  0  0  0
 41 48  1  0  0  0
 42 43  1  0  0  0
 42 66  1  0  0  0
 42111  1  0  0  0
 42112  1  0  0  0
 43 44  1  0  0  0
 44113  1  0  0  0
 45 46  2  0  0  0
 45114  1  0  0  0
 46115  1  0  0  0
 47116  1  0  0  0
 47117  1  0  0  0
 48 56  1  0  0  0
 48 65  1  0  0  0
 48118  1  0  0  0
 49 50  1  0  0  0
 49 53  1  0  0  0
 49 64  1  0  0  0
 49119  1  0  0  0
 50 51  1  0  0  0
 50120  1  0  0  0
 50121  1  0  0  0
 51 52  1  0  0  0
 51122  1  0  0  0
 51123  1  0  0  0
 52124  1  0  0  0
 52125  1  0  0  0
 53 54  1  0  0  0
 54 55  2  0  0  0
 54126  1  0  0  0
 55 57  1  0  0  0
 55127  1  0  0  0
 56 69  2  0  0  0
 57 58  2  0  0  0
 57128  1  0  0  0
 58129  1  0  0  0
 59 60  1  0  0  0
 59 61  1  0  0  0
 59 62  1  0  0  0
 60130  1  0  0  0
 60131  1  0  0  0
 60132  1  0  0  0
 61133  1  0  0  0
 61134  1  0  0  0
 61135  1  0  0  0
 62136  1  0  0  0
 62137  1  0  0  0
 62138  1  0  0  0
 63 65  1  0  0  0
 63139  1  0  0  0
 63140  1  0  0  0
 63141  1  0  0  0
 64142  1  0  0  0
 65143  1  0  0  0
 68 80  1  0  0  0
 71 72  1  0  0  0
 71 74  2  0  0  0
 71144  1  0  0  0
 72 73  2  0  0  0
 72 76  1  0  0  0
 73 78  1  0  0  0
 73 84  1  0  0  0
 74 82  1  0  0  0
 74 84  1  0  0  0
 75 79  1  0  0  0
 75 82  1  0  0  0
 75 83  2  0  0  0
 76145  1  0  0  0
 76146  1  0  0  0
 76147  1  0  0  0
 77148  1  0  0  0
 77149  1  0  0  0
 77150  1  0  0  0
 77 81  1  0  0  0
 78151  1  0  0  0
 78152  1  0  0  0
 79 81  1  0  0  0
 79153  1  0  0  0
 79154  1  0  0  0
 80 81  1  0  0  0
 80155  1  0  0  0
 80156  1  0  0  0
 81157  1  0  0  0
 82158  1  0  0  0
M  ISO  4   1 100  68 101  78 100  80 101
M  END
> <chiral flag>
0

> <version>
0

> <s_m_source_file>
/data/baiqing/PycharmProjects/Reinvent-master-3.2/result/LINK_invent/BTK/process_docking_weight1_custom_product_contain_oxygen_bond_distance_aromatic_linkinvent_7_9_3/rearranged_h_0191.sdf

> <i_m_source_file_index>
86

> <r_mmod_Potential_Energy-OPLS-2005>
-93.1727981567383

> <r_mmod_Stretch_Energy-OPLS-2005>
36.4592208862305

> <r_mmod_Bend_Energy-OPLS-2005>
114.61784362793

> <r_mmod_Torsional_Energy-OPLS-2005>
169.554336547852

> <r_mmod_Improper_Torsional_Energy-OPLS-2005>
2.55884385108948

> <r_mmod_Van_der_Waal_Energy-OPLS-2005>
134.501678466797

> <r_mmod_Electrostatic_Energy-OPLS-2005>
-344.434051513672

> <r_mmod_Solvation_Energy-OPLS-2005>
-218.680877685547

> <b_mmod_Minimization_Converged-OPLS-2005>
0

> <r_mmod_RMS_Derivative-OPLS-2005>
1.99707365036011

$$$$
88
                    3D
 Structure written by MMmdl.
181189  0  0  1  0            999 V2000
  -30.6799  -14.4959   20.5474 C   0  0  0  0  0  0
  -30.4228  -12.3144   19.4247 C   0  0  0  0  0  0
  -29.4944  -12.5092   18.2078 C   0  0  0  0  0  0
  -28.0151  -12.3698   18.6180 C   0  0  0  0  0  0
  -27.6598  -13.2081   19.8757 C   0  0  2  0  0  0
  -28.7027  -12.9913   20.9966 C   0  0  0  0  0  0
  -25.2578  -13.8158   20.5682 C   0  0  0  0  0  0
  -24.1834  -13.0436   20.9184 C   0  0  0  0  0  0
  -24.6391  -11.6901   20.8741 C   0  0  0  0  0  0
  -23.9065  -10.4285   21.0404 C   0  0  0  0  0  0
  -24.3615   -9.4195   21.9177 C   0  0  0  0  0  0
  -23.6284   -8.2239   22.0754 C   0  0  0  0  0  0
  -22.4272   -8.0279   21.3544 C   0  0  0  0  0  0
  -21.9908   -9.0252   20.4652 C   0  0  0  0  0  0
  -22.7239  -10.2127   20.3055 C   0  0  0  0  0  0
  -21.6859   -6.0734   22.5280 C   0  0  0  0  0  0
  -21.4018   -6.5642   23.8210 C   0  0  0  0  0  0
  -21.3655   -5.6795   24.9172 C   0  0  0  0  0  0
  -21.6043   -4.3058   24.7228 C   0  0  0  0  0  0
  -21.8816   -3.8150   23.4351 C   0  0  0  0  0  0
  -21.9190   -4.6963   22.3402 C   0  0  0  0  0  0
  -22.7859  -13.5228   21.1841 C   0  0  0  0  0  0
  -22.1658   -4.2147   21.0983 F   0  0  0  0  0  0
  -21.5625   -3.4541   25.7743 F   0  0  0  0  0  0
  -30.0326  -13.3013   20.4436 N   0  0  0  0  0  0
  -26.3016  -12.9327   20.3378 N   0  0  0  0  0  0
  -25.9317  -11.6486   20.5781 N   0  0  0  0  0  0
  -22.0506  -12.8213   22.0401 N   0  0  0  0  0  0
  -25.4306  -15.1875   20.4067 N   0  0  0  0  0  0
  -31.8136  -14.6797   20.0930 O   0  0  0  0  0  0
  -21.6642   -6.8874   21.4244 O   0  0  0  0  0  0
  -22.3535  -14.5531   20.6688 O   0  0  0  0  0  0
  -24.6174  -31.8670   23.2086 C   0  0  0  0  0  0
  -25.9054  -32.4819   23.8392 C   0  0  1  0  0  0
  -27.2343  -27.4290   20.0707 C   0  0  0  0  0  0
  -25.5901  -33.8621   24.2310 N   0  0  0  0  0  0
  -23.4051  -30.4919   21.5496 C   0  0  2  0  0  0
  -24.8520  -28.9608   20.1076 C   0  0  0  0  0  0
  -22.7410  -29.4668   22.4972 C   0  0  0  0  0  0
  -18.0273  -28.1366   22.8512 C   0  0  0  0  0  0
  -24.1480  -36.7317   23.2639 C   0  0  0  0  0  0
  -25.9370  -30.8303   21.3618 C   0  0  0  0  0  0
  -26.0153  -29.4656   20.7039 C   0  0  0  0  0  0
  -27.2093  -28.7038   20.6875 C   0  0  0  0  0  0
  -26.0453  -26.9301   19.5078 C   0  0  0  0  0  0
  -24.8629  -27.6920   19.5071 C   0  0  0  0  0  0
  -23.6120  -29.8252   20.1642 C   0  0  0  0  0  0
  -25.4101  -36.3103   24.0331 C   0  0  1  0  0  0
  -20.5867  -28.3671   23.1307 C   0  0  2  0  0  0
  -20.6764  -26.9405   22.5409 C   0  0  0  0  0  0
  -19.5743  -26.6387   21.5207 C   0  0  0  0  0  0
  -18.1924  -26.7915   22.1623 C   0  0  0  0  0  0
  -19.1521  -28.8829   23.2918 C   0  0  0  0  0  0
  -18.9448  -30.1437   23.8935 C   0  0  0  0  0  0
  -17.6449  -30.6586   24.0564 C   0  0  0  0  0  0
  -25.9043  -34.9474   23.5120 C   0  0  0  0  0  0
  -16.5342  -29.9086   23.6326 C   0  0  0  0  0  0
  -16.7263  -28.6490   23.0371 C   0  0  0  0  0  0
  -26.4487  -31.6609   25.0726 C   0  0  0  0  0  0
  -25.3761  -31.3691   26.1479 C   0  0  0  0  0  0
  -27.0334  -30.3055   24.6115 C   0  0  0  0  0  0
  -27.6063  -32.4348   25.7482 C   0  0  0  0  0  0
  -27.5575  -37.1800   24.8457 C   0  0  0  0  0  0
  -21.4133  -29.3051   22.3722 N   0  0  0  0  0  0
  -26.4278  -37.3797   23.9412 N   0  0  0  0  0  0
  -24.6717  -31.0761   22.0988 N   0  0  0  0  0  0
  -23.4176  -28.8209   23.3020 O   0  0  0  0  0  0
  -28.3586  -26.6315   20.1292 O   0  0  0  0  0  0
  -26.5604  -34.8922   22.4680 O   0  0  0  0  0  0
  -23.5362  -32.1431   23.7469 O   0  0  0  0  0  0
  -30.7850  -19.0395   20.9780 C   0  0  0  0  0  0
  -29.9930  -19.2075   19.8564 C   0  0  0  0  0  0
  -30.0883  -16.8743   20.7314 C   0  0  0  0  0  0
  -33.1083  -19.7461   21.6051 C   0  0  0  0  0  0
  -27.5398  -25.0777   17.2090 C   0  0  0  0  0  0
  -27.8655  -20.0697   17.6301 C   0  0  0  0  0  0
  -29.7647  -21.6019   24.8305 C   0  0  0  0  0  0
  -28.8197  -21.3032   22.5474 C   0  0  0  0  0  0
  -30.7217  -22.9059   22.9302 C   0  0  0  0  0  0
  -28.7784  -23.6404   18.9722 C   0  0  0  0  0  0
  -28.7726  -22.3826   18.0462 C   0  0  0  0  0  0
  -31.1429  -20.3904   23.1206 C   0  0  0  0  0  0
  -29.0539  -26.3118   18.9184 C   0  0  0  0  0  0
  -31.6130  -20.1013   21.6680 C   0  0  2  0  0  0
  -28.7531  -24.9764   18.1565 C   0  0  2  0  0  0
  -28.5731  -20.9646   18.6687 C   0  0  2  0  0  0
  -30.1191  -21.5432   23.3331 C   0  0  0  0  0  0
  -30.8123  -17.7185   21.4719 N   0  0  0  0  0  0
  -29.8573  -20.3977   19.1020 N   0  0  0  0  0  0
  -29.9489  -15.4988   21.0692 N   0  0  0  0  0  0
  -29.2546  -17.6731   19.4005 S   0  0  0  0  0  0
  -31.4681  -12.4138   19.1262 H   0  0  0  0  0  0
  -30.3222  -11.3046   19.8267 H   0  0  0  0  0  0
  -29.7364  -11.7848   17.4288 H   0  0  0  0  0  0
  -29.6627  -13.4941   17.7694 H   0  0  0  0  0  0
  -27.8209  -11.3135   18.8080 H   0  0  0  0  0  0
  -27.3672  -12.6501   17.7873 H   0  0  0  0  0  0
  -27.7001  -14.2568   19.5785 H   0  0  0  0  0  0
  -28.6822  -11.9544   21.3377 H   0  0  0  0  0  0
  -28.4644  -13.5888   21.8776 H   0  0  0  0  0  0
  -25.2760   -9.5674   22.4744 H   0  0  0  0  0  0
  -23.9995   -7.4639   22.7475 H   0  0  0  0  0  0
  -21.0842   -8.8766   19.8957 H   0  0  0  0  0  0
  -22.3696  -10.9659   19.6165 H   0  0  0  0  0  0
  -21.2014   -7.6151   23.9707 H   0  0  0  0  0  0
  -21.1482   -6.0536   25.9073 H   0  0  0  0  0  0
  -22.0601   -2.7614   23.2862 H   0  0  0  0  0  0
  -22.4133  -11.9874   22.4767 H   0  0  0  0  0  0
  -21.1122  -13.1228   22.2615 H   0  0  0  0  0  0
  -24.6611  -15.8414   20.5039 H   0  0  0  0  0  0
  -26.2754  -15.6239   20.0625 H   0  0  0  0  0  0
  -26.7115  -32.5530   23.1151 H   0  0  0  0  0  0
  -25.0049  -33.9809   25.0455 H   0  0  0  0  0  0
  -22.6966  -31.3111   21.4095 H   0  0  0  0  0  0
  -23.3742  -35.9655   23.3302 H   0  0  0  0  0  0
  -24.3565  -36.8954   22.2053 H   0  0  0  0  0  0
  -23.7240  -37.6519   23.6670 H   0  0  0  0  0  0
  -26.0467  -31.5962   20.5923 H   0  0  0  0  0  0
  -26.8260  -30.8858   21.9790 H   0  0  0  0  0  0
  -28.1056  -29.0828   21.1573 H   0  0  0  0  0  0
  -26.0117  -25.9307   19.1124 H   0  0  0  0  0  0
  -23.9639  -27.2860   19.0640 H   0  0  0  0  0  0
  -23.7115  -30.5994   19.4030 H   0  0  0  0  0  0
  -22.7369  -29.2425   19.8731 H   0  0  0  0  0  0
  -25.1278  -36.1956   25.0825 H   0  0  0  0  0  0
  -20.9983  -28.3226   24.1417 H   0  0  0  0  0  0
  -20.5651  -26.2286   23.3600 H   0  0  0  0  0  0
  -21.6635  -26.7443   22.1206 H   0  0  0  0  0  0
  -19.6914  -25.6301   21.1238 H   0  0  0  0  0  0
  -19.6663  -27.3195   20.6732 H   0  0  0  0  0  0
  -17.4190  -26.6683   21.4020 H   0  0  0  0  0  0
  -18.0327  -26.0024   22.8986 H   0  0  0  0  0  0
  -19.7916  -30.7254   24.2321 H   0  0  0  0  0  0
  -17.4996  -31.6272   24.5151 H   0  0  0  0  0  0
  -15.5343  -30.3001   23.7631 H   0  0  0  0  0  0
  -15.8655  -28.0816   22.7091 H   0  0  0  0  0  0
  -24.5926  -30.7059   25.7789 H   0  0  0  0  0  0
  -24.8966  -32.2836   26.4974 H   0  0  0  0  0  0
  -25.8130  -30.8807   27.0200 H   0  0  0  0  0  0
  -26.2876  -29.6780   24.1224 H   0  0  0  0  0  0
  -27.4161  -29.7326   25.4573 H   0  0  0  0  0  0
  -27.8677  -30.4371   23.9226 H   0  0  0  0  0  0
  -27.2678  -33.3628   26.2101 H   0  0  0  0  0  0
  -28.3840  -32.6962   25.0291 H   0  0  0  0  0  0
  -28.0776  -31.8462   26.5363 H   0  0  0  0  0  0
  -28.2586  -38.0099   24.7520 H   0  0  0  0  0  0
  -28.1079  -36.2641   24.6261 H   0  0  0  0  0  0
  -27.2308  -37.1430   25.8862 H   0  0  0  0  0  0
  -20.9289  -29.8770   21.6948 H   0  0  0  0  0  0
  -26.0164  -38.2876   24.1429 H   0  0  0  0  0  0
  -33.4337  -19.6137   20.5726 H   0  0  0  0  0  0
  -33.3228  -18.8216   22.1418 H   0  0  0  0  0  0
  -33.7215  -20.5345   22.0423 H   0  0  0  0  0  0
  -27.7532  -24.5866   16.2584 H   0  0  0  0  0  0
  -27.2812  -26.1107   16.9748 H   0  0  0  0  0  0
  -26.6582  -24.5859   17.6194 H   0  0  0  0  0  0
  -26.9868  -20.5619   17.2112 H   0  0  0  0  0  0
  -27.4864  -19.1458   18.0588 H   0  0  0  0  0  0
  -28.5254  -19.8191   16.7979 H   0  0  0  0  0  0
  -29.0645  -22.4104   25.0443 H   0  0  0  0  0  0
  -30.6493  -21.7663   25.4464 H   0  0  0  0  0  0
  -29.2993  -20.6743   25.1664 H   0  0  0  0  0  0
  -28.0622  -22.0506   22.7855 H   0  0  0  0  0  0
  -28.3959  -20.3219   22.7631 H   0  0  0  0  0  0
  -28.9901  -21.3654   21.4765 H   0  0  0  0  0  0
  -30.0566  -23.7283   23.1956 H   0  0  0  0  0  0
  -30.8992  -22.9854   21.8580 H   0  0  0  0  0  0
  -31.6724  -23.0852   23.4336 H   0  0  0  0  0  0
  -29.6585  -23.6153   19.6161 H   0  0  0  0  0  0
  -27.9161  -23.6114   19.6394 H   0  0  0  0  0  0
  -29.6640  -22.3880   17.4161 H   0  0  0  0  0  0
  -27.9477  -22.5302   17.3505 H   0  0  0  0  0  0
  -32.0210  -20.6436   23.7164 H   0  0  0  0  0  0
  -30.7699  -19.4677   23.5675 H   0  0  0  0  0  0
  -28.9835  -27.1562   18.2310 H   0  0  0  0  0  0
  -30.1053  -26.2832   19.2066 H   0  0  0  0  0  0
  -31.5282  -21.0246   21.1001 H   0  0  0  0  0  0
  -29.6034  -24.9054   17.4755 H   0  0  0  0  0  0
  -27.9105  -21.0532   19.5316 H   0  0  0  0  0  0
  -30.5292  -21.1159   19.3543 H   0  0  0  0  0  0
  -29.0353  -15.2205   21.3890 H   0  0  0  0  0  0
  1 25  1  0  0  0
  1 30  2  0  0  0
  1 90  1  0  0  0
  2  3  1  0  0  0
  2 25  1  0  0  0
  2 92  1  0  0  0
  2 93  1  0  0  0
  3  4  1  0  0  0
  3 94  1  0  0  0
  3 95  1  0  0  0
  4  5  1  0  0  0
  4 96  1  0  0  0
  4 97  1  0  0  0
  5  6  1  0  0  0
  5 26  1  0  0  0
  5 98  1  0  0  0
  6 25  1  0  0  0
  6 99  1  0  0  0
  6100  1  0  0  0
  7  8  2  0  0  0
  7 26  1  0  0  0
  7 29  1  0  0  0
  8  9  1  0  0  0
  8 22  1  0  0  0
  9 10  1  0  0  0
  9 27  2  0  0  0
 10 11  2  0  0  0
 10 15  1  0  0  0
 11 12  1  0  0  0
 11101  1  0  0  0
 12 13  2  0  0  0
 12102  1  0  0  0
 13 14  1  0  0  0
 13 31  1  0  0  0
 14 15  2  0  0  0
 14103  1  0  0  0
 15104  1  0  0  0
 16 17  2  0  0  0
 16 21  1  0  0  0
 16 31  1  0  0  0
 17 18  1  0  0  0
 17105  1  0  0  0
 18 19  2  0  0  0
 18106  1  0  0  0
 19 20  1  0  0  0
 19 24  1  0  0  0
 20 21  2  0  0  0
 20107  1  0  0  0
 21 23  1  0  0  0
 22 28  1  0  0  0
 22 32  2  0  0  0
 26 27  1  0  0  0
 28108  1  0  0  0
 28109  1  0  0  0
 29110  1  0  0  0
 29111  1  0  0  0
 33 34  1  0  0  0
 33 66  1  0  0  0
 33 70  2  0  0  0
 34 36  1  0  0  0
 34 59  1  0  0  0
 34112  1  0  0  0
 35 44  2  0  0  0
 35 45  1  0  0  0
 35 68  1  0  0  0
 36 56  1  0  0  0
 36113  1  0  0  0
 37 39  1  0  0  0
 37 47  1  0  0  0
 37 66  1  0  0  0
 37114  1  0  0  0
 38 43  2  0  0  0
 38 46  1  0  0  0
 38 47  1  0  0  0
 39 64  1  0  0  0
 39 67  2  0  0  0
 40 52  1  0  0  0
 40 53  2  0  0  0
 40 58  1  0  0  0
 41115  1  0  0  0
 41116  1  0  0  0
 41117  1  0  0  0
 41 48  1  0  0  0
 42 43  1  0  0  0
 42 66  1  0  0  0
 42118  1  0  0  0
 42119  1  0  0  0
 43 44  1  0  0  0
 44120  1  0  0  0
 45 46  2  0  0  0
 45121  1  0  0  0
 46122  1  0  0  0
 47123  1  0  0  0
 47124  1  0  0  0
 48 56  1  0  0  0
 48 65  1  0  0  0
 48125  1  0  0  0
 49 50  1  0  0  0
 49 53  1  0  0  0
 49 64  1  0  0  0
 49126  1  0  0  0
 50 51  1  0  0  0
 50127  1  0  0  0
 50128  1  0  0  0
 51 52  1  0  0  0
 51129  1  0  0  0
 51130  1  0  0  0
 52131  1  0  0  0
 52132  1  0  0  0
 53 54  1  0  0  0
 54 55  2  0  0  0
 54133  1  0  0  0
 55 57  1  0  0  0
 55134  1  0  0  0
 56 69  2  0  0  0
 57 58  2  0  0  0
 57135  1  0  0  0
 58136  1  0  0  0
 59 60  1  0  0  0
 59 61  1  0  0  0
 59 62  1  0  0  0
 60137  1  0  0  0
 60138  1  0  0  0
 60139  1  0  0  0
 61140  1  0  0  0
 61141  1  0  0  0
 61142  1  0  0  0
 62143  1  0  0  0
 62144  1  0  0  0
 62145  1  0  0  0
 63 65  1  0  0  0
 63146  1  0  0  0
 63147  1  0  0  0
 63148  1  0  0  0
 64149  1  0  0  0
 65150  1  0  0  0
 68 83  1  0  0  0
 71 72  2  0  0  0
 71 84  1  0  0  0
 71 88  1  0  0  0
 72 89  1  0  0  0
 72 91  1  0  0  0
 73 88  2  0  0  0
 73 90  1  0  0  0
 73 91  1  0  0  0
 74151  1  0  0  0
 74152  1  0  0  0
 74153  1  0  0  0
 74 84  1  0  0  0
 75154  1  0  0  0
 75155  1  0  0  0
 75156  1  0  0  0
 75 85  1  0  0  0
 76157  1  0  0  0
 76158  1  0  0  0
 76159  1  0  0  0
 76 86  1  0  0  0
 77160  1  0  0  0
 77161  1  0  0  0
 77162  1  0  0  0
 77 87  1  0  0  0
 78 87  1  0  0  0
 78163  1  0  0  0
 78164  1  0  0  0
 78165  1  0  0  0
 79 87  1  0  0  0
 79166  1  0  0  0
 79167  1  0  0  0
 79168  1  0  0  0
 80 81  1  0  0  0
 80 85  1  0  0  0
 80169  1  0  0  0
 80170  1  0  0  0
 81 86  1  0  0  0
 81171  1  0  0  0
 81172  1  0  0  0
 82 84  1  0  0  0
 82 87  1  0  0  0
 82173  1  0  0  0
 82174  1  0  0  0
 83 85  1  0  0  0
 83175  1  0  0  0
 83176  1  0  0  0
 84177  1  0  0  0
 85178  1  0  0  0
 86 89  1  0  0  0
 86179  1  0  0  0
 89180  1  0  0  0
 90181  1  0  0  0
M  ISO  4   1 100  68 101  83 101  90 100
M  END
> <chiral flag>
0

> <version>
0

> <s_m_source_file>
/data/baiqing/PycharmProjects/Reinvent-master-3.2/result/LINK_invent/BTK/process_docking_weight1_custom_product_contain_oxygen_bond_distance_aromatic_linkinvent_7_9_3/rearranged_h_0191.sdf

> <i_m_source_file_index>
87

> <r_mmod_Potential_Energy-OPLS-2005>
14.7142267227173

> <r_mmod_Stretch_Energy-OPLS-2005>
43.6314468383789

> <r_mmod_Bend_Energy-OPLS-2005>
139.891204833984

> <r_mmod_Torsional_Energy-OPLS-2005>
284.164947509766

> <r_mmod_Improper_Torsional_Energy-OPLS-2005>
8.64188480377197

> <r_mmod_Van_der_Waal_Energy-OPLS-2005>
121.191947937012

> <r_mmod_Electrostatic_Energy-OPLS-2005>
-394.991790771484

> <r_mmod_Solvation_Energy-OPLS-2005>
-204.135238647461

> <b_mmod_Minimization_Converged-OPLS-2005>
0

> <r_mmod_RMS_Derivative-OPLS-2005>
1.72778880596161

$$$$
89
                    3D
 Structure written by MMmdl.
163171  0  0  1  0            999 V2000
  -30.3303  -15.5492   20.3379 C   0  0  0  0  0  0
  -30.4306  -13.0265   19.5077 C   0  0  0  0  0  0
  -29.5485  -12.6492   18.2891 C   0  0  0  0  0  0
  -28.0973  -12.3442   18.7037 C   0  0  0  0  0  0
  -27.5980  -13.3070   19.8077 C   0  0  2  0  0  0
  -28.6337  -13.5696   20.9230 C   0  0  0  0  0  0
  -25.2385  -13.8293   20.5809 C   0  0  0  0  0  0
  -24.1734  -13.0457   20.9220 C   0  0  0  0  0  0
  -24.6427  -11.6962   20.8710 C   0  0  0  0  0  0
  -23.9120  -10.4312   21.0372 C   0  0  0  0  0  0
  -24.3641   -9.4207   21.9134 C   0  0  0  0  0  0
  -23.6307   -8.2244   22.0730 C   0  0  0  0  0  0
  -22.4283   -8.0286   21.3537 C   0  0  0  0  0  0
  -21.9953   -9.0256   20.4600 C   0  0  0  0  0  0
  -22.7300  -10.2125   20.3029 C   0  0  0  0  0  0
  -21.6861   -6.0711   22.5252 C   0  0  0  0  0  0
  -21.4004   -6.5619   23.8193 C   0  0  0  0  0  0
  -21.3660   -5.6768   24.9152 C   0  0  0  0  0  0
  -21.6072   -4.3016   24.7211 C   0  0  0  0  0  0
  -21.8851   -3.8114   23.4333 C   0  0  0  0  0  0
  -21.9208   -4.6940   22.3379 C   0  0  0  0  0  0
  -22.7746  -13.5166   21.1829 C   0  0  0  0  0  0
  -22.1719   -4.2120   21.0964 F   0  0  0  0  0  0
  -21.5623   -3.4506   25.7727 F   0  0  0  0  0  0
  -29.8014  -14.1944   20.2635 N   0  0  0  0  0  0
  -26.2802  -12.9599   20.3180 N   0  0  0  0  0  0
  -25.9377  -11.6663   20.5618 N   0  0  0  0  0  0
  -22.0429  -12.8140   22.0385 N   0  0  0  0  0  0
  -25.4090  -15.2034   20.4348 N   0  0  0  0  0  0
  -31.5644  -15.4904   20.2273 O   0  0  0  0  0  0
  -21.6683   -6.8864   21.4213 O   0  0  0  0  0  0
  -22.3418  -14.5461   20.6660 O   0  0  0  0  0  0
  -24.6808  -31.8043   23.1514 C   0  0  0  0  0  0
  -25.9430  -32.4459   23.8045 C   0  0  1  0  0  0
  -27.2017  -26.7395   20.1707 C   0  0  0  0  0  0
  -25.6034  -33.8292   24.1958 N   0  0  0  0  0  0
  -23.4984  -30.4087   21.5138 C   0  0  2  0  0  0
  -24.9425  -28.7606   20.0986 C   0  0  0  0  0  0
  -22.7748  -29.4340   22.4780 C   0  0  0  0  0  0
  -18.0330  -28.1381   22.8478 C   0  0  0  0  0  0
  -24.1493  -36.7119   23.2658 C   0  0  0  0  0  0
  -26.0785  -30.5384   21.4117 C   0  0  0  0  0  0
  -26.1323  -29.1161   20.7436 C   0  0  0  0  0  0
  -27.2488  -28.1325   20.7449 C   0  0  0  0  0  0
  -25.9820  -26.5833   19.4673 C   0  0  0  0  0  0
  -24.9072  -27.5232   19.4310 C   0  0  0  0  0  0
  -23.7323  -29.7087   20.1432 C   0  0  0  0  0  0
  -25.4154  -36.2901   24.0288 C   0  0  1  0  0  0
  -20.5959  -28.3742   23.1160 C   0  0  2  0  0  0
  -20.6777  -26.9417   22.5396 C   0  0  0  0  0  0
  -19.5754  -26.6348   21.5207 C   0  0  0  0  0  0
  -18.1938  -26.7919   22.1614 C   0  0  0  0  0  0
  -19.1597  -28.8897   23.2777 C   0  0  0  0  0  0
  -18.9495  -30.1484   23.8802 C   0  0  0  0  0  0
  -17.6486  -30.6582   24.0520 C   0  0  0  0  0  0
  -25.9149  -34.9286   23.4967 C   0  0  0  0  0  0
  -16.5380  -29.9048   23.6343 C   0  0  0  0  0  0
  -16.7311  -28.6448   23.0416 C   0  0  0  0  0  0
  -26.4608  -31.6498   25.0672 C   0  0  0  0  0  0
  -25.3654  -31.3747   26.1253 C   0  0  0  0  0  0
  -27.0554  -30.2848   24.6565 C   0  0  0  0  0  0
  -27.6046  -32.4387   25.7466 C   0  0  0  0  0  0
  -27.5577  -37.1732   24.8479 C   0  0  0  0  0  0
  -21.4410  -29.3013   22.3532 N   0  0  0  0  0  0
  -26.4292  -37.3665   23.9418 N   0  0  0  0  0  0
  -24.7764  -30.9514   22.0753 N   0  0  0  0  0  0
  -23.4216  -28.7975   23.3115 O   0  0  0  0  0  0
  -28.1705  -25.5387   20.2567 O   0  0  0  0  0  0
  -26.5784  -34.8886   22.4574 O   0  0  0  0  0  0
  -23.5852  -32.1109   23.6528 O   0  0  0  0  0  0
  -25.3538  -19.2322   20.6011 C   0  0  0  0  0  0
  -25.3098  -19.5243   19.2122 C   0  0  0  0  0  0
  -26.6231  -19.4992   21.0286 C   0  0  0  0  0  0
  -26.5537  -19.9411   18.8247 C   0  0  0  0  0  0
  -27.0331  -20.3448   17.4682 C   0  0  0  0  0  0
  -32.1570  -18.9414   20.1116 C   0  0  0  0  0  0
  -31.4118  -18.3046   22.4512 C   0  0  0  0  0  0
  -28.8861  -22.1479   20.3778 C   0  0  0  0  0  0
  -28.0270  -23.8214   19.9626 C   0  0  0  0  0  0
  -31.0408  -19.0472   21.1545 C   0  0  0  0  0  0
  -28.8022  -20.2584   20.0108 C   0  0  1  0  0  0
  -29.6477  -18.6451   20.6202 C   0  0  1  0  0  0
  -27.3821  -19.9183   19.9455 N   0  0  0  0  0  0
  -29.5640  -16.8963   20.3420 N   0  0  0  0  0  0
  -31.4246  -13.2899   19.1489 H   0  0  0  0  0  0
  -30.5812  -12.1623   20.1537 H   0  0  0  0  0  0
  -29.9716  -11.7994   17.7477 H   0  0  0  0  0  0
  -29.5549  -13.4807   17.5837 H   0  0  0  0  0  0
  -28.0496  -11.3130   19.0496 H   0  0  0  0  0  0
  -27.4435  -12.4111   17.8339 H   0  0  0  0  0  0
  -27.4740  -14.2554   19.2815 H   0  0  0  0  0  0
  -28.8854  -12.6555   21.4627 H   0  0  0  0  0  0
  -28.2284  -14.2526   21.6677 H   0  0  0  0  0  0
  -25.2781   -9.5664   22.4704 H   0  0  0  0  0  0
  -24.0010   -7.4630   22.7457 H   0  0  0  0  0  0
  -21.0902   -8.8781   19.8869 H   0  0  0  0  0  0
  -22.3769  -10.9674   19.6141 H   0  0  0  0  0  0
  -21.2000   -7.6135   23.9673 H   0  0  0  0  0  0
  -21.1472   -6.0498   25.9049 H   0  0  0  0  0  0
  -22.0634   -2.7573   23.2839 H   0  0  0  0  0  0
  -22.4122  -11.9893   22.4876 H   0  0  0  0  0  0
  -21.1005  -13.1055   22.2491 H   0  0  0  0  0  0
  -24.6496  -15.8649   20.5356 H   0  0  0  0  0  0
  -26.2686  -15.6339   20.1182 H   0  0  0  0  0  0
  -26.7524  -32.4899   23.0757 H   0  0  0  0  0  0
  -25.0111  -33.9321   25.0071 H   0  0  0  0  0  0
  -22.8189  -31.2442   21.3397 H   0  0  0  0  0  0
  -23.3817  -35.9386   23.3272 H   0  0  0  0  0  0
  -24.3551  -36.8825   22.2081 H   0  0  0  0  0  0
  -23.7165  -37.6255   23.6752 H   0  0  0  0  0  0
  -26.3035  -31.2746   20.6405 H   0  0  0  0  0  0
  -26.9193  -30.5767   22.0866 H   0  0  0  0  0  0
  -28.1477  -28.4099   21.2763 H   0  0  0  0  0  0
  -25.8140  -25.6415   18.9624 H   0  0  0  0  0  0
  -24.0122  -27.2550   18.8856 H   0  0  0  0  0  0
  -23.8629  -30.4679   19.3726 H   0  0  0  0  0  0
  -22.8327  -29.1607   19.8523 H   0  0  0  0  0  0
  -25.1359  -36.1689   25.0779 H   0  0  0  0  0  0
  -21.0020  -28.3347   24.1284 H   0  0  0  0  0  0
  -20.5617  -26.2379   23.3653 H   0  0  0  0  0  0
  -21.6647  -26.7335   22.1228 H   0  0  0  0  0  0
  -19.6900  -25.6234   21.1280 H   0  0  0  0  0  0
  -19.6679  -27.3110   20.6693 H   0  0  0  0  0  0
  -17.4222  -26.6702   21.4012 H   0  0  0  0  0  0
  -18.0302  -26.0042   22.8976 H   0  0  0  0  0  0
  -19.7974  -30.7325   24.2134 H   0  0  0  0  0  0
  -17.5031  -31.6267   24.5103 H   0  0  0  0  0  0
  -15.5362  -30.2916   23.7692 H   0  0  0  0  0  0
  -15.8714  -28.0684   22.7244 H   0  0  0  0  0  0
  -24.5906  -30.7059   25.7503 H   0  0  0  0  0  0
  -24.8746  -32.2914   26.4526 H   0  0  0  0  0  0
  -25.7805  -30.8989   27.0141 H   0  0  0  0  0  0
  -26.3305  -29.6480   24.1486 H   0  0  0  0  0  0
  -27.3923  -29.7272   25.5317 H   0  0  0  0  0  0
  -27.9298  -30.4008   24.0149 H   0  0  0  0  0  0
  -27.2610  -33.3794   26.1781 H   0  0  0  0  0  0
  -28.3943  -32.6797   25.0337 H   0  0  0  0  0  0
  -28.0625  -31.8697   26.5565 H   0  0  0  0  0  0
  -28.2569  -38.0065   24.7582 H   0  0  0  0  0  0
  -28.1123  -36.2593   24.6274 H   0  0  0  0  0  0
  -27.2298  -37.1314   25.8887 H   0  0  0  0  0  0
  -20.9732  -29.8643   21.6561 H   0  0  0  0  0  0
  -26.0134  -38.2732   24.1407 H   0  0  0  0  0  0
  -24.5448  -18.8647   21.2184 H   0  0  0  0  0  0
  -24.4512  -19.4301   18.5613 H   0  0  0  0  0  0
  -27.0612  -19.4042   22.0146 H   0  0  0  0  0  0
  -27.6998  -19.5913   17.0429 H   0  0  0  0  0  0
  -27.5709  -21.2927   17.5137 H   0  0  0  0  0  0
  -26.1983  -20.4621   16.7736 H   0  0  0  0  0  0
  -33.0869  -19.3549   20.5070 H   0  0  0  0  0  0
  -31.9139  -19.4928   19.2035 H   0  0  0  0  0  0
  -32.3585  -17.9105   19.8321 H   0  0  0  0  0  0
  -32.3463  -18.6928   22.8597 H   0  0  0  0  0  0
  -31.5346  -17.2331   22.2940 H   0  0  0  0  0  0
  -30.6447  -18.4337   23.2177 H   0  0  0  0  0  0
  -28.8761  -22.1630   21.4650 H   0  0  0  0  0  0
  -29.9245  -22.3689   20.1302 H   0  0  0  0  0  0
  -26.9765  -23.6306   20.1859 H   0  0  0  0  0  0
  -28.0401  -23.8130   18.8705 H   0  0  0  0  0  0
  -30.9722  -20.1016   21.4285 H   0  0  0  0  0  0
  -29.1508  -20.2592   18.9792 H   0  0  0  0  0  0
  -29.0909  -18.5846   21.5511 H   0  0  0  0  0  0
  -28.5843  -16.6633   20.2632 H   0  0  0  0  0  0
  1 25  1  0  0  0
  1 30  2  0  0  0
  1 84  1  0  0  0
  2  3  1  0  0  0
  2 25  1  0  0  0
  2 85  1  0  0  0
  2 86  1  0  0  0
  3  4  1  0  0  0
  3 87  1  0  0  0
  3 88  1  0  0  0
  4  5  1  0  0  0
  4 89  1  0  0  0
  4 90  1  0  0  0
  5  6  1  0  0  0
  5 26  1  0  0  0
  5 91  1  0  0  0
  6 25  1  0  0  0
  6 92  1  0  0  0
  6 93  1  0  0  0
  7  8  2  0  0  0
  7 26  1  0  0  0
  7 29  1  0  0  0
  8  9  1  0  0  0
  8 22  1  0  0  0
  9 10  1  0  0  0
  9 27  2  0  0  0
 10 11  2  0  0  0
 10 15  1  0  0  0
 11 12  1  0  0  0
 11 94  1  0  0  0
 12 13  2  0  0  0
 12 95  1  0  0  0
 13 14  1  0  0  0
 13 31  1  0  0  0
 14 15  2  0  0  0
 14 96  1  0  0  0
 15 97  1  0  0  0
 16 17  2  0  0  0
 16 21  1  0  0  0
 16 31  1  0  0  0
 17 18  1  0  0  0
 17 98  1  0  0  0
 18 19  2  0  0  0
 18 99  1  0  0  0
 19 20  1  0  0  0
 19 24  1  0  0  0
 20 21  2  0  0  0
 20100  1  0  0  0
 21 23  1  0  0  0
 22 28  1  0  0  0
 22 32  2  0  0  0
 26 27  1  0  0  0
 28101  1  0  0  0
 28102  1  0  0  0
 29103  1  0  0  0
 29104  1  0  0  0
 33 34  1  0  0  0
 33 66  1  0  0  0
 33 70  2  0  0  0
 34 36  1  0  0  0
 34 59  1  0  0  0
 34105  1  0  0  0
 35 44  2  0  0  0
 35 45  1  0  0  0
 35 68  1  0  0  0
 36 56  1  0  0  0
 36106  1  0  0  0
 37 39  1  0  0  0
 37 47  1  0  0  0
 37 66  1  0  0  0
 37107  1  0  0  0
 38 43  2  0  0  0
 38 46  1  0  0  0
 38 47  1  0  0  0
 39 64  1  0  0  0
 39 67  2  0  0  0
 40 52  1  0  0  0
 40 53  2  0  0  0
 40 58  1  0  0  0
 41108  1  0  0  0
 41109  1  0  0  0
 41110  1  0  0  0
 41 48  1  0  0  0
 42 43  1  0  0  0
 42 66  1  0  0  0
 42111  1  0  0  0
 42112  1  0  0  0
 43 44  1  0  0  0
 44113  1  0  0  0
 45 46  2  0  0  0
 45114  1  0  0  0
 46115  1  0  0  0
 47116  1  0  0  0
 47117  1  0  0  0
 48 56  1  0  0  0
 48 65  1  0  0  0
 48118  1  0  0  0
 49 50  1  0  0  0
 49 53  1  0  0  0
 49 64  1  0  0  0
 49119  1  0  0  0
 50 51  1  0  0  0
 50120  1  0  0  0
 50121  1  0  0  0
 51 52  1  0  0  0
 51122  1  0  0  0
 51123  1  0  0  0
 52124  1  0  0  0
 52125  1  0  0  0
 53 54  1  0  0  0
 54 55  2  0  0  0
 54126  1  0  0  0
 55 57  1  0  0  0
 55127  1  0  0  0
 56 69  2  0  0  0
 57 58  2  0  0  0
 57128  1  0  0  0
 58129  1  0  0  0
 59 60  1  0  0  0
 59 61  1  0  0  0
 59 62  1  0  0  0
 60130  1  0  0  0
 60131  1  0  0  0
 60132  1  0  0  0
 61133  1  0  0  0
 61134  1  0  0  0
 61135  1  0  0  0
 62136  1  0  0  0
 62137  1  0  0  0
 62138  1  0  0  0
 63 65  1  0  0  0
 63139  1  0  0  0
 63140  1  0  0  0
 63141  1  0  0  0
 64142  1  0  0  0
 65143  1  0  0  0
 68 79  1  0  0  0
 71 72  1  0  0  0
 71 73  2  0  0  0
 71144  1  0  0  0
 72 74  2  0  0  0
 72145  1  0  0  0
 73 83  1  0  0  0
 73146  1  0  0  0
 74 75  1  0  0  0
 74 83  1  0  0  0
 75147  1  0  0  0
 75148  1  0  0  0
 75149  1  0  0  0
 76150  1  0  0  0
 76151  1  0  0  0
 76152  1  0  0  0
 76 80  1  0  0  0
 77 80  1  0  0  0
 77153  1  0  0  0
 77154  1  0  0  0
 77155  1  0  0  0
 78 79  1  0  0  0
 78156  1  0  0  0
 78157  1  0  0  0
 78 81  1  0  0  0
 79158  1  0  0  0
 79159  1  0  0  0
 80 82  1  0  0  0
 80160  1  0  0  0
 81 82  1  0  0  0
 81 83  1  0  0  0
 81161  1  0  0  0
 82 84  1  0  0  0
 82162  1  0  0  0
 84163  1  0  0  0
M  ISO  4   1 100  68 101  79 101  84 100
M  END
> <chiral flag>
0

> <version>
0

> <s_m_source_file>
/data/baiqing/PycharmProjects/Reinvent-master-3.2/result/LINK_invent/BTK/process_docking_weight1_custom_product_contain_oxygen_bond_distance_aromatic_linkinvent_7_9_3/rearranged_h_0191.sdf

> <i_m_source_file_index>
88

> <r_mmod_Potential_Energy-OPLS-2005>
2294.2373046875

> <r_mmod_Stretch_Energy-OPLS-2005>
1106.09069824219

> <r_mmod_Bend_Energy-OPLS-2005>
641.983581542969

> <r_mmod_Torsional_Energy-OPLS-2005>
260.848541259766

> <r_mmod_Improper_Torsional_Energy-OPLS-2005>
4.27520561218262

> <r_mmod_Van_der_Waal_Energy-OPLS-2005>
97.8783187866211

> <r_mmod_Electrostatic_Energy-OPLS-2005>
-401.602203369141

> <r_mmod_Solvation_Energy-OPLS-2005>
-207.062057495117

> <b_mmod_Minimization_Converged-OPLS-2005>
0

> <r_mmod_RMS_Derivative-OPLS-2005>
5.75693702697754

$$$$
90
                    3D
 Structure written by MMmdl.
160168  0  0  1  0            999 V2000
  -30.7008  -14.4405   20.5701 C   0  0  0  0  0  0
  -30.4291  -12.2825   19.4260 C   0  0  0  0  0  0
  -29.5016  -12.4944   18.2107 C   0  0  0  0  0  0
  -28.0207  -12.3622   18.6211 C   0  0  0  0  0  0
  -27.6684  -13.2015   19.8784 C   0  0  2  0  0  0
  -28.7060  -12.9612   20.9997 C   0  0  0  0  0  0
  -25.2621  -13.8151   20.5675 C   0  0  0  0  0  0
  -24.1860  -13.0442   20.9172 C   0  0  0  0  0  0
  -24.6392  -11.6905   20.8720 C   0  0  0  0  0  0
  -23.9050  -10.4295   21.0394 C   0  0  0  0  0  0
  -24.3601   -9.4208   21.9170 C   0  0  0  0  0  0
  -23.6282   -8.2240   22.0739 C   0  0  0  0  0  0
  -22.4266   -8.0274   21.3533 C   0  0  0  0  0  0
  -21.9895   -9.0251   20.4641 C   0  0  0  0  0  0
  -22.7222  -10.2132   20.3047 C   0  0  0  0  0  0
  -21.6851   -6.0734   22.5277 C   0  0  0  0  0  0
  -21.4019   -6.5635   23.8213 C   0  0  0  0  0  0
  -21.3659   -5.6783   24.9170 C   0  0  0  0  0  0
  -21.6043   -4.3048   24.7219 C   0  0  0  0  0  0
  -21.8824   -3.8142   23.4342 C   0  0  0  0  0  0
  -21.9193   -4.6962   22.3402 C   0  0  0  0  0  0
  -22.7879  -13.5253   21.1825 C   0  0  0  0  0  0
  -22.1662   -4.2148   21.0978 F   0  0  0  0  0  0
  -21.5618   -3.4533   25.7732 F   0  0  0  0  0  0
  -30.0462  -13.2546   20.4607 N   0  0  0  0  0  0
  -26.3056  -12.9316   20.3365 N   0  0  0  0  0  0
  -25.9319  -11.6485   20.5754 N   0  0  0  0  0  0
  -22.0507  -12.8263   22.0381 N   0  0  0  0  0  0
  -25.4354  -15.1867   20.4079 N   0  0  0  0  0  0
  -31.8194  -14.6387   20.0803 O   0  0  0  0  0  0
  -21.6632   -6.8872   21.4235 O   0  0  0  0  0  0
  -22.3570  -14.5561   20.6664 O   0  0  0  0  0  0
  -24.6116  -31.8710   23.2115 C   0  0  0  0  0  0
  -25.9030  -32.4831   23.8393 C   0  0  1  0  0  0
  -27.2390  -27.4621   20.0769 C   0  0  0  0  0  0
  -25.5895  -33.8626   24.2334 N   0  0  0  0  0  0
  -23.3951  -30.4959   21.5520 C   0  0  2  0  0  0
  -24.8387  -28.9620   20.1177 C   0  0  0  0  0  0
  -22.7381  -29.4687   22.5003 C   0  0  0  0  0  0
  -18.0266  -28.1379   22.8486 C   0  0  0  0  0  0
  -24.1486  -36.7323   23.2642 C   0  0  0  0  0  0
  -25.9207  -30.8432   21.3590 C   0  0  0  0  0  0
  -25.9958  -29.4771   20.7120 C   0  0  0  0  0  0
  -27.1923  -28.7298   20.6975 C   0  0  0  0  0  0
  -26.0520  -26.9438   19.5050 C   0  0  0  0  0  0
  -24.8595  -27.6910   19.5198 C   0  0  0  0  0  0
  -23.6009  -29.8279   20.1660 C   0  0  0  0  0  0
  -25.4104  -36.3114   24.0341 C   0  0  1  0  0  0
  -20.5853  -28.3667   23.1327 C   0  0  2  0  0  0
  -20.6764  -26.9409   22.5428 C   0  0  0  0  0  0
  -19.5752  -26.6396   21.5212 C   0  0  0  0  0  0
  -18.1920  -26.7928   22.1609 C   0  0  0  0  0  0
  -19.1515  -28.8832   23.2903 C   0  0  0  0  0  0
  -18.9449  -30.1433   23.8922 C   0  0  0  0  0  0
  -17.6456  -30.6584   24.0569 C   0  0  0  0  0  0
  -25.9033  -34.9480   23.5132 C   0  0  0  0  0  0
  -16.5344  -29.9093   23.6322 C   0  0  0  0  0  0
  -16.7256  -28.6509   23.0341 C   0  0  0  0  0  0
  -26.4482  -31.6594   25.0705 C   0  0  0  0  0  0
  -25.3774  -31.3694   26.1477 C   0  0  0  0  0  0
  -27.0320  -30.3041   24.6058 C   0  0  0  0  0  0
  -27.6067  -32.4311   25.7458 C   0  0  0  0  0  0
  -27.5575  -37.1820   24.8464 C   0  0  0  0  0  0
  -21.4117  -29.3032   22.3735 N   0  0  0  0  0  0
  -26.4288  -37.3796   23.9410 N   0  0  0  0  0  0
  -24.6606  -31.0844   22.0995 N   0  0  0  0  0  0
  -23.4175  -28.8230   23.3031 O   0  0  0  0  0  0
  -28.4510  -26.8046   20.0802 O   0  0  0  0  0  0
  -26.5593  -34.8930   22.4697 O   0  0  0  0  0  0
  -23.5322  -32.1442   23.7546 O   0  0  0  0  0  0
  -29.9709  -17.0606   19.3245 C   0  0  0  0  0  0
  -29.4909  -19.0314   21.1684 C   0  0  0  0  0  0
  -29.5565  -19.4060   19.8080 C   0  0  0  0  0  0
  -29.7990  -18.3784   18.8800 C   0  0  0  0  0  0
  -29.9044  -16.7745   20.7058 C   0  0  0  0  0  0
  -30.2852  -23.3595   18.1053 C   0  0  0  0  0  0
  -30.9833  -21.9864   20.7169 C   0  0  0  0  0  0
  -29.0123  -24.4481   20.0527 C   0  0  0  0  0  0
  -28.6954  -25.6991   19.2118 C   0  0  0  0  0  0
  -29.2376  -23.1595   19.2244 C   0  0  2  0  0  0
  -29.5639  -21.9241   20.1119 C   0  0  1  0  0  0
  -29.6480  -17.7574   21.6009 N   0  0  0  0  0  0
  -29.3814  -20.7133   19.3169 N   0  0  0  0  0  0
  -30.0007  -15.4288   21.1518 N   0  0  0  0  0  0
  -29.8584  -18.6599   17.5539 F   0  0  0  0  0  0
  -31.4745  -12.3809   19.1253 H   0  0  0  0  0  0
  -30.3271  -11.2671   19.8132 H   0  0  0  0  0  0
  -29.7361  -11.7655   17.4333 H   0  0  0  0  0  0
  -29.6794  -13.4771   17.7702 H   0  0  0  0  0  0
  -27.8293  -11.3073   18.8204 H   0  0  0  0  0  0
  -27.3708  -12.6340   17.7887 H   0  0  0  0  0  0
  -27.7206  -14.2506   19.5853 H   0  0  0  0  0  0
  -28.6723  -11.9221   21.3308 H   0  0  0  0  0  0
  -28.4681  -13.5519   21.8851 H   0  0  0  0  0  0
  -25.2743   -9.5695   22.4742 H   0  0  0  0  0  0
  -23.9994   -7.4640   22.7459 H   0  0  0  0  0  0
  -21.0820   -8.8782   19.8957 H   0  0  0  0  0  0
  -22.3678  -10.9668   19.6161 H   0  0  0  0  0  0
  -21.2022   -7.6149   23.9723 H   0  0  0  0  0  0
  -21.1466   -6.0506   25.9073 H   0  0  0  0  0  0
  -22.0603   -2.7606   23.2841 H   0  0  0  0  0  0
  -22.4099  -11.9944   22.4827 H   0  0  0  0  0  0
  -21.1123  -13.1305   22.2555 H   0  0  0  0  0  0
  -24.6687  -15.8418   20.5150 H   0  0  0  0  0  0
  -26.2844  -15.6225   20.0711 H   0  0  0  0  0  0
  -26.7099  -32.5563   23.1160 H   0  0  0  0  0  0
  -25.0040  -33.9777   25.0471 H   0  0  0  0  0  0
  -22.6814  -31.3113   21.4156 H   0  0  0  0  0  0
  -23.3729  -35.9676   23.3327 H   0  0  0  0  0  0
  -24.3574  -36.8917   22.2051 H   0  0  0  0  0  0
  -23.7261  -37.6546   23.6641 H   0  0  0  0  0  0
  -26.0273  -31.6075   20.5876 H   0  0  0  0  0  0
  -26.8109  -30.9004   21.9723 H   0  0  0  0  0  0
  -28.0870  -29.1303   21.1539 H   0  0  0  0  0  0
  -26.0091  -25.9653   19.0531 H   0  0  0  0  0  0
  -23.9642  -27.2817   19.0722 H   0  0  0  0  0  0
  -23.7078  -30.6019   19.4054 H   0  0  0  0  0  0
  -22.7245  -29.2477   19.8707 H   0  0  0  0  0  0
  -25.1284  -36.1979   25.0831 H   0  0  0  0  0  0
  -20.9941  -28.3249   24.1449 H   0  0  0  0  0  0
  -20.5678  -26.2276   23.3613 H   0  0  0  0  0  0
  -21.6638  -26.7473   22.1221 H   0  0  0  0  0  0
  -19.6926  -25.6316   21.1219 H   0  0  0  0  0  0
  -19.6695  -27.3226   20.6758 H   0  0  0  0  0  0
  -17.4204  -26.6677   21.3995 H   0  0  0  0  0  0
  -18.0313  -26.0056   22.8991 H   0  0  0  0  0  0
  -19.7928  -30.7230   24.2313 H   0  0  0  0  0  0
  -17.5020  -31.6267   24.5178 H   0  0  0  0  0  0
  -15.5347  -30.3013   23.7635 H   0  0  0  0  0  0
  -15.8650  -28.0845   22.7046 H   0  0  0  0  0  0
  -24.5910  -30.7082   25.7822 H   0  0  0  0  0  0
  -24.9015  -32.2856   26.4980 H   0  0  0  0  0  0
  -25.8146  -30.8817   27.0199 H   0  0  0  0  0  0
  -26.2846  -29.6770   24.1182 H   0  0  0  0  0  0
  -27.4186  -29.7304   25.4493 H   0  0  0  0  0  0
  -27.8637  -30.4368   23.9134 H   0  0  0  0  0  0
  -27.2683  -33.3586   26.2085 H   0  0  0  0  0  0
  -28.3843  -32.6913   25.0266 H   0  0  0  0  0  0
  -28.0776  -31.8412   26.5330 H   0  0  0  0  0  0
  -28.2621  -38.0091   24.7486 H   0  0  0  0  0  0
  -28.1043  -36.2626   24.6318 H   0  0  0  0  0  0
  -27.2296  -37.1512   25.8869 H   0  0  0  0  0  0
  -20.9276  -29.8737   21.6945 H   0  0  0  0  0  0
  -26.0181  -38.2881   24.1389 H   0  0  0  0  0  0
  -30.1428  -16.2903   18.5882 H   0  0  0  0  0  0
  -29.2920  -19.7651   21.9364 H   0  0  0  0  0  0
  -29.9094  -24.0127   17.3176 H   0  0  0  0  0  0
  -30.5559  -22.4193   17.6254 H   0  0  0  0  0  0
  -31.2029  -23.8037   18.4917 H   0  0  0  0  0  0
  -31.1396  -22.9044   21.2826 H   0  0  0  0  0  0
  -31.7552  -21.9414   19.9480 H   0  0  0  0  0  0
  -31.1743  -21.1677   21.4086 H   0  0  0  0  0  0
  -28.1929  -24.2758   20.7518 H   0  0  0  0  0  0
  -29.8873  -24.6644   20.6648 H   0  0  0  0  0  0
  -27.9200  -25.4990   18.4775 H   0  0  0  0  0  0
  -29.5728  -25.9703   18.6248 H   0  0  0  0  0  0
  -28.2827  -22.9556   18.7358 H   0  0  0  0  0  0
  -28.8388  -21.8977   20.9279 H   0  0  0  0  0  0
  -29.3988  -20.8183   18.3059 H   0  0  0  0  0  0
  -29.2613  -15.1324   21.7684 H   0  0  0  0  0  0
  1 25  1  0  0  0
  1 30  2  0  0  0
  1 84  1  0  0  0
  2  3  1  0  0  0
  2 25  1  0  0  0
  2 86  1  0  0  0
  2 87  1  0  0  0
  3  4  1  0  0  0
  3 88  1  0  0  0
  3 89  1  0  0  0
  4  5  1  0  0  0
  4 90  1  0  0  0
  4 91  1  0  0  0
  5  6  1  0  0  0
  5 26  1  0  0  0
  5 92  1  0  0  0
  6 25  1  0  0  0
  6 93  1  0  0  0
  6 94  1  0  0  0
  7  8  2  0  0  0
  7 26  1  0  0  0
  7 29  1  0  0  0
  8  9  1  0  0  0
  8 22  1  0  0  0
  9 10  1  0  0  0
  9 27  2  0  0  0
 10 11  2  0  0  0
 10 15  1  0  0  0
 11 12  1  0  0  0
 11 95  1  0  0  0
 12 13  2  0  0  0
 12 96  1  0  0  0
 13 14  1  0  0  0
 13 31  1  0  0  0
 14 15  2  0  0  0
 14 97  1  0  0  0
 15 98  1  0  0  0
 16 17  2  0  0  0
 16 21  1  0  0  0
 16 31  1  0  0  0
 17 18  1  0  0  0
 17 99  1  0  0  0
 18 19  2  0  0  0
 18100  1  0  0  0
 19 20  1  0  0  0
 19 24  1  0  0  0
 20 21  2  0  0  0
 20101  1  0  0  0
 21 23  1  0  0  0
 22 28  1  0  0  0
 22 32  2  0  0  0
 26 27  1  0  0  0
 28102  1  0  0  0
 28103  1  0  0  0
 29104  1  0  0  0
 29105  1  0  0  0
 33 34  1  0  0  0
 33 66  1  0  0  0
 33 70  2  0  0  0
 34 36  1  0  0  0
 34 59  1  0  0  0
 34106  1  0  0  0
 35 44  2  0  0  0
 35 45  1  0  0  0
 35 68  1  0  0  0
 36 56  1  0  0  0
 36107  1  0  0  0
 37 39  1  0  0  0
 37 47  1  0  0  0
 37 66  1  0  0  0
 37108  1  0  0  0
 38 43  2  0  0  0
 38 46  1  0  0  0
 38 47  1  0  0  0
 39 64  1  0  0  0
 39 67  2  0  0  0
 40 52  1  0  0  0
 40 53  2  0  0  0
 40 58  1  0  0  0
 41109  1  0  0  0
 41110  1  0  0  0
 41111  1  0  0  0
 41 48  1  0  0  0
 42 43  1  0  0  0
 42 66  1  0  0  0
 42112  1  0  0  0
 42113  1  0  0  0
 43 44  1  0  0  0
 44114  1  0  0  0
 45 46  2  0  0  0
 45115  1  0  0  0
 46116  1  0  0  0
 47117  1  0  0  0
 47118  1  0  0  0
 48 56  1  0  0  0
 48 65  1  0  0  0
 48119  1  0  0  0
 49 50  1  0  0  0
 49 53  1  0  0  0
 49 64  1  0  0  0
 49120  1  0  0  0
 50 51  1  0  0  0
 50121  1  0  0  0
 50122  1  0  0  0
 51 52  1  0  0  0
 51123  1  0  0  0
 51124  1  0  0  0
 52125  1  0  0  0
 52126  1  0  0  0
 53 54  1  0  0  0
 54 55  2  0  0  0
 54127  1  0  0  0
 55 57  1  0  0  0
 55128  1  0  0  0
 56 69  2  0  0  0
 57 58  2  0  0  0
 57129  1  0  0  0
 58130  1  0  0  0
 59 60  1  0  0  0
 59 61  1  0  0  0
 59 62  1  0  0  0
 60131  1  0  0  0
 60132  1  0  0  0
 60133  1  0  0  0
 61134  1  0  0  0
 61135  1  0  0  0
 61136  1  0  0  0
 62137  1  0  0  0
 62138  1  0  0  0
 62139  1  0  0  0
 63 65  1  0  0  0
 63140  1  0  0  0
 63141  1  0  0  0
 63142  1  0  0  0
 64143  1  0  0  0
 65144  1  0  0  0
 68 79  1  0  0  0
 71 74  2  0  0  0
 71 75  1  0  0  0
 71145  1  0  0  0
 72 73  2  0  0  0
 72 82  1  0  0  0
 72146  1  0  0  0
 73 74  1  0  0  0
 73 83  1  0  0  0
 74 85  1  0  0  0
 75 82  2  0  0  0
 75 84  1  0  0  0
 76147  1  0  0  0
 76148  1  0  0  0
 76149  1  0  0  0
 76 80  1  0  0  0
 77150  1  0  0  0
 77151  1  0  0  0
 77152  1  0  0  0
 77 81  1  0  0  0
 78 79  1  0  0  0
 78 80  1  0  0  0
 78153  1  0  0  0
 78154  1  0  0  0
 79155  1  0  0  0
 79156  1  0  0  0
 80 81  1  0  0  0
 80157  1  0  0  0
 81 83  1  0  0  0
 81158  1  0  0  0
 83159  1  0  0  0
 84160  1  0  0  0
M  ISO  4   1 100  68 101  79 101  84 100
M  END
> <chiral flag>
0

> <version>
0

> <s_m_source_file>
/data/baiqing/PycharmProjects/Reinvent-master-3.2/result/LINK_invent/BTK/process_docking_weight1_custom_product_contain_oxygen_bond_distance_aromatic_linkinvent_7_9_3/rearranged_h_0191.sdf

> <i_m_source_file_index>
89

> <r_mmod_Potential_Energy-OPLS-2005>
-174.082595825195

> <r_mmod_Stretch_Energy-OPLS-2005>
34.5567665100098

> <r_mmod_Bend_Energy-OPLS-2005>
121.552474975586

> <r_mmod_Torsional_Energy-OPLS-2005>
236.928833007812

> <r_mmod_Improper_Torsional_Energy-OPLS-2005>
5.13675975799561

> <r_mmod_Van_der_Waal_Energy-OPLS-2005>
165.368942260742

> <r_mmod_Electrostatic_Energy-OPLS-2005>
-539.863830566406

> <r_mmod_Solvation_Energy-OPLS-2005>
-208.408782958984

> <b_mmod_Minimization_Converged-OPLS-2005>
0

> <r_mmod_RMS_Derivative-OPLS-2005>
1.66425573825836

$$$$
91
                    3D
 Structure written by MMmdl.
157165  0  0  1  0            999 V2000
  -30.7342  -14.5062   20.5494 C   0  0  0  0  0  0
  -30.4102  -12.3252   19.4293 C   0  0  0  0  0  0
  -29.4849  -12.4934   18.2067 C   0  0  0  0  0  0
  -28.0102  -12.3529   18.6256 C   0  0  0  0  0  0
  -27.6530  -13.2175   19.8646 C   0  0  2  0  0  0
  -28.7005  -13.0562   20.9915 C   0  0  0  0  0  0
  -25.2546  -13.8188   20.5674 C   0  0  0  0  0  0
  -24.1817  -13.0426   20.9182 C   0  0  0  0  0  0
  -24.6398  -11.6904   20.8737 C   0  0  0  0  0  0
  -23.9076  -10.4280   21.0396 C   0  0  0  0  0  0
  -24.3630   -9.4189   21.9168 C   0  0  0  0  0  0
  -23.6297   -8.2228   22.0745 C   0  0  0  0  0  0
  -22.4280   -8.0272   21.3536 C   0  0  0  0  0  0
  -21.9915   -9.0244   20.4635 C   0  0  0  0  0  0
  -22.7250  -10.2122   20.3038 C   0  0  0  0  0  0
  -21.6858   -6.0725   22.5273 C   0  0  0  0  0  0
  -21.4019   -6.5632   23.8203 C   0  0  0  0  0  0
  -21.3661   -5.6787   24.9172 C   0  0  0  0  0  0
  -21.6048   -4.3050   24.7223 C   0  0  0  0  0  0
  -21.8820   -3.8137   23.4347 C   0  0  0  0  0  0
  -21.9194   -4.6953   22.3402 C   0  0  0  0  0  0
  -22.7843  -13.5200   21.1861 C   0  0  0  0  0  0
  -22.1661   -4.2130   21.0983 F   0  0  0  0  0  0
  -21.5630   -3.4538   25.7744 F   0  0  0  0  0  0
  -30.0264  -13.3450   20.4229 N   0  0  0  0  0  0
  -26.2992  -12.9382   20.3342 N   0  0  0  0  0  0
  -25.9335  -11.6529   20.5767 N   0  0  0  0  0  0
  -22.0532  -12.8150   22.0434 N   0  0  0  0  0  0
  -25.4233  -15.1909   20.4105 N   0  0  0  0  0  0
  -31.8789  -14.6051   20.0956 O   0  0  0  0  0  0
  -21.6646   -6.8873   21.4236 O   0  0  0  0  0  0
  -22.3507  -14.5502   20.6739 O   0  0  0  0  0  0
  -24.6219  -31.8692   23.2132 C   0  0  0  0  0  0
  -25.9114  -32.4837   23.8400 C   0  0  1  0  0  0
  -27.2126  -27.3945   20.0884 C   0  0  0  0  0  0
  -25.5961  -33.8633   24.2337 N   0  0  0  0  0  0
  -23.4075  -30.5003   21.5556 C   0  0  2  0  0  0
  -24.8460  -28.9715   20.1112 C   0  0  0  0  0  0
  -22.7463  -29.4686   22.4990 C   0  0  0  0  0  0
  -18.0278  -28.1385   22.8479 C   0  0  0  0  0  0
  -24.1484  -36.7302   23.2632 C   0  0  0  0  0  0
  -25.9432  -30.8230   21.3709 C   0  0  0  0  0  0
  -26.0145  -29.4578   20.7107 C   0  0  0  0  0  0
  -27.2002  -28.6774   20.6987 C   0  0  0  0  0  0
  -26.0195  -26.9498   19.4658 C   0  0  0  0  0  0
  -24.8448  -27.7176   19.4851 C   0  0  0  0  0  0
  -23.6157  -29.8482   20.1659 C   0  0  0  0  0  0
  -25.4115  -36.3129   24.0327 C   0  0  1  0  0  0
  -20.5877  -28.3704   23.1299 C   0  0  2  0  0  0
  -20.6789  -26.9440   22.5421 C   0  0  0  0  0  0
  -19.5773  -26.6395   21.5220 C   0  0  0  0  0  0
  -18.1939  -26.7928   22.1603 C   0  0  0  0  0  0
  -19.1526  -28.8855   23.2877 C   0  0  0  0  0  0
  -18.9462  -30.1444   23.8912 C   0  0  0  0  0  0
  -17.6474  -30.6601   24.0563 C   0  0  0  0  0  0
  -25.9053  -34.9494   23.5131 C   0  0  0  0  0  0
  -16.5362  -29.9112   23.6315 C   0  0  0  0  0  0
  -16.7267  -28.6514   23.0356 C   0  0  0  0  0  0
  -26.4508  -31.6607   25.0725 C   0  0  0  0  0  0
  -25.3762  -31.3730   26.1476 C   0  0  0  0  0  0
  -27.0345  -30.3043   24.6095 C   0  0  0  0  0  0
  -27.6072  -32.4345   25.7497 C   0  0  0  0  0  0
  -27.5592  -37.1820   24.8471 C   0  0  0  0  0  0
  -21.4188  -29.3058   22.3718 N   0  0  0  0  0  0
  -26.4300  -37.3816   23.9407 N   0  0  0  0  0  0
  -24.6759  -31.0794   22.1026 N   0  0  0  0  0  0
  -23.4229  -28.8217   23.3031 O   0  0  0  0  0  0
  -28.3503  -26.5936   20.1326 O   0  0  0  0  0  0
  -26.5611  -34.8953   22.4692 O   0  0  0  0  0  0
  -23.5417  -32.1445   23.7522 O   0  0  0  0  0  0
  -31.4232  -19.3876   21.6743 C   0  0  0  0  0  0
  -30.1963  -19.1653   21.0433 C   0  0  0  0  0  0
  -32.1460  -18.2651   22.0770 C   0  0  0  0  0  0
  -30.5222  -16.8778   21.2294 C   0  0  0  0  0  0
  -34.1192  -17.2736   23.0256 C   0  0  0  0  0  0
  -29.8647  -21.6287   20.6459 C   0  0  0  0  0  0
  -28.1470  -25.1798   19.8581 C   0  0  0  0  0  0
  -28.8190  -22.6810   20.1817 C   0  0  1  0  0  0
  -29.2487  -24.1841   20.3165 C   0  0  1  0  0  0
  -29.7467  -17.9050   20.8365 N   0  0  0  0  0  0
  -31.6846  -17.0180   21.8645 N   0  0  0  0  0  0
  -29.3868  -20.2306   20.6037 N   0  0  0  0  0  0
  -30.0586  -15.5874   21.0137 N   0  0  0  0  0  0
  -33.3607  -18.4360   22.7060 O   0  0  0  0  0  0
  -28.4892  -22.4100   18.9166 F   0  0  0  0  0  0
  -30.3681  -24.3988   19.6199 F   0  0  0  0  0  0
  -31.4538  -12.3991   19.1203 H   0  0  0  0  0  0
  -30.3006  -11.3266   19.8568 H   0  0  0  0  0  0
  -29.7242  -11.7500   17.4455 H   0  0  0  0  0  0
  -29.6459  -13.4694   17.7457 H   0  0  0  0  0  0
  -27.8298  -11.2998   18.8439 H   0  0  0  0  0  0
  -27.3560  -12.6054   17.7903 H   0  0  0  0  0  0
  -27.6783  -14.2554   19.5336 H   0  0  0  0  0  0
  -28.6832  -12.0395   21.3868 H   0  0  0  0  0  0
  -28.4648  -13.7082   21.8341 H   0  0  0  0  0  0
  -25.2784   -9.5656   22.4725 H   0  0  0  0  0  0
  -24.0010   -7.4619   22.7463 H   0  0  0  0  0  0
  -21.0841   -8.8762   19.8937 H   0  0  0  0  0  0
  -22.3713  -10.9658   19.6136 H   0  0  0  0  0  0
  -21.2017   -7.6138   23.9701 H   0  0  0  0  0  0
  -21.1487   -6.0523   25.9073 H   0  0  0  0  0  0
  -22.0604   -2.7594   23.2861 H   0  0  0  0  0  0
  -22.4231  -11.9813   22.4751 H   0  0  0  0  0  0
  -21.1146  -13.1116   22.2705 H   0  0  0  0  0  0
  -24.6526  -15.8409   20.5226 H   0  0  0  0  0  0
  -26.2668  -15.6355   20.0713 H   0  0  0  0  0  0
  -26.7186  -32.5554   23.1154 H   0  0  0  0  0  0
  -25.0189  -33.9764   25.0539 H   0  0  0  0  0  0
  -22.6940  -31.3164   21.4256 H   0  0  0  0  0  0
  -23.3782  -35.9613   23.3305 H   0  0  0  0  0  0
  -24.3582  -36.8917   22.2051 H   0  0  0  0  0  0
  -23.7194  -37.6482   23.6652 H   0  0  0  0  0  0
  -26.0666  -31.5926   20.6107 H   0  0  0  0  0  0
  -26.8266  -30.8670   21.9942 H   0  0  0  0  0  0
  -28.0980  -29.0434   21.1789 H   0  0  0  0  0  0
  -25.9579  -26.0020   18.9551 H   0  0  0  0  0  0
  -23.9485  -27.3394   19.0104 H   0  0  0  0  0  0
  -23.7357  -30.6335   19.4180 H   0  0  0  0  0  0
  -22.7312  -29.2831   19.8640 H   0  0  0  0  0  0
  -25.1283  -36.2000   25.0818 H   0  0  0  0  0  0
  -20.9924  -28.3322   24.1428 H   0  0  0  0  0  0
  -20.5737  -26.2330   23.3633 H   0  0  0  0  0  0
  -21.6667  -26.7529   22.1202 H   0  0  0  0  0  0
  -19.6971  -25.6313   21.1254 H   0  0  0  0  0  0
  -19.6704  -27.3195   20.6754 H   0  0  0  0  0  0
  -17.4217  -26.6678   21.3987 H   0  0  0  0  0  0
  -18.0295  -26.0048   22.8961 H   0  0  0  0  0  0
  -19.7951  -30.7219   24.2317 H   0  0  0  0  0  0
  -17.5053  -31.6285   24.5185 H   0  0  0  0  0  0
  -15.5374  -30.3049   23.7631 H   0  0  0  0  0  0
  -15.8645  -28.0863   22.7082 H   0  0  0  0  0  0
  -24.5946  -30.7053   25.7835 H   0  0  0  0  0  0
  -24.8942  -32.2896   26.4896 H   0  0  0  0  0  0
  -25.8113  -30.8941   27.0259 H   0  0  0  0  0  0
  -26.2882  -29.6795   24.1169 H   0  0  0  0  0  0
  -27.4136  -29.7282   25.4550 H   0  0  0  0  0  0
  -27.8721  -30.4347   23.9233 H   0  0  0  0  0  0
  -27.2670  -33.3650   26.2069 H   0  0  0  0  0  0
  -28.3901  -32.6910   25.0340 H   0  0  0  0  0  0
  -28.0725  -31.8471   26.5434 H   0  0  0  0  0  0
  -28.2636  -38.0097   24.7571 H   0  0  0  0  0  0
  -28.1059  -36.2644   24.6242 H   0  0  0  0  0  0
  -27.2323  -37.1425   25.8876 H   0  0  0  0  0  0
  -20.9382  -29.8758   21.6901 H   0  0  0  0  0  0
  -26.0204  -38.2903   24.1418 H   0  0  0  0  0  0
  -31.8268  -20.3726   21.8613 H   0  0  0  0  0  0
  -35.0454  -17.5691   23.5170 H   0  0  0  0  0  0
  -34.3855  -16.7128   22.1281 H   0  0  0  0  0  0
  -33.5765  -16.6170   23.7070 H   0  0  0  0  0  0
  -30.1647  -21.8740   21.6658 H   0  0  0  0  0  0
  -30.7565  -21.7125   20.0234 H   0  0  0  0  0  0
  -27.2352  -24.8534   20.3628 H   0  0  0  0  0  0
  -27.9858  -25.0549   18.7856 H   0  0  0  0  0  0
  -27.9048  -22.5357   20.7592 H   0  0  0  0  0  0
  -29.4909  -24.3863   21.3604 H   0  0  0  0  0  0
  -28.5500  -20.0220   20.0702 H   0  0  0  0  0  0
  -29.0758  -15.4520   21.1706 H   0  0  0  0  0  0
  1 25  1  0  0  0
  1 30  2  0  0  0
  1 83  1  0  0  0
  2  3  1  0  0  0
  2 25  1  0  0  0
  2 87  1  0  0  0
  2 88  1  0  0  0
  3  4  1  0  0  0
  3 89  1  0  0  0
  3 90  1  0  0  0
  4  5  1  0  0  0
  4 91  1  0  0  0
  4 92  1  0  0  0
  5  6  1  0  0  0
  5 26  1  0  0  0
  5 93  1  0  0  0
  6 25  1  0  0  0
  6 94  1  0  0  0
  6 95  1  0  0  0
  7  8  2  0  0  0
  7 26  1  0  0  0
  7 29  1  0  0  0
  8  9  1  0  0  0
  8 22  1  0  0  0
  9 10  1  0  0  0
  9 27  2  0  0  0
 10 11  2  0  0  0
 10 15  1  0  0  0
 11 12  1  0  0  0
 11 96  1  0  0  0
 12 13  2  0  0  0
 12 97  1  0  0  0
 13 14  1  0  0  0
 13 31  1  0  0  0
 14 15  2  0  0  0
 14 98  1  0  0  0
 15 99  1  0  0  0
 16 17  2  0  0  0
 16 21  1  0  0  0
 16 31  1  0  0  0
 17 18  1  0  0  0
 17100  1  0  0  0
 18 19  2  0  0  0
 18101  1  0  0  0
 19 20  1  0  0  0
 19 24  1  0  0  0
 20 21  2  0  0  0
 20102  1  0  0  0
 21 23  1  0  0  0
 22 28  1  0  0  0
 22 32  2  0  0  0
 26 27  1  0  0  0
 28103  1  0  0  0
 28104  1  0  0  0
 29105  1  0  0  0
 29106  1  0  0  0
 33 34  1  0  0  0
 33 66  1  0  0  0
 33 70  2  0  0  0
 34 36  1  0  0  0
 34 59  1  0  0  0
 34107  1  0  0  0
 35 44  2  0  0  0
 35 45  1  0  0  0
 35 68  1  0  0  0
 36 56  1  0  0  0
 36108  1  0  0  0
 37 39  1  0  0  0
 37 47  1  0  0  0
 37 66  1  0  0  0
 37109  1  0  0  0
 38 43  2  0  0  0
 38 46  1  0  0  0
 38 47  1  0  0  0
 39 64  1  0  0  0
 39 67  2  0  0  0
 40 52  1  0  0  0
 40 53  2  0  0  0
 40 58  1  0  0  0
 41110  1  0  0  0
 41111  1  0  0  0
 41112  1  0  0  0
 41 48  1  0  0  0
 42 43  1  0  0  0
 42 66  1  0  0  0
 42113  1  0  0  0
 42114  1  0  0  0
 43 44  1  0  0  0
 44115  1  0  0  0
 45 46  2  0  0  0
 45116  1  0  0  0
 46117  1  0  0  0
 47118  1  0  0  0
 47119  1  0  0  0
 48 56  1  0  0  0
 48 65  1  0  0  0
 48120  1  0  0  0
 49 50  1  0  0  0
 49 53  1  0  0  0
 49 64  1  0  0  0
 49121  1  0  0  0
 50 51  1  0  0  0
 50122  1  0  0  0
 50123  1  0  0  0
 51 52  1  0  0  0
 51124  1  0  0  0
 51125  1  0  0  0
 52126  1  0  0  0
 52127  1  0  0  0
 53 54  1  0  0  0
 54 55  2  0  0  0
 54128  1  0  0  0
 55 57  1  0  0  0
 55129  1  0  0  0
 56 69  2  0  0  0
 57 58  2  0  0  0
 57130  1  0  0  0
 58131  1  0  0  0
 59 60  1  0  0  0
 59 61  1  0  0  0
 59 62  1  0  0  0
 60132  1  0  0  0
 60133  1  0  0  0
 60134  1  0  0  0
 61135  1  0  0  0
 61136  1  0  0  0
 61137  1  0  0  0
 62138  1  0  0  0
 62139  1  0  0  0
 62140  1  0  0  0
 63 65  1  0  0  0
 63141  1  0  0  0
 63142  1  0  0  0
 63143  1  0  0  0
 64144  1  0  0  0
 65145  1  0  0  0
 68 77  1  0  0  0
 71 72  2  0  0  0
 71 73  1  0  0  0
 71146  1  0  0  0
 72 80  1  0  0  0
 72 82  1  0  0  0
 73 81  2  0  0  0
 73 84  1  0  0  0
 74 80  2  0  0  0
 74 81  1  0  0  0
 74 83  1  0  0  0
 75 84  1  0  0  0
 75147  1  0  0  0
 75148  1  0  0  0
 75149  1  0  0  0
 76 78  1  0  0  0
 76 82  1  0  0  0
 76150  1  0  0  0
 76151  1  0  0  0
 77 79  1  0  0  0
 77152  1  0  0  0
 77153  1  0  0  0
 78 79  1  0  0  0
 78 85  1  0  0  0
 78154  1  0  0  0
 79 86  1  0  0  0
 79155  1  0  0  0
 82156  1  0  0  0
 83157  1  0  0  0
M  ISO  4   1 100  68 101  77 101  83 100
M  END
> <chiral flag>
0

> <version>
0

> <s_m_source_file>
/data/baiqing/PycharmProjects/Reinvent-master-3.2/result/LINK_invent/BTK/process_docking_weight1_custom_product_contain_oxygen_bond_distance_aromatic_linkinvent_7_9_3/rearranged_h_0191.sdf

> <i_m_source_file_index>
90

> <r_mmod_Potential_Energy-OPLS-2005>
-581.616821289062

> <r_mmod_Stretch_Energy-OPLS-2005>
44.9578475952148

> <r_mmod_Bend_Energy-OPLS-2005>
119.153907775879

> <r_mmod_Torsional_Energy-OPLS-2005>
182.878265380859

> <r_mmod_Improper_Torsional_Energy-OPLS-2005>
4.58969974517822

> <r_mmod_Van_der_Waal_Energy-OPLS-2005>
179.621139526367

> <r_mmod_Electrostatic_Energy-OPLS-2005>
-903.366394042969

> <r_mmod_Solvation_Energy-OPLS-2005>
-232.577529907227

> <b_mmod_Minimization_Converged-OPLS-2005>
0

> <r_mmod_RMS_Derivative-OPLS-2005>
2.78747820854187

$$$$
92
                    3D
 Structure written by MMmdl.
163171  0  0  1  0            999 V2000
  -30.7157  -14.4624   20.5743 C   0  0  0  0  0  0
  -30.4246  -12.2993   19.4371 C   0  0  0  0  0  0
  -29.5017  -12.5137   18.2199 C   0  0  0  0  0  0
  -28.0206  -12.3792   18.6223 C   0  0  0  0  0  0
  -27.6651  -13.2108   19.8825 C   0  0  2  0  0  0
  -28.7040  -12.9918   21.0076 C   0  0  0  0  0  0
  -25.2576  -13.8166   20.5699 C   0  0  0  0  0  0
  -24.1820  -13.0440   20.9166 C   0  0  0  0  0  0
  -24.6369  -11.6912   20.8711 C   0  0  0  0  0  0
  -23.9050  -10.4283   21.0390 C   0  0  0  0  0  0
  -24.3598   -9.4197   21.9168 C   0  0  0  0  0  0
  -23.6272   -8.2245   22.0743 C   0  0  0  0  0  0
  -22.4255   -8.0274   21.3543 C   0  0  0  0  0  0
  -21.9887   -9.0246   20.4641 C   0  0  0  0  0  0
  -22.7218  -10.2118   20.3045 C   0  0  0  0  0  0
  -21.6851   -6.0707   22.5268 C   0  0  0  0  0  0
  -21.4021   -6.5618   23.8198 C   0  0  0  0  0  0
  -21.3666   -5.6780   24.9166 C   0  0  0  0  0  0
  -21.6048   -4.3045   24.7224 C   0  0  0  0  0  0
  -21.8815   -3.8123   23.4352 C   0  0  0  0  0  0
  -21.9194   -4.6935   22.3402 C   0  0  0  0  0  0
  -22.7842  -13.5240   21.1844 C   0  0  0  0  0  0
  -22.1664   -4.2136   21.0978 F   0  0  0  0  0  0
  -21.5628   -3.4518   25.7735 F   0  0  0  0  0  0
  -30.0453  -13.2818   20.4667 N   0  0  0  0  0  0
  -26.3031  -12.9345   20.3403 N   0  0  0  0  0  0
  -25.9305  -11.6499   20.5753 N   0  0  0  0  0  0
  -22.0497  -12.8237   22.0400 N   0  0  0  0  0  0
  -25.4306  -15.1880   20.4127 N   0  0  0  0  0  0
  -31.8223  -14.6470   20.0572 O   0  0  0  0  0  0
  -21.6635   -6.8854   21.4233 O   0  0  0  0  0  0
  -22.3534  -14.5561   20.6711 O   0  0  0  0  0  0
  -24.6102  -31.8721   23.2117 C   0  0  0  0  0  0
  -25.9004  -32.4859   23.8417 C   0  0  1  0  0  0
  -27.2514  -27.4593   20.1125 C   0  0  0  0  0  0
  -25.5860  -33.8654   24.2344 N   0  0  0  0  0  0
  -23.4012  -30.4903   21.5523 C   0  0  2  0  0  0
  -24.8546  -28.9553   20.1223 C   0  0  0  0  0  0
  -22.7402  -29.4667   22.5029 C   0  0  0  0  0  0
  -18.0271  -28.1369   22.8502 C   0  0  0  0  0  0
  -24.1478  -36.7326   23.2639 C   0  0  0  0  0  0
  -25.9250  -30.8454   21.3627 C   0  0  0  0  0  0
  -26.0095  -29.4752   20.7230 C   0  0  0  0  0  0
  -27.2106  -28.7348   20.7216 C   0  0  0  0  0  0
  -26.0897  -26.9537   19.4990 C   0  0  0  0  0  0
  -24.8893  -27.6907   19.5080 C   0  0  0  0  0  0
  -23.6117  -29.8157   20.1697 C   0  0  0  0  0  0
  -25.4104  -36.3146   24.0346 C   0  0  1  0  0  0
  -20.5855  -28.3648   23.1333 C   0  0  2  0  0  0
  -20.6753  -26.9389   22.5421 C   0  0  0  0  0  0
  -19.5734  -26.6385   21.5214 C   0  0  0  0  0  0
  -18.1916  -26.7920   22.1625 C   0  0  0  0  0  0
  -19.1517  -28.8833   23.2910 C   0  0  0  0  0  0
  -18.9445  -30.1441   23.8919 C   0  0  0  0  0  0
  -17.6446  -30.6581   24.0571 C   0  0  0  0  0  0
  -25.9030  -34.9502   23.5153 C   0  0  0  0  0  0
  -16.5341  -29.9083   23.6329 C   0  0  0  0  0  0
  -16.7260  -28.6496   23.0359 C   0  0  0  0  0  0
  -26.4444  -31.6628   25.0734 C   0  0  0  0  0  0
  -25.3712  -31.3717   26.1487 C   0  0  0  0  0  0
  -27.0250  -30.3076   24.6065 C   0  0  0  0  0  0
  -27.6036  -32.4339   25.7467 C   0  0  0  0  0  0
  -27.5588  -37.1814   24.8470 C   0  0  0  0  0  0
  -21.4134  -29.3020   22.3743 N   0  0  0  0  0  0
  -26.4296  -37.3821   23.9412 N   0  0  0  0  0  0
  -24.6635  -31.0826   22.1012 N   0  0  0  0  0  0
  -23.4179  -28.8236   23.3084 O   0  0  0  0  0  0
  -28.4003  -26.7050   20.0374 O   0  0  0  0  0  0
  -26.5602  -34.8943   22.4721 O   0  0  0  0  0  0
  -23.5295  -32.1448   23.7524 O   0  0  0  0  0  0
  -29.9271  -17.7611   21.9873 C   0  0  0  0  0  0
  -30.3585  -18.6547   19.4836 C   0  0  0  0  0  0
  -30.1524  -16.8424   20.9285 C   0  0  0  0  0  0
  -30.1462  -19.5600   20.5491 C   0  0  0  0  0  0
  -28.9279  -24.8012   23.2959 C   0  0  0  0  0  0
  -32.0379  -21.7752   21.6548 C   0  0  0  0  0  0
  -28.7661  -23.7992   20.9340 C   0  0  0  0  0  0
  -29.0318  -26.3607   21.2713 C   0  0  0  0  0  0
  -28.4825  -25.0282   21.8376 C   0  0  2  0  0  0
  -30.5446  -21.9238   21.3135 C   0  0  1  0  0  0
  -30.2524  -23.3720   20.8225 C   0  0  1  0  0  0
  -30.3652  -17.3112   19.6681 N   0  0  0  0  0  0
  -29.9365  -19.1098   21.8103 N   0  0  0  0  0  0
  -30.0831  -15.4504   21.2301 N   0  0  0  0  0  0
  -30.1305  -20.9435   20.3076 N   0  0  0  0  0  0
  -30.6864  -23.4909   19.4746 O   0  0  0  0  0  0
  -31.4693  -12.3918   19.1353 H   0  0  0  0  0  0
  -30.3211  -11.2877   19.8290 H   0  0  0  0  0  0
  -29.7404  -11.7989   17.4312 H   0  0  0  0  0  0
  -29.6760  -13.5054   17.7985 H   0  0  0  0  0  0
  -27.8191  -11.3231   18.8044 H   0  0  0  0  0  0
  -27.3819  -12.6735   17.7898 H   0  0  0  0  0  0
  -27.7103  -14.2605   19.5913 H   0  0  0  0  0  0
  -28.6678  -11.9600   21.3606 H   0  0  0  0  0  0
  -28.4614  -13.6028   21.8780 H   0  0  0  0  0  0
  -25.2732   -9.5685   22.4741 H   0  0  0  0  0  0
  -23.9982   -7.4626   22.7448 H   0  0  0  0  0  0
  -21.0826   -8.8741   19.8943 H   0  0  0  0  0  0
  -22.3652  -10.9646   19.6154 H   0  0  0  0  0  0
  -21.2017   -7.6122   23.9703 H   0  0  0  0  0  0
  -21.1507   -6.0506   25.9070 H   0  0  0  0  0  0
  -22.0597   -2.7590   23.2853 H   0  0  0  0  0  0
  -22.4110  -11.9904   22.4788 H   0  0  0  0  0  0
  -21.1119  -13.1273   22.2633 H   0  0  0  0  0  0
  -24.6711  -15.8508   20.5182 H   0  0  0  0  0  0
  -26.2938  -15.6208   20.1062 H   0  0  0  0  0  0
  -26.7094  -32.5610   23.1203 H   0  0  0  0  0  0
  -24.9995  -33.9826   25.0477 H   0  0  0  0  0  0
  -22.6881  -31.3051   21.4106 H   0  0  0  0  0  0
  -23.3752  -35.9649   23.3331 H   0  0  0  0  0  0
  -24.3571  -36.8909   22.2050 H   0  0  0  0  0  0
  -23.7214  -37.6530   23.6632 H   0  0  0  0  0  0
  -26.0261  -31.6043   20.5862 H   0  0  0  0  0  0
  -26.8158  -30.9123   21.9741 H   0  0  0  0  0  0
  -28.1050  -29.1477   21.1668 H   0  0  0  0  0  0
  -26.1189  -25.9854   19.0192 H   0  0  0  0  0  0
  -24.0055  -27.2841   19.0345 H   0  0  0  0  0  0
  -23.7098  -30.5860   19.4040 H   0  0  0  0  0  0
  -22.7398  -29.2261   19.8822 H   0  0  0  0  0  0
  -25.1275  -36.2029   25.0840 H   0  0  0  0  0  0
  -20.9947  -28.3206   24.1452 H   0  0  0  0  0  0
  -20.5650  -26.2257   23.3597 H   0  0  0  0  0  0
  -21.6625  -26.7433   22.1215 H   0  0  0  0  0  0
  -19.6887  -25.6306   21.1220 H   0  0  0  0  0  0
  -19.6663  -27.3214   20.6758 H   0  0  0  0  0  0
  -17.4179  -26.6684   21.4033 H   0  0  0  0  0  0
  -18.0310  -26.0052   22.9006 H   0  0  0  0  0  0
  -19.7923  -30.7252   24.2293 H   0  0  0  0  0  0
  -17.5004  -31.6261   24.5162 H   0  0  0  0  0  0
  -15.5343  -30.2987   23.7644 H   0  0  0  0  0  0
  -15.8658  -28.0816   22.7069 H   0  0  0  0  0  0
  -24.5876  -30.7082   25.7814 H   0  0  0  0  0  0
  -24.8907  -32.2863   26.4968 H   0  0  0  0  0  0
  -25.8063  -30.8854   27.0224 H   0  0  0  0  0  0
  -26.2767  -29.6869   24.1121 H   0  0  0  0  0  0
  -27.4034  -29.7288   25.4498 H   0  0  0  0  0  0
  -27.8601  -30.4411   23.9185 H   0  0  0  0  0  0
  -27.2676  -33.3627   26.2077 H   0  0  0  0  0  0
  -28.3797  -32.6918   25.0255 H   0  0  0  0  0  0
  -28.0750  -31.8449   26.5333 H   0  0  0  0  0  0
  -28.2628  -38.0092   24.7532 H   0  0  0  0  0  0
  -28.1059  -36.2634   24.6281 H   0  0  0  0  0  0
  -27.2312  -37.1458   25.8873 H   0  0  0  0  0  0
  -20.9296  -29.8713   21.6932 H   0  0  0  0  0  0
  -26.0208  -38.2906   24.1408 H   0  0  0  0  0  0
  -29.7444  -17.4114   22.9926 H   0  0  0  0  0  0
  -30.5158  -19.0077   18.4740 H   0  0  0  0  0  0
  -28.4960  -23.8883   23.7075 H   0  0  0  0  0  0
  -28.6030  -25.6275   23.9298 H   0  0  0  0  0  0
  -30.0112  -24.7285   23.3950 H   0  0  0  0  0  0
  -32.3249  -22.4791   22.4373 H   0  0  0  0  0  0
  -32.6760  -21.9702   20.7916 H   0  0  0  0  0  0
  -32.2729  -20.7777   22.0253 H   0  0  0  0  0  0
  -28.3549  -24.0049   19.9449 H   0  0  0  0  0  0
  -28.1815  -22.9567   21.3081 H   0  0  0  0  0  0
  -30.1046  -26.2811   21.0938 H   0  0  0  0  0  0
  -28.9155  -27.1499   22.0145 H   0  0  0  0  0  0
  -27.3967  -25.1299   21.8730 H   0  0  0  0  0  0
  -29.9774  -21.7489   22.2300 H   0  0  0  0  0  0
  -30.8600  -24.0644   21.4081 H   0  0  0  0  0  0
  -29.3566  -15.1701   21.8698 H   0  0  0  0  0  0
  -30.2089  -21.2672   19.3462 H   0  0  0  0  0  0
  -31.6144  -23.2796   19.4575 H   0  0  0  0  0  0
  1 25  1  0  0  0
  1 30  2  0  0  0
  1 84  1  0  0  0
  2  3  1  0  0  0
  2 25  1  0  0  0
  2 87  1  0  0  0
  2 88  1  0  0  0
  3  4  1  0  0  0
  3 89  1  0  0  0
  3 90  1  0  0  0
  4  5  1  0  0  0
  4 91  1  0  0  0
  4 92  1  0  0  0
  5  6  1  0  0  0
  5 26  1  0  0  0
  5 93  1  0  0  0
  6 25  1  0  0  0
  6 94  1  0  0  0
  6 95  1  0  0  0
  7  8  2  0  0  0
  7 26  1  0  0  0
  7 29  1  0  0  0
  8  9  1  0  0  0
  8 22  1  0  0  0
  9 10  1  0  0  0
  9 27  2  0  0  0
 10 11  2  0  0  0
 10 15  1  0  0  0
 11 12  1  0  0  0
 11 96  1  0  0  0
 12 13  2  0  0  0
 12 97  1  0  0  0
 13 14  1  0  0  0
 13 31  1  0  0  0
 14 15  2  0  0  0
 14 98  1  0  0  0
 15 99  1  0  0  0
 16 17  2  0  0  0
 16 21  1  0  0  0
 16 31  1  0  0  0
 17 18  1  0  0  0
 17100  1  0  0  0
 18 19  2  0  0  0
 18101  1  0  0  0
 19 20  1  0  0  0
 19 24  1  0  0  0
 20 21  2  0  0  0
 20102  1  0  0  0
 21 23  1  0  0  0
 22 28  1  0  0  0
 22 32  2  0  0  0
 26 27  1  0  0  0
 28103  1  0  0  0
 28104  1  0  0  0
 29105  1  0  0  0
 29106  1  0  0  0
 33 34  1  0  0  0
 33 66  1  0  0  0
 33 70  2  0  0  0
 34 36  1  0  0  0
 34 59  1  0  0  0
 34107  1  0  0  0
 35 44  2  0  0  0
 35 45  1  0  0  0
 35 68  1  0  0  0
 36 56  1  0  0  0
 36108  1  0  0  0
 37 39  1  0  0  0
 37 47  1  0  0  0
 37 66  1  0  0  0
 37109  1  0  0  0
 38 43  2  0  0  0
 38 46  1  0  0  0
 38 47  1  0  0  0
 39 64  1  0  0  0
 39 67  2  0  0  0
 40 52  1  0  0  0
 40 53  2  0  0  0
 40 58  1  0  0  0
 41110  1  0  0  0
 41111  1  0  0  0
 41112  1  0  0  0
 41 48  1  0  0  0
 42 43  1  0  0  0
 42 66  1  0  0  0
 42113  1  0  0  0
 42114  1  0  0  0
 43 44  1  0  0  0
 44115  1  0  0  0
 45 46  2  0  0  0
 45116  1  0  0  0
 46117  1  0  0  0
 47118  1  0  0  0
 47119  1  0  0  0
 48 56  1  0  0  0
 48 65  1  0  0  0
 48120  1  0  0  0
 49 50  1  0  0  0
 49 53  1  0  0  0
 49 64  1  0  0  0
 49121  1  0  0  0
 50 51  1  0  0  0
 50122  1  0  0  0
 50123  1  0  0  0
 51 52  1  0  0  0
 51124  1  0  0  0
 51125  1  0  0  0
 52126  1  0  0  0
 52127  1  0  0  0
 53 54  1  0  0  0
 54 55  2  0  0  0
 54128  1  0  0  0
 55 57  1  0  0  0
 55129  1  0  0  0
 56 69  2  0  0  0
 57 58  2  0  0  0
 57130  1  0  0  0
 58131  1  0  0  0
 59 60  1  0  0  0
 59 61  1  0  0  0
 59 62  1  0  0  0
 60132  1  0  0  0
 60133  1  0  0  0
 60134  1  0  0  0
 61135  1  0  0  0
 61136  1  0  0  0
 61137  1  0  0  0
 62138  1  0  0  0
 62139  1  0  0  0
 62140  1  0  0  0
 63 65  1  0  0  0
 63141  1  0  0  0
 63142  1  0  0  0
 63143  1  0  0  0
 64144  1  0  0  0
 65145  1  0  0  0
 68 78  1  0  0  0
 71 73  2  0  0  0
 71 83  1  0  0  0
 71146  1  0  0  0
 72 74  1  0  0  0
 72 82  2  0  0  0
 72147  1  0  0  0
 73 82  1  0  0  0
 73 84  1  0  0  0
 74 83  2  0  0  0
 74 85  1  0  0  0
 75148  1  0  0  0
 75149  1  0  0  0
 75150  1  0  0  0
 75 79  1  0  0  0
 76151  1  0  0  0
 76152  1  0  0  0
 76153  1  0  0  0
 76 80  1  0  0  0
 77 79  1  0  0  0
 77 81  1  0  0  0
 77154  1  0  0  0
 77155  1  0  0  0
 78 79  1  0  0  0
 78156  1  0  0  0
 78157  1  0  0  0
 79158  1  0  0  0
 80 81  1  0  0  0
 80 85  1  0  0  0
 80159  1  0  0  0
 81 86  1  0  0  0
 81160  1  0  0  0
 84161  1  0  0  0
 85162  1  0  0  0
 86163  1  0  0  0
M  ISO  4   1 100  68 101  78 101  84 100
M  END
> <chiral flag>
0

> <version>
0

> <s_m_source_file>
/data/baiqing/PycharmProjects/Reinvent-master-3.2/result/LINK_invent/BTK/process_docking_weight1_custom_product_contain_oxygen_bond_distance_aromatic_linkinvent_7_9_3/rearranged_h_0191.sdf

> <i_m_source_file_index>
91

> <r_mmod_Potential_Energy-OPLS-2005>
-111.068511962891

> <r_mmod_Stretch_Energy-OPLS-2005>
38.8270034790039

> <r_mmod_Bend_Energy-OPLS-2005>
107.514892578125

> <r_mmod_Torsional_Energy-OPLS-2005>
283.943237304688

> <r_mmod_Improper_Torsional_Energy-OPLS-2005>
4.40645027160645

> <r_mmod_Van_der_Waal_Energy-OPLS-2005>
159.440887451172

> <r_mmod_Electrostatic_Energy-OPLS-2005>
-467.238006591797

> <r_mmod_Solvation_Energy-OPLS-2005>
-247.554351806641

> <b_mmod_Minimization_Converged-OPLS-2005>
0

> <r_mmod_RMS_Derivative-OPLS-2005>
3.12952899932861

$$$$
93
                    3D
 Structure written by MMmdl.
168176  0  0  1  0            999 V2000
  -30.7036  -14.3828   20.6335 C   0  0  0  0  0  0
  -30.4422  -12.2866   19.3884 C   0  0  0  0  0  0
  -29.4944  -12.5372   18.1960 C   0  0  0  0  0  0
  -28.0148  -12.3991   18.6103 C   0  0  0  0  0  0
  -27.6801  -13.1869   19.9028 C   0  0  2  0  0  0
  -28.7218  -12.8737   21.0027 C   0  0  0  0  0  0
  -25.2673  -13.8107   20.5669 C   0  0  0  0  0  0
  -24.1902  -13.0432   20.9155 C   0  0  0  0  0  0
  -24.6415  -11.6874   20.8719 C   0  0  0  0  0  0
  -23.9061  -10.4291   21.0420 C   0  0  0  0  0  0
  -24.3617   -9.4212   21.9202 C   0  0  0  0  0  0
  -23.6293   -8.2241   22.0766 C   0  0  0  0  0  0
  -22.4268   -8.0278   21.3558 C   0  0  0  0  0  0
  -21.9904   -9.0259   20.4659 C   0  0  0  0  0  0
  -22.7228  -10.2141   20.3074 C   0  0  0  0  0  0
  -21.6860   -6.0725   22.5278 C   0  0  0  0  0  0
  -21.4022   -6.5643   23.8204 C   0  0  0  0  0  0
  -21.3662   -5.6799   24.9172 C   0  0  0  0  0  0
  -21.6037   -4.3060   24.7228 C   0  0  0  0  0  0
  -21.8824   -3.8150   23.4352 C   0  0  0  0  0  0
  -21.9199   -4.6956   22.3402 C   0  0  0  0  0  0
  -22.7929  -13.5260   21.1816 C   0  0  0  0  0  0
  -22.1664   -4.2149   21.0972 F   0  0  0  0  0  0
  -21.5637   -3.4536   25.7742 F   0  0  0  0  0  0
  -30.0652  -13.1957   20.4762 N   0  0  0  0  0  0
  -26.3124  -12.9237   20.3483 N   0  0  0  0  0  0
  -25.9355  -11.6414   20.5813 N   0  0  0  0  0  0
  -22.0544  -12.8276   22.0351 N   0  0  0  0  0  0
  -25.4424  -15.1815   20.4030 N   0  0  0  0  0  0
  -31.7503  -14.6901   20.0551 O   0  0  0  0  0  0
  -21.6643   -6.8868   21.4235 O   0  0  0  0  0  0
  -22.3627  -14.5580   20.6665 O   0  0  0  0  0  0
  -24.6132  -31.8733   23.2168 C   0  0  0  0  0  0
  -25.9045  -32.4857   23.8446 C   0  0  1  0  0  0
  -27.2345  -27.4723   20.0835 C   0  0  0  0  0  0
  -25.5922  -33.8651   24.2390 N   0  0  0  0  0  0
  -23.3973  -30.5013   21.5579 C   0  0  2  0  0  0
  -24.8392  -28.9749   20.1185 C   0  0  0  0  0  0
  -22.7425  -29.4681   22.5026 C   0  0  0  0  0  0
  -18.0275  -28.1387   22.8510 C   0  0  0  0  0  0
  -24.1468  -36.7282   23.2647 C   0  0  0  0  0  0
  -25.9233  -30.8494   21.3663 C   0  0  0  0  0  0
  -25.9976  -29.4873   20.7138 C   0  0  0  0  0  0
  -27.1943  -28.7424   20.6969 C   0  0  0  0  0  0
  -26.0414  -26.9599   19.5114 C   0  0  0  0  0  0
  -24.8526  -27.7081   19.5164 C   0  0  0  0  0  0
  -23.6043  -29.8429   20.1682 C   0  0  0  0  0  0
  -25.4092  -36.3133   24.0365 C   0  0  1  0  0  0
  -20.5874  -28.3643   23.1344 C   0  0  2  0  0  0
  -20.6768  -26.9395   22.5416 C   0  0  0  0  0  0
  -19.5729  -26.6401   21.5228 C   0  0  0  0  0  0
  -18.1915  -26.7935   22.1644 C   0  0  0  0  0  0
  -19.1532  -28.8830   23.2926 C   0  0  0  0  0  0
  -18.9463  -30.1448   23.8927 C   0  0  0  0  0  0
  -17.6460  -30.6596   24.0570 C   0  0  0  0  0  0
  -25.9020  -34.9502   23.5168 C   0  0  0  0  0  0
  -16.5354  -29.9100   23.6336 C   0  0  0  0  0  0
  -16.7269  -28.6510   23.0365 C   0  0  0  0  0  0
  -26.4481  -31.6626   25.0749 C   0  0  0  0  0  0
  -25.3755  -31.3697   26.1500 C   0  0  0  0  0  0
  -27.0295  -30.3088   24.6064 C   0  0  0  0  0  0
  -27.6086  -32.4325   25.7483 C   0  0  0  0  0  0
  -27.5578  -37.1801   24.8494 C   0  0  0  0  0  0
  -21.4156  -29.3022   22.3772 N   0  0  0  0  0  0
  -26.4288  -37.3819   23.9442 N   0  0  0  0  0  0
  -24.6624  -31.0872   22.1064 N   0  0  0  0  0  0
  -23.4220  -28.8238   23.3060 O   0  0  0  0  0  0
  -28.4468  -26.8100   20.0663 O   0  0  0  0  0  0
  -26.5570  -34.8950   22.4725 O   0  0  0  0  0  0
  -23.5332  -32.1471   23.7582 O   0  0  0  0  0  0
  -31.8909  -17.7403   21.2375 C   0  0  0  0  0  0
  -30.5229  -17.7018   21.1043 C   0  0  0  0  0  0
  -30.8206  -19.9408   21.2705 C   0  0  0  0  0  0
  -31.9893  -22.5476   19.7667 C   0  0  0  0  0  0
  -32.0938  -22.3504   17.2155 C   0  0  0  0  0  0
  -28.8379  -22.5433   19.0985 C   0  0  0  0  0  0
  -28.5793  -25.7419   17.9010 C   0  0  0  0  0  0
  -29.6076  -16.5478   20.8312 C   0  0  0  0  0  0
  -31.9447  -21.6096   18.5568 C   0  0  0  0  0  0
  -29.7874  -24.7980   19.9470 C   0  0  0  0  0  0
  -30.8131  -22.5556   20.7806 C   0  0  1  0  0  0
  -29.5443  -23.2981   20.2556 C   0  0  1  0  0  0
  -28.5343  -25.5412   19.4309 C   0  0  1  0  0  0
  -29.9355  -18.9603   21.1861 N   0  0  0  0  0  0
  -30.3916  -21.2521   21.2810 N   0  0  0  0  0  0
  -30.0127  -15.2574   21.3654 N   0  0  0  0  0  0
  -32.9632  -23.2903   19.9025 O   0  0  0  0  0  0
  -32.4869  -19.3827   21.3612 S   0  0  0  0  0  0
  -31.4794  -12.4253   19.0762 H   0  0  0  0  0  0
  -30.3762  -11.2544   19.7292 H   0  0  0  0  0  0
  -29.7210  -11.8439   17.3849 H   0  0  0  0  0  0
  -29.6642  -13.5367   17.7923 H   0  0  0  0  0  0
  -27.8015  -11.3394   18.7508 H   0  0  0  0  0  0
  -27.3682  -12.7338   17.7990 H   0  0  0  0  0  0
  -27.7522  -14.2485   19.6665 H   0  0  0  0  0  0
  -28.6925  -11.8140   21.2626 H   0  0  0  0  0  0
  -28.4799  -13.3883   21.9324 H   0  0  0  0  0  0
  -25.2768   -9.5686   22.4771 H   0  0  0  0  0  0
  -24.0005   -7.4639   22.7495 H   0  0  0  0  0  0
  -21.0836   -8.8792   19.8967 H   0  0  0  0  0  0
  -22.3704  -10.9691   19.6184 H   0  0  0  0  0  0
  -21.2010   -7.6149   23.9710 H   0  0  0  0  0  0
  -21.1477   -6.0525   25.9073 H   0  0  0  0  0  0
  -22.0599   -2.7610   23.2854 H   0  0  0  0  0  0
  -22.4157  -11.9926   22.4720 H   0  0  0  0  0  0
  -21.1179  -13.1351   22.2579 H   0  0  0  0  0  0
  -24.6737  -15.8350   20.4975 H   0  0  0  0  0  0
  -26.2899  -15.6152   20.0601 H   0  0  0  0  0  0
  -26.7119  -32.5581   23.1216 H   0  0  0  0  0  0
  -25.0157  -33.9828   25.0593 H   0  0  0  0  0  0
  -22.6820  -31.3186   21.4280 H   0  0  0  0  0  0
  -23.3764  -35.9585   23.3332 H   0  0  0  0  0  0
  -24.3566  -36.8847   22.2060 H   0  0  0  0  0  0
  -23.7173  -37.6482   23.6607 H   0  0  0  0  0  0
  -26.0338  -31.6161   20.5984 H   0  0  0  0  0  0
  -26.8144  -30.8987   21.9807 H   0  0  0  0  0  0
  -28.0920  -29.1461   21.1434 H   0  0  0  0  0  0
  -25.9948  -25.9923   19.0355 H   0  0  0  0  0  0
  -23.9582  -27.3050   19.0578 H   0  0  0  0  0  0
  -23.7177  -30.6236   19.4151 H   0  0  0  0  0  0
  -22.7243  -29.2713   19.8670 H   0  0  0  0  0  0
  -25.1254  -36.2016   25.0854 H   0  0  0  0  0  0
  -20.9956  -28.3197   24.1468 H   0  0  0  0  0  0
  -20.5697  -26.2267   23.3611 H   0  0  0  0  0  0
  -21.6638  -26.7470   22.1197 H   0  0  0  0  0  0
  -19.6881  -25.6326   21.1239 H   0  0  0  0  0  0
  -19.6651  -27.3248   20.6792 H   0  0  0  0  0  0
  -17.4203  -26.6751   21.4035 H   0  0  0  0  0  0
  -18.0262  -26.0062   22.9006 H   0  0  0  0  0  0
  -19.7940  -30.7267   24.2317 H   0  0  0  0  0  0
  -17.5017  -31.6280   24.5175 H   0  0  0  0  0  0
  -15.5359  -30.3006   23.7626 H   0  0  0  0  0  0
  -15.8682  -28.0833   22.7048 H   0  0  0  0  0  0
  -24.5943  -30.7020   25.7837 H   0  0  0  0  0  0
  -24.8912  -32.2826   26.4973 H   0  0  0  0  0  0
  -25.8121  -30.8862   27.0251 H   0  0  0  0  0  0
  -26.2809  -29.6863   24.1138 H   0  0  0  0  0  0
  -27.4144  -29.7295   25.4473 H   0  0  0  0  0  0
  -27.8607  -30.4461   23.9145 H   0  0  0  0  0  0
  -27.2748  -33.3640   26.2081 H   0  0  0  0  0  0
  -28.3862  -32.6869   25.0259 H   0  0  0  0  0  0
  -28.0787  -31.8423   26.5369 H   0  0  0  0  0  0
  -28.2639  -38.0062   24.7539 H   0  0  0  0  0  0
  -28.1031  -36.2605   24.6312 H   0  0  0  0  0  0
  -27.2306  -37.1451   25.8903 H   0  0  0  0  0  0
  -20.9341  -29.8718   21.6955 H   0  0  0  0  0  0
  -26.0181  -38.2900   24.1446 H   0  0  0  0  0  0
  -32.5800  -16.9081   21.2113 H   0  0  0  0  0  0
  -31.9316  -21.6633   16.3861 H   0  0  0  0  0  0
  -33.0916  -22.7720   17.0989 H   0  0  0  0  0  0
  -31.3794  -23.1683   17.1140 H   0  0  0  0  0  0
  -27.8360  -22.9243   18.9106 H   0  0  0  0  0  0
  -28.6999  -21.4865   19.3227 H   0  0  0  0  0  0
  -29.3841  -22.6118   18.1602 H   0  0  0  0  0  0
  -28.4828  -24.7972   17.3690 H   0  0  0  0  0  0
  -29.5140  -26.2059   17.5896 H   0  0  0  0  0  0
  -27.7823  -26.3937   17.5445 H   0  0  0  0  0  0
  -28.6154  -16.7534   21.2373 H   0  0  0  0  0  0
  -29.4543  -16.4546   19.7522 H   0  0  0  0  0  0
  -31.0140  -21.0449   18.5737 H   0  0  0  0  0  0
  -32.7477  -20.8811   18.6632 H   0  0  0  0  0  0
  -30.6056  -24.9247   19.2376 H   0  0  0  0  0  0
  -30.1301  -25.2761   20.8657 H   0  0  0  0  0  0
  -31.1715  -23.0978   21.6562 H   0  0  0  0  0  0
  -28.8379  -23.2959   21.0881 H   0  0  0  0  0  0
  -27.6663  -24.9571   19.7289 H   0  0  0  0  0  0
  -29.3944  -21.2562   21.4464 H   0  0  0  0  0  0
  -29.3050  -14.8203   21.9346 H   0  0  0  0  0  0
  1 25  1  0  0  0
  1 30  2  0  0  0
  1 86  1  0  0  0
  2  3  1  0  0  0
  2 25  1  0  0  0
  2 89  1  0  0  0
  2 90  1  0  0  0
  3  4  1  0  0  0
  3 91  1  0  0  0
  3 92  1  0  0  0
  4  5  1  0  0  0
  4 93  1  0  0  0
  4 94  1  0  0  0
  5  6  1  0  0  0
  5 26  1  0  0  0
  5 95  1  0  0  0
  6 25  1  0  0  0
  6 96  1  0  0  0
  6 97  1  0  0  0
  7  8  2  0  0  0
  7 26  1  0  0  0
  7 29  1  0  0  0
  8  9  1  0  0  0
  8 22  1  0  0  0
  9 10  1  0  0  0
  9 27  2  0  0  0
 10 11  2  0  0  0
 10 15  1  0  0  0
 11 12  1  0  0  0
 11 98  1  0  0  0
 12 13  2  0  0  0
 12 99  1  0  0  0
 13 14  1  0  0  0
 13 31  1  0  0  0
 14 15  2  0  0  0
 14100  1  0  0  0
 15101  1  0  0  0
 16 17  2  0  0  0
 16 21  1  0  0  0
 16 31  1  0  0  0
 17 18  1  0  0  0
 17102  1  0  0  0
 18 19  2  0  0  0
 18103  1  0  0  0
 19 20  1  0  0  0
 19 24  1  0  0  0
 20 21  2  0  0  0
 20104  1  0  0  0
 21 23  1  0  0  0
 22 28  1  0  0  0
 22 32  2  0  0  0
 26 27  1  0  0  0
 28105  1  0  0  0
 28106  1  0  0  0
 29107  1  0  0  0
 29108  1  0  0  0
 33 34  1  0  0  0
 33 66  1  0  0  0
 33 70  2  0  0  0
 34 36  1  0  0  0
 34 59  1  0  0  0
 34109  1  0  0  0
 35 44  2  0  0  0
 35 45  1  0  0  0
 35 68  1  0  0  0
 36 56  1  0  0  0
 36110  1  0  0  0
 37 39  1  0  0  0
 37 47  1  0  0  0
 37 66  1  0  0  0
 37111  1  0  0  0
 38 43  2  0  0  0
 38 46  1  0  0  0
 38 47  1  0  0  0
 39 64  1  0  0  0
 39 67  2  0  0  0
 40 52  1  0  0  0
 40 53  2  0  0  0
 40 58  1  0  0  0
 41112  1  0  0  0
 41113  1  0  0  0
 41114  1  0  0  0
 41 48  1  0  0  0
 42 43  1  0  0  0
 42 66  1  0  0  0
 42115  1  0  0  0
 42116  1  0  0  0
 43 44  1  0  0  0
 44117  1  0  0  0
 45 46  2  0  0  0
 45118  1  0  0  0
 46119  1  0  0  0
 47120  1  0  0  0
 47121  1  0  0  0
 48 56  1  0  0  0
 48 65  1  0  0  0
 48122  1  0  0  0
 49 50  1  0  0  0
 49 53  1  0  0  0
 49 64  1  0  0  0
 49123  1  0  0  0
 50 51  1  0  0  0
 50124  1  0  0  0
 50125  1  0  0  0
 51 52  1  0  0  0
 51126  1  0  0  0
 51127  1  0  0  0
 52128  1  0  0  0
 52129  1  0  0  0
 53 54  1  0  0  0
 54 55  2  0  0  0
 54130  1  0  0  0
 55 57  1  0  0  0
 55131  1  0  0  0
 56 69  2  0  0  0
 57 58  2  0  0  0
 57132  1  0  0  0
 58133  1  0  0  0
 59 60  1  0  0  0
 59 61  1  0  0  0
 59 62  1  0  0  0
 60134  1  0  0  0
 60135  1  0  0  0
 60136  1  0  0  0
 61137  1  0  0  0
 61138  1  0  0  0
 61139  1  0  0  0
 62140  1  0  0  0
 62141  1  0  0  0
 62142  1  0  0  0
 63 65  1  0  0  0
 63143  1  0  0  0
 63144  1  0  0  0
 63145  1  0  0  0
 64146  1  0  0  0
 65147  1  0  0  0
 68 83  1  0  0  0
 71 72  2  0  0  0
 71 88  1  0  0  0
 71148  1  0  0  0
 72 78  1  0  0  0
 72 84  1  0  0  0
 73 84  2  0  0  0
 73 85  1  0  0  0
 73 88  1  0  0  0
 74 79  1  0  0  0
 74 81  1  0  0  0
 74 87  2  0  0  0
 75 79  1  0  0  0
 75149  1  0  0  0
 75150  1  0  0  0
 75151  1  0  0  0
 76152  1  0  0  0
 76153  1  0  0  0
 76154  1  0  0  0
 76 82  1  0  0  0
 77155  1  0  0  0
 77156  1  0  0  0
 77157  1  0  0  0
 77 83  1  0  0  0
 78 86  1  0  0  0
 78158  1  0  0  0
 78159  1  0  0  0
 79160  1  0  0  0
 79161  1  0  0  0
 80 82  1  0  0  0
 80 83  1  0  0  0
 80162  1  0  0  0
 80163  1  0  0  0
 81 82  1  0  0  0
 81 85  1  0  0  0
 81164  1  0  0  0
 82165  1  0  0  0
 83166  1  0  0  0
 85167  1  0  0  0
 86168  1  0  0  0
M  ISO  4   1 100  68 101  83 101  86 100
M  END
> <chiral flag>
0

> <version>
0

> <s_m_source_file>
/data/baiqing/PycharmProjects/Reinvent-master-3.2/result/LINK_invent/BTK/process_docking_weight1_custom_product_contain_oxygen_bond_distance_aromatic_linkinvent_7_9_3/rearranged_h_0191.sdf

> <i_m_source_file_index>
92

> <r_mmod_Potential_Energy-OPLS-2005>
-233.766342163086

> <r_mmod_Stretch_Energy-OPLS-2005>
34.0206489562988

> <r_mmod_Bend_Energy-OPLS-2005>
120.284172058105

> <r_mmod_Torsional_Energy-OPLS-2005>
234.865661621094

> <r_mmod_Improper_Torsional_Energy-OPLS-2005>
8.41583633422852

> <r_mmod_Van_der_Waal_Energy-OPLS-2005>
140.700408935547

> <r_mmod_Electrostatic_Energy-OPLS-2005>
-551.965270996094

> <r_mmod_Solvation_Energy-OPLS-2005>
-229.423477172852

> <b_mmod_Minimization_Converged-OPLS-2005>
0

> <r_mmod_RMS_Derivative-OPLS-2005>
4.27221155166626

$$$$
