0
                    3D
 Structure written by MMmdl.
171180  0  0  1  0            999 V2000
  -30.6348  -14.7297   20.4083 C   0  0  0  0  0  0
  -30.4211  -12.4323   19.4759 C   0  0  0  0  0  0
  -29.5082  -12.4917   18.2326 C   0  0  0  0  0  0
  -28.0328  -12.3263   18.6465 C   0  0  0  0  0  0
  -27.6392  -13.2329   19.8439 C   0  0  2  0  0  0
  -28.6855  -13.1830   20.9787 C   0  0  0  0  0  0
  -25.2508  -13.8198   20.5690 C   0  0  0  0  0  0
  -24.1804  -13.0441   20.9210 C   0  0  0  0  0  0
  -24.6387  -11.6922   20.8745 C   0  0  0  0  0  0
  -23.9059  -10.4297   21.0403 C   0  0  0  0  0  0
  -24.3615   -9.4213   21.9178 C   0  0  0  0  0  0
  -23.6298   -8.2248   22.0749 C   0  0  0  0  0  0
  -22.4279   -8.0277   21.3539 C   0  0  0  0  0  0
  -21.9907   -9.0244   20.4638 C   0  0  0  0  0  0
  -22.7233  -10.2125   20.3048 C   0  0  0  0  0  0
  -21.6851   -6.0734   22.5278 C   0  0  0  0  0  0
  -21.4011   -6.5637   23.8212 C   0  0  0  0  0  0
  -21.3662   -5.6788   24.9172 C   0  0  0  0  0  0
  -21.6046   -4.3051   24.7221 C   0  0  0  0  0  0
  -21.8823   -3.8143   23.4344 C   0  0  0  0  0  0
  -21.9192   -4.6962   22.3401 C   0  0  0  0  0  0
  -22.7826  -13.5226   21.1872 C   0  0  0  0  0  0
  -22.1664   -4.2145   21.0981 F   0  0  0  0  0  0
  -21.5629   -3.4533   25.7736 F   0  0  0  0  0  0
  -29.9857  -13.5166   20.3875 N   0  0  0  0  0  0
  -26.2923  -12.9407   20.3258 N   0  0  0  0  0  0
  -25.9314  -11.6546   20.5746 N   0  0  0  0  0  0
  -22.0471  -12.8205   22.0412 N   0  0  0  0  0  0
  -25.4197  -15.1928   20.4139 N   0  0  0  0  0  0
  -31.8439  -14.7564   20.1711 O   0  0  0  0  0  0
  -21.6646   -6.8872   21.4239 O   0  0  0  0  0  0
  -22.3516  -14.5539   20.6731 O   0  0  0  0  0  0
  -24.6346  -31.8542   23.1954 C   0  0  0  0  0  0
  -25.9185  -32.4757   23.8288 C   0  0  1  0  0  0
  -27.2213  -27.2598   20.1234 C   0  0  0  0  0  0
  -25.6010  -33.8557   24.2225 N   0  0  0  0  0  0
  -23.4293  -30.4761   21.5379 C   0  0  2  0  0  0
  -24.8733  -28.9182   20.1072 C   0  0  0  0  0  0
  -22.7505  -29.4601   22.4889 C   0  0  0  0  0  0
  -18.0308  -28.1377   22.8493 C   0  0  0  0  0  0
  -24.1481  -36.7248   23.2640 C   0  0  0  0  0  0
  -25.9746  -30.7613   21.3796 C   0  0  0  0  0  0
  -26.0414  -29.3854   20.7188 C   0  0  0  0  0  0
  -27.2128  -28.5672   20.7175 C   0  0  0  0  0  0
  -26.0228  -26.8480   19.4977 C   0  0  0  0  0  0
  -24.8683  -27.6577   19.4883 C   0  0  0  0  0  0
  -23.6450  -29.8050   20.1547 C   0  0  0  0  0  0
  -25.4126  -36.3056   24.0311 C   0  0  1  0  0  0
  -20.5904  -28.3695   23.1245 C   0  0  2  0  0  0
  -20.6784  -26.9409   22.5392 C   0  0  0  0  0  0
  -19.5754  -26.6362   21.5207 C   0  0  0  0  0  0
  -18.1932  -26.7931   22.1610 C   0  0  0  0  0  0
  -19.1558  -28.8859   23.2855 C   0  0  0  0  0  0
  -18.9482  -30.1470   23.8857 C   0  0  0  0  0  0
  -17.6476  -30.6587   24.0561 C   0  0  0  0  0  0
  -25.9066  -34.9446   23.5052 C   0  0  0  0  0  0
  -16.5368  -29.9077   23.6356 C   0  0  0  0  0  0
  -16.7288  -28.6487   23.0391 C   0  0  0  0  0  0
  -26.4549  -31.6629   25.0711 C   0  0  0  0  0  0
  -25.3740  -31.3852   26.1411 C   0  0  0  0  0  0
  -27.0452  -30.3055   24.6255 C   0  0  0  0  0  0
  -27.6054  -32.4430   25.7506 C   0  0  0  0  0  0
  -27.5563  -37.1781   24.8464 C   0  0  0  0  0  0
  -21.4207  -29.3052   22.3631 N   0  0  0  0  0  0
  -26.4279  -37.3778   23.9408 N   0  0  0  0  0  0
  -24.6981  -31.0502   22.0927 N   0  0  0  0  0  0
  -23.4198  -28.8143   23.2999 O   0  0  0  0  0  0
  -28.3496  -26.4128   20.2137 O   0  0  0  0  0  0
  -26.5565  -34.8938   22.4576 O   0  0  0  0  0  0
  -23.5501  -32.1352   23.7253 O   0  0  0  0  0  0
  -31.2678  -17.4261   19.0623 C   0  0  0  0  0  0
  -29.6459  -18.5436   20.4697 C   0  0  0  0  0  0
  -31.7914  -18.6766   18.6929 C   0  0  0  0  0  0
  -30.1183  -19.8749   20.0734 C   0  0  0  0  0  0
  -31.2997  -19.8740   19.2690 C   0  0  0  0  0  0
  -30.2601  -17.2894   20.0398 C   0  0  0  0  0  0
  -28.3252  -23.7484   20.5126 C   0  0  0  0  0  0
  -27.1052  -22.8802   23.8966 C   0  0  0  0  0  0
  -27.7533  -23.8321   21.7347 C   0  0  0  0  0  0
  -27.3191  -22.7370   22.5810 C   0  0  0  0  0  0
  -30.2033  -23.7481   18.2135 C   0  0  0  0  0  0
  -29.8515  -25.0530   18.9453 C   0  0  0  0  0  0
  -29.2411  -22.5506   18.4482 C   0  0  0  0  0  0
  -28.4720  -25.0460   19.5998 C   0  0  2  0  0  0
  -32.9436  -18.6952   17.6929 C   0  0  0  0  0  0
  -32.1434  -21.1239   19.0580 C   0  0  0  0  0  0
  -29.5351  -21.2644   20.6655 C   0  0  0  0  0  0
  -29.8933  -15.9097   20.4851 N   0  0  0  0  0  0
  -28.7852  -22.3670   19.8528 N   0  3  1  0  0  0
  -31.4674  -12.5254   19.1814 H   0  0  0  0  0  0
  -30.3379  -11.4618   19.9693 H   0  0  0  0  0  0
  -29.7876  -11.7129   17.5208 H   0  0  0  0  0  0
  -29.6436  -13.4436   17.7166 H   0  0  0  0  0  0
  -27.8880  -11.2792   18.9148 H   0  0  0  0  0  0
  -27.3761  -12.5145   17.7964 H   0  0  0  0  0  0
  -27.6290  -14.2513   19.4552 H   0  0  0  0  0  0
  -28.7164  -12.1928   21.4355 H   0  0  0  0  0  0
  -28.4300  -13.8824   21.7760 H   0  0  0  0  0  0
  -25.2762   -9.5697   22.4746 H   0  0  0  0  0  0
  -24.0006   -7.4632   22.7469 H   0  0  0  0  0  0
  -21.0832   -8.8755   19.8941 H   0  0  0  0  0  0
  -22.3686  -10.9658   19.6151 H   0  0  0  0  0  0
  -21.2006   -7.6148   23.9711 H   0  0  0  0  0  0
  -21.1480   -6.0521   25.9074 H   0  0  0  0  0  0
  -22.0600   -2.7601   23.2842 H   0  0  0  0  0  0
  -22.4095  -11.9856   22.4780 H   0  0  0  0  0  0
  -21.1092  -13.1229   22.2642 H   0  0  0  0  0  0
  -24.6511  -15.8440   20.5265 H   0  0  0  0  0  0
  -26.2630  -15.6320   20.0665 H   0  0  0  0  0  0
  -26.7247  -32.5380   23.1018 H   0  0  0  0  0  0
  -25.0448  -33.9698   25.0565 H   0  0  0  0  0  0
  -22.7273  -31.2981   21.3883 H   0  0  0  0  0  0
  -23.3772  -35.9551   23.3311 H   0  0  0  0  0  0
  -24.3563  -36.8860   22.2050 H   0  0  0  0  0  0
  -23.7203  -37.6433   23.6669 H   0  0  0  0  0  0
  -26.1227  -31.5235   20.6135 H   0  0  0  0  0  0
  -26.8488  -30.7992   22.0175 H   0  0  0  0  0  0
  -28.1079  -28.9184   21.2129 H   0  0  0  0  0  0
  -25.9270  -25.8757   19.0414 H   0  0  0  0  0  0
  -23.9685  -27.2912   19.0153 H   0  0  0  0  0  0
  -23.7685  -30.5748   19.3924 H   0  0  0  0  0  0
  -22.7634  -29.2356   19.8540 H   0  0  0  0  0  0
  -25.1332  -36.1885   25.0805 H   0  0  0  0  0  0
  -21.0012  -28.3273   24.1355 H   0  0  0  0  0  0
  -20.5708  -26.2306   23.3605 H   0  0  0  0  0  0
  -21.6644  -26.7429   22.1166 H   0  0  0  0  0  0
  -19.6903  -25.6262   21.1264 H   0  0  0  0  0  0
  -19.6696  -27.3149   20.6718 H   0  0  0  0  0  0
  -17.4214  -26.6733   21.3989 H   0  0  0  0  0  0
  -18.0280  -26.0055   22.8969 H   0  0  0  0  0  0
  -19.7968  -30.7309   24.2159 H   0  0  0  0  0  0
  -17.5050  -31.6274   24.5152 H   0  0  0  0  0  0
  -15.5376  -30.2983   23.7707 H   0  0  0  0  0  0
  -15.8675  -28.0801   22.7129 H   0  0  0  0  0  0
  -24.5862  -30.7279   25.7739 H   0  0  0  0  0  0
  -24.9004  -32.3077   26.4801 H   0  0  0  0  0  0
  -25.8003  -30.9032   27.0216 H   0  0  0  0  0  0
  -26.3067  -29.6742   24.1303 H   0  0  0  0  0  0
  -27.4178  -29.7406   25.4816 H   0  0  0  0  0  0
  -27.8930  -30.4366   23.9517 H   0  0  0  0  0  0
  -27.2596  -33.3749   26.2013 H   0  0  0  0  0  0
  -28.3913  -32.6982   25.0379 H   0  0  0  0  0  0
  -28.0686  -31.8624   26.5494 H   0  0  0  0  0  0
  -28.2595  -38.0066   24.7534 H   0  0  0  0  0  0
  -28.1037  -36.2600   24.6289 H   0  0  0  0  0  0
  -27.2254  -37.1415   25.8854 H   0  0  0  0  0  0
  -20.9377  -29.8810   21.6866 H   0  0  0  0  0  0
  -26.0142  -38.2840   24.1444 H   0  0  0  0  0  0
  -31.7024  -16.5540   18.5988 H   0  0  0  0  0  0
  -28.8261  -18.4852   21.1728 H   0  0  0  0  0  0
  -26.7568  -22.0487   24.4938 H   0  0  0  0  0  0
  -27.2720  -23.8202   24.4027 H   0  0  0  0  0  0
  -27.4773  -24.8254   22.0632 H   0  0  0  0  0  0
  -27.1030  -21.7699   22.1524 H   0  0  0  0  0  0
  -31.2307  -23.5093   18.4668 H   0  0  0  0  0  0
  -30.2307  -23.9432   17.1406 H   0  0  0  0  0  0
  -29.9253  -25.8893   18.2488 H   0  0  0  0  0  0
  -30.5988  -25.2426   19.7172 H   0  0  0  0  0  0
  -29.6457  -21.6331   18.0255 H   0  0  0  0  0  0
  -28.3390  -22.7341   17.8644 H   0  0  0  0  0  0
  -27.7571  -24.9452   18.7864 H   0  0  0  0  0  0
  -33.0049  -17.7621   17.1313 H   0  0  0  0  0  0
  -33.8959  -18.8338   18.2041 H   0  0  0  0  0  0
  -32.8233  -19.4962   16.9620 H   0  0  0  0  0  0
  -33.1964  -20.8937   19.2273 H   0  0  0  0  0  0
  -31.9205  -21.9243   19.7554 H   0  0  0  0  0  0
  -32.0485  -21.4821   18.0327 H   0  0  0  0  0  0
  -30.3432  -21.7594   21.2034 H   0  0  0  0  0  0
  -28.8789  -20.9378   21.4643 H   0  0  0  0  0  0
  -28.9440  -15.7911   20.8043 H   0  0  0  0  0  0
  -27.9233  -21.8706   19.6830 H   0  0  0  0  0  0
  1 25  1  0  0  0
  1 30  2  0  0  0
  1 88  1  0  0  0
  2  3  1  0  0  0
  2 25  1  0  0  0
  2 90  1  0  0  0
  2 91  1  0  0  0
  3  4  1  0  0  0
  3 92  1  0  0  0
  3 93  1  0  0  0
  4  5  1  0  0  0
  4 94  1  0  0  0
  4 95  1  0  0  0
  5  6  1  0  0  0
  5 26  1  0  0  0
  5 96  1  0  0  0
  6 25  1  0  0  0
  6 97  1  0  0  0
  6 98  1  0  0  0
  7  8  2  0  0  0
  7 26  1  0  0  0
  7 29  1  0  0  0
  8  9  1  0  0  0
  8 22  1  0  0  0
  9 10  1  0  0  0
  9 27  2  0  0  0
 10 11  2  0  0  0
 10 15  1  0  0  0
 11 12  1  0  0  0
 11 99  1  0  0  0
 12 13  2  0  0  0
 12100  1  0  0  0
 13 14  1  0  0  0
 13 31  1  0  0  0
 14 15  2  0  0  0
 14101  1  0  0  0
 15102  1  0  0  0
 16 17  2  0  0  0
 16 21  1  0  0  0
 16 31  1  0  0  0
 17 18  1  0  0  0
 17103  1  0  0  0
 18 19  2  0  0  0
 18104  1  0  0  0
 19 20  1  0  0  0
 19 24  1  0  0  0
 20 21  2  0  0  0
 20105  1  0  0  0
 21 23  1  0  0  0
 22 28  1  0  0  0
 22 32  2  0  0  0
 26 27  1  0  0  0
 28106  1  0  0  0
 28107  1  0  0  0
 29108  1  0  0  0
 29109  1  0  0  0
 33 34  1  0  0  0
 33 66  1  0  0  0
 33 70  2  0  0  0
 34 36  1  0  0  0
 34 59  1  0  0  0
 34110  1  0  0  0
 35 44  2  0  0  0
 35 45  1  0  0  0
 35 68  1  0  0  0
 36 56  1  0  0  0
 36111  1  0  0  0
 37 39  1  0  0  0
 37 47  1  0  0  0
 37 66  1  0  0  0
 37112  1  0  0  0
 38 43  2  0  0  0
 38 46  1  0  0  0
 38 47  1  0  0  0
 39 64  1  0  0  0
 39 67  2  0  0  0
 40 52  1  0  0  0
 40 53  2  0  0  0
 40 58  1  0  0  0
 41113  1  0  0  0
 41114  1  0  0  0
 41115  1  0  0  0
 41 48  1  0  0  0
 42 43  1  0  0  0
 42 66  1  0  0  0
 42116  1  0  0  0
 42117  1  0  0  0
 43 44  1  0  0  0
 44118  1  0  0  0
 45 46  2  0  0  0
 45119  1  0  0  0
 46120  1  0  0  0
 47121  1  0  0  0
 47122  1  0  0  0
 48 56  1  0  0  0
 48 65  1  0  0  0
 48123  1  0  0  0
 49 50  1  0  0  0
 49 53  1  0  0  0
 49 64  1  0  0  0
 49124  1  0  0  0
 50 51  1  0  0  0
 50125  1  0  0  0
 50126  1  0  0  0
 51 52  1  0  0  0
 51127  1  0  0  0
 51128  1  0  0  0
 52129  1  0  0  0
 52130  1  0  0  0
 53 54  1  0  0  0
 54 55  2  0  0  0
 54131  1  0  0  0
 55 57  1  0  0  0
 55132  1  0  0  0
 56 69  2  0  0  0
 57 58  2  0  0  0
 57133  1  0  0  0
 58134  1  0  0  0
 59 60  1  0  0  0
 59 61  1  0  0  0
 59 62  1  0  0  0
 60135  1  0  0  0
 60136  1  0  0  0
 60137  1  0  0  0
 61138  1  0  0  0
 61139  1  0  0  0
 61140  1  0  0  0
 62141  1  0  0  0
 62142  1  0  0  0
 62143  1  0  0  0
 63 65  1  0  0  0
 63144  1  0  0  0
 63145  1  0  0  0
 63146  1  0  0  0
 64147  1  0  0  0
 65148  1  0  0  0
 68 84  1  0  0  0
 71 73  2  0  0  0
 71 76  1  0  0  0
 71149  1  0  0  0
 72 74  1  0  0  0
 72 76  2  0  0  0
 72150  1  0  0  0
 73 75  1  0  0  0
 73 85  1  0  0  0
 74 75  2  0  0  0
 74 87  1  0  0  0
 75 86  1  0  0  0
 76 88  1  0  0  0
 77 79  2  0  0  0
 77 84  1  0  0  0
 77 89  1  0  0  0
 78 80  2  0  0  0
 78151  1  0  0  0
 78152  1  0  0  0
 79 80  1  0  0  0
 79153  1  0  0  0
 80154  1  0  0  0
 81 82  1  0  0  0
 81 83  1  0  0  0
 81155  1  0  0  0
 81156  1  0  0  0
 82 84  1  0  0  0
 82157  1  0  0  0
 82158  1  0  0  0
 83 89  1  0  0  0
 83159  1  0  0  0
 83160  1  0  0  0
 84161  1  0  0  0
 85162  1  0  0  0
 85163  1  0  0  0
 85164  1  0  0  0
 86165  1  0  0  0
 86166  1  0  0  0
 86167  1  0  0  0
 87168  1  0  0  0
 87169  1  0  0  0
 87 89  1  0  0  0
 88170  1  0  0  0
 89171  1  0  0  0
M  CHG  1  89   1
M  ISO  4   1 100  68 101  84 101  88 100
M  END
> <chiral flag>
0

> <version>
0

> <s_m_source_file>
/data/baiqing/PycharmProjects/Reinvent-master-3.2/result/LINK_invent/BTK/process_docking_weight1_custom_product_contain_oxygen_bond_distance_aromatic_linkinvent_7_9_3/rearranged_h_0038.sdf

> <i_m_source_file_index>
1

> <r_mmod_Potential_Energy-OPLS-2005>
155.241973876953

> <r_mmod_Stretch_Energy-OPLS-2005>
150.790328979492

> <r_mmod_Bend_Energy-OPLS-2005>
212.904159545898

> <r_mmod_Torsional_Energy-OPLS-2005>
261.753021240234

> <r_mmod_Improper_Torsional_Energy-OPLS-2005>
6.65119457244873

> <r_mmod_Van_der_Waal_Energy-OPLS-2005>
159.977111816406

> <r_mmod_Electrostatic_Energy-OPLS-2005>
-286.814910888672

> <r_mmod_Solvation_Energy-OPLS-2005>
-433.856201171875

> <b_mmod_Minimization_Converged-OPLS-2005>
0

> <r_mmod_RMS_Derivative-OPLS-2005>
2.55564308166504

$$$$
1
                    3D
 Structure written by MMmdl.
178187  0  0  1  0            999 V2000
  -30.6829  -14.4895   20.4200 C   0  0  0  0  0  0
  -30.4113  -12.2869   19.4099 C   0  0  0  0  0  0
  -29.4743  -12.4477   18.1968 C   0  0  0  0  0  0
  -28.0057  -12.3065   18.6352 C   0  0  0  0  0  0
  -27.6558  -13.1914   19.8584 C   0  0  2  0  0  0
  -28.7126  -13.0402   20.9814 C   0  0  0  0  0  0
  -25.2691  -13.8119   20.5653 C   0  0  0  0  0  0
  -24.1918  -13.0405   20.9255 C   0  0  0  0  0  0
  -24.6439  -11.6881   20.8840 C   0  0  0  0  0  0
  -23.9073  -10.4289   21.0434 C   0  0  0  0  0  0
  -24.3615   -9.4212   21.9212 C   0  0  0  0  0  0
  -23.6300   -8.2237   22.0767 C   0  0  0  0  0  0
  -22.4294   -8.0279   21.3531 C   0  0  0  0  0  0
  -21.9920   -9.0272   20.4644 C   0  0  0  0  0  0
  -22.7249  -10.2161   20.3078 C   0  0  0  0  0  0
  -21.6852   -6.0756   22.5289 C   0  0  0  0  0  0
  -21.4002   -6.5647   23.8225 C   0  0  0  0  0  0
  -21.3652   -5.6790   24.9183 C   0  0  0  0  0  0
  -21.6035   -4.3059   24.7221 C   0  0  0  0  0  0
  -21.8834   -3.8159   23.4342 C   0  0  0  0  0  0
  -21.9209   -4.6992   22.3399 C   0  0  0  0  0  0
  -22.7985  -13.5291   21.1807 C   0  0  0  0  0  0
  -22.1682   -4.2155   21.0984 F   0  0  0  0  0  0
  -21.5626   -3.4547   25.7744 F   0  0  0  0  0  0
  -30.0255  -13.3039   20.3927 N   0  0  0  0  0  0
  -26.3051  -12.9227   20.3383 N   0  0  0  0  0  0
  -25.9348  -11.6422   20.5884 N   0  0  0  0  0  0
  -22.0510  -12.8307   22.0300 N   0  0  0  0  0  0
  -25.4344  -15.1773   20.3713 N   0  0  0  0  0  0
  -31.8855  -14.5890   20.1731 O   0  0  0  0  0  0
  -21.6652   -6.8882   21.4233 O   0  0  0  0  0  0
  -22.3779  -14.5624   20.6663 O   0  0  0  0  0  0
  -24.6091  -31.8702   23.2087 C   0  0  0  0  0  0
  -25.9016  -32.4842   23.8369 C   0  0  1  0  0  0
  -27.2406  -27.4440   20.0971 C   0  0  0  0  0  0
  -25.5900  -33.8630   24.2337 N   0  0  0  0  0  0
  -23.3933  -30.4901   21.5477 C   0  0  2  0  0  0
  -24.8417  -28.9560   20.1065 C   0  0  0  0  0  0
  -22.7280  -29.4656   22.4958 C   0  0  0  0  0  0
  -18.0159  -28.1391   22.8480 C   0  0  0  0  0  0
  -24.1487  -36.7331   23.2661 C   0  0  0  0  0  0
  -25.9143  -30.8381   21.3571 C   0  0  0  0  0  0
  -25.9949  -29.4698   20.7098 C   0  0  0  0  0  0
  -27.1919  -28.7177   20.7076 C   0  0  0  0  0  0
  -26.0592  -26.9351   19.5033 C   0  0  0  0  0  0
  -24.8680  -27.6857   19.5033 C   0  0  0  0  0  0
  -23.5938  -29.8106   20.1596 C   0  0  0  0  0  0
  -25.4108  -36.3167   24.0405 C   0  0  1  0  0  0
  -20.5729  -28.3544   23.1128 C   0  0  2  0  0  0
  -20.6431  -26.9285   22.5233 C   0  0  0  0  0  0
  -19.5318  -26.6151   21.5183 C   0  0  0  0  0  0
  -18.1629  -26.7833   22.1761 C   0  0  0  0  0  0
  -19.1458  -28.8802   23.2846 C   0  0  0  0  0  0
  -18.9515  -30.1347   23.8991 C   0  0  0  0  0  0
  -17.6559  -30.6539   24.0727 C   0  0  0  0  0  0
  -25.9063  -34.9531   23.5190 C   0  0  0  0  0  0
  -16.5397  -29.9202   23.6381 C   0  0  0  0  0  0
  -16.7239  -28.6623   23.0353 C   0  0  0  0  0  0
  -26.4436  -31.6626   25.0705 C   0  0  0  0  0  0
  -25.3652  -31.3672   26.1386 C   0  0  0  0  0  0
  -27.0273  -30.3119   24.6036 C   0  0  0  0  0  0
  -27.6041  -32.4272   25.7491 C   0  0  0  0  0  0
  -27.5585  -37.1827   24.8480 C   0  0  0  0  0  0
  -21.4057  -29.2862   22.3533 N   0  0  0  0  0  0
  -26.4309  -37.3844   23.9422 N   0  0  0  0  0  0
  -24.6560  -31.0799   22.0994 N   0  0  0  0  0  0
  -23.4016  -28.8386   23.3183 O   0  0  0  0  0  0
  -28.4546  -26.7809   20.1086 O   0  0  0  0  0  0
  -26.5588  -34.8976   22.4734 O   0  0  0  0  0  0
  -23.5308  -32.1520   23.7494 O   0  0  0  0  0  0
  -28.2909  -18.1485   20.1447 C   0  0  0  0  0  0
  -29.5512  -18.0584   19.5332 C   0  0  0  0  0  0
  -27.6336  -19.3879   20.2601 C   0  0  0  0  0  0
  -30.0826  -19.2075   18.8818 C   0  0  0  0  0  0
  -29.4121  -20.4701   18.9623 C   0  0  0  0  0  0
  -28.2230  -20.5863   19.7630 C   0  0  0  0  0  0
  -23.4409  -20.4135   19.3771 C   0  0  0  0  0  0
  -22.8086  -19.1691   19.9921 C   0  0  0  0  0  0
  -24.8100  -19.8692   18.9611 C   0  0  0  0  0  0
  -23.9743  -18.5627   20.7772 C   0  0  0  0  0  0
  -31.3749  -19.0466   18.0716 C   0  0  0  0  0  0
  -29.9609  -21.6648   18.1610 C   0  0  0  0  0  0
  -30.3665  -16.7562   19.5742 C   0  0  0  0  0  0
  -26.2780  -19.3633   20.9605 C   0  0  0  0  0  0
  -27.5774  -21.9280   20.2075 C   0  0  0  0  0  0
  -28.1415  -24.3544   20.2637 C   0  0  0  0  0  0
  -28.6021  -25.5476   19.4002 C   0  0  0  0  0  0
  -29.8860  -15.5737   20.3083 N   0  0  0  0  0  0
  -25.2083  -18.9184   20.0361 N   0  3  0  0  0  0
  -27.9318  -23.1345   19.4512 N   0  3  0  0  0  0
  -31.4482  -12.3754   19.0866 H   0  0  0  0  0  0
  -30.3227  -11.2904   19.8427 H   0  0  0  0  0  0
  -29.7076  -11.6923   17.4449 H   0  0  0  0  0  0
  -29.6317  -13.4159   17.7170 H   0  0  0  0  0  0
  -27.8421  -11.2580   18.8878 H   0  0  0  0  0  0
  -27.3340  -12.5177   17.8052 H   0  0  0  0  0  0
  -27.6766  -14.2224   19.5046 H   0  0  0  0  0  0
  -28.7060  -12.0354   21.4085 H   0  0  0  0  0  0
  -28.5147  -13.7264   21.8067 H   0  0  0  0  0  0
  -25.2737   -9.5712   22.4839 H   0  0  0  0  0  0
  -24.0006   -7.4628   22.7516 H   0  0  0  0  0  0
  -21.0834   -8.8786   19.8959 H   0  0  0  0  0  0
  -22.3669  -10.9715   19.6219 H   0  0  0  0  0  0
  -21.1978   -7.6149   23.9718 H   0  0  0  0  0  0
  -21.1437   -6.0516   25.9065 H   0  0  0  0  0  0
  -22.0613   -2.7611   23.2847 H   0  0  0  0  0  0
  -22.4012  -11.9914   22.4688 H   0  0  0  0  0  0
  -21.1139  -13.1422   22.2412 H   0  0  0  0  0  0
  -24.5428  -15.6308   20.2086 H   0  0  0  0  0  0
  -26.1273  -15.4339   19.6794 H   0  0  0  0  0  0
  -26.7036  -32.5536   23.1078 H   0  0  0  0  0  0
  -25.0062  -33.9727   25.0489 H   0  0  0  0  0  0
  -22.6926  -31.3159   21.4057 H   0  0  0  0  0  0
  -23.3776  -35.9623   23.3350 H   0  0  0  0  0  0
  -24.3614  -36.8896   22.2062 H   0  0  0  0  0  0
  -23.7174  -37.6553   23.6602 H   0  0  0  0  0  0
  -26.0082  -31.5969   20.5787 H   0  0  0  0  0  0
  -26.8077  -30.8989   21.9658 H   0  0  0  0  0  0
  -28.0847  -29.1126   21.1722 H   0  0  0  0  0  0
  -26.0176  -25.9593   19.0441 H   0  0  0  0  0  0
  -23.9841  -27.2732   19.0395 H   0  0  0  0  0  0
  -23.6629  -30.5724   19.3861 H   0  0  0  0  0  0
  -22.7192  -29.2180   19.8867 H   0  0  0  0  0  0
  -25.1241  -36.2106   25.0906 H   0  0  0  0  0  0
  -20.9862  -28.3056   24.1216 H   0  0  0  0  0  0
  -20.5107  -26.2302   23.3484 H   0  0  0  0  0  0
  -21.6272  -26.7115   22.1024 H   0  0  0  0  0  0
  -19.6035  -27.2652   20.6443 H   0  0  0  0  0  0
  -19.6331  -25.5898   21.1550 H   0  0  0  0  0  0
  -17.3780  -26.6569   21.4283 H   0  0  0  0  0  0
  -18.0080  -26.0078   22.9303 H   0  0  0  0  0  0
  -19.8005  -30.7036   24.2500 H   0  0  0  0  0  0
  -17.5184  -31.6172   24.5435 H   0  0  0  0  0  0
  -15.5471  -30.3235   23.7692 H   0  0  0  0  0  0
  -15.8564  -28.1064   22.7033 H   0  0  0  0  0  0
  -24.5834  -30.7066   25.7601 H   0  0  0  0  0  0
  -24.8801  -32.2798   26.4860 H   0  0  0  0  0  0
  -25.7936  -30.8752   27.0131 H   0  0  0  0  0  0
  -26.2823  -29.6922   24.1040 H   0  0  0  0  0  0
  -27.4058  -29.7325   25.4462 H   0  0  0  0  0  0
  -27.8641  -30.4512   23.9193 H   0  0  0  0  0  0
  -27.2737  -33.3551   26.2155 H   0  0  0  0  0  0
  -28.3845  -32.6872   25.0327 H   0  0  0  0  0  0
  -28.0732  -31.8327   26.5351 H   0  0  0  0  0  0
  -28.2668  -38.0064   24.7541 H   0  0  0  0  0  0
  -28.1035  -36.2631   24.6307 H   0  0  0  0  0  0
  -27.2329  -37.1473   25.8891 H   0  0  0  0  0  0
  -20.9247  -29.8285   21.6514 H   0  0  0  0  0  0
  -26.0262  -38.2978   24.1314 H   0  0  0  0  0  0
  -27.8202  -17.2727   20.5626 H   0  0  0  0  0  0
  -23.5486  -21.1894   20.1359 H   0  0  0  0  0  0
  -22.8643  -20.8276   18.5503 H   0  0  0  0  0  0
  -22.5135  -18.4904   19.1905 H   0  0  0  0  0  0
  -21.9400  -19.3747   20.6162 H   0  0  0  0  0  0
  -25.5235  -20.6464   18.7088 H   0  0  0  0  0  0
  -24.6908  -19.2987   18.0402 H   0  0  0  0  0  0
  -23.8776  -17.4896   20.9064 H   0  0  0  0  0  0
  -24.0098  -19.0055   21.7734 H   0  0  0  0  0  0
  -32.0785  -18.3514   18.5234 H   0  0  0  0  0  0
  -31.1158  -18.6896   17.0766 H   0  0  0  0  0  0
  -31.9834  -19.9446   17.9909 H   0  0  0  0  0  0
  -30.7057  -21.4173   17.4073 H   0  0  0  0  0  0
  -30.3877  -22.4212   18.8202 H   0  0  0  0  0  0
  -29.1743  -22.1133   17.5509 H   0  0  0  0  0  0
  -30.5568  -16.4472   18.5394 H   0  0  0  0  0  0
  -31.3224  -17.0212   20.0293 H   0  0  0  0  0  0
  -26.0022  -20.2971   21.4555 H   0  0  0  0  0  0
  -26.3492  -18.6432   21.7782 H   0  0  0  0  0  0
  -27.7762  -22.0680   21.2740 H   0  0  0  0  0  0
  -26.4919  -21.9109   20.1139 H   0  0  0  0  0  0
  -27.2041  -24.5903   20.7643 H   0  0  0  0  0  0
  -28.8897  -24.1720   21.0381 H   0  0  0  0  0  0
  -28.0859  -25.5790   18.4398 H   0  0  0  0  0  0
  -29.6542  -25.4225   19.1456 H   0  0  0  0  0  0
  -28.8952  -15.4552   20.4532 H   0  0  0  0  0  0
  -25.5569  -18.0957   19.5652 H   0  0  0  0  0  0
  -28.7672  -22.9008   18.9326 H   0  0  0  0  0  0
  -27.1787  -23.3016   18.8030 H   0  0  0  0  0  0
  1 25  1  0  0  0
  1 30  2  0  0  0
  1 88  1  0  0  0
  2  3  1  0  0  0
  2 25  1  0  0  0
  2 91  1  0  0  0
  2 92  1  0  0  0
  3  4  1  0  0  0
  3 93  1  0  0  0
  3 94  1  0  0  0
  4  5  1  0  0  0
  4 95  1  0  0  0
  4 96  1  0  0  0
  5  6  1  0  0  0
  5 26  1  0  0  0
  5 97  1  0  0  0
  6 25  1  0  0  0
  6 98  1  0  0  0
  6 99  1  0  0  0
  7  8  2  0  0  0
  7 26  1  0  0  0
  7 29  1  0  0  0
  8  9  1  0  0  0
  8 22  1  0  0  0
  9 10  1  0  0  0
  9 27  2  0  0  0
 10 11  2  0  0  0
 10 15  1  0  0  0
 11 12  1  0  0  0
 11100  1  0  0  0
 12 13  2  0  0  0
 12101  1  0  0  0
 13 14  1  0  0  0
 13 31  1  0  0  0
 14 15  2  0  0  0
 14102  1  0  0  0
 15103  1  0  0  0
 16 17  2  0  0  0
 16 21  1  0  0  0
 16 31  1  0  0  0
 17 18  1  0  0  0
 17104  1  0  0  0
 18 19  2  0  0  0
 18105  1  0  0  0
 19 20  1  0  0  0
 19 24  1  0  0  0
 20 21  2  0  0  0
 20106  1  0  0  0
 21 23  1  0  0  0
 22 28  1  0  0  0
 22 32  2  0  0  0
 26 27  1  0  0  0
 28107  1  0  0  0
 28108  1  0  0  0
 29109  1  0  0  0
 29110  1  0  0  0
 33 34  1  0  0  0
 33 66  1  0  0  0
 33 70  2  0  0  0
 34 36  1  0  0  0
 34 59  1  0  0  0
 34111  1  0  0  0
 35 44  2  0  0  0
 35 45  1  0  0  0
 35 68  1  0  0  0
 36 56  1  0  0  0
 36112  1  0  0  0
 37 39  1  0  0  0
 37 47  1  0  0  0
 37 66  1  0  0  0
 37113  1  0  0  0
 38 43  2  0  0  0
 38 46  1  0  0  0
 38 47  1  0  0  0
 39 64  1  0  0  0
 39 67  2  0  0  0
 40 52  1  0  0  0
 40 53  2  0  0  0
 40 58  1  0  0  0
 41114  1  0  0  0
 41115  1  0  0  0
 41116  1  0  0  0
 41 48  1  0  0  0
 42 43  1  0  0  0
 42 66  1  0  0  0
 42117  1  0  0  0
 42118  1  0  0  0
 43 44  1  0  0  0
 44119  1  0  0  0
 45 46  2  0  0  0
 45120  1  0  0  0
 46121  1  0  0  0
 47122  1  0  0  0
 47123  1  0  0  0
 48 56  1  0  0  0
 48 65  1  0  0  0
 48124  1  0  0  0
 49 50  1  0  0  0
 49 53  1  0  0  0
 49 64  1  0  0  0
 49125  1  0  0  0
 50 51  1  0  0  0
 50126  1  0  0  0
 50127  1  0  0  0
 51 52  1  0  0  0
 51128  1  0  0  0
 51129  1  0  0  0
 52130  1  0  0  0
 52131  1  0  0  0
 53 54  1  0  0  0
 54 55  2  0  0  0
 54132  1  0  0  0
 55 57  1  0  0  0
 55133  1  0  0  0
 56 69  2  0  0  0
 57 58  2  0  0  0
 57134  1  0  0  0
 58135  1  0  0  0
 59 60  1  0  0  0
 59 61  1  0  0  0
 59 62  1  0  0  0
 60136  1  0  0  0
 60137  1  0  0  0
 60138  1  0  0  0
 61139  1  0  0  0
 61140  1  0  0  0
 61141  1  0  0  0
 62142  1  0  0  0
 62143  1  0  0  0
 62144  1  0  0  0
 63 65  1  0  0  0
 63145  1  0  0  0
 63146  1  0  0  0
 63147  1  0  0  0
 64148  1  0  0  0
 65149  1  0  0  0
 68 87  1  0  0  0
 71 72  2  0  0  0
 71 73  1  0  0  0
 71150  1  0  0  0
 72 74  1  0  0  0
 72 83  1  0  0  0
 73 76  2  0  0  0
 73 84  1  0  0  0
 74 75  2  0  0  0
 74 81  1  0  0  0
 75 76  1  0  0  0
 75 82  1  0  0  0
 76 85  1  0  0  0
 77 78  1  0  0  0
 77 79  1  0  0  0
 77151  1  0  0  0
 77152  1  0  0  0
 78 80  1  0  0  0
 78153  1  0  0  0
 78154  1  0  0  0
 79 89  1  0  0  0
 79155  1  0  0  0
 79156  1  0  0  0
 80 89  1  0  0  0
 80157  1  0  0  0
 80158  1  0  0  0
 81159  1  0  0  0
 81160  1  0  0  0
 81161  1  0  0  0
 82162  1  0  0  0
 82163  1  0  0  0
 82164  1  0  0  0
 83 88  1  0  0  0
 83165  1  0  0  0
 83166  1  0  0  0
 84167  1  0  0  0
 84168  1  0  0  0
 84 89  1  0  0  0
 85 90  1  0  0  0
 85169  1  0  0  0
 85170  1  0  0  0
 86 87  1  0  0  0
 86 90  1  0  0  0
 86171  1  0  0  0
 86172  1  0  0  0
 87173  1  0  0  0
 87174  1  0  0  0
 88175  1  0  0  0
 89176  1  0  0  0
 90177  1  0  0  0
 90178  1  0  0  0
M  CHG  2  89   1  90   1
M  ISO  4   1 100  68 101  87 101  88 100
M  END
> <chiral flag>
0

> <version>
0

> <s_m_source_file>
/data/baiqing/PycharmProjects/Reinvent-master-3.2/result/LINK_invent/BTK/process_docking_weight1_custom_product_contain_oxygen_bond_distance_aromatic_linkinvent_7_9_3/rearranged_h_0038.sdf

> <i_m_source_file_index>
2

> <r_mmod_Potential_Energy-OPLS-2005>
-209.05908203125

> <r_mmod_Stretch_Energy-OPLS-2005>
44.6836967468262

> <r_mmod_Bend_Energy-OPLS-2005>
155.961212158203

> <r_mmod_Torsional_Energy-OPLS-2005>
285.405059814453

> <r_mmod_Improper_Torsional_Energy-OPLS-2005>
18.3216552734375

> <r_mmod_Van_der_Waal_Energy-OPLS-2005>
177.030426025391

> <r_mmod_Electrostatic_Energy-OPLS-2005>
12.9761075973511

> <r_mmod_Solvation_Energy-OPLS-2005>
-927.6435546875

> <b_mmod_Minimization_Converged-OPLS-2005>
0

> <r_mmod_RMS_Derivative-OPLS-2005>
10.0140819549561

$$$$
2
                    3D
 Structure written by MMmdl.
170179  0  0  1  0            999 V2000
  -30.7171  -14.4929   20.5482 C   0  0  0  0  0  0
  -30.4174  -12.3121   19.4391 C   0  0  0  0  0  0
  -29.4965  -12.4994   18.2163 C   0  0  0  0  0  0
  -28.0198  -12.3507   18.6289 C   0  0  0  0  0  0
  -27.6592  -13.2111   19.8694 C   0  0  2  0  0  0
  -28.7007  -13.0347   20.9987 C   0  0  0  0  0  0
  -25.2590  -13.8174   20.5705 C   0  0  0  0  0  0
  -24.1831  -13.0447   20.9173 C   0  0  0  0  0  0
  -24.6387  -11.6915   20.8723 C   0  0  0  0  0  0
  -23.9055  -10.4298   21.0398 C   0  0  0  0  0  0
  -24.3602   -9.4220   21.9185 C   0  0  0  0  0  0
  -23.6282   -8.2253   22.0758 C   0  0  0  0  0  0
  -22.4270   -8.0276   21.3543 C   0  0  0  0  0  0
  -21.9895   -9.0251   20.4650 C   0  0  0  0  0  0
  -22.7220  -10.2133   20.3062 C   0  0  0  0  0  0
  -21.6855   -6.0737   22.5281 C   0  0  0  0  0  0
  -21.4010   -6.5639   23.8212 C   0  0  0  0  0  0
  -21.3664   -5.6789   24.9176 C   0  0  0  0  0  0
  -21.6051   -4.3053   24.7221 C   0  0  0  0  0  0
  -21.8814   -3.8143   23.4338 C   0  0  0  0  0  0
  -21.9194   -4.6965   22.3400 C   0  0  0  0  0  0
  -22.7854  -13.5258   21.1821 C   0  0  0  0  0  0
  -22.1666   -4.2149   21.0981 F   0  0  0  0  0  0
  -21.5629   -3.4542   25.7737 F   0  0  0  0  0  0
  -30.0314  -13.3223   20.4382 N   0  0  0  0  0  0
  -26.3016  -12.9347   20.3349 N   0  0  0  0  0  0
  -25.9308  -11.6504   20.5737 N   0  0  0  0  0  0
  -22.0484  -12.8265   22.0378 N   0  0  0  0  0  0
  -25.4321  -15.1893   20.4176 N   0  0  0  0  0  0
  -31.8609  -14.6328   20.1080 O   0  0  0  0  0  0
  -21.6632   -6.8879   21.4245 O   0  0  0  0  0  0
  -22.3550  -14.5573   20.6673 O   0  0  0  0  0  0
  -24.6159  -31.8690   23.2109 C   0  0  0  0  0  0
  -25.9046  -32.4827   23.8403 C   0  0  1  0  0  0
  -27.2195  -27.4107   20.1037 C   0  0  0  0  0  0
  -25.5900  -33.8623   24.2335 N   0  0  0  0  0  0
  -23.4055  -30.4932   21.5513 C   0  0  2  0  0  0
  -24.8539  -28.9654   20.1084 C   0  0  0  0  0  0
  -22.7428  -29.4657   22.4969 C   0  0  0  0  0  0
  -18.0281  -28.1378   22.8497 C   0  0  0  0  0  0
  -24.1491  -36.7313   23.2637 C   0  0  0  0  0  0
  -25.9384  -30.8238   21.3749 C   0  0  0  0  0  0
  -26.0135  -29.4572   20.7226 C   0  0  0  0  0  0
  -27.2004  -28.6819   20.7289 C   0  0  0  0  0  0
  -26.0622  -26.9712   19.4323 C   0  0  0  0  0  0
  -24.8737  -27.7211   19.4583 C   0  0  0  0  0  0
  -23.6159  -29.8324   20.1633 C   0  0  0  0  0  0
  -25.4109  -36.3111   24.0336 C   0  0  1  0  0  0
  -20.5877  -28.3663   23.1316 C   0  0  2  0  0  0
  -20.6775  -26.9392   22.5422 C   0  0  0  0  0  0
  -19.5749  -26.6384   21.5221 C   0  0  0  0  0  0
  -18.1924  -26.7926   22.1627 C   0  0  0  0  0  0
  -19.1531  -28.8837   23.2907 C   0  0  0  0  0  0
  -18.9454  -30.1442   23.8914 C   0  0  0  0  0  0
  -17.6451  -30.6583   24.0565 C   0  0  0  0  0  0
  -25.9036  -34.9476   23.5134 C   0  0  0  0  0  0
  -16.5345  -29.9084   23.6325 C   0  0  0  0  0  0
  -16.7267  -28.6505   23.0348 C   0  0  0  0  0  0
  -26.4474  -31.6593   25.0723 C   0  0  0  0  0  0
  -25.3733  -31.3704   26.1465 C   0  0  0  0  0  0
  -27.0293  -30.3021   24.6113 C   0  0  0  0  0  0
  -27.6060  -32.4305   25.7476 C   0  0  0  0  0  0
  -27.5580  -37.1809   24.8462 C   0  0  0  0  0  0
  -21.4152  -29.3029   22.3715 N   0  0  0  0  0  0
  -26.4301  -37.3787   23.9402 N   0  0  0  0  0  0
  -24.6711  -31.0764   22.1035 N   0  0  0  0  0  0
  -23.4201  -28.8196   23.3015 O   0  0  0  0  0  0
  -28.3293  -26.5879   20.1318 O   0  0  0  0  0  0
  -26.5596  -34.8927   22.4695 O   0  0  0  0  0  0
  -23.5341  -32.1458   23.7480 O   0  0  0  0  0  0
  -28.4733  -17.8681   22.1019 C   0  0  0  0  0  0
  -29.6920  -19.3461   20.6144 C   0  0  0  0  0  0
  -29.5484  -18.0725   21.2235 C   0  0  0  0  0  0
  -27.5522  -18.8987   22.3649 C   0  0  0  0  0  0
  -28.7718  -20.4115   20.8423 C   0  0  0  0  0  0
  -27.6929  -20.1760   21.7514 C   0  0  0  0  0  0
  -27.9430  -24.0951   20.5043 C   0  0  0  0  0  0
  -26.7156  -23.7403   20.0717 C   0  0  0  0  0  0
  -29.6514  -24.2832   22.7927 C   0  0  0  0  0  0
  -29.5352  -25.5494   21.9455 C   0  0  0  0  0  0
  -29.8600  -23.0458   21.9048 C   0  0  0  0  0  0
  -28.2598  -25.5010   21.0940 C   0  0  1  0  0  0
  -26.4017  -18.5793   23.3090 C   0  0  0  0  0  0
  -26.6666  -21.2562   22.0758 C   0  0  0  0  0  0
  -30.5596  -16.9431   20.9665 C   0  0  0  0  0  0
  -28.9372  -21.7138   19.9889 C   0  0  0  0  0  0
  -30.0329  -15.5621   21.0047 N   0  0  0  0  0  0
  -29.0896  -23.0764   20.6257 N   0  3  1  0  0  0
  -31.4653  -12.3913   19.1441 H   0  0  0  0  0  0
  -30.3021  -11.3104   19.8575 H   0  0  0  0  0  0
  -29.7442  -11.7733   17.4408 H   0  0  0  0  0  0
  -29.6572  -13.4837   17.7744 H   0  0  0  0  0  0
  -27.8423  -11.2967   18.8479 H   0  0  0  0  0  0
  -27.3666  -12.6010   17.7911 H   0  0  0  0  0  0
  -27.6933  -14.2517   19.5441 H   0  0  0  0  0  0
  -28.6761  -12.0161   21.3876 H   0  0  0  0  0  0
  -28.4658  -13.6773   21.8483 H   0  0  0  0  0  0
  -25.2754   -9.5695   22.4746 H   0  0  0  0  0  0
  -24.0002   -7.4649   22.7471 H   0  0  0  0  0  0
  -21.0821   -8.8763   19.8949 H   0  0  0  0  0  0
  -22.3682  -10.9665   19.6163 H   0  0  0  0  0  0
  -21.1996   -7.6145   23.9712 H   0  0  0  0  0  0
  -21.1496   -6.0521   25.9082 H   0  0  0  0  0  0
  -22.0585   -2.7600   23.2834 H   0  0  0  0  0  0
  -22.4102  -11.9952   22.4806 H   0  0  0  0  0  0
  -21.1095  -13.1300   22.2565 H   0  0  0  0  0  0
  -24.6663  -15.8413   20.5408 H   0  0  0  0  0  0
  -26.2898  -15.6385   20.1242 H   0  0  0  0  0  0
  -26.7117  -32.5544   23.1164 H   0  0  0  0  0  0
  -25.0024  -33.9794   25.0462 H   0  0  0  0  0  0
  -22.6946  -31.3107   21.4151 H   0  0  0  0  0  0
  -23.3747  -35.9653   23.3314 H   0  0  0  0  0  0
  -24.3584  -36.8914   22.2048 H   0  0  0  0  0  0
  -23.7253  -37.6527   23.6646 H   0  0  0  0  0  0
  -26.0581  -31.5901   20.6074 H   0  0  0  0  0  0
  -26.8239  -30.8747   21.9967 H   0  0  0  0  0  0
  -28.0902  -29.0442   21.2256 H   0  0  0  0  0  0
  -26.0802  -26.0533   18.8678 H   0  0  0  0  0  0
  -23.9926  -27.3506   18.9537 H   0  0  0  0  0  0
  -23.7220  -30.6121   19.4084 H   0  0  0  0  0  0
  -22.7405  -29.2525   19.8660 H   0  0  0  0  0  0
  -25.1287  -36.1976   25.0829 H   0  0  0  0  0  0
  -20.9968  -28.3226   24.1436 H   0  0  0  0  0  0
  -20.5689  -26.2255   23.3604 H   0  0  0  0  0  0
  -21.6647  -26.7441   22.1202 H   0  0  0  0  0  0
  -19.6903  -25.6303   21.1235 H   0  0  0  0  0  0
  -19.6690  -27.3209   20.6767 H   0  0  0  0  0  0
  -17.4194  -26.6682   21.4026 H   0  0  0  0  0  0
  -18.0311  -26.0067   22.9024 H   0  0  0  0  0  0
  -19.7926  -30.7263   24.2286 H   0  0  0  0  0  0
  -17.5005  -31.6265   24.5161 H   0  0  0  0  0  0
  -15.5344  -30.2988   23.7643 H   0  0  0  0  0  0
  -15.8669  -28.0830   22.7047 H   0  0  0  0  0  0
  -24.5909  -30.7051   25.7792 H   0  0  0  0  0  0
  -24.8918  -32.2860   26.4913 H   0  0  0  0  0  0
  -25.8075  -30.8865   27.0224 H   0  0  0  0  0  0
  -26.2831  -29.6787   24.1169 H   0  0  0  0  0  0
  -27.4045  -29.7256   25.4581 H   0  0  0  0  0  0
  -27.8690  -30.4315   23.9276 H   0  0  0  0  0  0
  -27.2696  -33.3611   26.2065 H   0  0  0  0  0  0
  -28.3860  -32.6853   25.0286 H   0  0  0  0  0  0
  -28.0740  -31.8414   26.5377 H   0  0  0  0  0  0
  -28.2610  -38.0094   24.7499 H   0  0  0  0  0  0
  -28.1066  -36.2626   24.6305 H   0  0  0  0  0  0
  -27.2297  -37.1482   25.8867 H   0  0  0  0  0  0
  -20.9297  -29.8743   21.6938 H   0  0  0  0  0  0
  -26.0191  -38.2871   24.1391 H   0  0  0  0  0  0
  -28.3522  -16.9102   22.5876 H   0  0  0  0  0  0
  -30.5186  -19.4937   19.9318 H   0  0  0  0  0  0
  -25.8913  -24.4304   20.1177 H   0  0  0  0  0  0
  -26.4671  -22.7628   19.6942 H   0  0  0  0  0  0
  -28.7480  -24.1572   23.3931 H   0  0  0  0  0  0
  -30.4767  -24.3723   23.5003 H   0  0  0  0  0  0
  -30.4175  -25.6533   21.3128 H   0  0  0  0  0  0
  -29.5085  -26.4306   22.5879 H   0  0  0  0  0  0
  -29.6256  -22.1677   22.5036 H   0  0  0  0  0  0
  -30.9152  -22.9569   21.6435 H   0  0  0  0  0  0
  -27.4362  -25.6950   21.7865 H   0  0  0  0  0  0
  -26.3730  -17.5194   23.5622 H   0  0  0  0  0  0
  -25.4432  -18.8250   22.8503 H   0  0  0  0  0  0
  -26.5020  -19.1365   24.2413 H   0  0  0  0  0  0
  -25.9407  -21.3474   21.2691 H   0  0  0  0  0  0
  -27.1397  -22.2143   22.2599 H   0  0  0  0  0  0
  -26.1023  -21.0587   22.9845 H   0  0  0  0  0  0
  -31.3489  -17.0230   21.7159 H   0  0  0  0  0  0
  -31.0383  -17.1232   20.0017 H   0  0  0  0  0  0
  -28.1968  -21.7092   19.1918 H   0  0  0  0  0  0
  -29.8716  -21.5955   19.4395 H   0  0  0  0  0  0
  -29.0858  -15.4223   21.3173 H   0  0  0  0  0  0
  -29.7868  -23.4610   20.0042 H   0  0  0  0  0  0
  1 25  1  0  0  0
  1 30  2  0  0  0
  1 87  1  0  0  0
  2  3  1  0  0  0
  2 25  1  0  0  0
  2 89  1  0  0  0
  2 90  1  0  0  0
  3  4  1  0  0  0
  3 91  1  0  0  0
  3 92  1  0  0  0
  4  5  1  0  0  0
  4 93  1  0  0  0
  4 94  1  0  0  0
  5  6  1  0  0  0
  5 26  1  0  0  0
  5 95  1  0  0  0
  6 25  1  0  0  0
  6 96  1  0  0  0
  6 97  1  0  0  0
  7  8  2  0  0  0
  7 26  1  0  0  0
  7 29  1  0  0  0
  8  9  1  0  0  0
  8 22  1  0  0  0
  9 10  1  0  0  0
  9 27  2  0  0  0
 10 11  2  0  0  0
 10 15  1  0  0  0
 11 12  1  0  0  0
 11 98  1  0  0  0
 12 13  2  0  0  0
 12 99  1  0  0  0
 13 14  1  0  0  0
 13 31  1  0  0  0
 14 15  2  0  0  0
 14100  1  0  0  0
 15101  1  0  0  0
 16 17  2  0  0  0
 16 21  1  0  0  0
 16 31  1  0  0  0
 17 18  1  0  0  0
 17102  1  0  0  0
 18 19  2  0  0  0
 18103  1  0  0  0
 19 20  1  0  0  0
 19 24  1  0  0  0
 20 21  2  0  0  0
 20104  1  0  0  0
 21 23  1  0  0  0
 22 28  1  0  0  0
 22 32  2  0  0  0
 26 27  1  0  0  0
 28105  1  0  0  0
 28106  1  0  0  0
 29107  1  0  0  0
 29108  1  0  0  0
 33 34  1  0  0  0
 33 66  1  0  0  0
 33 70  2  0  0  0
 34 36  1  0  0  0
 34 59  1  0  0  0
 34109  1  0  0  0
 35 44  2  0  0  0
 35 45  1  0  0  0
 35 68  1  0  0  0
 36 56  1  0  0  0
 36110  1  0  0  0
 37 39  1  0  0  0
 37 47  1  0  0  0
 37 66  1  0  0  0
 37111  1  0  0  0
 38 43  2  0  0  0
 38 46  1  0  0  0
 38 47  1  0  0  0
 39 64  1  0  0  0
 39 67  2  0  0  0
 40 52  1  0  0  0
 40 53  2  0  0  0
 40 58  1  0  0  0
 41112  1  0  0  0
 41113  1  0  0  0
 41114  1  0  0  0
 41 48  1  0  0  0
 42 43  1  0  0  0
 42 66  1  0  0  0
 42115  1  0  0  0
 42116  1  0  0  0
 43 44  1  0  0  0
 44117  1  0  0  0
 45 46  2  0  0  0
 45118  1  0  0  0
 46119  1  0  0  0
 47120  1  0  0  0
 47121  1  0  0  0
 48 56  1  0  0  0
 48 65  1  0  0  0
 48122  1  0  0  0
 49 50  1  0  0  0
 49 53  1  0  0  0
 49 64  1  0  0  0
 49123  1  0  0  0
 50 51  1  0  0  0
 50124  1  0  0  0
 50125  1  0  0  0
 51 52  1  0  0  0
 51126  1  0  0  0
 51127  1  0  0  0
 52128  1  0  0  0
 52129  1  0  0  0
 53 54  1  0  0  0
 54 55  2  0  0  0
 54130  1  0  0  0
 55 57  1  0  0  0
 55131  1  0  0  0
 56 69  2  0  0  0
 57 58  2  0  0  0
 57132  1  0  0  0
 58133  1  0  0  0
 59 60  1  0  0  0
 59 61  1  0  0  0
 59 62  1  0  0  0
 60134  1  0  0  0
 60135  1  0  0  0
 60136  1  0  0  0
 61137  1  0  0  0
 61138  1  0  0  0
 61139  1  0  0  0
 62140  1  0  0  0
 62141  1  0  0  0
 62142  1  0  0  0
 63 65  1  0  0  0
 63143  1  0  0  0
 63144  1  0  0  0
 63145  1  0  0  0
 64146  1  0  0  0
 65147  1  0  0  0
 68 82  1  0  0  0
 71 73  2  0  0  0
 71 74  1  0  0  0
 71148  1  0  0  0
 72 73  1  0  0  0
 72 75  2  0  0  0
 72149  1  0  0  0
 73 85  1  0  0  0
 74 76  2  0  0  0
 74 83  1  0  0  0
 75 76  1  0  0  0
 75 86  1  0  0  0
 76 84  1  0  0  0
 77 78  2  0  0  0
 77 82  1  0  0  0
 77 88  1  0  0  0
 78150  1  0  0  0
 78151  1  0  0  0
 79 80  1  0  0  0
 79 81  1  0  0  0
 79152  1  0  0  0
 79153  1  0  0  0
 80 82  1  0  0  0
 80154  1  0  0  0
 80155  1  0  0  0
 81 88  1  0  0  0
 81156  1  0  0  0
 81157  1  0  0  0
 82158  1  0  0  0
 83159  1  0  0  0
 83160  1  0  0  0
 83161  1  0  0  0
 84162  1  0  0  0
 84163  1  0  0  0
 84164  1  0  0  0
 85 87  1  0  0  0
 85165  1  0  0  0
 85166  1  0  0  0
 86167  1  0  0  0
 86168  1  0  0  0
 86 88  1  0  0  0
 87169  1  0  0  0
 88170  1  0  0  0
M  CHG  1  88   1
M  ISO  4   1 100  68 101  82 101  87 100
M  END
> <chiral flag>
0

> <version>
0

> <s_m_source_file>
/data/baiqing/PycharmProjects/Reinvent-master-3.2/result/LINK_invent/BTK/process_docking_weight1_custom_product_contain_oxygen_bond_distance_aromatic_linkinvent_7_9_3/rearranged_h_0038.sdf

> <i_m_source_file_index>
3

> <r_mmod_Potential_Energy-OPLS-2005>
-136.478118896484

> <r_mmod_Stretch_Energy-OPLS-2005>
56.5081481933594

> <r_mmod_Bend_Energy-OPLS-2005>
137.490127563477

> <r_mmod_Torsional_Energy-OPLS-2005>
248.729827880859

> <r_mmod_Improper_Torsional_Energy-OPLS-2005>
4.21807193756104

> <r_mmod_Van_der_Waal_Energy-OPLS-2005>
168.556884765625

> <r_mmod_Electrostatic_Energy-OPLS-2005>
-349.824340820312

> <r_mmod_Solvation_Energy-OPLS-2005>
-422.867156982422

> <b_mmod_Minimization_Converged-OPLS-2005>
0

> <r_mmod_RMS_Derivative-OPLS-2005>
2.27083134651184

$$$$
3
                    3D
 Structure written by MMmdl.
167176  0  0  1  0            999 V2000
  -30.5925  -14.7405   20.5313 C   0  0  0  0  0  0
  -30.4300  -12.4657   19.4673 C   0  0  0  0  0  0
  -29.5022  -12.5316   18.2333 C   0  0  0  0  0  0
  -28.0317  -12.3461   18.6531 C   0  0  0  0  0  0
  -27.6425  -13.2335   19.8633 C   0  0  2  0  0  0
  -28.6827  -13.1437   21.0005 C   0  0  0  0  0  0
  -25.2498  -13.8208   20.5759 C   0  0  0  0  0  0
  -24.1803  -13.0452   20.9223 C   0  0  0  0  0  0
  -24.6419  -11.6930   20.8803 C   0  0  0  0  0  0
  -23.9133  -10.4295   21.0466 C   0  0  0  0  0  0
  -24.3677   -9.4199   21.9257 C   0  0  0  0  0  0
  -23.6314   -8.2243   22.0806 C   0  0  0  0  0  0
  -22.4304   -8.0300   21.3569 C   0  0  0  0  0  0
  -21.9946   -9.0293   20.4680 C   0  0  0  0  0  0
  -22.7312  -10.2157   20.3105 C   0  0  0  0  0  0
  -21.6836   -6.0769   22.5303 C   0  0  0  0  0  0
  -21.4010   -6.5667   23.8238 C   0  0  0  0  0  0
  -21.3659   -5.6826   24.9206 C   0  0  0  0  0  0
  -21.6028   -4.3099   24.7248 C   0  0  0  0  0  0
  -21.8824   -3.8174   23.4368 C   0  0  0  0  0  0
  -21.9189   -4.6979   22.3436 C   0  0  0  0  0  0
  -22.7816  -13.5219   21.1875 C   0  0  0  0  0  0
  -22.1680   -4.2161   21.1013 F   0  0  0  0  0  0
  -21.5615   -3.4574   25.7747 F   0  0  0  0  0  0
  -29.9807  -13.5085   20.4241 N   0  0  0  0  0  0
  -26.2939  -12.9438   20.3331 N   0  0  0  0  0  0
  -25.9342  -11.6590   20.5794 N   0  0  0  0  0  0
  -22.0477  -12.8180   22.0396 N   0  0  0  0  0  0
  -25.4119  -15.1938   20.4156 N   0  0  0  0  0  0
  -31.7596  -14.8628   20.1499 O   0  0  0  0  0  0
  -21.6628   -6.8916   21.4265 O   0  0  0  0  0  0
  -22.3502  -14.5540   20.6723 O   0  0  0  0  0  0
  -24.6335  -31.8553   23.2018 C   0  0  0  0  0  0
  -25.9172  -32.4736   23.8334 C   0  0  1  0  0  0
  -27.1952  -27.2636   20.0969 C   0  0  0  0  0  0
  -25.5978  -33.8533   24.2282 N   0  0  0  0  0  0
  -23.4208  -30.4884   21.5445 C   0  0  2  0  0  0
  -24.8598  -28.9437   20.0953 C   0  0  0  0  0  0
  -22.7462  -29.4638   22.4899 C   0  0  0  0  0  0
  -18.0277  -28.1369   22.8500 C   0  0  0  0  0  0
  -24.1474  -36.7262   23.2651 C   0  0  0  0  0  0
  -25.9710  -30.7679   21.3803 C   0  0  0  0  0  0
  -26.0329  -29.3939   20.7133 C   0  0  0  0  0  0
  -27.2011  -28.5668   20.7031 C   0  0  0  0  0  0
  -26.0025  -26.8948   19.4332 C   0  0  0  0  0  0
  -24.8546  -27.7073   19.4367 C   0  0  0  0  0  0
  -23.6320  -29.8319   20.1551 C   0  0  0  0  0  0
  -25.4108  -36.3066   24.0361 C   0  0  1  0  0  0
  -20.5884  -28.3700   23.1266 C   0  0  2  0  0  0
  -20.6764  -26.9421   22.5379 C   0  0  0  0  0  0
  -19.5732  -26.6380   21.5180 C   0  0  0  0  0  0
  -18.1918  -26.7931   22.1597 C   0  0  0  0  0  0
  -19.1532  -28.8850   23.2896 C   0  0  0  0  0  0
  -18.9451  -30.1452   23.8912 C   0  0  0  0  0  0
  -17.6461  -30.6598   24.0557 C   0  0  0  0  0  0
  -25.9068  -34.9426   23.5120 C   0  0  0  0  0  0
  -16.5356  -29.9094   23.6304 C   0  0  0  0  0  0
  -16.7274  -28.6491   23.0379 C   0  0  0  0  0  0
  -26.4556  -31.6537   25.0692 C   0  0  0  0  0  0
  -25.3810  -31.3542   26.1406 C   0  0  0  0  0  0
  -27.0454  -30.2992   24.6160 C   0  0  0  0  0  0
  -27.6141  -32.4252   25.7454 C   0  0  0  0  0  0
  -27.5599  -37.1754   24.8474 C   0  0  0  0  0  0
  -21.4176  -29.3078   22.3648 N   0  0  0  0  0  0
  -26.4281  -37.3786   23.9480 N   0  0  0  0  0  0
  -24.6944  -31.0546   22.0976 N   0  0  0  0  0  0
  -23.4183  -28.8176   23.2985 O   0  0  0  0  0  0
  -28.2965  -26.3819   20.1843 O   0  0  0  0  0  0
  -26.5623  -34.8917   22.4674 O   0  0  0  0  0  0
  -23.5487  -32.1390   23.7318 O   0  0  0  0  0  0
  -29.1851  -18.3869   20.8161 C   0  0  0  0  0  0
  -31.4266  -18.9734   22.3236 C   0  0  0  0  0  0
  -29.3961  -19.7875   21.1953 C   0  0  0  0  0  0
  -30.5613  -20.0345   21.9730 C   0  0  0  0  0  0
  -30.0770  -17.2751   21.1579 C   0  0  0  0  0  0
  -31.1945  -17.6319   21.9609 C   0  0  0  0  0  0
  -28.0622  -23.7790   20.7760 C   0  0  0  0  0  0
  -27.3051  -24.0579   21.8627 C   0  0  0  0  0  0
  -30.5170  -23.6764   19.2627 C   0  0  0  0  0  0
  -29.5834  -24.8158   18.8548 C   0  0  0  0  0  0
  -29.7218  -22.3802   19.3843 C   0  0  0  0  0  0
  -28.3003  -24.9503   19.7063 C   0  0  2  0  0  0
  -30.9344  -21.4113   22.5156 C   0  0  0  0  0  0
  -27.0003  -23.2250   23.0893 C   0  0  0  0  0  0
  -28.3604  -20.9909   20.8927 C   0  0  0  0  0  0
  -29.7895  -15.8402   20.8384 N   0  0  0  0  0  0
  -28.8920  -22.4179   20.6074 N   0  3  2  0  0  0
  -32.2733  -16.4700   22.6540 Cl  0  0  0  0  0  0
  -31.4707  -12.5921   19.1577 H   0  0  0  0  0  0
  -30.3746  -11.4834   19.9354 H   0  0  0  0  0  0
  -29.7719  -11.7730   17.4953 H   0  0  0  0  0  0
  -29.6219  -13.4977   17.7398 H   0  0  0  0  0  0
  -27.8845  -11.2948   18.9031 H   0  0  0  0  0  0
  -27.3727  -12.5573   17.8094 H   0  0  0  0  0  0
  -27.6465  -14.2617   19.4992 H   0  0  0  0  0  0
  -28.7202  -12.1437   21.4307 H   0  0  0  0  0  0
  -28.4156  -13.8088   21.8242 H   0  0  0  0  0  0
  -25.2862   -9.5640   22.4813 H   0  0  0  0  0  0
  -24.0020   -7.4632   22.7524 H   0  0  0  0  0  0
  -21.0880   -8.8839   19.8968 H   0  0  0  0  0  0
  -22.3823  -10.9714   19.6199 H   0  0  0  0  0  0
  -21.2032   -7.6184   23.9734 H   0  0  0  0  0  0
  -21.1454   -6.0585   25.9116 H   0  0  0  0  0  0
  -22.0587   -2.7624   23.2883 H   0  0  0  0  0  0
  -22.4114  -11.9841   22.4773 H   0  0  0  0  0  0
  -21.1107  -13.1185   22.2654 H   0  0  0  0  0  0
  -24.6311  -15.8315   20.5261 H   0  0  0  0  0  0
  -26.2388  -15.6486   20.0530 H   0  0  0  0  0  0
  -26.7221  -32.5385   23.1051 H   0  0  0  0  0  0
  -25.0113  -33.9635   25.0423 H   0  0  0  0  0  0
  -22.7200  -31.3156   21.4023 H   0  0  0  0  0  0
  -23.3799  -35.9519   23.3223 H   0  0  0  0  0  0
  -24.3595  -36.8966   22.2089 H   0  0  0  0  0  0
  -23.7119  -37.6393   23.6726 H   0  0  0  0  0  0
  -26.1133  -31.5359   20.6184 H   0  0  0  0  0  0
  -26.8497  -30.8031   22.0116 H   0  0  0  0  0  0
  -28.1010  -28.9103   21.1932 H   0  0  0  0  0  0
  -25.8965  -25.9720   18.8903 H   0  0  0  0  0  0
  -23.9685  -27.3697   18.9154 H   0  0  0  0  0  0
  -23.7585  -30.6144   19.4067 H   0  0  0  0  0  0
  -22.7438  -29.2762   19.8443 H   0  0  0  0  0  0
  -25.1234  -36.1922   25.0847 H   0  0  0  0  0  0
  -20.9977  -28.3297   24.1391 H   0  0  0  0  0  0
  -20.5612  -26.2333   23.3583 H   0  0  0  0  0  0
  -21.6642  -26.7417   22.1205 H   0  0  0  0  0  0
  -19.6903  -25.6287   21.1222 H   0  0  0  0  0  0
  -19.6662  -27.3179   20.6708 H   0  0  0  0  0  0
  -17.4173  -26.6707   21.4024 H   0  0  0  0  0  0
  -18.0335  -26.0050   22.8955 H   0  0  0  0  0  0
  -19.7941  -30.7242   24.2313 H   0  0  0  0  0  0
  -17.5028  -31.6283   24.5154 H   0  0  0  0  0  0
  -15.5363  -30.3025   23.7581 H   0  0  0  0  0  0
  -15.8670  -28.0782   22.7154 H   0  0  0  0  0  0
  -24.6050  -30.6855   25.7677 H   0  0  0  0  0  0
  -24.8906  -32.2604   26.4948 H   0  0  0  0  0  0
  -25.8188  -30.8631   27.0109 H   0  0  0  0  0  0
  -26.3036  -29.6664   24.1287 H   0  0  0  0  0  0
  -27.4283  -29.7333   25.4672 H   0  0  0  0  0  0
  -27.8836  -30.4324   23.9319 H   0  0  0  0  0  0
  -27.2839  -33.3588   26.2012 H   0  0  0  0  0  0
  -28.3936  -32.6746   25.0241 H   0  0  0  0  0  0
  -28.0824  -31.8357   26.5342 H   0  0  0  0  0  0
  -28.2512  -38.0143   24.7664 H   0  0  0  0  0  0
  -28.1159  -36.2681   24.6102 H   0  0  0  0  0  0
  -27.2336  -37.1174   25.8862 H   0  0  0  0  0  0
  -20.9356  -29.8873   21.6906 H   0  0  0  0  0  0
  -26.0149  -38.2837   24.1572 H   0  0  0  0  0  0
  -28.2848  -18.1532   20.2673 H   0  0  0  0  0  0
  -32.2921  -19.1852   22.9373 H   0  0  0  0  0  0
  -26.8144  -25.0194   21.8899 H   0  0  0  0  0  0
  -31.0307  -23.9113   20.1994 H   0  0  0  0  0  0
  -31.2965  -23.5630   18.5090 H   0  0  0  0  0  0
  -29.2883  -24.6523   17.8159 H   0  0  0  0  0  0
  -30.1426  -25.7512   18.8467 H   0  0  0  0  0  0
  -30.4086  -21.5325   19.4126 H   0  0  0  0  0  0
  -29.0872  -22.2222   18.5092 H   0  0  0  0  0  0
  -27.5085  -24.8067   18.9785 H   0  0  0  0  0  0
  -31.6971  -21.3299   23.2908 H   0  0  0  0  0  0
  -30.0871  -21.9244   22.9742 H   0  0  0  0  0  0
  -31.3631  -22.0320   21.7299 H   0  0  0  0  0  0
  -26.1511  -22.5639   22.9095 H   0  0  0  0  0  0
  -26.7204  -23.8958   23.9079 H   0  0  0  0  0  0
  -27.8601  -22.6486   23.4204 H   0  0  0  0  0  0
  -27.7181  -21.0354   21.7677 H   0  0  0  0  0  0
  -27.7080  -20.6952   20.0686 H   0  0  0  0  0  0
  -28.8122  -15.5992   20.8635 H   0  0  0  0  0  0
  -29.5751  -22.4754   21.3466 H   0  0  0  0  0  0
  1 25  1  0  0  0
  1 30  2  0  0  0
  1 86  1  0  0  0
  2  3  1  0  0  0
  2 25  1  0  0  0
  2 89  1  0  0  0
  2 90  1  0  0  0
  3  4  1  0  0  0
  3 91  1  0  0  0
  3 92  1  0  0  0
  4  5  1  0  0  0
  4 93  1  0  0  0
  4 94  1  0  0  0
  5  6  1  0  0  0
  5 26  1  0  0  0
  5 95  1  0  0  0
  6 25  1  0  0  0
  6 96  1  0  0  0
  6 97  1  0  0  0
  7  8  2  0  0  0
  7 26  1  0  0  0
  7 29  1  0  0  0
  8  9  1  0  0  0
  8 22  1  0  0  0
  9 10  1  0  0  0
  9 27  2  0  0  0
 10 11  2  0  0  0
 10 15  1  0  0  0
 11 12  1  0  0  0
 11 98  1  0  0  0
 12 13  2  0  0  0
 12 99  1  0  0  0
 13 14  1  0  0  0
 13 31  1  0  0  0
 14 15  2  0  0  0
 14100  1  0  0  0
 15101  1  0  0  0
 16 17  2  0  0  0
 16 21  1  0  0  0
 16 31  1  0  0  0
 17 18  1  0  0  0
 17102  1  0  0  0
 18 19  2  0  0  0
 18103  1  0  0  0
 19 20  1  0  0  0
 19 24  1  0  0  0
 20 21  2  0  0  0
 20104  1  0  0  0
 21 23  1  0  0  0
 22 28  1  0  0  0
 22 32  2  0  0  0
 26 27  1  0  0  0
 28105  1  0  0  0
 28106  1  0  0  0
 29107  1  0  0  0
 29108  1  0  0  0
 33 34  1  0  0  0
 33 66  1  0  0  0
 33 70  2  0  0  0
 34 36  1  0  0  0
 34 59  1  0  0  0
 34109  1  0  0  0
 35 44  2  0  0  0
 35 45  1  0  0  0
 35 68  1  0  0  0
 36 56  1  0  0  0
 36110  1  0  0  0
 37 39  1  0  0  0
 37 47  1  0  0  0
 37 66  1  0  0  0
 37111  1  0  0  0
 38 43  2  0  0  0
 38 46  1  0  0  0
 38 47  1  0  0  0
 39 64  1  0  0  0
 39 67  2  0  0  0
 40 52  1  0  0  0
 40 53  2  0  0  0
 40 58  1  0  0  0
 41112  1  0  0  0
 41113  1  0  0  0
 41114  1  0  0  0
 41 48  1  0  0  0
 42 43  1  0  0  0
 42 66  1  0  0  0
 42115  1  0  0  0
 42116  1  0  0  0
 43 44  1  0  0  0
 44117  1  0  0  0
 45 46  2  0  0  0
 45118  1  0  0  0
 46119  1  0  0  0
 47120  1  0  0  0
 47121  1  0  0  0
 48 56  1  0  0  0
 48 65  1  0  0  0
 48122  1  0  0  0
 49 50  1  0  0  0
 49 53  1  0  0  0
 49 64  1  0  0  0
 49123  1  0  0  0
 50 51  1  0  0  0
 50124  1  0  0  0
 50125  1  0  0  0
 51 52  1  0  0  0
 51126  1  0  0  0
 51127  1  0  0  0
 52128  1  0  0  0
 52129  1  0  0  0
 53 54  1  0  0  0
 54 55  2  0  0  0
 54130  1  0  0  0
 55 57  1  0  0  0
 55131  1  0  0  0
 56 69  2  0  0  0
 57 58  2  0  0  0
 57132  1  0  0  0
 58133  1  0  0  0
 59 60  1  0  0  0
 59 61  1  0  0  0
 59 62  1  0  0  0
 60134  1  0  0  0
 60135  1  0  0  0
 60136  1  0  0  0
 61137  1  0  0  0
 61138  1  0  0  0
 61139  1  0  0  0
 62140  1  0  0  0
 62141  1  0  0  0
 62142  1  0  0  0
 63 65  1  0  0  0
 63143  1  0  0  0
 63144  1  0  0  0
 63145  1  0  0  0
 64146  1  0  0  0
 65147  1  0  0  0
 68 82  1  0  0  0
 71 73  2  0  0  0
 71 75  1  0  0  0
 71148  1  0  0  0
 72 74  2  0  0  0
 72 76  1  0  0  0
 72149  1  0  0  0
 73 74  1  0  0  0
 73 85  1  0  0  0
 74 83  1  0  0  0
 75 76  2  0  0  0
 75 86  1  0  0  0
 76 88  1  0  0  0
 77 78  2  0  0  0
 77 82  1  0  0  0
 77 87  1  0  0  0
 78 84  1  0  0  0
 78150  1  0  0  0
 79 80  1  0  0  0
 79 81  1  0  0  0
 79151  1  0  0  0
 79152  1  0  0  0
 80 82  1  0  0  0
 80153  1  0  0  0
 80154  1  0  0  0
 81 87  1  0  0  0
 81155  1  0  0  0
 81156  1  0  0  0
 82157  1  0  0  0
 83158  1  0  0  0
 83159  1  0  0  0
 83160  1  0  0  0
 84161  1  0  0  0
 84162  1  0  0  0
 84163  1  0  0  0
 85164  1  0  0  0
 85165  1  0  0  0
 85 87  1  0  0  0
 86166  1  0  0  0
 87167  1  0  0  0
M  CHG  1  87   1
M  ISO  4   1 100  68 101  82 101  86 100
M  END
> <chiral flag>
0

> <version>
0

> <s_m_source_file>
/data/baiqing/PycharmProjects/Reinvent-master-3.2/result/LINK_invent/BTK/process_docking_weight1_custom_product_contain_oxygen_bond_distance_aromatic_linkinvent_7_9_3/rearranged_h_0038.sdf

> <i_m_source_file_index>
4

> <r_mmod_Potential_Energy-OPLS-2005>
130.058242797852

> <r_mmod_Stretch_Energy-OPLS-2005>
154.381225585938

> <r_mmod_Bend_Energy-OPLS-2005>
210.05859375

> <r_mmod_Torsional_Energy-OPLS-2005>
243.673767089844

> <r_mmod_Improper_Torsional_Energy-OPLS-2005>
6.72943925857544

> <r_mmod_Van_der_Waal_Energy-OPLS-2005>
150.45686340332

> <r_mmod_Electrostatic_Energy-OPLS-2005>
-277.175537109375

> <r_mmod_Solvation_Energy-OPLS-2005>
-440.640258789062

> <b_mmod_Minimization_Converged-OPLS-2005>
0

> <r_mmod_RMS_Derivative-OPLS-2005>
6.31937789916992

$$$$
4
                    3D
 Structure written by MMmdl.
156164  0  0  1  0            999 V2000
  -30.7076  -14.3947   20.6465 C   0  0  0  0  0  0
  -30.4240  -12.2725   19.4258 C   0  0  0  0  0  0
  -29.5095  -12.5218   18.2120 C   0  0  0  0  0  0
  -28.0254  -12.3792   18.6048 C   0  0  0  0  0  0
  -27.6672  -13.1940   19.8754 C   0  0  2  0  0  0
  -28.6908  -12.9326   20.9998 C   0  0  0  0  0  0
  -25.2640  -13.8146   20.5717 C   0  0  0  0  0  0
  -24.1861  -13.0454   20.9181 C   0  0  0  0  0  0
  -24.6377  -11.6905   20.8682 C   0  0  0  0  0  0
  -23.9027  -10.4303   21.0378 C   0  0  0  0  0  0
  -24.3598   -9.4237   21.9174 C   0  0  0  0  0  0
  -23.6288   -8.2275   22.0750 C   0  0  0  0  0  0
  -22.4270   -8.0289   21.3545 C   0  0  0  0  0  0
  -21.9892   -9.0245   20.4644 C   0  0  0  0  0  0
  -22.7206  -10.2135   20.3040 C   0  0  0  0  0  0
  -21.6854   -6.0735   22.5283 C   0  0  0  0  0  0
  -21.4012   -6.5635   23.8216 C   0  0  0  0  0  0
  -21.3660   -5.6784   24.9176 C   0  0  0  0  0  0
  -21.6037   -4.3052   24.7199 C   0  0  0  0  0  0
  -21.8826   -3.8140   23.4317 C   0  0  0  0  0  0
  -21.9209   -4.6968   22.3387 C   0  0  0  0  0  0
  -22.7897  -13.5292   21.1830 C   0  0  0  0  0  0
  -22.1668   -4.2171   21.0951 F   0  0  0  0  0  0
  -21.5637   -3.4518   25.7709 F   0  0  0  0  0  0
  -30.0453  -13.2210   20.4827 N   0  0  0  0  0  0
  -26.3025  -12.9278   20.3264 N   0  0  0  0  0  0
  -25.9287  -11.6448   20.5634 N   0  0  0  0  0  0
  -22.0461  -12.8313   22.0335 N   0  0  0  0  0  0
  -25.4380  -15.1866   20.4331 N   0  0  0  0  0  0
  -31.7416  -14.6911   20.0379 O   0  0  0  0  0  0
  -21.6637   -6.8882   21.4249 O   0  0  0  0  0  0
  -22.3621  -14.5599   20.6660 O   0  0  0  0  0  0
  -24.6119  -31.8694   23.2095 C   0  0  0  0  0  0
  -25.9028  -32.4837   23.8389 C   0  0  1  0  0  0
  -27.2468  -27.4549   20.1169 C   0  0  0  0  0  0
  -25.5896  -33.8640   24.2336 N   0  0  0  0  0  0
  -23.4038  -30.4853   21.5476 C   0  0  2  0  0  0
  -24.8576  -28.9514   20.1156 C   0  0  0  0  0  0
  -22.7391  -29.4651   22.4966 C   0  0  0  0  0  0
  -18.0269  -28.1377   22.8508 C   0  0  0  0  0  0
  -24.1467  -36.7303   23.2647 C   0  0  0  0  0  0
  -25.9262  -30.8387   21.3637 C   0  0  0  0  0  0
  -26.0095  -29.4705   20.7237 C   0  0  0  0  0  0
  -27.2078  -28.7238   20.7300 C   0  0  0  0  0  0
  -26.0875  -26.9449   19.4961 C   0  0  0  0  0  0
  -24.8906  -27.6894   19.4958 C   0  0  0  0  0  0
  -23.6154  -29.8126   20.1623 C   0  0  0  0  0  0
  -25.4103  -36.3116   24.0342 C   0  0  1  0  0  0
  -20.5857  -28.3687   23.1342 C   0  0  2  0  0  0
  -20.6806  -26.9431   22.5386 C   0  0  0  0  0  0
  -19.5757  -26.6356   21.5224 C   0  0  0  0  0  0
  -18.1920  -26.7923   22.1620 C   0  0  0  0  0  0
  -19.1510  -28.8838   23.2931 C   0  0  0  0  0  0
  -18.9425  -30.1452   23.8924 C   0  0  0  0  0  0
  -17.6419  -30.6576   24.0584 C   0  0  0  0  0  0
  -25.9028  -34.9491   23.5129 C   0  0  0  0  0  0
  -16.5336  -29.9083   23.6297 C   0  0  0  0  0  0
  -16.7259  -28.6505   23.0312 C   0  0  0  0  0  0
  -26.4457  -31.6591   25.0683 C   0  0  0  0  0  0
  -25.3751  -31.3641   26.1430 C   0  0  0  0  0  0
  -27.0296  -30.3062   24.6008 C   0  0  0  0  0  0
  -27.6027  -32.4302   25.7440 C   0  0  0  0  0  0
  -27.5566  -37.1812   24.8469 C   0  0  0  0  0  0
  -21.4117  -29.3059   22.3733 N   0  0  0  0  0  0
  -26.4277  -37.3811   23.9397 N   0  0  0  0  0  0
  -24.6652  -31.0780   22.1006 N   0  0  0  0  0  0
  -23.4170  -28.8183   23.2984 O   0  0  0  0  0  0
  -28.4071  -26.7220   20.0886 O   0  0  0  0  0  0
  -26.5557  -34.8941   22.4663 O   0  0  0  0  0  0
  -23.5307  -32.1458   23.7472 O   0  0  0  0  0  0
  -30.5450  -18.8597   22.2334 C   0  0  0  0  0  0
  -29.0473  -17.1687   20.5666 C   0  0  0  0  0  0
  -29.4890  -19.4039   21.4657 C   0  0  0  0  0  0
  -30.0430  -16.6193   21.4064 C   0  0  0  0  0  0
  -30.8112  -17.4765   22.2201 C   0  0  0  0  0  0
  -28.7758  -18.5541   20.5838 C   0  0  0  0  0  0
  -29.0152  -20.8276   21.7620 C   0  0  0  0  0  0
  -29.0611  -24.3827   20.4217 C   0  0  0  0  0  0
  -29.2452  -23.2549   21.4655 C   0  0  0  0  0  0
  -28.4667  -25.6644   21.0524 C   0  0  0  0  0  0
  -30.1531  -15.2144   21.5439 N   0  0  0  0  0  0
  -29.5278  -21.9122   20.8904 N   0  3  0  0  0  0
  -32.0267  -16.8413   23.2719 Cl  0  0  0  0  0  0
  -27.5153  -19.1693   19.5740 Cl  0  0  0  0  0  0
  -31.4743  -12.3651   19.1450 H   0  0  0  0  0  0
  -30.3050  -11.2477   19.7846 H   0  0  0  0  0  0
  -29.7512  -11.8290   17.4054 H   0  0  0  0  0  0
  -29.6980  -13.5218   17.8161 H   0  0  0  0  0  0
  -27.8262  -11.3201   18.7730 H   0  0  0  0  0  0
  -27.3897  -12.6828   17.7699 H   0  0  0  0  0  0
  -27.7242  -14.2467   19.6020 H   0  0  0  0  0  0
  -28.6395  -11.8926   21.3255 H   0  0  0  0  0  0
  -28.4218  -13.5145   21.8848 H   0  0  0  0  0  0
  -25.2730   -9.5740   22.4746 H   0  0  0  0  0  0
  -24.0008   -7.4665   22.7475 H   0  0  0  0  0  0
  -21.0815   -8.8712   19.8959 H   0  0  0  0  0  0
  -22.3619  -10.9646   19.6134 H   0  0  0  0  0  0
  -21.1980   -7.6148   23.9729 H   0  0  0  0  0  0
  -21.1488   -6.0499   25.9090 H   0  0  0  0  0  0
  -22.0612   -2.7605   23.2779 H   0  0  0  0  0  0
  -22.4010  -11.9968   22.4742 H   0  0  0  0  0  0
  -21.1059  -13.1347   22.2448 H   0  0  0  0  0  0
  -24.6827  -15.8389   20.6114 H   0  0  0  0  0  0
  -26.2847  -15.6386   20.1161 H   0  0  0  0  0  0
  -26.7132  -32.5609   23.1192 H   0  0  0  0  0  0
  -25.0104  -33.9797   25.0520 H   0  0  0  0  0  0
  -22.6965  -31.3045   21.4047 H   0  0  0  0  0  0
  -23.3751  -35.9612   23.3320 H   0  0  0  0  0  0
  -24.3561  -36.8888   22.2049 H   0  0  0  0  0  0
  -23.7184  -37.6506   23.6640 H   0  0  0  0  0  0
  -26.0284  -31.5972   20.5881 H   0  0  0  0  0  0
  -26.8189  -30.9089   21.9718 H   0  0  0  0  0  0
  -28.0963  -29.1125   21.2088 H   0  0  0  0  0  0
  -26.1211  -25.9794   19.0108 H   0  0  0  0  0  0
  -24.0138  -27.2904   19.0058 H   0  0  0  0  0  0
  -23.7179  -30.5829   19.3968 H   0  0  0  0  0  0
  -22.7451  -29.2181   19.8754 H   0  0  0  0  0  0
  -25.1295  -36.1984   25.0841 H   0  0  0  0  0  0
  -21.0013  -28.3239   24.1444 H   0  0  0  0  0  0
  -20.5835  -26.2259   23.3542 H   0  0  0  0  0  0
  -21.6668  -26.7553   22.1153 H   0  0  0  0  0  0
  -19.6948  -25.6254   21.1279 H   0  0  0  0  0  0
  -19.6637  -27.3133   20.6727 H   0  0  0  0  0  0
  -17.4239  -26.6710   21.3988 H   0  0  0  0  0  0
  -18.0291  -26.0054   22.8986 H   0  0  0  0  0  0
  -19.7877  -30.7322   24.2266 H   0  0  0  0  0  0
  -17.4933  -31.6261   24.5182 H   0  0  0  0  0  0
  -15.5333  -30.2993   23.7569 H   0  0  0  0  0  0
  -15.8665  -28.0868   22.6947 H   0  0  0  0  0  0
  -24.5961  -30.6963   25.7742 H   0  0  0  0  0  0
  -24.8910  -32.2764   26.4905 H   0  0  0  0  0  0
  -25.8136  -30.8781   27.0160 H   0  0  0  0  0  0
  -26.2841  -29.6844   24.1053 H   0  0  0  0  0  0
  -27.4102  -29.7236   25.4408 H   0  0  0  0  0  0
  -27.8621  -30.4410   23.9120 H   0  0  0  0  0  0
  -27.2678  -33.3626   26.1995 H   0  0  0  0  0  0
  -28.3842  -32.6830   25.0269 H   0  0  0  0  0  0
  -28.0698  -31.8451   26.5372 H   0  0  0  0  0  0
  -28.2614  -38.0091   24.7555 H   0  0  0  0  0  0
  -28.1053  -36.2630   24.6295 H   0  0  0  0  0  0
  -27.2283  -37.1444   25.8878 H   0  0  0  0  0  0
  -20.9250  -29.8822   21.7021 H   0  0  0  0  0  0
  -26.0172  -38.2881   24.1449 H   0  0  0  0  0  0
  -31.1047  -19.4831   22.9166 H   0  0  0  0  0  0
  -28.4468  -16.5263   19.9414 H   0  0  0  0  0  0
  -29.2930  -21.0442   22.7933 H   0  0  0  0  0  0
  -27.9243  -20.8406   21.7500 H   0  0  0  0  0  0
  -28.3951  -24.0488   19.6281 H   0  0  0  0  0  0
  -30.0186  -24.6110   19.9520 H   0  0  0  0  0  0
  -28.3387  -23.1978   22.0685 H   0  0  0  0  0  0
  -30.0469  -23.5158   22.1599 H   0  0  0  0  0  0
  -29.0873  -25.9915   21.8865 H   0  0  0  0  0  0
  -27.4827  -25.4445   21.4795 H   0  0  0  0  0  0
  -29.4323  -14.7798   22.1004 H   0  0  0  0  0  0
  -29.0873  -21.8346   19.9888 H   0  0  0  0  0  0
  -30.5218  -21.8051   20.7663 H   0  0  0  0  0  0
  1 25  1  0  0  0
  1 30  2  0  0  0
  1 81  1  0  0  0
  2  3  1  0  0  0
  2 25  1  0  0  0
  2 85  1  0  0  0
  2 86  1  0  0  0
  3  4  1  0  0  0
  3 87  1  0  0  0
  3 88  1  0  0  0
  4  5  1  0  0  0
  4 89  1  0  0  0
  4 90  1  0  0  0
  5  6  1  0  0  0
  5 26  1  0  0  0
  5 91  1  0  0  0
  6 25  1  0  0  0
  6 92  1  0  0  0
  6 93  1  0  0  0
  7  8  2  0  0  0
  7 26  1  0  0  0
  7 29  1  0  0  0
  8  9  1  0  0  0
  8 22  1  0  0  0
  9 10  1  0  0  0
  9 27  2  0  0  0
 10 11  2  0  0  0
 10 15  1  0  0  0
 11 12  1  0  0  0
 11 94  1  0  0  0
 12 13  2  0  0  0
 12 95  1  0  0  0
 13 14  1  0  0  0
 13 31  1  0  0  0
 14 15  2  0  0  0
 14 96  1  0  0  0
 15 97  1  0  0  0
 16 17  2  0  0  0
 16 21  1  0  0  0
 16 31  1  0  0  0
 17 18  1  0  0  0
 17 98  1  0  0  0
 18 19  2  0  0  0
 18 99  1  0  0  0
 19 20  1  0  0  0
 19 24  1  0  0  0
 20 21  2  0  0  0
 20100  1  0  0  0
 21 23  1  0  0  0
 22 28  1  0  0  0
 22 32  2  0  0  0
 26 27  1  0  0  0
 28101  1  0  0  0
 28102  1  0  0  0
 29103  1  0  0  0
 29104  1  0  0  0
 33 34  1  0  0  0
 33 66  1  0  0  0
 33 70  2  0  0  0
 34 36  1  0  0  0
 34 59  1  0  0  0
 34105  1  0  0  0
 35 44  2  0  0  0
 35 45  1  0  0  0
 35 68  1  0  0  0
 36 56  1  0  0  0
 36106  1  0  0  0
 37 39  1  0  0  0
 37 47  1  0  0  0
 37 66  1  0  0  0
 37107  1  0  0  0
 38 43  2  0  0  0
 38 46  1  0  0  0
 38 47  1  0  0  0
 39 64  1  0  0  0
 39 67  2  0  0  0
 40 52  1  0  0  0
 40 53  2  0  0  0
 40 58  1  0  0  0
 41108  1  0  0  0
 41109  1  0  0  0
 41110  1  0  0  0
 41 48  1  0  0  0
 42 43  1  0  0  0
 42 66  1  0  0  0
 42111  1  0  0  0
 42112  1  0  0  0
 43 44  1  0  0  0
 44113  1  0  0  0
 45 46  2  0  0  0
 45114  1  0  0  0
 46115  1  0  0  0
 47116  1  0  0  0
 47117  1  0  0  0
 48 56  1  0  0  0
 48 65  1  0  0  0
 48118  1  0  0  0
 49 50  1  0  0  0
 49 53  1  0  0  0
 49 64  1  0  0  0
 49119  1  0  0  0
 50 51  1  0  0  0
 50120  1  0  0  0
 50121  1  0  0  0
 51 52  1  0  0  0
 51122  1  0  0  0
 51123  1  0  0  0
 52124  1  0  0  0
 52125  1  0  0  0
 53 54  1  0  0  0
 54 55  2  0  0  0
 54126  1  0  0  0
 55 57  1  0  0  0
 55127  1  0  0  0
 56 69  2  0  0  0
 57 58  2  0  0  0
 57128  1  0  0  0
 58129  1  0  0  0
 59 60  1  0  0  0
 59 61  1  0  0  0
 59 62  1  0  0  0
 60130  1  0  0  0
 60131  1  0  0  0
 60132  1  0  0  0
 61133  1  0  0  0
 61134  1  0  0  0
 61135  1  0  0  0
 62136  1  0  0  0
 62137  1  0  0  0
 62138  1  0  0  0
 63 65  1  0  0  0
 63139  1  0  0  0
 63140  1  0  0  0
 63141  1  0  0  0
 64142  1  0  0  0
 65143  1  0  0  0
 68 80  1  0  0  0
 71 73  2  0  0  0
 71 75  1  0  0  0
 71144  1  0  0  0
 72 74  1  0  0  0
 72 76  2  0  0  0
 72145  1  0  0  0
 73 76  1  0  0  0
 73 77  1  0  0  0
 74 75  2  0  0  0
 74 81  1  0  0  0
 75 83  1  0  0  0
 76 84  1  0  0  0
 77 82  1  0  0  0
 77146  1  0  0  0
 77147  1  0  0  0
 78 79  1  0  0  0
 78 80  1  0  0  0
 78148  1  0  0  0
 78149  1  0  0  0
 79 82  1  0  0  0
 79150  1  0  0  0
 79151  1  0  0  0
 80152  1  0  0  0
 80153  1  0  0  0
 81154  1  0  0  0
 82155  1  0  0  0
 82156  1  0  0  0
M  CHG  1  82   1
M  ISO  4   1 100  68 101  80 101  81 100
M  END
> <chiral flag>
0

> <version>
0

> <s_m_source_file>
/data/baiqing/PycharmProjects/Reinvent-master-3.2/result/LINK_invent/BTK/process_docking_weight1_custom_product_contain_oxygen_bond_distance_aromatic_linkinvent_7_9_3/rearranged_h_0038.sdf

> <i_m_source_file_index>
5

> <r_mmod_Potential_Energy-OPLS-2005>
-268.102478027344

> <r_mmod_Stretch_Energy-OPLS-2005>
33.4702491760254

> <r_mmod_Bend_Energy-OPLS-2005>
88.6516799926758

> <r_mmod_Torsional_Energy-OPLS-2005>
269.980621337891

> <r_mmod_Improper_Torsional_Energy-OPLS-2005>
5.75085401535034

> <r_mmod_Van_der_Waal_Energy-OPLS-2005>
143.211822509766

> <r_mmod_Electrostatic_Energy-OPLS-2005>
-322.545745849609

> <r_mmod_Solvation_Energy-OPLS-2005>
-494.585601806641

> <b_mmod_Minimization_Converged-OPLS-2005>
0

> <r_mmod_RMS_Derivative-OPLS-2005>
4.74846315383911

$$$$
5
                    3D
 Structure written by MMmdl.
169178  0  0  1  0            999 V2000
  -30.6035  -14.7660   20.4538 C   0  0  0  0  0  0
  -30.4382  -12.4686   19.4618 C   0  0  0  0  0  0
  -29.5134  -12.5052   18.2268 C   0  0  0  0  0  0
  -28.0398  -12.3294   18.6444 C   0  0  0  0  0  0
  -27.6437  -13.2303   19.8450 C   0  0  2  0  0  0
  -28.6931  -13.1755   20.9753 C   0  0  0  0  0  0
  -25.2572  -13.8190   20.5707 C   0  0  0  0  0  0
  -24.1850  -13.0444   20.9201 C   0  0  0  0  0  0
  -24.6423  -11.6921   20.8738 C   0  0  0  0  0  0
  -23.9082  -10.4310   21.0416 C   0  0  0  0  0  0
  -24.3628   -9.4231   21.9193 C   0  0  0  0  0  0
  -23.6316   -8.2259   22.0760 C   0  0  0  0  0  0
  -22.4298   -8.0292   21.3548 C   0  0  0  0  0  0
  -21.9936   -9.0262   20.4654 C   0  0  0  0  0  0
  -22.7254  -10.2151   20.3072 C   0  0  0  0  0  0
  -21.6870   -6.0734   22.5267 C   0  0  0  0  0  0
  -21.4017   -6.5641   23.8195 C   0  0  0  0  0  0
  -21.3662   -5.6796   24.9159 C   0  0  0  0  0  0
  -21.6049   -4.3058   24.7215 C   0  0  0  0  0  0
  -21.8830   -3.8152   23.4338 C   0  0  0  0  0  0
  -21.9205   -4.6968   22.3393 C   0  0  0  0  0  0
  -22.7881  -13.5244   21.1831 C   0  0  0  0  0  0
  -22.1689   -4.2153   21.0975 F   0  0  0  0  0  0
  -21.5626   -3.4542   25.7731 F   0  0  0  0  0  0
  -29.9839  -13.5375   20.3796 N   0  0  0  0  0  0
  -26.2971  -12.9387   20.3271 N   0  0  0  0  0  0
  -25.9351  -11.6527   20.5725 N   0  0  0  0  0  0
  -22.0510  -12.8234   22.0376 N   0  0  0  0  0  0
  -25.4290  -15.1905   20.4110 N   0  0  0  0  0  0
  -31.7950  -14.8590   20.1487 O   0  0  0  0  0  0
  -21.6669   -6.8881   21.4234 O   0  0  0  0  0  0
  -22.3578  -14.5545   20.6665 O   0  0  0  0  0  0
  -24.6314  -31.8533   23.1955 C   0  0  0  0  0  0
  -25.9139  -32.4740   23.8316 C   0  0  1  0  0  0
  -27.2289  -27.2482   20.1492 C   0  0  0  0  0  0
  -25.5923  -33.8543   24.2234 N   0  0  0  0  0  0
  -23.4290  -30.4698   21.5401 C   0  0  2  0  0  0
  -24.8759  -28.8978   20.1261 C   0  0  0  0  0  0
  -22.7489  -29.4589   22.4936 C   0  0  0  0  0  0
  -18.0284  -28.1377   22.8489 C   0  0  0  0  0  0
  -24.1482  -36.7284   23.2642 C   0  0  0  0  0  0
  -25.9728  -30.7603   21.3748 C   0  0  0  0  0  0
  -26.0462  -29.3757   20.7298 C   0  0  0  0  0  0
  -27.2265  -28.5656   20.7235 C   0  0  0  0  0  0
  -26.0338  -26.8234   19.5362 C   0  0  0  0  0  0
  -24.8742  -27.6291   19.5203 C   0  0  0  0  0  0
  -23.6478  -29.7887   20.1626 C   0  0  0  0  0  0
  -25.4115  -36.3067   24.0321 C   0  0  1  0  0  0
  -20.5884  -28.3693   23.1276 C   0  0  2  0  0  0
  -20.6770  -26.9411   22.5415 C   0  0  0  0  0  0
  -19.5746  -26.6378   21.5215 C   0  0  0  0  0  0
  -18.1922  -26.7924   22.1618 C   0  0  0  0  0  0
  -19.1537  -28.8855   23.2874 C   0  0  0  0  0  0
  -18.9460  -30.1461   23.8884 C   0  0  0  0  0  0
  -17.6457  -30.6583   24.0559 C   0  0  0  0  0  0
  -25.9060  -34.9435   23.5088 C   0  0  0  0  0  0
  -16.5349  -29.9076   23.6333 C   0  0  0  0  0  0
  -16.7272  -28.6491   23.0360 C   0  0  0  0  0  0
  -26.4489  -31.6574   25.0719 C   0  0  0  0  0  0
  -25.3718  -31.3742   26.1448 C   0  0  0  0  0  0
  -27.0341  -30.2984   24.6233 C   0  0  0  0  0  0
  -27.6019  -32.4338   25.7513 C   0  0  0  0  0  0
  -27.5573  -37.1801   24.8459 C   0  0  0  0  0  0
  -21.4196  -29.3035   22.3668 N   0  0  0  0  0  0
  -26.4284  -37.3774   23.9403 N   0  0  0  0  0  0
  -24.6971  -31.0474   22.0935 N   0  0  0  0  0  0
  -23.4182  -28.8145   23.3055 O   0  0  0  0  0  0
  -28.3712  -26.4264   20.0591 O   0  0  0  0  0  0
  -26.5644  -34.8917   22.4663 O   0  0  0  0  0  0
  -23.5463  -32.1361   23.7246 O   0  0  0  0  0  0
  -29.3489  -18.4694   20.5096 C   0  0  0  0  0  0
  -29.4520  -19.8425   21.0075 C   0  0  0  0  0  0
  -30.3328  -20.0137   22.1123 C   0  0  0  0  0  0
  -31.0183  -17.6169   22.0789 C   0  0  0  0  0  0
  -30.0959  -17.3208   21.0304 C   0  0  0  0  0  0
  -31.1423  -18.9444   22.5774 C   0  0  0  0  0  0
  -30.0212  -24.9396   20.9535 C   0  0  0  0  0  0
  -30.7363  -24.1984   19.8132 C   0  0  0  0  0  0
  -28.0230  -23.6728   19.9884 C   0  0  0  0  0  0
  -28.5110  -25.0603   20.6829 C   0  0  2  0  0  0
  -30.4078  -22.6862   19.8102 C   0  0  2  0  0  0
  -30.3787  -21.3178   22.9146 C   0  0  0  0  0  0
  -31.8382  -16.5170   22.7603 C   0  0  0  0  0  0
  -30.9634  -22.0199   18.5426 C   0  0  0  0  0  0
  -28.4884  -21.0629   20.5627 C   0  0  0  0  0  0
  -29.8097  -15.9010   20.6371 N   0  0  0  0  0  0
  -28.9446  -22.4141   19.9368 N   0  3  1  0  0  0
  -32.2728  -19.2801   23.8538 Cl  0  0  0  0  0  0
  -31.4793  -12.5960   19.1600 H   0  0  0  0  0  0
  -30.3875  -11.4962   19.9541 H   0  0  0  0  0  0
  -29.7959  -11.7272   17.5163 H   0  0  0  0  0  0
  -29.6399  -13.4552   17.7055 H   0  0  0  0  0  0
  -27.8962  -11.2800   18.9036 H   0  0  0  0  0  0
  -27.3836  -12.5250   17.7965 H   0  0  0  0  0  0
  -27.6306  -14.2485   19.4552 H   0  0  0  0  0  0
  -28.7435  -12.1809   21.4214 H   0  0  0  0  0  0
  -28.4304  -13.8613   21.7817 H   0  0  0  0  0  0
  -25.2775   -9.5711   22.4757 H   0  0  0  0  0  0
  -24.0033   -7.4658   22.7477 H   0  0  0  0  0  0
  -21.0868   -8.8778   19.8951 H   0  0  0  0  0  0
  -22.3716  -10.9683   19.6185 H   0  0  0  0  0  0
  -21.2012   -7.6155   23.9689 H   0  0  0  0  0  0
  -21.1472   -6.0533   25.9052 H   0  0  0  0  0  0
  -22.0608   -2.7614   23.2834 H   0  0  0  0  0  0
  -22.4139  -11.9928   22.4803 H   0  0  0  0  0  0
  -21.1105  -13.1240   22.2495 H   0  0  0  0  0  0
  -24.6647  -15.8460   20.5278 H   0  0  0  0  0  0
  -26.2698  -15.6258   20.0535 H   0  0  0  0  0  0
  -26.7200  -32.5381   23.1055 H   0  0  0  0  0  0
  -25.0040  -33.9678   25.0360 H   0  0  0  0  0  0
  -22.7269  -31.2919   21.3859 H   0  0  0  0  0  0
  -23.3750  -35.9610   23.3296 H   0  0  0  0  0  0
  -24.3568  -36.8929   22.2057 H   0  0  0  0  0  0
  -23.7225  -37.6474   23.6683 H   0  0  0  0  0  0
  -26.1070  -31.5127   20.5965 H   0  0  0  0  0  0
  -26.8521  -30.8185   22.0059 H   0  0  0  0  0  0
  -28.1326  -28.9393   21.1796 H   0  0  0  0  0  0
  -25.9983  -25.8555   19.0570 H   0  0  0  0  0  0
  -23.9770  -27.2564   19.0447 H   0  0  0  0  0  0
  -23.7713  -30.5551   19.3967 H   0  0  0  0  0  0
  -22.7668  -29.2167   19.8649 H   0  0  0  0  0  0
  -25.1297  -36.1911   25.0812 H   0  0  0  0  0  0
  -20.9973  -28.3268   24.1400 H   0  0  0  0  0  0
  -20.5662  -26.2303   23.3626 H   0  0  0  0  0  0
  -21.6642  -26.7421   22.1222 H   0  0  0  0  0  0
  -19.6916  -25.6288   21.1251 H   0  0  0  0  0  0
  -19.6693  -27.3186   20.6743 H   0  0  0  0  0  0
  -17.4207  -26.6692   21.4004 H   0  0  0  0  0  0
  -18.0303  -26.0051   22.8992 H   0  0  0  0  0  0
  -19.7933  -30.7280   24.2244 H   0  0  0  0  0  0
  -17.5007  -31.6266   24.5155 H   0  0  0  0  0  0
  -15.5351  -30.2973   23.7660 H   0  0  0  0  0  0
  -15.8670  -28.0806   22.7085 H   0  0  0  0  0  0
  -24.5868  -30.7118   25.7780 H   0  0  0  0  0  0
  -24.8947  -32.2925   26.4882 H   0  0  0  0  0  0
  -25.8040  -30.8906   27.0221 H   0  0  0  0  0  0
  -26.2940  -29.6739   24.1219 H   0  0  0  0  0  0
  -27.3946  -29.7241   25.4775 H   0  0  0  0  0  0
  -27.8842  -30.4228   23.9529 H   0  0  0  0  0  0
  -27.2577  -33.3608   26.2114 H   0  0  0  0  0  0
  -28.3828  -32.6962   25.0365 H   0  0  0  0  0  0
  -28.0700  -31.8471   26.5431 H   0  0  0  0  0  0
  -28.2592  -38.0097   24.7506 H   0  0  0  0  0  0
  -28.1072  -36.2629   24.6286 H   0  0  0  0  0  0
  -27.2298  -37.1453   25.8866 H   0  0  0  0  0  0
  -20.9397  -29.8737   21.6848 H   0  0  0  0  0  0
  -26.0161  -38.2846   24.1416 H   0  0  0  0  0  0
  -28.6213  -18.2781   19.7324 H   0  0  0  0  0  0
  -30.4609  -25.9275   21.0965 H   0  0  0  0  0  0
  -30.1867  -24.4072   21.8907 H   0  0  0  0  0  0
  -31.8148  -24.3280   19.9131 H   0  0  0  0  0  0
  -30.4635  -24.6521   18.8579 H   0  0  0  0  0  0
  -27.8201  -23.9160   18.9449 H   0  0  0  0  0  0
  -27.0518  -23.3941   20.3968 H   0  0  0  0  0  0
  -28.0202  -25.1287   21.6561 H   0  0  0  0  0  0
  -30.9416  -22.2539   20.6478 H   0  0  0  0  0  0
  -31.3692  -21.7704   22.8587 H   0  0  0  0  0  0
  -30.1737  -21.1138   23.9669 H   0  0  0  0  0  0
  -29.6542  -22.0685   22.6112 H   0  0  0  0  0  0
  -31.2912  -15.5825   22.8395 H   0  0  0  0  0  0
  -32.0974  -16.7459   23.7917 H   0  0  0  0  0  0
  -32.7655  -16.3384   22.2157 H   0  0  0  0  0  0
  -30.4961  -22.4130   17.6379 H   0  0  0  0  0  0
  -30.8133  -20.9399   18.5584 H   0  0  0  0  0  0
  -32.0362  -22.1910   18.4549 H   0  0  0  0  0  0
  -27.8919  -21.3066   21.4421 H   0  0  0  0  0  0
  -27.7590  -20.6500   19.8652 H   0  0  0  0  0  0
  -28.8260  -15.6937   20.5605 H   0  0  0  0  0  0
  -28.7719  -22.1560   18.9765 H   0  0  0  0  0  0
  1 25  1  0  0  0
  1 30  2  0  0  0
  1 86  1  0  0  0
  2  3  1  0  0  0
  2 25  1  0  0  0
  2 89  1  0  0  0
  2 90  1  0  0  0
  3  4  1  0  0  0
  3 91  1  0  0  0
  3 92  1  0  0  0
  4  5  1  0  0  0
  4 93  1  0  0  0
  4 94  1  0  0  0
  5  6  1  0  0  0
  5 26  1  0  0  0
  5 95  1  0  0  0
  6 25  1  0  0  0
  6 96  1  0  0  0
  6 97  1  0  0  0
  7  8  2  0  0  0
  7 26  1  0  0  0
  7 29  1  0  0  0
  8  9  1  0  0  0
  8 22  1  0  0  0
  9 10  1  0  0  0
  9 27  2  0  0  0
 10 11  2  0  0  0
 10 15  1  0  0  0
 11 12  1  0  0  0
 11 98  1  0  0  0
 12 13  2  0  0  0
 12 99  1  0  0  0
 13 14  1  0  0  0
 13 31  1  0  0  0
 14 15  2  0  0  0
 14100  1  0  0  0
 15101  1  0  0  0
 16 17  2  0  0  0
 16 21  1  0  0  0
 16 31  1  0  0  0
 17 18  1  0  0  0
 17102  1  0  0  0
 18 19  2  0  0  0
 18103  1  0  0  0
 19 20  1  0  0  0
 19 24  1  0  0  0
 20 21  2  0  0  0
 20104  1  0  0  0
 21 23  1  0  0  0
 22 28  1  0  0  0
 22 32  2  0  0  0
 26 27  1  0  0  0
 28105  1  0  0  0
 28106  1  0  0  0
 29107  1  0  0  0
 29108  1  0  0  0
 33 34  1  0  0  0
 33 66  1  0  0  0
 33 70  2  0  0  0
 34 36  1  0  0  0
 34 59  1  0  0  0
 34109  1  0  0  0
 35 44  2  0  0  0
 35 45  1  0  0  0
 35 68  1  0  0  0
 36 56  1  0  0  0
 36110  1  0  0  0
 37 39  1  0  0  0
 37 47  1  0  0  0
 37 66  1  0  0  0
 37111  1  0  0  0
 38 43  2  0  0  0
 38 46  1  0  0  0
 38 47  1  0  0  0
 39 64  1  0  0  0
 39 67  2  0  0  0
 40 52  1  0  0  0
 40 53  2  0  0  0
 40 58  1  0  0  0
 41112  1  0  0  0
 41113  1  0  0  0
 41114  1  0  0  0
 41 48  1  0  0  0
 42 43  1  0  0  0
 42 66  1  0  0  0
 42115  1  0  0  0
 42116  1  0  0  0
 43 44  1  0  0  0
 44117  1  0  0  0
 45 46  2  0  0  0
 45118  1  0  0  0
 46119  1  0  0  0
 47120  1  0  0  0
 47121  1  0  0  0
 48 56  1  0  0  0
 48 65  1  0  0  0
 48122  1  0  0  0
 49 50  1  0  0  0
 49 53  1  0  0  0
 49 64  1  0  0  0
 49123  1  0  0  0
 50 51  1  0  0  0
 50124  1  0  0  0
 50125  1  0  0  0
 51 52  1  0  0  0
 51126  1  0  0  0
 51127  1  0  0  0
 52128  1  0  0  0
 52129  1  0  0  0
 53 54  1  0  0  0
 54 55  2  0  0  0
 54130  1  0  0  0
 55 57  1  0  0  0
 55131  1  0  0  0
 56 69  2  0  0  0
 57 58  2  0  0  0
 57132  1  0  0  0
 58133  1  0  0  0
 59 60  1  0  0  0
 59 61  1  0  0  0
 59 62  1  0  0  0
 60134  1  0  0  0
 60135  1  0  0  0
 60136  1  0  0  0
 61137  1  0  0  0
 61138  1  0  0  0
 61139  1  0  0  0
 62140  1  0  0  0
 62141  1  0  0  0
 62142  1  0  0  0
 63 65  1  0  0  0
 63143  1  0  0  0
 63144  1  0  0  0
 63145  1  0  0  0
 64146  1  0  0  0
 65147  1  0  0  0
 68 80  1  0  0  0
 71 72  2  0  0  0
 71 75  1  0  0  0
 71148  1  0  0  0
 72 73  1  0  0  0
 72 85  1  0  0  0
 73 76  2  0  0  0
 73 82  1  0  0  0
 74 75  2  0  0  0
 74 76  1  0  0  0
 74 83  1  0  0  0
 75 86  1  0  0  0
 76 88  1  0  0  0
 77 78  1  0  0  0
 77 80  1  0  0  0
 77149  1  0  0  0
 77150  1  0  0  0
 78 81  1  0  0  0
 78151  1  0  0  0
 78152  1  0  0  0
 79 80  1  0  0  0
 79 87  1  0  0  0
 79153  1  0  0  0
 79154  1  0  0  0
 80155  1  0  0  0
 81 84  1  0  0  0
 81 87  1  0  0  0
 81156  1  0  0  0
 82157  1  0  0  0
 82158  1  0  0  0
 82159  1  0  0  0
 83160  1  0  0  0
 83161  1  0  0  0
 83162  1  0  0  0
 84163  1  0  0  0
 84164  1  0  0  0
 84165  1  0  0  0
 85166  1  0  0  0
 85167  1  0  0  0
 85 87  1  0  0  0
 86168  1  0  0  0
 87169  1  0  0  0
M  CHG  1  87   1
M  ISO  4   1 100  68 101  80 101  86 100
M  END
> <chiral flag>
0

> <version>
0

> <s_m_source_file>
/data/baiqing/PycharmProjects/Reinvent-master-3.2/result/LINK_invent/BTK/process_docking_weight1_custom_product_contain_oxygen_bond_distance_aromatic_linkinvent_7_9_3/rearranged_h_0038.sdf

> <i_m_source_file_index>
6

> <r_mmod_Potential_Energy-OPLS-2005>
252.903442382812

> <r_mmod_Stretch_Energy-OPLS-2005>
150.743270874023

> <r_mmod_Bend_Energy-OPLS-2005>
231.853622436523

> <r_mmod_Torsional_Energy-OPLS-2005>
316.414337158203

> <r_mmod_Improper_Torsional_Energy-OPLS-2005>
7.96434640884399

> <r_mmod_Van_der_Waal_Energy-OPLS-2005>
153.281005859375

> <r_mmod_Electrostatic_Energy-OPLS-2005>
-265.393218994141

> <r_mmod_Solvation_Energy-OPLS-2005>
-428.188323974609

> <b_mmod_Minimization_Converged-OPLS-2005>
0

> <r_mmod_RMS_Derivative-OPLS-2005>
2.2052059173584

$$$$
6
                    3D
 Structure written by MMmdl.
166175  0  0  1  0            999 V2000
  -30.6378  -14.6440   20.5055 C   0  0  0  0  0  0
  -30.4416  -12.3958   19.4566 C   0  0  0  0  0  0
  -29.5126  -12.5055   18.2269 C   0  0  0  0  0  0
  -28.0367  -12.3431   18.6381 C   0  0  0  0  0  0
  -27.6560  -13.2190   19.8623 C   0  0  2  0  0  0
  -28.7009  -13.0810   20.9925 C   0  0  0  0  0  0
  -25.2598  -13.8205   20.5696 C   0  0  0  0  0  0
  -24.1857  -13.0478   20.9225 C   0  0  0  0  0  0
  -24.6405  -11.6942   20.8756 C   0  0  0  0  0  0
  -23.9069  -10.4324   21.0402 C   0  0  0  0  0  0
  -24.3613   -9.4242   21.9190 C   0  0  0  0  0  0
  -23.6289   -8.2279   22.0735 C   0  0  0  0  0  0
  -22.4275   -8.0318   21.3528 C   0  0  0  0  0  0
  -21.9907   -9.0295   20.4628 C   0  0  0  0  0  0
  -22.7236  -10.2181   20.3053 C   0  0  0  0  0  0
  -21.6858   -6.0744   22.5280 C   0  0  0  0  0  0
  -21.4048   -6.5642   23.8226 C   0  0  0  0  0  0
  -21.3643   -5.6781   24.9172 C   0  0  0  0  0  0
  -21.6021   -4.3045   24.7216 C   0  0  0  0  0  0
  -21.8817   -3.8145   23.4344 C   0  0  0  0  0  0
  -21.9196   -4.6965   22.3398 C   0  0  0  0  0  0
  -22.7884  -13.5282   21.1864 C   0  0  0  0  0  0
  -22.1652   -4.2159   21.0970 F   0  0  0  0  0  0
  -21.5595   -3.4526   25.7725 F   0  0  0  0  0  0
  -30.0208  -13.4210   20.4320 N   0  0  0  0  0  0
  -26.3008  -12.9373   20.3303 N   0  0  0  0  0  0
  -25.9331  -11.6543   20.5747 N   0  0  0  0  0  0
  -22.0465  -12.8301   22.0384 N   0  0  0  0  0  0
  -25.4373  -15.1917   20.4075 N   0  0  0  0  0  0
  -31.7950  -14.8044   20.1037 O   0  0  0  0  0  0
  -21.6639   -6.8911   21.4249 O   0  0  0  0  0  0
  -22.3610  -14.5581   20.6679 O   0  0  0  0  0  0
  -24.6246  -31.8609   23.2032 C   0  0  0  0  0  0
  -25.9089  -32.4773   23.8361 C   0  0  1  0  0  0
  -27.2392  -27.3344   20.1107 C   0  0  0  0  0  0
  -25.5915  -33.8574   24.2275 N   0  0  0  0  0  0
  -23.4176  -30.4842   21.5478 C   0  0  2  0  0  0
  -24.8635  -28.9410   20.1190 C   0  0  0  0  0  0
  -22.7461  -29.4623   22.4954 C   0  0  0  0  0  0
  -18.0289  -28.1368   22.8478 C   0  0  0  0  0  0
  -24.1484  -36.7288   23.2627 C   0  0  0  0  0  0
  -25.9583  -30.7984   21.3712 C   0  0  0  0  0  0
  -26.0352  -29.4273   20.7129 C   0  0  0  0  0  0
  -27.2241  -28.6381   20.6950 C   0  0  0  0  0  0
  -26.0265  -26.8890   19.5258 C   0  0  0  0  0  0
  -24.8597  -27.6735   19.5242 C   0  0  0  0  0  0
  -23.6311  -29.8196   20.1643 C   0  0  0  0  0  0
  -25.4099  -36.3056   24.0322 C   0  0  1  0  0  0
  -20.5883  -28.3670   23.1274 C   0  0  2  0  0  0
  -20.6768  -26.9396   22.5392 C   0  0  0  0  0  0
  -19.5741  -26.6367   21.5194 C   0  0  0  0  0  0
  -18.1929  -26.7915   22.1618 C   0  0  0  0  0  0
  -19.1537  -28.8841   23.2871 C   0  0  0  0  0  0
  -18.9468  -30.1440   23.8889 C   0  0  0  0  0  0
  -17.6466  -30.6575   24.0557 C   0  0  0  0  0  0
  -25.9051  -34.9437   23.5104 C   0  0  0  0  0  0
  -16.5360  -29.9077   23.6320 C   0  0  0  0  0  0
  -16.7276  -28.6492   23.0358 C   0  0  0  0  0  0
  -26.4487  -31.6579   25.0721 C   0  0  0  0  0  0
  -25.3739  -31.3751   26.1472 C   0  0  0  0  0  0
  -27.0311  -30.2998   24.6156 C   0  0  0  0  0  0
  -27.6053  -32.4319   25.7469 C   0  0  0  0  0  0
  -27.5580  -37.1762   24.8434 C   0  0  0  0  0  0
  -21.4179  -29.3035   22.3681 N   0  0  0  0  0  0
  -26.4258  -37.3761   23.9427 N   0  0  0  0  0  0
  -24.6856  -31.0633   22.0990 N   0  0  0  0  0  0
  -23.4181  -28.8156   23.3030 O   0  0  0  0  0  0
  -28.3910  -26.5218   20.1356 O   0  0  0  0  0  0
  -26.5633  -34.8911   22.4672 O   0  0  0  0  0  0
  -23.5408  -32.1398   23.7382 O   0  0  0  0  0  0
  -30.8995  -19.2863   20.0052 C   0  0  0  0  0  0
  -30.8757  -17.8602   20.0419 C   0  0  0  0  0  0
  -30.0287  -20.0954   20.7892 C   0  0  0  0  0  0
  -29.1085  -19.3890   21.6181 C   0  0  0  0  0  0
  -29.0397  -17.9486   21.6095 C   0  0  0  0  0  0
  -29.9504  -17.1483   20.8507 C   0  0  0  0  0  0
  -27.7839  -23.2567   18.2633 C   0  0  0  0  0  0
  -28.2195  -24.7209   18.4274 C   0  0  0  0  0  0
  -28.8019  -22.2831   18.8888 C   0  0  0  0  0  0
  -29.3709  -24.0937   20.5398 C   0  0  0  0  0  0
  -28.2664  -25.0591   19.9288 C   0  0  1  0  0  0
  -28.2047  -20.1754   22.5639 C   0  0  0  0  0  0
  -27.9771  -17.2490   22.4580 C   0  0  0  0  0  0
  -30.2160  -21.6694   20.8261 C   0  0  0  0  0  0
  -29.8491  -15.6846   20.9174 N   0  0  0  0  0  0
  -29.1298  -22.5968   20.3066 N   0  3  2  0  0  0
  -31.4843  -12.5157   19.1556 H   0  0  0  0  0  0
  -30.3711  -11.4037   19.9061 H   0  0  0  0  0  0
  -29.7764  -11.7509   17.4840 H   0  0  0  0  0  0
  -29.6544  -13.4759   17.7453 H   0  0  0  0  0  0
  -27.8764  -11.2896   18.8760 H   0  0  0  0  0  0
  -27.3851  -12.5675   17.7936 H   0  0  0  0  0  0
  -27.6713  -14.2529   19.5173 H   0  0  0  0  0  0
  -28.7085  -12.0607   21.3789 H   0  0  0  0  0  0
  -28.4406  -13.7166   21.8411 H   0  0  0  0  0  0
  -25.2755   -9.5711   22.4789 H   0  0  0  0  0  0
  -23.9976   -7.4655   22.7444 H   0  0  0  0  0  0
  -21.0835   -8.8842   19.8928 H   0  0  0  0  0  0
  -22.3701  -10.9740   19.6177 H   0  0  0  0  0  0
  -21.2090   -7.6155   23.9753 H   0  0  0  0  0  0
  -21.1437   -6.0495   25.9076 H   0  0  0  0  0  0
  -22.0606   -2.7604   23.2849 H   0  0  0  0  0  0
  -22.4048  -11.9978   22.4827 H   0  0  0  0  0  0
  -21.1082  -13.1383   22.2524 H   0  0  0  0  0  0
  -24.6694  -15.8487   20.4975 H   0  0  0  0  0  0
  -26.2638  -15.6066   19.9986 H   0  0  0  0  0  0
  -26.7157  -32.5453   23.1110 H   0  0  0  0  0  0
  -25.0033  -33.9729   25.0402 H   0  0  0  0  0  0
  -22.7097  -31.3033   21.4057 H   0  0  0  0  0  0
  -23.3716  -35.9649   23.3285 H   0  0  0  0  0  0
  -24.3573  -36.8915   22.2040 H   0  0  0  0  0  0
  -23.7283  -37.6507   23.6664 H   0  0  0  0  0  0
  -26.0877  -31.5658   20.6057 H   0  0  0  0  0  0
  -26.8379  -30.8441   22.0021 H   0  0  0  0  0  0
  -28.1245  -29.0133   21.1638 H   0  0  0  0  0  0
  -25.9259  -25.9165   19.0749 H   0  0  0  0  0  0
  -23.9564  -27.2840   19.0744 H   0  0  0  0  0  0
  -23.7501  -30.5962   19.4085 H   0  0  0  0  0  0
  -22.7508  -29.2514   19.8593 H   0  0  0  0  0  0
  -25.1270  -36.1886   25.0809 H   0  0  0  0  0  0
  -20.9969  -28.3248   24.1396 H   0  0  0  0  0  0
  -20.5633  -26.2292   23.3595 H   0  0  0  0  0  0
  -21.6650  -26.7410   22.1211 H   0  0  0  0  0  0
  -19.6905  -25.6278   21.1226 H   0  0  0  0  0  0
  -19.6675  -27.3171   20.6718 H   0  0  0  0  0  0
  -17.4188  -26.6642   21.4034 H   0  0  0  0  0  0
  -18.0345  -26.0054   22.9011 H   0  0  0  0  0  0
  -19.7947  -30.7254   24.2254 H   0  0  0  0  0  0
  -17.5032  -31.6256   24.5156 H   0  0  0  0  0  0
  -15.5363  -30.2991   23.7640 H   0  0  0  0  0  0
  -15.8676  -28.0806   22.7099 H   0  0  0  0  0  0
  -24.5889  -30.7106   25.7846 H   0  0  0  0  0  0
  -24.8971  -32.2945   26.4896 H   0  0  0  0  0  0
  -25.8075  -30.8940   27.0246 H   0  0  0  0  0  0
  -26.2866  -29.6752   24.1203 H   0  0  0  0  0  0
  -27.4044  -29.7252   25.4642 H   0  0  0  0  0  0
  -27.8728  -30.4290   23.9346 H   0  0  0  0  0  0
  -27.2671  -33.3641   26.2011 H   0  0  0  0  0  0
  -28.3870  -32.6834   25.0288 H   0  0  0  0  0  0
  -28.0698  -31.8467   26.5413 H   0  0  0  0  0  0
  -28.2524  -38.0128   24.7566 H   0  0  0  0  0  0
  -28.1146  -36.2668   24.6124 H   0  0  0  0  0  0
  -27.2318  -37.1242   25.8835 H   0  0  0  0  0  0
  -20.9348  -29.8790   21.6926 H   0  0  0  0  0  0
  -26.0123  -38.2806   24.1508 H   0  0  0  0  0  0
  -31.6440  -19.7616   19.3804 H   0  0  0  0  0  0
  -31.5826  -17.3215   19.4259 H   0  0  0  0  0  0
  -27.6697  -23.0242   17.2050 H   0  0  0  0  0  0
  -26.7998  -23.1104   18.7126 H   0  0  0  0  0  0
  -27.5545  -25.3736   17.8684 H   0  0  0  0  0  0
  -29.2040  -24.8693   17.9815 H   0  0  0  0  0  0
  -29.7171  -22.2888   18.2950 H   0  0  0  0  0  0
  -28.4040  -21.2676   18.8378 H   0  0  0  0  0  0
  -29.4505  -24.2762   21.6124 H   0  0  0  0  0  0
  -30.3406  -24.3613   20.1178 H   0  0  0  0  0  0
  -27.3316  -24.7608   20.4055 H   0  0  0  0  0  0
  -28.6040  -21.1541   22.8228 H   0  0  0  0  0  0
  -28.0808  -19.6576   23.5158 H   0  0  0  0  0  0
  -27.2207  -20.3185   22.1180 H   0  0  0  0  0  0
  -27.0541  -17.8265   22.5132 H   0  0  0  0  0  0
  -28.3498  -17.0926   23.4711 H   0  0  0  0  0  0
  -27.6799  -16.2840   22.0507 H   0  0  0  0  0  0
  -31.1226  -21.9041   20.2655 H   0  0  0  0  0  0
  -30.4567  -21.9525   21.8516 H   0  0  0  0  0  0
  -28.9765  -15.3591   21.2995 H   0  0  0  0  0  0
  -28.3020  -22.3781   20.8397 H   0  0  0  0  0  0
  1 25  1  0  0  0
  1 30  2  0  0  0
  1 85  1  0  0  0
  2  3  1  0  0  0
  2 25  1  0  0  0
  2 87  1  0  0  0
  2 88  1  0  0  0
  3  4  1  0  0  0
  3 89  1  0  0  0
  3 90  1  0  0  0
  4  5  1  0  0  0
  4 91  1  0  0  0
  4 92  1  0  0  0
  5  6  1  0  0  0
  5 26  1  0  0  0
  5 93  1  0  0  0
  6 25  1  0  0  0
  6 94  1  0  0  0
  6 95  1  0  0  0
  7  8  2  0  0  0
  7 26  1  0  0  0
  7 29  1  0  0  0
  8  9  1  0  0  0
  8 22  1  0  0  0
  9 10  1  0  0  0
  9 27  2  0  0  0
 10 11  2  0  0  0
 10 15  1  0  0  0
 11 12  1  0  0  0
 11 96  1  0  0  0
 12 13  2  0  0  0
 12 97  1  0  0  0
 13 14  1  0  0  0
 13 31  1  0  0  0
 14 15  2  0  0  0
 14 98  1  0  0  0
 15 99  1  0  0  0
 16 17  2  0  0  0
 16 21  1  0  0  0
 16 31  1  0  0  0
 17 18  1  0  0  0
 17100  1  0  0  0
 18 19  2  0  0  0
 18101  1  0  0  0
 19 20  1  0  0  0
 19 24  1  0  0  0
 20 21  2  0  0  0
 20102  1  0  0  0
 21 23  1  0  0  0
 22 28  1  0  0  0
 22 32  2  0  0  0
 26 27  1  0  0  0
 28103  1  0  0  0
 28104  1  0  0  0
 29105  1  0  0  0
 29106  1  0  0  0
 33 34  1  0  0  0
 33 66  1  0  0  0
 33 70  2  0  0  0
 34 36  1  0  0  0
 34 59  1  0  0  0
 34107  1  0  0  0
 35 44  2  0  0  0
 35 45  1  0  0  0
 35 68  1  0  0  0
 36 56  1  0  0  0
 36108  1  0  0  0
 37 39  1  0  0  0
 37 47  1  0  0  0
 37 66  1  0  0  0
 37109  1  0  0  0
 38 43  2  0  0  0
 38 46  1  0  0  0
 38 47  1  0  0  0
 39 64  1  0  0  0
 39 67  2  0  0  0
 40 52  1  0  0  0
 40 53  2  0  0  0
 40 58  1  0  0  0
 41110  1  0  0  0
 41111  1  0  0  0
 41112  1  0  0  0
 41 48  1  0  0  0
 42 43  1  0  0  0
 42 66  1  0  0  0
 42113  1  0  0  0
 42114  1  0  0  0
 43 44  1  0  0  0
 44115  1  0  0  0
 45 46  2  0  0  0
 45116  1  0  0  0
 46117  1  0  0  0
 47118  1  0  0  0
 47119  1  0  0  0
 48 56  1  0  0  0
 48 65  1  0  0  0
 48120  1  0  0  0
 49 50  1  0  0  0
 49 53  1  0  0  0
 49 64  1  0  0  0
 49121  1  0  0  0
 50 51  1  0  0  0
 50122  1  0  0  0
 50123  1  0  0  0
 51 52  1  0  0  0
 51124  1  0  0  0
 51125  1  0  0  0
 52126  1  0  0  0
 52127  1  0  0  0
 53 54  1  0  0  0
 54 55  2  0  0  0
 54128  1  0  0  0
 55 57  1  0  0  0
 55129  1  0  0  0
 56 69  2  0  0  0
 57 58  2  0  0  0
 57130  1  0  0  0
 58131  1  0  0  0
 59 60  1  0  0  0
 59 61  1  0  0  0
 59 62  1  0  0  0
 60132  1  0  0  0
 60133  1  0  0  0
 60134  1  0  0  0
 61135  1  0  0  0
 61136  1  0  0  0
 61137  1  0  0  0
 62138  1  0  0  0
 62139  1  0  0  0
 62140  1  0  0  0
 63 65  1  0  0  0
 63141  1  0  0  0
 63142  1  0  0  0
 63143  1  0  0  0
 64144  1  0  0  0
 65145  1  0  0  0
 68 81  1  0  0  0
 71 72  2  0  0  0
 71 73  1  0  0  0
 71146  1  0  0  0
 72 76  1  0  0  0
 72147  1  0  0  0
 73 74  2  0  0  0
 73 84  1  0  0  0
 74 75  1  0  0  0
 74 82  1  0  0  0
 75 76  2  0  0  0
 75 83  1  0  0  0
 76 85  1  0  0  0
 77 78  1  0  0  0
 77 79  1  0  0  0
 77148  1  0  0  0
 77149  1  0  0  0
 78 81  1  0  0  0
 78150  1  0  0  0
 78151  1  0  0  0
 79 86  1  0  0  0
 79152  1  0  0  0
 79153  1  0  0  0
 80 81  1  0  0  0
 80 86  1  0  0  0
 80154  1  0  0  0
 80155  1  0  0  0
 81156  1  0  0  0
 82157  1  0  0  0
 82158  1  0  0  0
 82159  1  0  0  0
 83160  1  0  0  0
 83161  1  0  0  0
 83162  1  0  0  0
 84163  1  0  0  0
 84164  1  0  0  0
 84 86  1  0  0  0
 85165  1  0  0  0
 86166  1  0  0  0
M  CHG  1  86   1
M  ISO  4   1 100  68 101  81 101  85 100
M  END
> <chiral flag>
0

> <version>
0

> <s_m_source_file>
/data/baiqing/PycharmProjects/Reinvent-master-3.2/result/LINK_invent/BTK/process_docking_weight1_custom_product_contain_oxygen_bond_distance_aromatic_linkinvent_7_9_3/rearranged_h_0038.sdf

> <i_m_source_file_index>
7

> <r_mmod_Potential_Energy-OPLS-2005>
-27.9737911224365

> <r_mmod_Stretch_Energy-OPLS-2005>
87.2339477539062

> <r_mmod_Bend_Energy-OPLS-2005>
148.20637512207

> <r_mmod_Torsional_Energy-OPLS-2005>
230.200042724609

> <r_mmod_Improper_Torsional_Energy-OPLS-2005>
4.16231679916382

> <r_mmod_Van_der_Waal_Energy-OPLS-2005>
156.45051574707

> <r_mmod_Electrostatic_Energy-OPLS-2005>
-274.951416015625

> <r_mmod_Solvation_Energy-OPLS-2005>
-423.326446533203

> <b_mmod_Minimization_Converged-OPLS-2005>
0

> <r_mmod_RMS_Derivative-OPLS-2005>
3.494389295578

$$$$
7
                    3D
 Structure written by MMmdl.
178187  0  0  1  0            999 V2000
  -30.6420  -14.5973   20.4430 C   0  0  0  0  0  0
  -30.4447  -12.3186   19.4882 C   0  0  0  0  0  0
  -29.5238  -12.3249   18.2464 C   0  0  0  0  0  0
  -28.0252  -12.3227   18.6312 C   0  0  0  0  0  0
  -27.6536  -13.2041   19.8587 C   0  0  2  0  0  0
  -28.6976  -13.0763   20.9894 C   0  0  0  0  0  0
  -25.2569  -13.8142   20.5644 C   0  0  0  0  0  0
  -24.1834  -13.0437   20.9196 C   0  0  0  0  0  0
  -24.6373  -11.6903   20.8767 C   0  0  0  0  0  0
  -23.9040  -10.4287   21.0423 C   0  0  0  0  0  0
  -24.3604   -9.4200   21.9183 C   0  0  0  0  0  0
  -23.6291   -8.2229   22.0723 C   0  0  0  0  0  0
  -22.4267   -8.0272   21.3520 C   0  0  0  0  0  0
  -21.9913   -9.0244   20.4624 C   0  0  0  0  0  0
  -22.7228  -10.2123   20.3045 C   0  0  0  0  0  0
  -21.6847   -6.0734   22.5264 C   0  0  0  0  0  0
  -21.4020   -6.5641   23.8195 C   0  0  0  0  0  0
  -21.3656   -5.6785   24.9156 C   0  0  0  0  0  0
  -21.6043   -4.3055   24.7208 C   0  0  0  0  0  0
  -21.8820   -3.8145   23.4327 C   0  0  0  0  0  0
  -21.9198   -4.6970   22.3388 C   0  0  0  0  0  0
  -22.7862  -13.5255   21.1867 C   0  0  0  0  0  0
  -22.1675   -4.2157   21.0964 F   0  0  0  0  0  0
  -21.5612   -3.4540   25.7734 F   0  0  0  0  0  0
  -30.0152  -13.3834   20.4151 N   0  0  0  0  0  0
  -26.2994  -12.9298   20.3324 N   0  0  0  0  0  0
  -25.9307  -11.6474   20.5832 N   0  0  0  0  0  0
  -22.0476  -12.8241   22.0397 N   0  0  0  0  0  0
  -25.4284  -15.1851   20.3969 N   0  0  0  0  0  0
  -31.8187  -14.7345   20.0989 O   0  0  0  0  0  0
  -21.6614   -6.8888   21.4229 O   0  0  0  0  0  0
  -22.3576  -14.5581   20.6744 O   0  0  0  0  0  0
  -24.6173  -31.8649   23.2091 C   0  0  0  0  0  0
  -25.9062  -32.4798   23.8380 C   0  0  1  0  0  0
  -27.2383  -27.3971   20.1058 C   0  0  0  0  0  0
  -25.5909  -33.8600   24.2320 N   0  0  0  0  0  0
  -23.4064  -30.4895   21.5484 C   0  0  2  0  0  0
  -24.8521  -28.9511   20.1132 C   0  0  0  0  0  0
  -22.7422  -29.4648   22.4970 C   0  0  0  0  0  0
  -18.0273  -28.1384   22.8485 C   0  0  0  0  0  0
  -24.1485  -36.7302   23.2641 C   0  0  0  0  0  0
  -25.9389  -30.8198   21.3675 C   0  0  0  0  0  0
  -26.0128  -29.4529   20.7123 C   0  0  0  0  0  0
  -27.2013  -28.6838   20.7033 C   0  0  0  0  0  0
  -26.0501  -26.9185   19.5003 C   0  0  0  0  0  0
  -24.8680  -27.6852   19.5047 C   0  0  0  0  0  0
  -23.6160  -29.8221   20.1625 C   0  0  0  0  0  0
  -25.4107  -36.3098   24.0337 C   0  0  1  0  0  0
  -20.5863  -28.3671   23.1304 C   0  0  2  0  0  0
  -20.6759  -26.9403   22.5417 C   0  0  0  0  0  0
  -19.5744  -26.6385   21.5208 C   0  0  0  0  0  0
  -18.1922  -26.7930   22.1618 C   0  0  0  0  0  0
  -19.1525  -28.8845   23.2889 C   0  0  0  0  0  0
  -18.9454  -30.1449   23.8900 C   0  0  0  0  0  0
  -17.6460  -30.6587   24.0563 C   0  0  0  0  0  0
  -25.9039  -34.9465   23.5122 C   0  0  0  0  0  0
  -16.5347  -29.9089   23.6334 C   0  0  0  0  0  0
  -16.7261  -28.6510   23.0343 C   0  0  0  0  0  0
  -26.4490  -31.6591   25.0722 C   0  0  0  0  0  0
  -25.3765  -31.3693   26.1480 C   0  0  0  0  0  0
  -27.0327  -30.3026   24.6128 C   0  0  0  0  0  0
  -27.6064  -32.4314   25.7477 C   0  0  0  0  0  0
  -27.5575  -37.1800   24.8468 C   0  0  0  0  0  0
  -21.4150  -29.3034   22.3708 N   0  0  0  0  0  0
  -26.4289  -37.3786   23.9408 N   0  0  0  0  0  0
  -24.6723  -31.0729   22.0993 N   0  0  0  0  0  0
  -23.4186  -28.8191   23.3019 O   0  0  0  0  0  0
  -28.4326  -26.6868   20.1619 O   0  0  0  0  0  0
  -26.5602  -34.8919   22.4687 O   0  0  0  0  0  0
  -23.5361  -32.1418   23.7466 O   0  0  0  0  0  0
  -29.5683  -18.2454   17.8915 C   0  0  0  0  0  0
  -29.9335  -19.4503   18.5106 C   0  0  0  0  0  0
  -29.5079  -17.0308   18.5784 C   0  0  0  0  0  0
  -30.2449  -19.4512   19.9076 C   0  0  0  0  0  0
  -29.8895  -16.9508   19.9453 C   0  0  0  0  0  0
  -30.2206  -18.1821   20.6034 C   0  0  0  0  0  0
  -26.5313  -22.3900   15.5671 C   0  0  0  0  0  0
  -27.7864  -23.2259   15.8547 C   0  0  0  0  0  0
  -26.3345  -21.3220   16.6535 C   0  0  0  0  0  0
  -29.0173  -22.3289   16.0795 C   0  0  0  0  0  0
  -27.6068  -20.4732   16.8597 C   0  0  0  0  0  0
  -28.9954  -15.8682   17.7635 C   0  0  0  0  0  0
  -30.0550  -20.6483   17.5521 C   0  0  0  0  0  0
  -30.7574  -20.7493   20.6100 C   0  0  0  0  0  0
  -28.9995  -24.2783   20.7209 C   0  0  0  0  0  0
  -29.5109  -22.9377   20.0956 C   0  0  0  0  0  0
  -28.5881  -25.3409   19.6498 C   0  0  0  0  0  0
  -29.8400  -15.6801   20.6534 N   0  0  0  0  0  0
  -28.7835  -21.3360   17.1649 N   0  3  0  0  0  0
  -29.7691  -21.7983   21.0361 N   0  3  0  0  0  0
  -30.6170  -18.1038   22.2878 Cl  0  0  0  0  0  0
  -31.4863  -12.4248   19.1839 H   0  0  0  0  0  0
  -30.3853  -11.3529   19.9916 H   0  0  0  0  0  0
  -29.7265  -11.4245   17.6659 H   0  0  0  0  0  0
  -29.7855  -13.1249   17.5610 H   0  0  0  0  0  0
  -27.7707  -11.2856   18.8507 H   0  0  0  0  0  0
  -27.4107  -12.6006   17.7730 H   0  0  0  0  0  0
  -27.6564  -14.2382   19.5247 H   0  0  0  0  0  0
  -28.6931  -12.0673   21.4048 H   0  0  0  0  0  0
  -28.4567  -13.7438   21.8183 H   0  0  0  0  0  0
  -25.2735   -9.5703   22.4782 H   0  0  0  0  0  0
  -24.0011   -7.4631   22.7442 H   0  0  0  0  0  0
  -21.0841   -8.8755   19.8951 H   0  0  0  0  0  0
  -22.3674  -10.9665   19.6163 H   0  0  0  0  0  0
  -21.2009   -7.6144   23.9728 H   0  0  0  0  0  0
  -21.1479   -6.0491   25.9069 H   0  0  0  0  0  0
  -22.0614   -2.7615   23.2797 H   0  0  0  0  0  0
  -22.4104  -11.9929   22.4821 H   0  0  0  0  0  0
  -21.1078  -13.1255   22.2569 H   0  0  0  0  0  0
  -24.6548  -15.8335   20.4957 H   0  0  0  0  0  0
  -26.2686  -15.6242   20.0446 H   0  0  0  0  0  0
  -26.7131  -32.5495   23.1134 H   0  0  0  0  0  0
  -25.0070  -33.9753   25.0469 H   0  0  0  0  0  0
  -22.6971  -31.3083   21.4084 H   0  0  0  0  0  0
  -23.3746  -35.9635   23.3314 H   0  0  0  0  0  0
  -24.3591  -36.8907   22.2055 H   0  0  0  0  0  0
  -23.7235  -37.6507   23.6652 H   0  0  0  0  0  0
  -26.0616  -31.5865   20.6012 H   0  0  0  0  0  0
  -26.8239  -30.8656   21.9908 H   0  0  0  0  0  0
  -28.0964  -29.0701   21.1699 H   0  0  0  0  0  0
  -25.9856  -25.9542   19.0244 H   0  0  0  0  0  0
  -23.9734  -27.2924   19.0399 H   0  0  0  0  0  0
  -23.7279  -30.5978   19.4036 H   0  0  0  0  0  0
  -22.7384  -29.2447   19.8647 H   0  0  0  0  0  0
  -25.1280  -36.1959   25.0828 H   0  0  0  0  0  0
  -20.9957  -28.3244   24.1422 H   0  0  0  0  0  0
  -20.5657  -26.2280   23.3609 H   0  0  0  0  0  0
  -21.6627  -26.7454   22.1208 H   0  0  0  0  0  0
  -19.6906  -25.6301   21.1221 H   0  0  0  0  0  0
  -19.6681  -27.3207   20.6747 H   0  0  0  0  0  0
  -17.4193  -26.6685   21.4014 H   0  0  0  0  0  0
  -18.0324  -26.0070   22.9016 H   0  0  0  0  0  0
  -19.7929  -30.7258   24.2274 H   0  0  0  0  0  0
  -17.5017  -31.6266   24.5162 H   0  0  0  0  0  0
  -15.5347  -30.2988   23.7665 H   0  0  0  0  0  0
  -15.8660  -28.0835   22.7048 H   0  0  0  0  0  0
  -24.5917  -30.7063   25.7823 H   0  0  0  0  0  0
  -24.8985  -32.2846   26.4977 H   0  0  0  0  0  0
  -25.8129  -30.8826   27.0211 H   0  0  0  0  0  0
  -26.2873  -29.6763   24.1215 H   0  0  0  0  0  0
  -27.4119  -29.7288   25.4596 H   0  0  0  0  0  0
  -27.8702  -30.4335   23.9271 H   0  0  0  0  0  0
  -27.2687  -33.3601   26.2085 H   0  0  0  0  0  0
  -28.3850  -32.6893   25.0287 H   0  0  0  0  0  0
  -28.0765  -31.8427   26.5364 H   0  0  0  0  0  0
  -28.2600  -38.0092   24.7512 H   0  0  0  0  0  0
  -28.1058  -36.2618   24.6291 H   0  0  0  0  0  0
  -27.2297  -37.1461   25.8875 H   0  0  0  0  0  0
  -20.9322  -29.8757   21.6925 H   0  0  0  0  0  0
  -26.0174  -38.2858   24.1421 H   0  0  0  0  0  0
  -29.3204  -18.2478   16.8378 H   0  0  0  0  0  0
  -26.6193  -21.9112   14.5916 H   0  0  0  0  0  0
  -25.6563  -23.0387   15.5115 H   0  0  0  0  0  0
  -27.6220  -23.8581   16.7278 H   0  0  0  0  0  0
  -27.9754  -23.9056   15.0222 H   0  0  0  0  0  0
  -25.4978  -20.6732   16.3885 H   0  0  0  0  0  0
  -26.0551  -21.8032   17.5924 H   0  0  0  0  0  0
  -29.8756  -22.9575   16.3226 H   0  0  0  0  0  0
  -29.2698  -21.8068   15.1543 H   0  0  0  0  0  0
  -27.8045  -19.8702   15.9714 H   0  0  0  0  0  0
  -27.4079  -19.7838   17.6811 H   0  0  0  0  0  0
  -29.4350  -15.8628   16.7661 H   0  0  0  0  0  0
  -27.9115  -15.9188   17.6631 H   0  0  0  0  0  0
  -29.2428  -14.9388   18.2287 H   0  0  0  0  0  0
  -30.5300  -20.2837   16.6386 H   0  0  0  0  0  0
  -30.7583  -21.3837   17.9369 H   0  0  0  0  0  0
  -31.5438  -21.2011   20.0062 H   0  0  0  0  0  0
  -31.2980  -20.4715   21.5117 H   0  0  0  0  0  0
  -29.7891  -24.6977   21.3452 H   0  0  0  0  0  0
  -28.1500  -24.0908   21.3778 H   0  0  0  0  0  0
  -30.4232  -23.1608   19.5397 H   0  0  0  0  0  0
  -28.7679  -22.6034   19.3790 H   0  0  0  0  0  0
  -27.7361  -24.9623   19.0942 H   0  0  0  0  0  0
  -29.3874  -25.4054   18.9105 H   0  0  0  0  0  0
  -28.9471  -15.4610   21.0680 H   0  0  0  0  0  0
  -28.4969  -21.8651   17.9686 H   0  0  0  0  0  0
  -30.1756  -22.2092   21.8614 H   0  0  0  0  0  0
  -28.9121  -21.3654   21.3397 H   0  0  0  0  0  0
  1 25  1  0  0  0
  1 30  2  0  0  0
  1 88  1  0  0  0
  2  3  1  0  0  0
  2 25  1  0  0  0
  2 92  1  0  0  0
  2 93  1  0  0  0
  3  4  1  0  0  0
  3 94  1  0  0  0
  3 95  1  0  0  0
  4  5  1  0  0  0
  4 96  1  0  0  0
  4 97  1  0  0  0
  5  6  1  0  0  0
  5 26  1  0  0  0
  5 98  1  0  0  0
  6 25  1  0  0  0
  6 99  1  0  0  0
  6100  1  0  0  0
  7  8  2  0  0  0
  7 26  1  0  0  0
  7 29  1  0  0  0
  8  9  1  0  0  0
  8 22  1  0  0  0
  9 10  1  0  0  0
  9 27  2  0  0  0
 10 11  2  0  0  0
 10 15  1  0  0  0
 11 12  1  0  0  0
 11101  1  0  0  0
 12 13  2  0  0  0
 12102  1  0  0  0
 13 14  1  0  0  0
 13 31  1  0  0  0
 14 15  2  0  0  0
 14103  1  0  0  0
 15104  1  0  0  0
 16 17  2  0  0  0
 16 21  1  0  0  0
 16 31  1  0  0  0
 17 18  1  0  0  0
 17105  1  0  0  0
 18 19  2  0  0  0
 18106  1  0  0  0
 19 20  1  0  0  0
 19 24  1  0  0  0
 20 21  2  0  0  0
 20107  1  0  0  0
 21 23  1  0  0  0
 22 28  1  0  0  0
 22 32  2  0  0  0
 26 27  1  0  0  0
 28108  1  0  0  0
 28109  1  0  0  0
 29110  1  0  0  0
 29111  1  0  0  0
 33 34  1  0  0  0
 33 66  1  0  0  0
 33 70  2  0  0  0
 34 36  1  0  0  0
 34 59  1  0  0  0
 34112  1  0  0  0
 35 44  2  0  0  0
 35 45  1  0  0  0
 35 68  1  0  0  0
 36 56  1  0  0  0
 36113  1  0  0  0
 37 39  1  0  0  0
 37 47  1  0  0  0
 37 66  1  0  0  0
 37114  1  0  0  0
 38 43  2  0  0  0
 38 46  1  0  0  0
 38 47  1  0  0  0
 39 64  1  0  0  0
 39 67  2  0  0  0
 40 52  1  0  0  0
 40 53  2  0  0  0
 40 58  1  0  0  0
 41115  1  0  0  0
 41116  1  0  0  0
 41117  1  0  0  0
 41 48  1  0  0  0
 42 43  1  0  0  0
 42 66  1  0  0  0
 42118  1  0  0  0
 42119  1  0  0  0
 43 44  1  0  0  0
 44120  1  0  0  0
 45 46  2  0  0  0
 45121  1  0  0  0
 46122  1  0  0  0
 47123  1  0  0  0
 47124  1  0  0  0
 48 56  1  0  0  0
 48 65  1  0  0  0
 48125  1  0  0  0
 49 50  1  0  0  0
 49 53  1  0  0  0
 49 64  1  0  0  0
 49126  1  0  0  0
 50 51  1  0  0  0
 50127  1  0  0  0
 50128  1  0  0  0
 51 52  1  0  0  0
 51129  1  0  0  0
 51130  1  0  0  0
 52131  1  0  0  0
 52132  1  0  0  0
 53 54  1  0  0  0
 54 55  2  0  0  0
 54133  1  0  0  0
 55 57  1  0  0  0
 55134  1  0  0  0
 56 69  2  0  0  0
 57 58  2  0  0  0
 57135  1  0  0  0
 58136  1  0  0  0
 59 60  1  0  0  0
 59 61  1  0  0  0
 59 62  1  0  0  0
 60137  1  0  0  0
 60138  1  0  0  0
 60139  1  0  0  0
 61140  1  0  0  0
 61141  1  0  0  0
 61142  1  0  0  0
 62143  1  0  0  0
 62144  1  0  0  0
 62145  1  0  0  0
 63 65  1  0  0  0
 63146  1  0  0  0
 63147  1  0  0  0
 63148  1  0  0  0
 64149  1  0  0  0
 65150  1  0  0  0
 68 87  1  0  0  0
 71 72  2  0  0  0
 71 73  1  0  0  0
 71151  1  0  0  0
 72 74  1  0  0  0
 72 83  1  0  0  0
 73 75  2  0  0  0
 73 82  1  0  0  0
 74 76  2  0  0  0
 74 84  1  0  0  0
 75 76  1  0  0  0
 75 88  1  0  0  0
 76 91  1  0  0  0
 77 78  1  0  0  0
 77 79  1  0  0  0
 77152  1  0  0  0
 77153  1  0  0  0
 78 80  1  0  0  0
 78154  1  0  0  0
 78155  1  0  0  0
 79 81  1  0  0  0
 79156  1  0  0  0
 79157  1  0  0  0
 80 89  1  0  0  0
 80158  1  0  0  0
 80159  1  0  0  0
 81 89  1  0  0  0
 81160  1  0  0  0
 81161  1  0  0  0
 82162  1  0  0  0
 82163  1  0  0  0
 82164  1  0  0  0
 83165  1  0  0  0
 83166  1  0  0  0
 83 89  1  0  0  0
 84 90  1  0  0  0
 84167  1  0  0  0
 84168  1  0  0  0
 85 86  1  0  0  0
 85 87  1  0  0  0
 85169  1  0  0  0
 85170  1  0  0  0
 86 90  1  0  0  0
 86171  1  0  0  0
 86172  1  0  0  0
 87173  1  0  0  0
 87174  1  0  0  0
 88175  1  0  0  0
 89176  1  0  0  0
 90177  1  0  0  0
 90178  1  0  0  0
M  CHG  2  89   1  90   1
M  ISO  4   1 100  68 101  87 101  88 100
M  END
> <chiral flag>
0

> <version>
0

> <s_m_source_file>
/data/baiqing/PycharmProjects/Reinvent-master-3.2/result/LINK_invent/BTK/process_docking_weight1_custom_product_contain_oxygen_bond_distance_aromatic_linkinvent_7_9_3/rearranged_h_0038.sdf

> <i_m_source_file_index>
8

> <r_mmod_Potential_Energy-OPLS-2005>
-229.299118041992

> <r_mmod_Stretch_Energy-OPLS-2005>
64.0620040893555

> <r_mmod_Bend_Energy-OPLS-2005>
152.011596679688

> <r_mmod_Torsional_Energy-OPLS-2005>
274.483703613281

> <r_mmod_Improper_Torsional_Energy-OPLS-2005>
7.3679051399231

> <r_mmod_Van_der_Waal_Energy-OPLS-2005>
155.816207885742

> <r_mmod_Electrostatic_Energy-OPLS-2005>
97.1717224121094

> <r_mmod_Solvation_Energy-OPLS-2005>
-1016.30285644531

> <b_mmod_Minimization_Converged-OPLS-2005>
0

> <r_mmod_RMS_Derivative-OPLS-2005>
2.36676979064941

$$$$
8
                    3D
 Structure written by MMmdl.
167176  0  0  1  0            999 V2000
  -30.6170  -14.6453   20.4694 C   0  0  0  0  0  0
  -30.4430  -12.3908   19.4523 C   0  0  0  0  0  0
  -29.5142  -12.4993   18.2240 C   0  0  0  0  0  0
  -28.0336  -12.3452   18.6330 C   0  0  0  0  0  0
  -27.6549  -13.2073   19.8670 C   0  0  2  0  0  0
  -28.7039  -13.0632   20.9908 C   0  0  0  0  0  0
  -25.2566  -13.8171   20.5673 C   0  0  0  0  0  0
  -24.1821  -13.0444   20.9182 C   0  0  0  0  0  0
  -24.6373  -11.6909   20.8741 C   0  0  0  0  0  0
  -23.9036  -10.4305   21.0413 C   0  0  0  0  0  0
  -24.3602   -9.4217   21.9169 C   0  0  0  0  0  0
  -23.6285   -8.2252   22.0749 C   0  0  0  0  0  0
  -22.4268   -8.0284   21.3542 C   0  0  0  0  0  0
  -21.9894   -9.0259   20.4646 C   0  0  0  0  0  0
  -22.7224  -10.2137   20.3045 C   0  0  0  0  0  0
  -21.6859   -6.0720   22.5273 C   0  0  0  0  0  0
  -21.4022   -6.5616   23.8207 C   0  0  0  0  0  0
  -21.3664   -5.6763   24.9168 C   0  0  0  0  0  0
  -21.6049   -4.3028   24.7219 C   0  0  0  0  0  0
  -21.8819   -3.8126   23.4338 C   0  0  0  0  0  0
  -21.9192   -4.6948   22.3397 C   0  0  0  0  0  0
  -22.7834  -13.5251   21.1826 C   0  0  0  0  0  0
  -22.1659   -4.2133   21.0974 F   0  0  0  0  0  0
  -21.5627   -3.4511   25.7733 F   0  0  0  0  0  0
  -30.0156  -13.4143   20.4241 N   0  0  0  0  0  0
  -26.2988  -12.9318   20.3328 N   0  0  0  0  0  0
  -25.9293  -11.6487   20.5761 N   0  0  0  0  0  0
  -22.0432  -12.8297   22.0397 N   0  0  0  0  0  0
  -25.4222  -15.1900   20.4046 N   0  0  0  0  0  0
  -31.7784  -14.8099   20.0857 O   0  0  0  0  0  0
  -21.6632   -6.8877   21.4242 O   0  0  0  0  0  0
  -22.3533  -14.5537   20.6632 O   0  0  0  0  0  0
  -24.6231  -31.8590   23.2012 C   0  0  0  0  0  0
  -25.9090  -32.4750   23.8370 C   0  0  1  0  0  0
  -27.2347  -27.3415   20.1226 C   0  0  0  0  0  0
  -25.5913  -33.8562   24.2301 N   0  0  0  0  0  0
  -23.4164  -30.4806   21.5406 C   0  0  2  0  0  0
  -24.8666  -28.9318   20.1110 C   0  0  0  0  0  0
  -22.7465  -29.4623   22.4932 C   0  0  0  0  0  0
  -18.0284  -28.1380   22.8479 C   0  0  0  0  0  0
  -24.1464  -36.7331   23.2637 C   0  0  0  0  0  0
  -25.9516  -30.8007   21.3649 C   0  0  0  0  0  0
  -26.0284  -29.4253   20.7163 C   0  0  0  0  0  0
  -27.2162  -28.6399   20.7096 C   0  0  0  0  0  0
  -26.0587  -26.8961   19.4836 C   0  0  0  0  0  0
  -24.8815  -27.6718   19.4865 C   0  0  0  0  0  0
  -23.6296  -29.8071   20.1574 C   0  0  0  0  0  0
  -25.4082  -36.3082   24.0323 C   0  0  1  0  0  0
  -20.5877  -28.3682   23.1285 C   0  0  2  0  0  0
  -20.6756  -26.9400   22.5415 C   0  0  0  0  0  0
  -19.5732  -26.6373   21.5219 C   0  0  0  0  0  0
  -18.1910  -26.7919   22.1623 C   0  0  0  0  0  0
  -19.1530  -28.8843   23.2871 C   0  0  0  0  0  0
  -18.9467  -30.1453   23.8879 C   0  0  0  0  0  0
  -17.6464  -30.6576   24.0573 C   0  0  0  0  0  0
  -25.9012  -34.9439   23.5111 C   0  0  0  0  0  0
  -16.5354  -29.9091   23.6330 C   0  0  0  0  0  0
  -16.7267  -28.6512   23.0336 C   0  0  0  0  0  0
  -26.4483  -31.6542   25.0727 C   0  0  0  0  0  0
  -25.3737  -31.3666   26.1487 C   0  0  0  0  0  0
  -27.0341  -30.2976   24.6154 C   0  0  0  0  0  0
  -27.6033  -32.4270   25.7526 C   0  0  0  0  0  0
  -27.5564  -37.1821   24.8451 C   0  0  0  0  0  0
  -21.4179  -29.3042   22.3684 N   0  0  0  0  0  0
  -26.4273  -37.3758   23.9385 N   0  0  0  0  0  0
  -24.6819  -31.0641   22.0939 N   0  0  0  0  0  0
  -23.4207  -28.8184   23.3010 O   0  0  0  0  0  0
  -28.3833  -26.5437   20.1386 O   0  0  0  0  0  0
  -26.5598  -34.8900   22.4687 O   0  0  0  0  0  0
  -23.5395  -32.1390   23.7347 O   0  0  0  0  0  0
  -30.0441  -19.5310   20.9442 C   0  0  0  0  0  0
  -28.8559  -18.8582   18.9724 C   0  0  0  0  0  0
  -29.2760  -19.9211   19.8127 C   0  0  0  0  0  0
  -30.2938  -18.1519   21.2682 C   0  0  0  0  0  0
  -29.8144  -17.0949   20.4299 C   0  0  0  0  0  0
  -29.1194  -17.4924   19.2552 C   0  0  0  0  0  0
  -28.7442  -24.0199   19.6011 C   0  0  0  0  0  0
  -28.8272  -24.2392   18.2762 C   0  0  0  0  0  0
  -27.0868  -23.1903   21.7119 C   0  0  0  0  0  0
  -27.2274  -24.7198   21.5788 C   0  0  0  0  0  0
  -28.4410  -22.4668   21.6032 C   0  0  0  0  0  0
  -28.3769  -25.1416   20.6270 C   0  0  1  0  0  0
  -31.8586  -18.9130   23.1950 C   0  0  0  0  0  0
  -31.0447  -17.7834   22.5456 C   0  0  0  0  0  0
  -28.8925  -21.3949   19.3797 C   0  0  0  0  0  0
  -29.8167  -15.6896   20.8444 N   0  0  0  0  0  0
  -29.0584  -22.6293   20.2558 N   0  3  1  0  0  0
  -28.5367  -16.3153   18.1341 Cl  0  0  0  0  0  0
  -31.4855  -12.5122   19.1533 H   0  0  0  0  0  0
  -30.3795  -11.3980   19.9000 H   0  0  0  0  0  0
  -29.7835  -11.7421   17.4859 H   0  0  0  0  0  0
  -29.6568  -13.4648   17.7375 H   0  0  0  0  0  0
  -27.8647  -11.2905   18.8596 H   0  0  0  0  0  0
  -27.3869  -12.5844   17.7867 H   0  0  0  0  0  0
  -27.6689  -14.2409   19.5347 H   0  0  0  0  0  0
  -28.7193  -12.0382   21.3675 H   0  0  0  0  0  0
  -28.4513  -13.6884   21.8472 H   0  0  0  0  0  0
  -25.2752   -9.5693   22.4716 H   0  0  0  0  0  0
  -23.9991   -7.4653   22.7465 H   0  0  0  0  0  0
  -21.0825   -8.8789   19.8954 H   0  0  0  0  0  0
  -22.3704  -10.9660   19.6133 H   0  0  0  0  0  0
  -21.2020   -7.6125   23.9721 H   0  0  0  0  0  0
  -21.1481   -6.0483   25.9073 H   0  0  0  0  0  0
  -22.0596   -2.7588   23.2837 H   0  0  0  0  0  0
  -22.4002  -12.0014   22.4932 H   0  0  0  0  0  0
  -21.1016  -13.1326   22.2476 H   0  0  0  0  0  0
  -24.6461  -15.8346   20.5152 H   0  0  0  0  0  0
  -26.2502  -15.6296   20.0243 H   0  0  0  0  0  0
  -26.7185  -32.5429   23.1147 H   0  0  0  0  0  0
  -25.0043  -33.9697   25.0435 H   0  0  0  0  0  0
  -22.7068  -31.2964   21.3957 H   0  0  0  0  0  0
  -23.3686  -35.9706   23.3297 H   0  0  0  0  0  0
  -24.3546  -36.8947   22.2048 H   0  0  0  0  0  0
  -23.7267  -37.6553   23.6669 H   0  0  0  0  0  0
  -26.0725  -31.5609   20.5901 H   0  0  0  0  0  0
  -26.8362  -30.8534   21.9881 H   0  0  0  0  0  0
  -28.1123  -29.0209   21.1781 H   0  0  0  0  0  0
  -26.0474  -25.9317   18.9957 H   0  0  0  0  0  0
  -23.9943  -27.2893   19.0023 H   0  0  0  0  0  0
  -23.7384  -30.5784   19.3934 H   0  0  0  0  0  0
  -22.7510  -29.2264   19.8687 H   0  0  0  0  0  0
  -25.1259  -36.1933   25.0813 H   0  0  0  0  0  0
  -20.9968  -28.3254   24.1408 H   0  0  0  0  0  0
  -20.5626  -26.2301   23.3618 H   0  0  0  0  0  0
  -21.6626  -26.7403   22.1228 H   0  0  0  0  0  0
  -19.6876  -25.6292   21.1233 H   0  0  0  0  0  0
  -19.6654  -27.3191   20.6756 H   0  0  0  0  0  0
  -17.4182  -26.6684   21.4015 H   0  0  0  0  0  0
  -18.0288  -26.0062   22.9012 H   0  0  0  0  0  0
  -19.7943  -30.7278   24.2205 H   0  0  0  0  0  0
  -17.5024  -31.6239   24.5211 H   0  0  0  0  0  0
  -15.5350  -30.2991   23.7644 H   0  0  0  0  0  0
  -15.8674  -28.0841   22.7029 H   0  0  0  0  0  0
  -24.5841  -30.7111   25.7804 H   0  0  0  0  0  0
  -24.9047  -32.2842   26.5063 H   0  0  0  0  0  0
  -25.8068  -30.8728   27.0194 H   0  0  0  0  0  0
  -26.2901  -29.6657   24.1298 H   0  0  0  0  0  0
  -27.4159  -29.7277   25.4634 H   0  0  0  0  0  0
  -27.8696  -30.4256   23.9263 H   0  0  0  0  0  0
  -27.2635  -33.3545   26.2136 H   0  0  0  0  0  0
  -28.3857  -32.6848   25.0380 H   0  0  0  0  0  0
  -28.0697  -31.8392   26.5436 H   0  0  0  0  0  0
  -28.2595  -38.0111   24.7451 H   0  0  0  0  0  0
  -28.1032  -36.2627   24.6295 H   0  0  0  0  0  0
  -27.2277  -37.1502   25.8857 H   0  0  0  0  0  0
  -20.9344  -29.8761   21.6905 H   0  0  0  0  0  0
  -26.0150  -38.2830   24.1359 H   0  0  0  0  0  0
  -30.4222  -20.3104   21.5876 H   0  0  0  0  0  0
  -28.2959  -19.0859   18.0739 H   0  0  0  0  0  0
  -28.6155  -25.2225   17.8791 H   0  0  0  0  0  0
  -29.1031  -23.4792   17.5612 H   0  0  0  0  0  0
  -26.4205  -22.8129   20.9345 H   0  0  0  0  0  0
  -26.6011  -22.9466   22.6588 H   0  0  0  0  0  0
  -27.3998  -25.1730   22.5559 H   0  0  0  0  0  0
  -26.2616  -25.0906   21.2497 H   0  0  0  0  0  0
  -28.3089  -21.4170   21.8606 H   0  0  0  0  0  0
  -29.1289  -22.8727   22.3471 H   0  0  0  0  0  0
  -29.2628  -25.1449   21.2649 H   0  0  0  0  0  0
  -32.4164  -18.5340   24.0526 H   0  0  0  0  0  0
  -31.2163  -19.7169   23.5557 H   0  0  0  0  0  0
  -32.5786  -19.3370   22.4941 H   0  0  0  0  0  0
  -31.7265  -16.9632   22.3189 H   0  0  0  0  0  0
  -30.3226  -17.3983   23.2651 H   0  0  0  0  0  0
  -27.8443  -21.3725   19.0727 H   0  0  0  0  0  0
  -29.4577  -21.5575   18.4630 H   0  0  0  0  0  0
  -28.9205  -15.3688   21.1721 H   0  0  0  0  0  0
  -30.0491  -22.6256   20.4490 H   0  0  0  0  0  0
  1 25  1  0  0  0
  1 30  2  0  0  0
  1 86  1  0  0  0
  2  3  1  0  0  0
  2 25  1  0  0  0
  2 89  1  0  0  0
  2 90  1  0  0  0
  3  4  1  0  0  0
  3 91  1  0  0  0
  3 92  1  0  0  0
  4  5  1  0  0  0
  4 93  1  0  0  0
  4 94  1  0  0  0
  5  6  1  0  0  0
  5 26  1  0  0  0
  5 95  1  0  0  0
  6 25  1  0  0  0
  6 96  1  0  0  0
  6 97  1  0  0  0
  7  8  2  0  0  0
  7 26  1  0  0  0
  7 29  1  0  0  0
  8  9  1  0  0  0
  8 22  1  0  0  0
  9 10  1  0  0  0
  9 27  2  0  0  0
 10 11  2  0  0  0
 10 15  1  0  0  0
 11 12  1  0  0  0
 11 98  1  0  0  0
 12 13  2  0  0  0
 12 99  1  0  0  0
 13 14  1  0  0  0
 13 31  1  0  0  0
 14 15  2  0  0  0
 14100  1  0  0  0
 15101  1  0  0  0
 16 17  2  0  0  0
 16 21  1  0  0  0
 16 31  1  0  0  0
 17 18  1  0  0  0
 17102  1  0  0  0
 18 19  2  0  0  0
 18103  1  0  0  0
 19 20  1  0  0  0
 19 24  1  0  0  0
 20 21  2  0  0  0
 20104  1  0  0  0
 21 23  1  0  0  0
 22 28  1  0  0  0
 22 32  2  0  0  0
 26 27  1  0  0  0
 28105  1  0  0  0
 28106  1  0  0  0
 29107  1  0  0  0
 29108  1  0  0  0
 33 34  1  0  0  0
 33 66  1  0  0  0
 33 70  2  0  0  0
 34 36  1  0  0  0
 34 59  1  0  0  0
 34109  1  0  0  0
 35 44  2  0  0  0
 35 45  1  0  0  0
 35 68  1  0  0  0
 36 56  1  0  0  0
 36110  1  0  0  0
 37 39  1  0  0  0
 37 47  1  0  0  0
 37 66  1  0  0  0
 37111  1  0  0  0
 38 43  2  0  0  0
 38 46  1  0  0  0
 38 47  1  0  0  0
 39 64  1  0  0  0
 39 67  2  0  0  0
 40 52  1  0  0  0
 40 53  2  0  0  0
 40 58  1  0  0  0
 41112  1  0  0  0
 41113  1  0  0  0
 41114  1  0  0  0
 41 48  1  0  0  0
 42 43  1  0  0  0
 42 66  1  0  0  0
 42115  1  0  0  0
 42116  1  0  0  0
 43 44  1  0  0  0
 44117  1  0  0  0
 45 46  2  0  0  0
 45118  1  0  0  0
 46119  1  0  0  0
 47120  1  0  0  0
 47121  1  0  0  0
 48 56  1  0  0  0
 48 65  1  0  0  0
 48122  1  0  0  0
 49 50  1  0  0  0
 49 53  1  0  0  0
 49 64  1  0  0  0
 49123  1  0  0  0
 50 51  1  0  0  0
 50124  1  0  0  0
 50125  1  0  0  0
 51 52  1  0  0  0
 51126  1  0  0  0
 51127  1  0  0  0
 52128  1  0  0  0
 52129  1  0  0  0
 53 54  1  0  0  0
 54 55  2  0  0  0
 54130  1  0  0  0
 55 57  1  0  0  0
 55131  1  0  0  0
 56 69  2  0  0  0
 57 58  2  0  0  0
 57132  1  0  0  0
 58133  1  0  0  0
 59 60  1  0  0  0
 59 61  1  0  0  0
 59 62  1  0  0  0
 60134  1  0  0  0
 60135  1  0  0  0
 60136  1  0  0  0
 61137  1  0  0  0
 61138  1  0  0  0
 61139  1  0  0  0
 62140  1  0  0  0
 62141  1  0  0  0
 62142  1  0  0  0
 63 65  1  0  0  0
 63143  1  0  0  0
 63144  1  0  0  0
 63145  1  0  0  0
 64146  1  0  0  0
 65147  1  0  0  0
 68 82  1  0  0  0
 71 73  2  0  0  0
 71 74  1  0  0  0
 71148  1  0  0  0
 72 73  1  0  0  0
 72 76  2  0  0  0
 72149  1  0  0  0
 73 85  1  0  0  0
 74 75  2  0  0  0
 74 84  1  0  0  0
 75 76  1  0  0  0
 75 86  1  0  0  0
 76 88  1  0  0  0
 77 78  2  0  0  0
 77 82  1  0  0  0
 77 87  1  0  0  0
 78150  1  0  0  0
 78151  1  0  0  0
 79 80  1  0  0  0
 79 81  1  0  0  0
 79152  1  0  0  0
 79153  1  0  0  0
 80 82  1  0  0  0
 80154  1  0  0  0
 80155  1  0  0  0
 81 87  1  0  0  0
 81156  1  0  0  0
 81157  1  0  0  0
 82158  1  0  0  0
 83 84  1  0  0  0
 83159  1  0  0  0
 83160  1  0  0  0
 83161  1  0  0  0
 84162  1  0  0  0
 84163  1  0  0  0
 85164  1  0  0  0
 85165  1  0  0  0
 85 87  1  0  0  0
 86166  1  0  0  0
 87167  1  0  0  0
M  CHG  1  87   1
M  ISO  4   1 100  68 101  82 101  86 100
M  END
> <chiral flag>
0

> <version>
0

> <s_m_source_file>
/data/baiqing/PycharmProjects/Reinvent-master-3.2/result/LINK_invent/BTK/process_docking_weight1_custom_product_contain_oxygen_bond_distance_aromatic_linkinvent_7_9_3/rearranged_h_0038.sdf

> <i_m_source_file_index>
9

> <r_mmod_Potential_Energy-OPLS-2005>
-4.55349159240723

> <r_mmod_Stretch_Energy-OPLS-2005>
87.2363815307617

> <r_mmod_Bend_Energy-OPLS-2005>
171.306396484375

> <r_mmod_Torsional_Energy-OPLS-2005>
289.222869873047

> <r_mmod_Improper_Torsional_Energy-OPLS-2005>
6.00460481643677

> <r_mmod_Van_der_Waal_Energy-OPLS-2005>
146.518753051758

> <r_mmod_Electrostatic_Energy-OPLS-2005>
-302.053527832031

> <r_mmod_Solvation_Energy-OPLS-2005>
-446.096832275391

> <b_mmod_Minimization_Converged-OPLS-2005>
0

> <r_mmod_RMS_Derivative-OPLS-2005>
3.49164390563965

$$$$
9
                    3D
 Structure written by MMmdl.
164173  0  0  1  0            999 V2000
  -30.6143  -14.6343   20.4391 C   0  0  0  0  0  0
  -30.4373  -12.3757   19.4453 C   0  0  0  0  0  0
  -29.5100  -12.4988   18.2160 C   0  0  0  0  0  0
  -28.0313  -12.3403   18.6291 C   0  0  0  0  0  0
  -27.6519  -13.2150   19.8531 C   0  0  2  0  0  0
  -28.6989  -13.0781   20.9834 C   0  0  0  0  0  0
  -25.2569  -13.8166   20.5684 C   0  0  0  0  0  0
  -24.1828  -13.0433   20.9195 C   0  0  0  0  0  0
  -24.6384  -11.6901   20.8722 C   0  0  0  0  0  0
  -23.9043  -10.4288   21.0395 C   0  0  0  0  0  0
  -24.3597   -9.4209   21.9177 C   0  0  0  0  0  0
  -23.6278   -8.2239   22.0751 C   0  0  0  0  0  0
  -22.4262   -8.0265   21.3539 C   0  0  0  0  0  0
  -21.9884   -9.0246   20.4656 C   0  0  0  0  0  0
  -22.7206  -10.2134   20.3053 C   0  0  0  0  0  0
  -21.6851   -6.0718   22.5276 C   0  0  0  0  0  0
  -21.4015   -6.5628   23.8208 C   0  0  0  0  0  0
  -21.3663   -5.6782   24.9175 C   0  0  0  0  0  0
  -21.6043   -4.3044   24.7228 C   0  0  0  0  0  0
  -21.8819   -3.8130   23.4350 C   0  0  0  0  0  0
  -21.9198   -4.6940   22.3406 C   0  0  0  0  0  0
  -22.7851  -13.5237   21.1858 C   0  0  0  0  0  0
  -22.1666   -4.2130   21.0982 F   0  0  0  0  0  0
  -21.5637   -3.4530   25.7743 F   0  0  0  0  0  0
  -30.0152  -13.4052   20.4129 N   0  0  0  0  0  0
  -26.2983  -12.9343   20.3257 N   0  0  0  0  0  0
  -25.9307  -11.6501   20.5698 N   0  0  0  0  0  0
  -22.0482  -12.8260   22.0421 N   0  0  0  0  0  0
  -25.4291  -15.1886   20.4132 N   0  0  0  0  0  0
  -31.8052  -14.7633   20.1530 O   0  0  0  0  0  0
  -21.6634   -6.8860   21.4235 O   0  0  0  0  0  0
  -22.3545  -14.5536   20.6682 O   0  0  0  0  0  0
  -24.6247  -31.8600   23.2034 C   0  0  0  0  0  0
  -25.9103  -32.4785   23.8351 C   0  0  1  0  0  0
  -27.2240  -27.3384   20.1134 C   0  0  0  0  0  0
  -25.5924  -33.8583   24.2278 N   0  0  0  0  0  0
  -23.4166  -30.4831   21.5468 C   0  0  2  0  0  0
  -24.8622  -28.9326   20.1174 C   0  0  0  0  0  0
  -22.7456  -29.4628   22.4963 C   0  0  0  0  0  0
  -18.0275  -28.1385   22.8495 C   0  0  0  0  0  0
  -24.1492  -36.7299   23.2637 C   0  0  0  0  0  0
  -25.9557  -30.7976   21.3700 C   0  0  0  0  0  0
  -26.0303  -29.4248   20.7136 C   0  0  0  0  0  0
  -27.2176  -28.6400   20.6964 C   0  0  0  0  0  0
  -26.0351  -26.8823   19.5081 C   0  0  0  0  0  0
  -24.8641  -27.6661   19.5079 C   0  0  0  0  0  0
  -23.6301  -29.8127   20.1642 C   0  0  0  0  0  0
  -25.4117  -36.3092   24.0328 C   0  0  1  0  0  0
  -20.5874  -28.3678   23.1308 C   0  0  2  0  0  0
  -20.6769  -26.9407   22.5423 C   0  0  0  0  0  0
  -19.5750  -26.6387   21.5222 C   0  0  0  0  0  0
  -18.1925  -26.7933   22.1627 C   0  0  0  0  0  0
  -19.1527  -28.8849   23.2898 C   0  0  0  0  0  0
  -18.9450  -30.1455   23.8904 C   0  0  0  0  0  0
  -17.6451  -30.6592   24.0561 C   0  0  0  0  0  0
  -25.9052  -34.9459   23.5106 C   0  0  0  0  0  0
  -16.5343  -29.9090   23.6333 C   0  0  0  0  0  0
  -16.7261  -28.6509   23.0355 C   0  0  0  0  0  0
  -26.4491  -31.6597   25.0717 C   0  0  0  0  0  0
  -25.3735  -31.3763   26.1462 C   0  0  0  0  0  0
  -27.0299  -30.3007   24.6178 C   0  0  0  0  0  0
  -27.6078  -32.4318   25.7458 C   0  0  0  0  0  0
  -27.5589  -37.1797   24.8459 C   0  0  0  0  0  0
  -21.4173  -29.3035   22.3709 N   0  0  0  0  0  0
  -26.4298  -37.3786   23.9409 N   0  0  0  0  0  0
  -24.6847  -31.0625   22.0978 N   0  0  0  0  0  0
  -23.4190  -28.8170   23.3036 O   0  0  0  0  0  0
  -28.3638  -26.5345   20.0878 O   0  0  0  0  0  0
  -26.5621  -34.8922   22.4672 O   0  0  0  0  0  0
  -23.5419  -32.1379   23.7385 O   0  0  0  0  0  0
  -30.3257  -19.1974   19.0686 C   0  0  0  0  0  0
  -28.6851  -17.8854   20.8730 C   0  0  0  0  0  0
  -29.2664  -19.9528   19.6377 C   0  0  0  0  0  0
  -29.7317  -17.1125   20.2926 C   0  0  0  0  0  0
  -30.5517  -17.8175   19.3513 C   0  0  0  0  0  0
  -28.4418  -19.2539   20.5521 C   0  0  0  0  0  0
  -28.5028  -24.0287   19.4331 C   0  0  0  0  0  0
  -28.4601  -24.3635   18.1198 C   0  0  0  0  0  0
  -29.4742  -23.6006   22.1967 C   0  0  0  0  0  0
  -29.3202  -25.0252   21.6565 C   0  0  0  0  0  0
  -29.8494  -22.6280   21.0708 C   0  0  0  0  0  0
  -28.2765  -25.1281   20.5319 C   0  0  1  0  0  0
  -28.6516  -23.5335   16.8641 C   0  0  0  0  0  0
  -28.9477  -21.4035   19.1057 C   0  0  0  0  0  0
  -29.7673  -15.6877   20.6595 N   0  0  0  0  0  0
  -28.7922  -22.6011   20.0297 N   0  3  1  0  0  0
  -31.7912  -17.0645   18.4152 Cl  0  0  0  0  0  0
  -27.0891  -20.0605   21.2622 Cl  0  0  0  0  0  0
  -31.4819  -12.4899   19.1474 H   0  0  0  0  0  0
  -30.3596  -11.3816   19.8882 H   0  0  0  0  0  0
  -29.7731  -11.7491   17.4696 H   0  0  0  0  0  0
  -29.6565  -13.4686   17.7360 H   0  0  0  0  0  0
  -27.8678  -11.2879   18.8642 H   0  0  0  0  0  0
  -27.3756  -12.5664   17.7877 H   0  0  0  0  0  0
  -27.6659  -14.2470   19.5014 H   0  0  0  0  0  0
  -28.7062  -12.0629   21.3824 H   0  0  0  0  0  0
  -28.4516  -13.7285   21.8243 H   0  0  0  0  0  0
  -25.2755   -9.5688   22.4734 H   0  0  0  0  0  0
  -23.9999   -7.4628   22.7458 H   0  0  0  0  0  0
  -21.0810   -8.8744   19.8978 H   0  0  0  0  0  0
  -22.3644  -10.9654   19.6146 H   0  0  0  0  0  0
  -21.1999   -7.6134   23.9704 H   0  0  0  0  0  0
  -21.1492   -6.0515   25.9080 H   0  0  0  0  0  0
  -22.0596   -2.7585   23.2849 H   0  0  0  0  0  0
  -22.4081  -11.9929   22.4844 H   0  0  0  0  0  0
  -21.1089  -13.1291   22.2597 H   0  0  0  0  0  0
  -24.6576  -15.8382   20.5226 H   0  0  0  0  0  0
  -26.2673  -15.6273   20.0554 H   0  0  0  0  0  0
  -26.7167  -32.5457   23.1094 H   0  0  0  0  0  0
  -25.0069  -33.9725   25.0422 H   0  0  0  0  0  0
  -22.7102  -31.3038   21.4044 H   0  0  0  0  0  0
  -23.3752  -35.9638   23.3320 H   0  0  0  0  0  0
  -24.3579  -36.8891   22.2046 H   0  0  0  0  0  0
  -23.7246  -37.6511   23.6639 H   0  0  0  0  0  0
  -26.0853  -31.5634   20.6037 H   0  0  0  0  0  0
  -26.8369  -30.8444   21.9989 H   0  0  0  0  0  0
  -28.1223  -29.0196   21.1507 H   0  0  0  0  0  0
  -26.0096  -25.9143   19.0282 H   0  0  0  0  0  0
  -23.9664  -27.2842   19.0405 H   0  0  0  0  0  0
  -23.7505  -30.5865   19.4055 H   0  0  0  0  0  0
  -22.7500  -29.2417   19.8636 H   0  0  0  0  0  0
  -25.1296  -36.1948   25.0822 H   0  0  0  0  0  0
  -20.9965  -28.3251   24.1430 H   0  0  0  0  0  0
  -20.5690  -26.2278   23.3612 H   0  0  0  0  0  0
  -21.6638  -26.7466   22.1201 H   0  0  0  0  0  0
  -19.6914  -25.6302   21.1242 H   0  0  0  0  0  0
  -19.6695  -27.3204   20.6759 H   0  0  0  0  0  0
  -17.4203  -26.6691   21.4022 H   0  0  0  0  0  0
  -18.0320  -26.0071   22.9017 H   0  0  0  0  0  0
  -19.7921  -30.7272   24.2285 H   0  0  0  0  0  0
  -17.5002  -31.6274   24.5160 H   0  0  0  0  0  0
  -15.5341  -30.2991   23.7666 H   0  0  0  0  0  0
  -15.8658  -28.0832   22.7068 H   0  0  0  0  0  0
  -24.5887  -30.7134   25.7801 H   0  0  0  0  0  0
  -24.8951  -32.2942   26.4887 H   0  0  0  0  0  0
  -25.8056  -30.8933   27.0234 H   0  0  0  0  0  0
  -26.2847  -29.6774   24.1222 H   0  0  0  0  0  0
  -27.3985  -29.7261   25.4685 H   0  0  0  0  0  0
  -27.8734  -30.4256   23.9387 H   0  0  0  0  0  0
  -27.2718  -33.3620   26.2049 H   0  0  0  0  0  0
  -28.3863  -32.6876   25.0259 H   0  0  0  0  0  0
  -28.0781  -31.8436   26.5345 H   0  0  0  0  0  0
  -28.2616  -38.0086   24.7511 H   0  0  0  0  0  0
  -28.1072  -36.2617   24.6276 H   0  0  0  0  0  0
  -27.2312  -37.1448   25.8863 H   0  0  0  0  0  0
  -20.9357  -29.8727   21.6890 H   0  0  0  0  0  0
  -26.0185  -38.2867   24.1408 H   0  0  0  0  0  0
  -30.9581  -19.6641   18.3268 H   0  0  0  0  0  0
  -28.0066  -17.4094   21.5662 H   0  0  0  0  0  0
  -28.2739  -25.4048   17.8950 H   0  0  0  0  0  0
  -28.5549  -23.2764   22.6876 H   0  0  0  0  0  0
  -30.2466  -23.5839   22.9659 H   0  0  0  0  0  0
  -30.2854  -25.3705   21.2832 H   0  0  0  0  0  0
  -29.0511  -25.7002   22.4697 H   0  0  0  0  0  0
  -29.9895  -21.6415   21.5120 H   0  0  0  0  0  0
  -30.8040  -22.9050   20.6209 H   0  0  0  0  0  0
  -27.2947  -24.9358   20.9682 H   0  0  0  0  0  0
  -29.7010  -23.2798   16.7110 H   0  0  0  0  0  0
  -28.3362  -24.1265   16.0047 H   0  0  0  0  0  0
  -28.0361  -22.6369   16.8445 H   0  0  0  0  0  0
  -28.0198  -21.3043   18.5435 H   0  0  0  0  0  0
  -29.7269  -21.6456   18.3847 H   0  0  0  0  0  0
  -28.9007  -15.3658   21.0608 H   0  0  0  0  0  0
  -27.9641  -22.3423   20.5481 H   0  0  0  0  0  0
  1 25  1  0  0  0
  1 30  2  0  0  0
  1 85  1  0  0  0
  2  3  1  0  0  0
  2 25  1  0  0  0
  2 89  1  0  0  0
  2 90  1  0  0  0
  3  4  1  0  0  0
  3 91  1  0  0  0
  3 92  1  0  0  0
  4  5  1  0  0  0
  4 93  1  0  0  0
  4 94  1  0  0  0
  5  6  1  0  0  0
  5 26  1  0  0  0
  5 95  1  0  0  0
  6 25  1  0  0  0
  6 96  1  0  0  0
  6 97  1  0  0  0
  7  8  2  0  0  0
  7 26  1  0  0  0
  7 29  1  0  0  0
  8  9  1  0  0  0
  8 22  1  0  0  0
  9 10  1  0  0  0
  9 27  2  0  0  0
 10 11  2  0  0  0
 10 15  1  0  0  0
 11 12  1  0  0  0
 11 98  1  0  0  0
 12 13  2  0  0  0
 12 99  1  0  0  0
 13 14  1  0  0  0
 13 31  1  0  0  0
 14 15  2  0  0  0
 14100  1  0  0  0
 15101  1  0  0  0
 16 17  2  0  0  0
 16 21  1  0  0  0
 16 31  1  0  0  0
 17 18  1  0  0  0
 17102  1  0  0  0
 18 19  2  0  0  0
 18103  1  0  0  0
 19 20  1  0  0  0
 19 24  1  0  0  0
 20 21  2  0  0  0
 20104  1  0  0  0
 21 23  1  0  0  0
 22 28  1  0  0  0
 22 32  2  0  0  0
 26 27  1  0  0  0
 28105  1  0  0  0
 28106  1  0  0  0
 29107  1  0  0  0
 29108  1  0  0  0
 33 34  1  0  0  0
 33 66  1  0  0  0
 33 70  2  0  0  0
 34 36  1  0  0  0
 34 59  1  0  0  0
 34109  1  0  0  0
 35 44  2  0  0  0
 35 45  1  0  0  0
 35 68  1  0  0  0
 36 56  1  0  0  0
 36110  1  0  0  0
 37 39  1  0  0  0
 37 47  1  0  0  0
 37 66  1  0  0  0
 37111  1  0  0  0
 38 43  2  0  0  0
 38 46  1  0  0  0
 38 47  1  0  0  0
 39 64  1  0  0  0
 39 67  2  0  0  0
 40 52  1  0  0  0
 40 53  2  0  0  0
 40 58  1  0  0  0
 41112  1  0  0  0
 41113  1  0  0  0
 41114  1  0  0  0
 41 48  1  0  0  0
 42 43  1  0  0  0
 42 66  1  0  0  0
 42115  1  0  0  0
 42116  1  0  0  0
 43 44  1  0  0  0
 44117  1  0  0  0
 45 46  2  0  0  0
 45118  1  0  0  0
 46119  1  0  0  0
 47120  1  0  0  0
 47121  1  0  0  0
 48 56  1  0  0  0
 48 65  1  0  0  0
 48122  1  0  0  0
 49 50  1  0  0  0
 49 53  1  0  0  0
 49 64  1  0  0  0
 49123  1  0  0  0
 50 51  1  0  0  0
 50124  1  0  0  0
 50125  1  0  0  0
 51 52  1  0  0  0
 51126  1  0  0  0
 51127  1  0  0  0
 52128  1  0  0  0
 52129  1  0  0  0
 53 54  1  0  0  0
 54 55  2  0  0  0
 54130  1  0  0  0
 55 57  1  0  0  0
 55131  1  0  0  0
 56 69  2  0  0  0
 57 58  2  0  0  0
 57132  1  0  0  0
 58133  1  0  0  0
 59 60  1  0  0  0
 59 61  1  0  0  0
 59 62  1  0  0  0
 60134  1  0  0  0
 60135  1  0  0  0
 60136  1  0  0  0
 61137  1  0  0  0
 61138  1  0  0  0
 61139  1  0  0  0
 62140  1  0  0  0
 62141  1  0  0  0
 62142  1  0  0  0
 63 65  1  0  0  0
 63143  1  0  0  0
 63144  1  0  0  0
 63145  1  0  0  0
 64146  1  0  0  0
 65147  1  0  0  0
 68 82  1  0  0  0
 71 73  2  0  0  0
 71 75  1  0  0  0
 71148  1  0  0  0
 72 74  1  0  0  0
 72 76  2  0  0  0
 72149  1  0  0  0
 73 76  1  0  0  0
 73 84  1  0  0  0
 74 75  2  0  0  0
 74 85  1  0  0  0
 75 87  1  0  0  0
 76 88  1  0  0  0
 77 78  2  0  0  0
 77 82  1  0  0  0
 77 86  1  0  0  0
 78 83  1  0  0  0
 78150  1  0  0  0
 79 80  1  0  0  0
 79 81  1  0  0  0
 79151  1  0  0  0
 79152  1  0  0  0
 80 82  1  0  0  0
 80153  1  0  0  0
 80154  1  0  0  0
 81 86  1  0  0  0
 81155  1  0  0  0
 81156  1  0  0  0
 82157  1  0  0  0
 83158  1  0  0  0
 83159  1  0  0  0
 83160  1  0  0  0
 84161  1  0  0  0
 84162  1  0  0  0
 84 86  1  0  0  0
 85163  1  0  0  0
 86164  1  0  0  0
M  CHG  1  86   1
M  ISO  4   1 100  68 101  82 101  85 100
M  END
> <chiral flag>
0

> <version>
0

> <s_m_source_file>
/data/baiqing/PycharmProjects/Reinvent-master-3.2/result/LINK_invent/BTK/process_docking_weight1_custom_product_contain_oxygen_bond_distance_aromatic_linkinvent_7_9_3/rearranged_h_0038.sdf

> <i_m_source_file_index>
10

> <r_mmod_Potential_Energy-OPLS-2005>
-49.881706237793

> <r_mmod_Stretch_Energy-OPLS-2005>
85.4752807617188

> <r_mmod_Bend_Energy-OPLS-2005>
177.536087036133

> <r_mmod_Torsional_Energy-OPLS-2005>
251.013885498047

> <r_mmod_Improper_Torsional_Energy-OPLS-2005>
5.10625171661377

> <r_mmod_Van_der_Waal_Energy-OPLS-2005>
144.44548034668

> <r_mmod_Electrostatic_Energy-OPLS-2005>
-312.929077148438

> <r_mmod_Solvation_Energy-OPLS-2005>
-444.316986083984

> <b_mmod_Minimization_Converged-OPLS-2005>
0

> <r_mmod_RMS_Derivative-OPLS-2005>
1.86901688575745

$$$$
10
                    3D
 Structure written by MMmdl.
167176  0  0  1  0            999 V2000
  -30.6017  -14.6482   20.5112 C   0  0  0  0  0  0
  -30.4375  -12.3996   19.4561 C   0  0  0  0  0  0
  -29.5083  -12.5164   18.2261 C   0  0  0  0  0  0
  -28.0307  -12.3497   18.6344 C   0  0  0  0  0  0
  -27.6525  -13.2160   19.8642 C   0  0  2  0  0  0
  -28.6931  -13.0594   20.9957 C   0  0  0  0  0  0
  -25.2559  -13.8171   20.5670 C   0  0  0  0  0  0
  -24.1816  -13.0446   20.9167 C   0  0  0  0  0  0
  -24.6378  -11.6914   20.8728 C   0  0  0  0  0  0
  -23.9043  -10.4298   21.0402 C   0  0  0  0  0  0
  -24.3591   -9.4220   21.9184 C   0  0  0  0  0  0
  -23.6270   -8.2255   22.0758 C   0  0  0  0  0  0
  -22.4256   -8.0293   21.3539 C   0  0  0  0  0  0
  -21.9881   -9.0266   20.4649 C   0  0  0  0  0  0
  -22.7211  -10.2141   20.3060 C   0  0  0  0  0  0
  -21.6852   -6.0732   22.5271 C   0  0  0  0  0  0
  -21.4022   -6.5633   23.8203 C   0  0  0  0  0  0
  -21.3656   -5.6781   24.9163 C   0  0  0  0  0  0
  -21.6042   -4.3046   24.7214 C   0  0  0  0  0  0
  -21.8822   -3.8141   23.4336 C   0  0  0  0  0  0
  -21.9189   -4.6957   22.3390 C   0  0  0  0  0  0
  -22.7848  -13.5265   21.1838 C   0  0  0  0  0  0
  -22.1664   -4.2143   21.0967 F   0  0  0  0  0  0
  -21.5610   -3.4536   25.7731 F   0  0  0  0  0  0
  -30.0109  -13.4130   20.4411 N   0  0  0  0  0  0
  -26.2975  -12.9345   20.3300 N   0  0  0  0  0  0
  -25.9304  -11.6503   20.5726 N   0  0  0  0  0  0
  -22.0460  -12.8295   22.0393 N   0  0  0  0  0  0
  -25.4301  -15.1890   20.4094 N   0  0  0  0  0  0
  -31.7572  -14.8297   20.1131 O   0  0  0  0  0  0
  -21.6636   -6.8888   21.4238 O   0  0  0  0  0  0
  -22.3561  -14.5577   20.6672 O   0  0  0  0  0  0
  -24.6247  -31.8589   23.2017 C   0  0  0  0  0  0
  -25.9093  -32.4776   23.8346 C   0  0  1  0  0  0
  -27.2367  -27.3330   20.1271 C   0  0  0  0  0  0
  -25.5906  -33.8574   24.2275 N   0  0  0  0  0  0
  -23.4199  -30.4786   21.5448 C   0  0  2  0  0  0
  -24.8692  -28.9261   20.1203 C   0  0  0  0  0  0
  -22.7470  -29.4604   22.4957 C   0  0  0  0  0  0
  -18.0283  -28.1388   22.8490 C   0  0  0  0  0  0
  -24.1481  -36.7283   23.2640 C   0  0  0  0  0  0
  -25.9578  -30.7948   21.3703 C   0  0  0  0  0  0
  -26.0354  -29.4196   20.7194 C   0  0  0  0  0  0
  -27.2243  -28.6355   20.7092 C   0  0  0  0  0  0
  -26.0498  -26.8789   19.5138 C   0  0  0  0  0  0
  -24.8760  -27.6603   19.5100 C   0  0  0  0  0  0
  -23.6362  -29.8066   20.1628 C   0  0  0  0  0  0
  -25.4101  -36.3073   24.0334 C   0  0  1  0  0  0
  -20.5887  -28.3681   23.1295 C   0  0  2  0  0  0
  -20.6775  -26.9406   22.5420 C   0  0  0  0  0  0
  -19.5747  -26.6382   21.5226 C   0  0  0  0  0  0
  -18.1922  -26.7929   22.1629 C   0  0  0  0  0  0
  -19.1536  -28.8853   23.2886 C   0  0  0  0  0  0
  -18.9460  -30.1454   23.8898 C   0  0  0  0  0  0
  -17.6461  -30.6590   24.0572 C   0  0  0  0  0  0
  -25.9036  -34.9446   23.5103 C   0  0  0  0  0  0
  -16.5349  -29.9090   23.6333 C   0  0  0  0  0  0
  -16.7273  -28.6507   23.0352 C   0  0  0  0  0  0
  -26.4490  -31.6592   25.0715 C   0  0  0  0  0  0
  -25.3732  -31.3736   26.1456 C   0  0  0  0  0  0
  -27.0333  -30.3018   24.6157 C   0  0  0  0  0  0
  -27.6052  -32.4333   25.7474 C   0  0  0  0  0  0
  -27.5571  -37.1785   24.8453 C   0  0  0  0  0  0
  -21.4183  -29.3028   22.3689 N   0  0  0  0  0  0
  -26.4275  -37.3770   23.9413 N   0  0  0  0  0  0
  -24.6860  -31.0607   22.0966 N   0  0  0  0  0  0
  -23.4190  -28.8146   23.3047 O   0  0  0  0  0  0
  -28.3770  -26.5252   20.1056 O   0  0  0  0  0  0
  -26.5616  -34.8915   22.4676 O   0  0  0  0  0  0
  -23.5412  -32.1381   23.7350 O   0  0  0  0  0  0
  -29.2265  -17.9101   21.7970 C   0  0  0  0  0  0
  -28.9163  -19.2958   21.6625 C   0  0  0  0  0  0
  -29.1467  -19.9998   20.4396 C   0  0  0  0  0  0
  -29.7491  -19.2233   19.3922 C   0  0  0  0  0  0
  -29.7549  -17.1172   20.7495 C   0  0  0  0  0  0
  -30.0158  -17.8114   19.5293 C   0  0  0  0  0  0
  -28.8195  -24.0228   19.6396 C   0  0  0  0  0  0
  -28.8554  -24.1730   18.3035 C   0  0  0  0  0  0
  -29.2672  -23.7488   22.5376 C   0  0  0  0  0  0
  -29.0417  -25.1529   21.9632 C   0  0  0  0  0  0
  -30.0959  -22.9072   21.5578 C   0  0  0  0  0  0
  -28.2984  -25.1382   20.6158 C   0  0  1  0  0  0
  -28.2624  -19.9753   22.8603 C   0  0  0  0  0  0
  -30.0497  -19.8817   18.0489 C   0  0  0  0  0  0
  -28.5521  -21.4604   20.1896 C   0  0  0  0  0  0
  -29.7979  -15.6640   20.9585 N   0  0  0  0  0  0
  -29.4025  -22.7184   20.2624 N   0  3  1  0  0  0
  -30.5324  -16.9217   18.1345 Cl  0  0  0  0  0  0
  -31.4787  -12.5279   19.1578 H   0  0  0  0  0  0
  -30.3711  -11.4021   19.8941 H   0  0  0  0  0  0
  -29.7760  -11.7666   17.4801 H   0  0  0  0  0  0
  -29.6505  -13.4878   17.7505 H   0  0  0  0  0  0
  -27.8678  -11.2956   18.8617 H   0  0  0  0  0  0
  -27.3793  -12.5835   17.7908 H   0  0  0  0  0  0
  -27.6744  -14.2525   19.5281 H   0  0  0  0  0  0
  -28.7046  -12.0316   21.3624 H   0  0  0  0  0  0
  -28.4260  -13.6728   21.8566 H   0  0  0  0  0  0
  -25.2719   -9.5699   22.4772 H   0  0  0  0  0  0
  -23.9968   -7.4654   22.7486 H   0  0  0  0  0  0
  -21.0800   -8.8793   19.8966 H   0  0  0  0  0  0
  -22.3662  -10.9683   19.6179 H   0  0  0  0  0  0
  -21.2033   -7.6143   23.9711 H   0  0  0  0  0  0
  -21.1465   -6.0506   25.9058 H   0  0  0  0  0  0
  -22.0596   -2.7604   23.2842 H   0  0  0  0  0  0
  -22.4031  -11.9953   22.4812 H   0  0  0  0  0  0
  -21.1085  -13.1384   22.2566 H   0  0  0  0  0  0
  -24.6662  -15.8470   20.5180 H   0  0  0  0  0  0
  -26.2831  -15.6234   20.0781 H   0  0  0  0  0  0
  -26.7158  -32.5452   23.1094 H   0  0  0  0  0  0
  -25.0050  -33.9720   25.0420 H   0  0  0  0  0  0
  -22.7132  -31.2977   21.3983 H   0  0  0  0  0  0
  -23.3738  -35.9619   23.3305 H   0  0  0  0  0  0
  -24.3578  -36.8900   22.2054 H   0  0  0  0  0  0
  -23.7243  -37.6490   23.6662 H   0  0  0  0  0  0
  -26.0842  -31.5568   20.6000 H   0  0  0  0  0  0
  -26.8393  -30.8482   21.9976 H   0  0  0  0  0  0
  -28.1258  -29.0125   21.1724 H   0  0  0  0  0  0
  -26.0296  -25.9112   19.0333 H   0  0  0  0  0  0
  -23.9829  -27.2777   19.0356 H   0  0  0  0  0  0
  -23.7545  -30.5792   19.4027 H   0  0  0  0  0  0
  -22.7580  -29.2337   19.8620 H   0  0  0  0  0  0
  -25.1279  -36.1918   25.0828 H   0  0  0  0  0  0
  -20.9971  -28.3259   24.1423 H   0  0  0  0  0  0
  -20.5689  -26.2284   23.3614 H   0  0  0  0  0  0
  -21.6643  -26.7446   22.1208 H   0  0  0  0  0  0
  -19.6907  -25.6295   21.1248 H   0  0  0  0  0  0
  -19.6680  -27.3203   20.6764 H   0  0  0  0  0  0
  -17.4194  -26.6684   21.4030 H   0  0  0  0  0  0
  -18.0308  -26.0071   22.9019 H   0  0  0  0  0  0
  -19.7934  -30.7280   24.2255 H   0  0  0  0  0  0
  -17.5014  -31.6268   24.5166 H   0  0  0  0  0  0
  -15.5352  -30.2998   23.7648 H   0  0  0  0  0  0
  -15.8669  -28.0834   22.7065 H   0  0  0  0  0  0
  -24.5891  -30.7101   25.7793 H   0  0  0  0  0  0
  -24.8952  -32.2912   26.4893 H   0  0  0  0  0  0
  -25.8069  -30.8902   27.0219 H   0  0  0  0  0  0
  -26.2902  -29.6770   24.1193 H   0  0  0  0  0  0
  -27.4054  -29.7273   25.4648 H   0  0  0  0  0  0
  -27.8758  -30.4310   23.9360 H   0  0  0  0  0  0
  -27.2659  -33.3628   26.2050 H   0  0  0  0  0  0
  -28.3853  -32.6900   25.0297 H   0  0  0  0  0  0
  -28.0730  -31.8470   26.5390 H   0  0  0  0  0  0
  -28.2571  -38.0099   24.7533 H   0  0  0  0  0  0
  -28.1085  -36.2636   24.6230 H   0  0  0  0  0  0
  -27.2300  -37.1378   25.8858 H   0  0  0  0  0  0
  -20.9355  -29.8737   21.6891 H   0  0  0  0  0  0
  -26.0150  -38.2833   24.1452 H   0  0  0  0  0  0
  -28.9918  -17.4200   22.7319 H   0  0  0  0  0  0
  -28.4857  -25.0785   17.8438 H   0  0  0  0  0  0
  -29.2409  -23.4100   17.6435 H   0  0  0  0  0  0
  -28.3157  -23.2644   22.7584 H   0  0  0  0  0  0
  -29.8010  -23.8300   23.4855 H   0  0  0  0  0  0
  -30.0082  -25.6442   21.8364 H   0  0  0  0  0  0
  -28.4874  -25.7615   22.6781 H   0  0  0  0  0  0
  -30.3801  -21.9496   21.9916 H   0  0  0  0  0  0
  -31.0380  -23.4200   21.3603 H   0  0  0  0  0  0
  -27.2598  -24.8745   20.8198 H   0  0  0  0  0  0
  -28.0597  -19.2636   23.6617 H   0  0  0  0  0  0
  -27.3041  -20.4228   22.5996 H   0  0  0  0  0  0
  -28.9068  -20.7445   23.2828 H   0  0  0  0  0  0
  -30.1654  -20.9604   18.1242 H   0  0  0  0  0  0
  -29.2541  -19.6721   17.3337 H   0  0  0  0  0  0
  -30.9855  -19.5133   17.6287 H   0  0  0  0  0  0
  -27.6897  -21.6256   20.8307 H   0  0  0  0  0  0
  -28.1094  -21.4391   19.1936 H   0  0  0  0  0  0
  -28.9942  -15.3089   21.4534 H   0  0  0  0  0  0
  -30.1768  -22.4711   19.6666 H   0  0  0  0  0  0
  1 25  1  0  0  0
  1 30  2  0  0  0
  1 86  1  0  0  0
  2  3  1  0  0  0
  2 25  1  0  0  0
  2 89  1  0  0  0
  2 90  1  0  0  0
  3  4  1  0  0  0
  3 91  1  0  0  0
  3 92  1  0  0  0
  4  5  1  0  0  0
  4 93  1  0  0  0
  4 94  1  0  0  0
  5  6  1  0  0  0
  5 26  1  0  0  0
  5 95  1  0  0  0
  6 25  1  0  0  0
  6 96  1  0  0  0
  6 97  1  0  0  0
  7  8  2  0  0  0
  7 26  1  0  0  0
  7 29  1  0  0  0
  8  9  1  0  0  0
  8 22  1  0  0  0
  9 10  1  0  0  0
  9 27  2  0  0  0
 10 11  2  0  0  0
 10 15  1  0  0  0
 11 12  1  0  0  0
 11 98  1  0  0  0
 12 13  2  0  0  0
 12 99  1  0  0  0
 13 14  1  0  0  0
 13 31  1  0  0  0
 14 15  2  0  0  0
 14100  1  0  0  0
 15101  1  0  0  0
 16 17  2  0  0  0
 16 21  1  0  0  0
 16 31  1  0  0  0
 17 18  1  0  0  0
 17102  1  0  0  0
 18 19  2  0  0  0
 18103  1  0  0  0
 19 20  1  0  0  0
 19 24  1  0  0  0
 20 21  2  0  0  0
 20104  1  0  0  0
 21 23  1  0  0  0
 22 28  1  0  0  0
 22 32  2  0  0  0
 26 27  1  0  0  0
 28105  1  0  0  0
 28106  1  0  0  0
 29107  1  0  0  0
 29108  1  0  0  0
 33 34  1  0  0  0
 33 66  1  0  0  0
 33 70  2  0  0  0
 34 36  1  0  0  0
 34 59  1  0  0  0
 34109  1  0  0  0
 35 44  2  0  0  0
 35 45  1  0  0  0
 35 68  1  0  0  0
 36 56  1  0  0  0
 36110  1  0  0  0
 37 39  1  0  0  0
 37 47  1  0  0  0
 37 66  1  0  0  0
 37111  1  0  0  0
 38 43  2  0  0  0
 38 46  1  0  0  0
 38 47  1  0  0  0
 39 64  1  0  0  0
 39 67  2  0  0  0
 40 52  1  0  0  0
 40 53  2  0  0  0
 40 58  1  0  0  0
 41112  1  0  0  0
 41113  1  0  0  0
 41114  1  0  0  0
 41 48  1  0  0  0
 42 43  1  0  0  0
 42 66  1  0  0  0
 42115  1  0  0  0
 42116  1  0  0  0
 43 44  1  0  0  0
 44117  1  0  0  0
 45 46  2  0  0  0
 45118  1  0  0  0
 46119  1  0  0  0
 47120  1  0  0  0
 47121  1  0  0  0
 48 56  1  0  0  0
 48 65  1  0  0  0
 48122  1  0  0  0
 49 50  1  0  0  0
 49 53  1  0  0  0
 49 64  1  0  0  0
 49123  1  0  0  0
 50 51  1  0  0  0
 50124  1  0  0  0
 50125  1  0  0  0
 51 52  1  0  0  0
 51126  1  0  0  0
 51127  1  0  0  0
 52128  1  0  0  0
 52129  1  0  0  0
 53 54  1  0  0  0
 54 55  2  0  0  0
 54130  1  0  0  0
 55 57  1  0  0  0
 55131  1  0  0  0
 56 69  2  0  0  0
 57 58  2  0  0  0
 57132  1  0  0  0
 58133  1  0  0  0
 59 60  1  0  0  0
 59 61  1  0  0  0
 59 62  1  0  0  0
 60134  1  0  0  0
 60135  1  0  0  0
 60136  1  0  0  0
 61137  1  0  0  0
 61138  1  0  0  0
 61139  1  0  0  0
 62140  1  0  0  0
 62141  1  0  0  0
 62142  1  0  0  0
 63 65  1  0  0  0
 63143  1  0  0  0
 63144  1  0  0  0
 63145  1  0  0  0
 64146  1  0  0  0
 65147  1  0  0  0
 68 82  1  0  0  0
 71 72  2  0  0  0
 71 75  1  0  0  0
 71148  1  0  0  0
 72 73  1  0  0  0
 72 83  1  0  0  0
 73 74  2  0  0  0
 73 85  1  0  0  0
 74 76  1  0  0  0
 74 84  1  0  0  0
 75 76  2  0  0  0
 75 86  1  0  0  0
 76 88  1  0  0  0
 77 78  2  0  0  0
 77 82  1  0  0  0
 77 87  1  0  0  0
 78149  1  0  0  0
 78150  1  0  0  0
 79 80  1  0  0  0
 79 81  1  0  0  0
 79151  1  0  0  0
 79152  1  0  0  0
 80 82  1  0  0  0
 80153  1  0  0  0
 80154  1  0  0  0
 81 87  1  0  0  0
 81155  1  0  0  0
 81156  1  0  0  0
 82157  1  0  0  0
 83158  1  0  0  0
 83159  1  0  0  0
 83160  1  0  0  0
 84161  1  0  0  0
 84162  1  0  0  0
 84163  1  0  0  0
 85164  1  0  0  0
 85165  1  0  0  0
 85 87  1  0  0  0
 86166  1  0  0  0
 87167  1  0  0  0
M  CHG  1  87   1
M  ISO  4   1 100  68 101  82 101  86 100
M  END
> <chiral flag>
0

> <version>
0

> <s_m_source_file>
/data/baiqing/PycharmProjects/Reinvent-master-3.2/result/LINK_invent/BTK/process_docking_weight1_custom_product_contain_oxygen_bond_distance_aromatic_linkinvent_7_9_3/rearranged_h_0038.sdf

> <i_m_source_file_index>
11

> <r_mmod_Potential_Energy-OPLS-2005>
-25.0401973724365

> <r_mmod_Stretch_Energy-OPLS-2005>
91.0617904663086

> <r_mmod_Bend_Energy-OPLS-2005>
161.524398803711

> <r_mmod_Torsional_Energy-OPLS-2005>
255.810272216797

> <r_mmod_Improper_Torsional_Energy-OPLS-2005>
5.43339490890503

> <r_mmod_Van_der_Waal_Energy-OPLS-2005>
139.957260131836

> <r_mmod_Electrostatic_Energy-OPLS-2005>
-279.697845458984

> <r_mmod_Solvation_Energy-OPLS-2005>
-443.74365234375

> <b_mmod_Minimization_Converged-OPLS-2005>
0

> <r_mmod_RMS_Derivative-OPLS-2005>
2.4006495475769

$$$$
11
                    3D
 Structure written by MMmdl.
167176  0  0  1  0            999 V2000
  -30.5971  -14.7593   20.5002 C   0  0  0  0  0  0
  -30.4419  -12.4735   19.4763 C   0  0  0  0  0  0
  -29.5087  -12.5045   18.2429 C   0  0  0  0  0  0
  -28.0362  -12.3161   18.6619 C   0  0  0  0  0  0
  -27.6376  -13.2297   19.8480 C   0  0  2  0  0  0
  -28.6814  -13.1683   20.9807 C   0  0  0  0  0  0
  -25.2510  -13.8219   20.5745 C   0  0  0  0  0  0
  -24.1786  -13.0471   20.9268 C   0  0  0  0  0  0
  -24.6382  -11.6948   20.8835 C   0  0  0  0  0  0
  -23.9064  -10.4315   21.0470 C   0  0  0  0  0  0
  -24.3618   -9.4222   21.9231 C   0  0  0  0  0  0
  -23.6307   -8.2245   22.0759 C   0  0  0  0  0  0
  -22.4272   -8.0306   21.3563 C   0  0  0  0  0  0
  -21.9924   -9.0288   20.4650 C   0  0  0  0  0  0
  -22.7261  -10.2170   20.3095 C   0  0  0  0  0  0
  -21.6857   -6.0749   22.5282 C   0  0  0  0  0  0
  -21.4008   -6.5636   23.8217 C   0  0  0  0  0  0
  -21.3646   -5.6788   24.9175 C   0  0  0  0  0  0
  -21.6048   -4.3053   24.7215 C   0  0  0  0  0  0
  -21.8812   -3.8148   23.4327 C   0  0  0  0  0  0
  -21.9180   -4.6977   22.3390 C   0  0  0  0  0  0
  -22.7801  -13.5252   21.1934 C   0  0  0  0  0  0
  -22.1665   -4.2161   21.0970 F   0  0  0  0  0  0
  -21.5626   -3.4525   25.7719 F   0  0  0  0  0  0
  -29.9797  -13.5325   20.4001 N   0  0  0  0  0  0
  -26.2895  -12.9408   20.3284 N   0  0  0  0  0  0
  -25.9298  -11.6575   20.5796 N   0  0  0  0  0  0
  -22.0425  -12.8226   22.0458 N   0  0  0  0  0  0
  -25.4246  -15.1950   20.4136 N   0  0  0  0  0  0
  -31.7923  -14.8652   20.2124 O   0  0  0  0  0  0
  -21.6635   -6.8906   21.4254 O   0  0  0  0  0  0
  -22.3473  -14.5550   20.6769 O   0  0  0  0  0  0
  -24.6307  -31.8539   23.1982 C   0  0  0  0  0  0
  -25.9138  -32.4747   23.8313 C   0  0  1  0  0  0
  -27.2206  -27.2515   20.1321 C   0  0  0  0  0  0
  -25.5944  -33.8548   24.2239 N   0  0  0  0  0  0
  -23.4268  -30.4772   21.5378 C   0  0  2  0  0  0
  -24.8738  -28.9233   20.1101 C   0  0  0  0  0  0
  -22.7490  -29.4589   22.4847 C   0  0  0  0  0  0
  -18.0301  -28.1409   22.8482 C   0  0  0  0  0  0
  -24.1473  -36.7237   23.2634 C   0  0  0  0  0  0
  -25.9722  -30.7666   21.3773 C   0  0  0  0  0  0
  -26.0433  -29.3862   20.7227 C   0  0  0  0  0  0
  -27.2123  -28.5598   20.7295 C   0  0  0  0  0  0
  -26.0292  -26.8709   19.4671 C   0  0  0  0  0  0
  -24.8724  -27.6729   19.4727 C   0  0  0  0  0  0
  -23.6484  -29.8121   20.1535 C   0  0  0  0  0  0
  -25.4107  -36.3052   24.0312 C   0  0  1  0  0  0
  -20.5907  -28.3696   23.1267 C   0  0  2  0  0  0
  -20.6772  -26.9409   22.5426 C   0  0  0  0  0  0
  -19.5752  -26.6406   21.5221 C   0  0  0  0  0  0
  -18.1929  -26.7956   22.1628 C   0  0  0  0  0  0
  -19.1553  -28.8863   23.2866 C   0  0  0  0  0  0
  -18.9478  -30.1470   23.8887 C   0  0  0  0  0  0
  -17.6473  -30.6597   24.0587 C   0  0  0  0  0  0
  -25.9059  -34.9440   23.5077 C   0  0  0  0  0  0
  -16.5361  -29.9110   23.6351 C   0  0  0  0  0  0
  -16.7288  -28.6543   23.0343 C   0  0  0  0  0  0
  -26.4533  -31.6568   25.0697 C   0  0  0  0  0  0
  -25.3756  -31.3742   26.1408 C   0  0  0  0  0  0
  -27.0378  -30.2975   24.6177 C   0  0  0  0  0  0
  -27.6075  -32.4301   25.7489 C   0  0  0  0  0  0
  -27.5558  -37.1774   24.8468 C   0  0  0  0  0  0
  -21.4192  -29.3040   22.3617 N   0  0  0  0  0  0
  -26.4270  -37.3746   23.9416 N   0  0  0  0  0  0
  -24.6955  -31.0506   22.0943 N   0  0  0  0  0  0
  -23.4194  -28.8113   23.2922 O   0  0  0  0  0  0
  -28.3327  -26.3775   20.2347 O   0  0  0  0  0  0
  -26.5611  -34.8919   22.4634 O   0  0  0  0  0  0
  -23.5467  -32.1327   23.7315 O   0  0  0  0  0  0
  -30.7213  -18.7015   23.0366 C   0  0  0  0  0  0
  -29.4193  -18.4690   20.5979 C   0  0  0  0  0  0
  -30.0914  -19.8412   22.4951 C   0  0  0  0  0  0
  -30.6770  -17.4340   22.4219 C   0  0  0  0  0  0
  -29.4388  -19.7905   21.2371 C   0  0  0  0  0  0
  -30.0205  -17.2626   21.1730 C   0  0  0  0  0  0
  -30.0916  -22.4602   19.1784 C   0  0  0  0  0  0
  -31.2156  -21.7462   18.9963 C   0  0  0  0  0  0
  -29.4016  -23.3383   18.1447 C   0  0  0  0  0  0
  -29.2078  -24.7935   18.6151 C   0  0  0  0  0  0
  -28.7932  -23.8028   20.9417 C   0  0  0  0  0  0
  -28.3220  -24.9099   19.8633 C   0  0  2  0  0  0
  -30.0516  -21.0894   23.3651 C   0  0  0  0  0  0
  -31.2420  -16.2677   23.2205 C   0  0  0  0  0  0
  -28.6350  -21.1018   20.7502 C   0  0  0  0  0  0
  -29.7838  -15.8813   20.6632 N   0  0  0  0  0  0
  -29.3719  -22.4333   20.4830 N   0  3  2  0  0  0
  -31.4746  -12.6299   19.1631 H   0  0  0  0  0  0
  -30.4230  -11.5022   19.9730 H   0  0  0  0  0  0
  -29.8013  -11.7404   17.5217 H   0  0  0  0  0  0
  -29.6237  -13.4641   17.7320 H   0  0  0  0  0  0
  -27.9082  -11.2730   18.9525 H   0  0  0  0  0  0
  -27.3705  -12.4793   17.8125 H   0  0  0  0  0  0
  -27.6301  -14.2444   19.4539 H   0  0  0  0  0  0
  -28.7289  -12.1696   21.4164 H   0  0  0  0  0  0
  -28.4000  -13.8504   21.7842 H   0  0  0  0  0  0
  -25.2788   -9.5645   22.4792 H   0  0  0  0  0  0
  -24.0016   -7.4593   22.7440 H   0  0  0  0  0  0
  -21.0864   -8.8827   19.8935 H   0  0  0  0  0  0
  -22.3787  -10.9713   19.6165 H   0  0  0  0  0  0
  -21.2034   -7.6144   23.9739 H   0  0  0  0  0  0
  -21.1481   -6.0497   25.9070 H   0  0  0  0  0  0
  -22.0617   -2.7615   23.2816 H   0  0  0  0  0  0
  -22.3997  -11.9837   22.4791 H   0  0  0  0  0  0
  -21.1061  -13.1264   22.2716 H   0  0  0  0  0  0
  -24.6719  -15.8631   20.5303 H   0  0  0  0  0  0
  -26.2760  -15.6229   20.0705 H   0  0  0  0  0  0
  -26.7193  -32.5409   23.1053 H   0  0  0  0  0  0
  -25.0209  -33.9697   25.0464 H   0  0  0  0  0  0
  -22.7235  -31.2994   21.3916 H   0  0  0  0  0  0
  -23.3749  -35.9557   23.3322 H   0  0  0  0  0  0
  -24.3577  -36.8841   22.2053 H   0  0  0  0  0  0
  -23.7235  -37.6447   23.6640 H   0  0  0  0  0  0
  -26.1067  -31.5225   20.6024 H   0  0  0  0  0  0
  -26.8512  -30.8176   22.0083 H   0  0  0  0  0  0
  -28.1033  -28.9057   21.2358 H   0  0  0  0  0  0
  -25.9445  -25.9369   18.9355 H   0  0  0  0  0  0
  -23.9774  -27.3133   18.9848 H   0  0  0  0  0  0
  -23.7807  -30.5871   19.3957 H   0  0  0  0  0  0
  -22.7664  -29.2496   19.8444 H   0  0  0  0  0  0
  -25.1309  -36.1864   25.0798 H   0  0  0  0  0  0
  -21.0008  -28.3285   24.1374 H   0  0  0  0  0  0
  -20.5645  -26.2308   23.3630 H   0  0  0  0  0  0
  -21.6642  -26.7429   22.1224 H   0  0  0  0  0  0
  -19.6889  -25.6319   21.1236 H   0  0  0  0  0  0
  -19.6688  -27.3222   20.6755 H   0  0  0  0  0  0
  -17.4196  -26.6706   21.4028 H   0  0  0  0  0  0
  -18.0310  -26.0123   22.9042 H   0  0  0  0  0  0
  -19.7956  -30.7303   24.2216 H   0  0  0  0  0  0
  -17.5048  -31.6282   24.5189 H   0  0  0  0  0  0
  -15.5366  -30.3017   23.7693 H   0  0  0  0  0  0
  -15.8694  -28.0898   22.7015 H   0  0  0  0  0  0
  -24.5951  -30.7060   25.7744 H   0  0  0  0  0  0
  -24.8949  -32.2945   26.4729 H   0  0  0  0  0  0
  -25.8087  -30.9017   27.0226 H   0  0  0  0  0  0
  -26.2983  -29.6730   24.1161 H   0  0  0  0  0  0
  -27.4012  -29.7218   25.4692 H   0  0  0  0  0  0
  -27.8865  -30.4241   23.9455 H   0  0  0  0  0  0
  -27.2667  -33.3591   26.2044 H   0  0  0  0  0  0
  -28.3929  -32.6845   25.0363 H   0  0  0  0  0  0
  -28.0669  -31.8434   26.5452 H   0  0  0  0  0  0
  -28.2568  -38.0070   24.7540 H   0  0  0  0  0  0
  -28.1055  -36.2622   24.6262 H   0  0  0  0  0  0
  -27.2290  -37.1381   25.8867 H   0  0  0  0  0  0
  -20.9320  -29.8799   21.6882 H   0  0  0  0  0  0
  -26.0135  -38.2784   24.1484 H   0  0  0  0  0  0
  -31.1838  -18.7772   24.0110 H   0  0  0  0  0  0
  -28.8662  -18.3647   19.6748 H   0  0  0  0  0  0
  -31.7331  -21.7574   18.0505 H   0  0  0  0  0  0
  -31.6350  -21.1295   19.7803 H   0  0  0  0  0  0
  -28.4387  -22.8925   17.8945 H   0  0  0  0  0  0
  -29.9849  -23.3283   17.2233 H   0  0  0  0  0  0
  -28.7516  -25.3702   17.8108 H   0  0  0  0  0  0
  -30.1778  -25.2558   18.8015 H   0  0  0  0  0  0
  -28.0144  -23.6535   21.6892 H   0  0  0  0  0  0
  -29.6157  -24.2717   21.4811 H   0  0  0  0  0  0
  -27.3235  -24.5895   19.5798 H   0  0  0  0  0  0
  -30.6329  -21.9011   22.9298 H   0  0  0  0  0  0
  -30.4646  -20.8926   24.3546 H   0  0  0  0  0  0
  -29.0259  -21.4294   23.5207 H   0  0  0  0  0  0
  -30.5208  -15.4522   23.2937 H   0  0  0  0  0  0
  -31.4670  -16.5668   24.2452 H   0  0  0  0  0  0
  -32.1583  -15.8911   22.7664 H   0  0  0  0  0  0
  -27.9119  -21.2999   21.5394 H   0  0  0  0  0  0
  -28.0118  -20.8580   19.8915 H   0  0  0  0  0  0
  -28.8055  -15.6694   20.5542 H   0  0  0  0  0  0
  -30.1030  -22.3460   21.1725 H   0  0  0  0  0  0
  1 25  1  0  0  0
  1 30  2  0  0  0
  1 86  1  0  0  0
  2  3  1  0  0  0
  2 25  1  0  0  0
  2 88  1  0  0  0
  2 89  1  0  0  0
  3  4  1  0  0  0
  3 90  1  0  0  0
  3 91  1  0  0  0
  4  5  1  0  0  0
  4 92  1  0  0  0
  4 93  1  0  0  0
  5  6  1  0  0  0
  5 26  1  0  0  0
  5 94  1  0  0  0
  6 25  1  0  0  0
  6 95  1  0  0  0
  6 96  1  0  0  0
  7  8  2  0  0  0
  7 26  1  0  0  0
  7 29  1  0  0  0
  8  9  1  0  0  0
  8 22  1  0  0  0
  9 10  1  0  0  0
  9 27  2  0  0  0
 10 11  2  0  0  0
 10 15  1  0  0  0
 11 12  1  0  0  0
 11 97  1  0  0  0
 12 13  2  0  0  0
 12 98  1  0  0  0
 13 14  1  0  0  0
 13 31  1  0  0  0
 14 15  2  0  0  0
 14 99  1  0  0  0
 15100  1  0  0  0
 16 17  2  0  0  0
 16 21  1  0  0  0
 16 31  1  0  0  0
 17 18  1  0  0  0
 17101  1  0  0  0
 18 19  2  0  0  0
 18102  1  0  0  0
 19 20  1  0  0  0
 19 24  1  0  0  0
 20 21  2  0  0  0
 20103  1  0  0  0
 21 23  1  0  0  0
 22 28  1  0  0  0
 22 32  2  0  0  0
 26 27  1  0  0  0
 28104  1  0  0  0
 28105  1  0  0  0
 29106  1  0  0  0
 29107  1  0  0  0
 33 34  1  0  0  0
 33 66  1  0  0  0
 33 70  2  0  0  0
 34 36  1  0  0  0
 34 59  1  0  0  0
 34108  1  0  0  0
 35 44  2  0  0  0
 35 45  1  0  0  0
 35 68  1  0  0  0
 36 56  1  0  0  0
 36109  1  0  0  0
 37 39  1  0  0  0
 37 47  1  0  0  0
 37 66  1  0  0  0
 37110  1  0  0  0
 38 43  2  0  0  0
 38 46  1  0  0  0
 38 47  1  0  0  0
 39 64  1  0  0  0
 39 67  2  0  0  0
 40 52  1  0  0  0
 40 53  2  0  0  0
 40 58  1  0  0  0
 41111  1  0  0  0
 41112  1  0  0  0
 41113  1  0  0  0
 41 48  1  0  0  0
 42 43  1  0  0  0
 42 66  1  0  0  0
 42114  1  0  0  0
 42115  1  0  0  0
 43 44  1  0  0  0
 44116  1  0  0  0
 45 46  2  0  0  0
 45117  1  0  0  0
 46118  1  0  0  0
 47119  1  0  0  0
 47120  1  0  0  0
 48 56  1  0  0  0
 48 65  1  0  0  0
 48121  1  0  0  0
 49 50  1  0  0  0
 49 53  1  0  0  0
 49 64  1  0  0  0
 49122  1  0  0  0
 50 51  1  0  0  0
 50123  1  0  0  0
 50124  1  0  0  0
 51 52  1  0  0  0
 51125  1  0  0  0
 51126  1  0  0  0
 52127  1  0  0  0
 52128  1  0  0  0
 53 54  1  0  0  0
 54 55  2  0  0  0
 54129  1  0  0  0
 55 57  1  0  0  0
 55130  1  0  0  0
 56 69  2  0  0  0
 57 58  2  0  0  0
 57131  1  0  0  0
 58132  1  0  0  0
 59 60  1  0  0  0
 59 61  1  0  0  0
 59 62  1  0  0  0
 60133  1  0  0  0
 60134  1  0  0  0
 60135  1  0  0  0
 61136  1  0  0  0
 61137  1  0  0  0
 61138  1  0  0  0
 62139  1  0  0  0
 62140  1  0  0  0
 62141  1  0  0  0
 63 65  1  0  0  0
 63142  1  0  0  0
 63143  1  0  0  0
 63144  1  0  0  0
 64145  1  0  0  0
 65146  1  0  0  0
 68 82  1  0  0  0
 71 73  2  0  0  0
 71 74  1  0  0  0
 71147  1  0  0  0
 72 75  2  0  0  0
 72 76  1  0  0  0
 72148  1  0  0  0
 73 75  1  0  0  0
 73 83  1  0  0  0
 74 76  2  0  0  0
 74 84  1  0  0  0
 75 85  1  0  0  0
 76 86  1  0  0  0
 77 78  2  0  0  0
 77 79  1  0  0  0
 77 87  1  0  0  0
 78149  1  0  0  0
 78150  1  0  0  0
 79 80  1  0  0  0
 79151  1  0  0  0
 79152  1  0  0  0
 80 82  1  0  0  0
 80153  1  0  0  0
 80154  1  0  0  0
 81 82  1  0  0  0
 81 87  1  0  0  0
 81155  1  0  0  0
 81156  1  0  0  0
 82157  1  0  0  0
 83158  1  0  0  0
 83159  1  0  0  0
 83160  1  0  0  0
 84161  1  0  0  0
 84162  1  0  0  0
 84163  1  0  0  0
 85164  1  0  0  0
 85165  1  0  0  0
 85 87  1  0  0  0
 86166  1  0  0  0
 87167  1  0  0  0
M  CHG  1  87   1
M  ISO  4   1 100  68 101  82 101  86 100
M  END
> <chiral flag>
0

> <version>
0

> <s_m_source_file>
/data/baiqing/PycharmProjects/Reinvent-master-3.2/result/LINK_invent/BTK/process_docking_weight1_custom_product_contain_oxygen_bond_distance_aromatic_linkinvent_7_9_3/rearranged_h_0038.sdf

> <i_m_source_file_index>
12

> <r_mmod_Potential_Energy-OPLS-2005>
128.30207824707

> <r_mmod_Stretch_Energy-OPLS-2005>
139.555053710938

> <r_mmod_Bend_Energy-OPLS-2005>
198.918991088867

> <r_mmod_Torsional_Energy-OPLS-2005>
261.464538574219

> <r_mmod_Improper_Torsional_Energy-OPLS-2005>
9.11826229095459

> <r_mmod_Van_der_Waal_Energy-OPLS-2005>
139.865707397461

> <r_mmod_Electrostatic_Energy-OPLS-2005>
-294.277587890625

> <r_mmod_Solvation_Energy-OPLS-2005>
-419.123992919922

> <b_mmod_Minimization_Converged-OPLS-2005>
0

> <r_mmod_RMS_Derivative-OPLS-2005>
4.97594308853149

$$$$
12
                    3D
 Structure written by MMmdl.
163172  0  0  1  0            999 V2000
  -30.6854  -14.6323   20.4872 C   0  0  0  0  0  0
  -30.4158  -12.3884   19.4673 C   0  0  0  0  0  0
  -29.5008  -12.4947   18.2299 C   0  0  0  0  0  0
  -28.0257  -12.3387   18.6426 C   0  0  0  0  0  0
  -27.6453  -13.2309   19.8552 C   0  0  2  0  0  0
  -28.6889  -13.1410   20.9912 C   0  0  0  0  0  0
  -25.2522  -13.8211   20.5695 C   0  0  0  0  0  0
  -24.1808  -13.0455   20.9201 C   0  0  0  0  0  0
  -24.6397  -11.6932   20.8749 C   0  0  0  0  0  0
  -23.9074  -10.4303   21.0410 C   0  0  0  0  0  0
  -24.3624   -9.4214   21.9185 C   0  0  0  0  0  0
  -23.6299   -8.2249   22.0757 C   0  0  0  0  0  0
  -22.4280   -8.0287   21.3547 C   0  0  0  0  0  0
  -21.9917   -9.0258   20.4647 C   0  0  0  0  0  0
  -22.7245  -10.2140   20.3058 C   0  0  0  0  0  0
  -21.6854   -6.0740   22.5276 C   0  0  0  0  0  0
  -21.4014   -6.5643   23.8210 C   0  0  0  0  0  0
  -21.3659   -5.6795   24.9172 C   0  0  0  0  0  0
  -21.6046   -4.3058   24.7222 C   0  0  0  0  0  0
  -21.8817   -3.8150   23.4343 C   0  0  0  0  0  0
  -21.9193   -4.6968   22.3400 C   0  0  0  0  0  0
  -22.7828  -13.5233   21.1858 C   0  0  0  0  0  0
  -22.1661   -4.2155   21.0978 F   0  0  0  0  0  0
  -21.5629   -3.4541   25.7735 F   0  0  0  0  0  0
  -30.0020  -13.4471   20.4131 N   0  0  0  0  0  0
  -26.2955  -12.9420   20.3304 N   0  0  0  0  0  0
  -25.9329  -11.6560   20.5766 N   0  0  0  0  0  0
  -22.0476  -12.8218   22.0416 N   0  0  0  0  0  0
  -25.4209  -15.1935   20.4098 N   0  0  0  0  0  0
  -31.8652  -14.6932   20.1345 O   0  0  0  0  0  0
  -21.6642   -6.8885   21.4241 O   0  0  0  0  0  0
  -22.3506  -14.5535   20.6708 O   0  0  0  0  0  0
  -24.6248  -31.8609   23.2059 C   0  0  0  0  0  0
  -25.9106  -32.4787   23.8371 C   0  0  1  0  0  0
  -27.2068  -27.3128   20.1294 C   0  0  0  0  0  0
  -25.5929  -33.8589   24.2296 N   0  0  0  0  0  0
  -23.4194  -30.4857   21.5483 C   0  0  2  0  0  0
  -24.8657  -28.9464   20.1114 C   0  0  0  0  0  0
  -22.7476  -29.4615   22.4937 C   0  0  0  0  0  0
  -18.0284  -28.1384   22.8481 C   0  0  0  0  0  0
  -24.1490  -36.7292   23.2640 C   0  0  0  0  0  0
  -25.9615  -30.7870   21.3841 C   0  0  0  0  0  0
  -26.0321  -29.4124   20.7327 C   0  0  0  0  0  0
  -27.2074  -28.6022   20.7438 C   0  0  0  0  0  0
  -26.0433  -26.9358   19.4283 C   0  0  0  0  0  0
  -24.8722  -27.7110   19.4498 C   0  0  0  0  0  0
  -23.6350  -29.8271   20.1609 C   0  0  0  0  0  0
  -25.4115  -36.3087   24.0333 C   0  0  1  0  0  0
  -20.5886  -28.3676   23.1286 C   0  0  2  0  0  0
  -20.6772  -26.9402   22.5411 C   0  0  0  0  0  0
  -19.5747  -26.6384   21.5213 C   0  0  0  0  0  0
  -18.1927  -26.7926   22.1624 C   0  0  0  0  0  0
  -19.1538  -28.8848   23.2874 C   0  0  0  0  0  0
  -18.9464  -30.1451   23.8890 C   0  0  0  0  0  0
  -17.6465  -30.6585   24.0559 C   0  0  0  0  0  0
  -25.9054  -34.9455   23.5114 C   0  0  0  0  0  0
  -16.5352  -29.9087   23.6333 C   0  0  0  0  0  0
  -16.7272  -28.6506   23.0347 C   0  0  0  0  0  0
  -26.4494  -31.6591   25.0738 C   0  0  0  0  0  0
  -25.3734  -31.3726   26.1469 C   0  0  0  0  0  0
  -27.0341  -30.3019   24.6193 C   0  0  0  0  0  0
  -27.6052  -32.4328   25.7509 C   0  0  0  0  0  0
  -27.5579  -37.1803   24.8469 C   0  0  0  0  0  0
  -21.4191  -29.3030   22.3682 N   0  0  0  0  0  0
  -26.4294  -37.3780   23.9411 N   0  0  0  0  0  0
  -24.6869  -31.0617   22.1020 N   0  0  0  0  0  0
  -23.4197  -28.8145   23.3012 O   0  0  0  0  0  0
  -28.2976  -26.4333   20.1333 O   0  0  0  0  0  0
  -26.5616  -34.8908   22.4677 O   0  0  0  0  0  0
  -23.5410  -32.1412   23.7381 O   0  0  0  0  0  0
  -30.0001  -20.9019   21.5441 C   0  0  0  0  0  0
  -28.3506  -20.3238   19.8873 C   0  0  0  0  0  0
  -29.9290  -18.5530   20.6995 C   0  0  0  0  0  0
  -28.9112  -21.3226   20.7470 C   0  0  0  0  0  0
  -30.4924  -19.5669   21.5337 C   0  0  0  0  0  0
  -28.8423  -18.9716   19.8794 C   0  0  0  0  0  0
  -27.0824  -22.9810   21.3203 C   0  0  0  0  0  0
  -26.1725  -22.2245   21.9696 C   0  0  0  0  0  0
  -26.8072  -24.4304   20.9618 C   0  0  0  0  0  0
  -29.0513  -23.8741   20.3955 C   0  0  0  0  0  0
  -28.1800  -25.1208   20.8351 C   0  0  1  0  0  0
  -27.2141  -20.6862   18.9373 C   0  0  0  0  0  0
  -26.3031  -20.7890   22.4409 C   0  0  0  0  0  0
  -30.6414  -17.1490   20.5258 C   0  0  0  0  0  0
  -28.3720  -22.6501   20.9052 N   0  0  0  0  0  0
  -30.0043  -15.7969   20.7405 N   0  0  0  0  0  0
  -31.8306  -19.2255   22.5761 Cl  0  0  0  0  0  0
  -28.1220  -17.8086   18.8151 Cl  0  0  0  0  0  0
  -31.4620  -12.4731   19.1683 H   0  0  0  0  0  0
  -30.3209  -11.4069   19.9348 H   0  0  0  0  0  0
  -29.7662  -11.7318   17.4967 H   0  0  0  0  0  0
  -29.6484  -13.4579   17.7389 H   0  0  0  0  0  0
  -27.8667  -11.2892   18.8935 H   0  0  0  0  0  0
  -27.3707  -12.5505   17.7967 H   0  0  0  0  0  0
  -27.6500  -14.2577   19.4886 H   0  0  0  0  0  0
  -28.6954  -12.1444   21.4346 H   0  0  0  0  0  0
  -28.4427  -13.8330   21.7980 H   0  0  0  0  0  0
  -25.2769   -9.5690   22.4761 H   0  0  0  0  0  0
  -24.0006   -7.4641   22.7478 H   0  0  0  0  0  0
  -21.0847   -8.8778   19.8951 H   0  0  0  0  0  0
  -22.3703  -10.9680   19.6169 H   0  0  0  0  0  0
  -21.2007   -7.6151   23.9715 H   0  0  0  0  0  0
  -21.1482   -6.0526   25.9077 H   0  0  0  0  0  0
  -22.0598   -2.7614   23.2840 H   0  0  0  0  0  0
  -22.4095  -11.9876   22.4795 H   0  0  0  0  0  0
  -21.1097  -13.1240   22.2629 H   0  0  0  0  0  0
  -24.6496  -15.8438   20.5131 H   0  0  0  0  0  0
  -26.2633  -15.6325   20.0612 H   0  0  0  0  0  0
  -26.7172  -32.5456   23.1112 H   0  0  0  0  0  0
  -25.0087  -33.9740   25.0448 H   0  0  0  0  0  0
  -22.7139  -31.3066   21.4077 H   0  0  0  0  0  0
  -23.3749  -35.9631   23.3318 H   0  0  0  0  0  0
  -24.3578  -36.8903   22.2052 H   0  0  0  0  0  0
  -23.7246  -37.6503   23.6649 H   0  0  0  0  0  0
  -26.0963  -31.5472   20.6131 H   0  0  0  0  0  0
  -26.8415  -30.8353   22.0135 H   0  0  0  0  0  0
  -28.0993  -28.9484   21.2466 H   0  0  0  0  0  0
  -26.0303  -26.0296   18.8442 H   0  0  0  0  0  0
  -23.9911  -27.3633   18.9286 H   0  0  0  0  0  0
  -23.7558  -30.6070   19.4081 H   0  0  0  0  0  0
  -22.7550  -29.2587   19.8559 H   0  0  0  0  0  0
  -25.1292  -36.1946   25.0826 H   0  0  0  0  0  0
  -20.9970  -28.3244   24.1409 H   0  0  0  0  0  0
  -20.5689  -26.2281   23.3603 H   0  0  0  0  0  0
  -21.6639  -26.7440   22.1196 H   0  0  0  0  0  0
  -19.6917  -25.6298   21.1236 H   0  0  0  0  0  0
  -19.6693  -27.3195   20.6745 H   0  0  0  0  0  0
  -17.4200  -26.6668   21.4022 H   0  0  0  0  0  0
  -18.0317  -26.0075   22.9027 H   0  0  0  0  0  0
  -19.7943  -30.7260   24.2257 H   0  0  0  0  0  0
  -17.5024  -31.6266   24.5156 H   0  0  0  0  0  0
  -15.5353  -30.2983   23.7667 H   0  0  0  0  0  0
  -15.8670  -28.0825   22.7063 H   0  0  0  0  0  0
  -24.5914  -30.7068   25.7802 H   0  0  0  0  0  0
  -24.8913  -32.2887   26.4888 H   0  0  0  0  0  0
  -25.8060  -30.8913   27.0249 H   0  0  0  0  0  0
  -26.2918  -29.6773   24.1215 H   0  0  0  0  0  0
  -27.4044  -29.7272   25.4691 H   0  0  0  0  0  0
  -27.8781  -30.4315   23.9418 H   0  0  0  0  0  0
  -27.2666  -33.3632   26.2076 H   0  0  0  0  0  0
  -28.3862  -32.6887   25.0339 H   0  0  0  0  0  0
  -28.0719  -31.8466   26.5435 H   0  0  0  0  0  0
  -28.2599  -38.0093   24.7504 H   0  0  0  0  0  0
  -28.1065  -36.2623   24.6309 H   0  0  0  0  0  0
  -27.2289  -37.1475   25.8869 H   0  0  0  0  0  0
  -20.9364  -29.8771   21.6910 H   0  0  0  0  0  0
  -26.0177  -38.2859   24.1405 H   0  0  0  0  0  0
  -30.4569  -21.6140   22.2155 H   0  0  0  0  0  0
  -25.2058  -22.6669   22.1718 H   0  0  0  0  0  0
  -26.1757  -24.9234   21.7028 H   0  0  0  0  0  0
  -26.2667  -24.3766   20.0224 H   0  0  0  0  0  0
  -30.0711  -23.9514   20.7734 H   0  0  0  0  0  0
  -29.1063  -23.8174   19.3080 H   0  0  0  0  0  0
  -28.4878  -25.3447   21.8574 H   0  0  0  0  0  0
  -26.2863  -20.2127   19.2576 H   0  0  0  0  0  0
  -27.4393  -20.3481   17.9263 H   0  0  0  0  0  0
  -27.0407  -21.7591   18.8709 H   0  0  0  0  0  0
  -27.3314  -20.5160   22.6696 H   0  0  0  0  0  0
  -25.9109  -20.1041   21.6894 H   0  0  0  0  0  0
  -25.7239  -20.6523   23.3543 H   0  0  0  0  0  0
  -31.5627  -17.1405   21.1047 H   0  0  0  0  0  0
  -30.9914  -17.1549   19.4920 H   0  0  0  0  0  0
  -29.0257  -15.7513   20.9784 H   0  0  0  0  0  0
  1 25  1  0  0  0
  1 30  2  0  0  0
  1 86  1  0  0  0
  2  3  1  0  0  0
  2 25  1  0  0  0
  2 89  1  0  0  0
  2 90  1  0  0  0
  3  4  1  0  0  0
  3 91  1  0  0  0
  3 92  1  0  0  0
  4  5  1  0  0  0
  4 93  1  0  0  0
  4 94  1  0  0  0
  5  6  1  0  0  0
  5 26  1  0  0  0
  5 95  1  0  0  0
  6 25  1  0  0  0
  6 96  1  0  0  0
  6 97  1  0  0  0
  7  8  2  0  0  0
  7 26  1  0  0  0
  7 29  1  0  0  0
  8  9  1  0  0  0
  8 22  1  0  0  0
  9 10  1  0  0  0
  9 27  2  0  0  0
 10 11  2  0  0  0
 10 15  1  0  0  0
 11 12  1  0  0  0
 11 98  1  0  0  0
 12 13  2  0  0  0
 12 99  1  0  0  0
 13 14  1  0  0  0
 13 31  1  0  0  0
 14 15  2  0  0  0
 14100  1  0  0  0
 15101  1  0  0  0
 16 17  2  0  0  0
 16 21  1  0  0  0
 16 31  1  0  0  0
 17 18  1  0  0  0
 17102  1  0  0  0
 18 19  2  0  0  0
 18103  1  0  0  0
 19 20  1  0  0  0
 19 24  1  0  0  0
 20 21  2  0  0  0
 20104  1  0  0  0
 21 23  1  0  0  0
 22 28  1  0  0  0
 22 32  2  0  0  0
 26 27  1  0  0  0
 28105  1  0  0  0
 28106  1  0  0  0
 29107  1  0  0  0
 29108  1  0  0  0
 33 34  1  0  0  0
 33 66  1  0  0  0
 33 70  2  0  0  0
 34 36  1  0  0  0
 34 59  1  0  0  0
 34109  1  0  0  0
 35 44  2  0  0  0
 35 45  1  0  0  0
 35 68  1  0  0  0
 36 56  1  0  0  0
 36110  1  0  0  0
 37 39  1  0  0  0
 37 47  1  0  0  0
 37 66  1  0  0  0
 37111  1  0  0  0
 38 43  2  0  0  0
 38 46  1  0  0  0
 38 47  1  0  0  0
 39 64  1  0  0  0
 39 67  2  0  0  0
 40 52  1  0  0  0
 40 53  2  0  0  0
 40 58  1  0  0  0
 41112  1  0  0  0
 41113  1  0  0  0
 41114  1  0  0  0
 41 48  1  0  0  0
 42 43  1  0  0  0
 42 66  1  0  0  0
 42115  1  0  0  0
 42116  1  0  0  0
 43 44  1  0  0  0
 44117  1  0  0  0
 45 46  2  0  0  0
 45118  1  0  0  0
 46119  1  0  0  0
 47120  1  0  0  0
 47121  1  0  0  0
 48 56  1  0  0  0
 48 65  1  0  0  0
 48122  1  0  0  0
 49 50  1  0  0  0
 49 53  1  0  0  0
 49 64  1  0  0  0
 49123  1  0  0  0
 50 51  1  0  0  0
 50124  1  0  0  0
 50125  1  0  0  0
 51 52  1  0  0  0
 51126  1  0  0  0
 51127  1  0  0  0
 52128  1  0  0  0
 52129  1  0  0  0
 53 54  1  0  0  0
 54 55  2  0  0  0
 54130  1  0  0  0
 55 57  1  0  0  0
 55131  1  0  0  0
 56 69  2  0  0  0
 57 58  2  0  0  0
 57132  1  0  0  0
 58133  1  0  0  0
 59 60  1  0  0  0
 59 61  1  0  0  0
 59 62  1  0  0  0
 60134  1  0  0  0
 60135  1  0  0  0
 60136  1  0  0  0
 61137  1  0  0  0
 61138  1  0  0  0
 61139  1  0  0  0
 62140  1  0  0  0
 62141  1  0  0  0
 62142  1  0  0  0
 63 65  1  0  0  0
 63143  1  0  0  0
 63144  1  0  0  0
 63145  1  0  0  0
 64146  1  0  0  0
 65147  1  0  0  0
 68 81  1  0  0  0
 71 74  2  0  0  0
 71 75  1  0  0  0
 71148  1  0  0  0
 72 74  1  0  0  0
 72 76  2  0  0  0
 72 82  1  0  0  0
 73 75  2  0  0  0
 73 76  1  0  0  0
 73 84  1  0  0  0
 74 85  1  0  0  0
 75 87  1  0  0  0
 76 88  1  0  0  0
 77 78  2  0  0  0
 77 79  1  0  0  0
 77 85  1  0  0  0
 78 83  1  0  0  0
 78149  1  0  0  0
 79 81  1  0  0  0
 79150  1  0  0  0
 79151  1  0  0  0
 80 81  1  0  0  0
 80 85  1  0  0  0
 80152  1  0  0  0
 80153  1  0  0  0
 81154  1  0  0  0
 82155  1  0  0  0
 82156  1  0  0  0
 82157  1  0  0  0
 83158  1  0  0  0
 83159  1  0  0  0
 83160  1  0  0  0
 84 86  1  0  0  0
 84161  1  0  0  0
 84162  1  0  0  0
 86163  1  0  0  0
M  ISO  4   1 100  68 101  81 101  86 100
M  END
> <chiral flag>
0

> <version>
0

> <s_m_source_file>
/data/baiqing/PycharmProjects/Reinvent-master-3.2/result/LINK_invent/BTK/process_docking_weight1_custom_product_contain_oxygen_bond_distance_aromatic_linkinvent_7_9_3/rearranged_h_0038.sdf

> <i_m_source_file_index>
13

> <r_mmod_Potential_Energy-OPLS-2005>
147.158813476562

> <r_mmod_Stretch_Energy-OPLS-2005>
82.1816329956055

> <r_mmod_Bend_Energy-OPLS-2005>
200.473190307617

> <r_mmod_Torsional_Energy-OPLS-2005>
278.719329833984

> <r_mmod_Improper_Torsional_Energy-OPLS-2005>
6.80997657775879

> <r_mmod_Van_der_Waal_Energy-OPLS-2005>
145.2998046875

> <r_mmod_Electrostatic_Energy-OPLS-2005>
-425.824829101562

> <r_mmod_Solvation_Energy-OPLS-2005>
-194.494659423828

> <b_mmod_Minimization_Converged-OPLS-2005>
0

> <r_mmod_RMS_Derivative-OPLS-2005>
0.913441717624664

$$$$
13
                    3D
 Structure written by MMmdl.
180189  0  0  1  0            999 V2000
  -30.6966  -14.4643   20.6369 C   0  0  0  0  0  0
  -30.4294  -12.3239   19.4274 C   0  0  0  0  0  0
  -29.4987  -12.5241   18.2125 C   0  0  0  0  0  0
  -28.0209  -12.3697   18.6247 C   0  0  0  0  0  0
  -27.6651  -13.2049   19.8823 C   0  0  2  0  0  0
  -28.6988  -12.9685   21.0056 C   0  0  0  0  0  0
  -25.2595  -13.8160   20.5690 C   0  0  0  0  0  0
  -24.1836  -13.0443   20.9184 C   0  0  0  0  0  0
  -24.6386  -11.6914   20.8730 C   0  0  0  0  0  0
  -23.9044  -10.4301   21.0407 C   0  0  0  0  0  0
  -24.3607   -9.4222   21.9176 C   0  0  0  0  0  0
  -23.6304   -8.2236   22.0736 C   0  0  0  0  0  0
  -22.4277   -8.0278   21.3543 C   0  0  0  0  0  0
  -21.9903   -9.0241   20.4629 C   0  0  0  0  0  0
  -22.7219  -10.2131   20.3052 C   0  0  0  0  0  0
  -21.6839   -6.0746   22.5292 C   0  0  0  0  0  0
  -21.4000   -6.5646   23.8235 C   0  0  0  0  0  0
  -21.3663   -5.6793   24.9189 C   0  0  0  0  0  0
  -21.6053   -4.3052   24.7230 C   0  0  0  0  0  0
  -21.8821   -3.8155   23.4342 C   0  0  0  0  0  0
  -21.9180   -4.6974   22.3409 C   0  0  0  0  0  0
  -22.7861  -13.5229   21.1873 C   0  0  0  0  0  0
  -22.1654   -4.2165   21.0988 F   0  0  0  0  0  0
  -21.5638   -3.4543   25.7738 F   0  0  0  0  0  0
  -30.0394  -13.2810   20.4758 N   0  0  0  0  0  0
  -26.3026  -12.9332   20.3387 N   0  0  0  0  0  0
  -25.9316  -11.6484   20.5761 N   0  0  0  0  0  0
  -22.0484  -12.8223   22.0431 N   0  0  0  0  0  0
  -25.4314  -15.1879   20.4118 N   0  0  0  0  0  0
  -31.7511  -14.7304   20.0518 O   0  0  0  0  0  0
  -21.6633   -6.8880   21.4251 O   0  0  0  0  0  0
  -22.3537  -14.5526   20.6715 O   0  0  0  0  0  0
  -24.6117  -31.8708   23.2127 C   0  0  0  0  0  0
  -25.9022  -32.4838   23.8411 C   0  0  1  0  0  0
  -27.2195  -27.4449   20.0946 C   0  0  0  0  0  0
  -25.5889  -33.8633   24.2345 N   0  0  0  0  0  0
  -23.3985  -30.4966   21.5535 C   0  0  2  0  0  0
  -24.8408  -28.9622   20.1184 C   0  0  0  0  0  0
  -22.7388  -29.4692   22.5013 C   0  0  0  0  0  0
  -18.0272  -28.1379   22.8515 C   0  0  0  0  0  0
  -24.1482  -36.7313   23.2644 C   0  0  0  0  0  0
  -25.9269  -30.8381   21.3651 C   0  0  0  0  0  0
  -26.0015  -29.4725   20.7140 C   0  0  0  0  0  0
  -27.1982  -28.7205   20.6995 C   0  0  0  0  0  0
  -26.0494  -26.9506   19.4870 C   0  0  0  0  0  0
  -24.8587  -27.6969   19.5042 C   0  0  0  0  0  0
  -23.6043  -29.8288   20.1681 C   0  0  0  0  0  0
  -25.4104  -36.3121   24.0351 C   0  0  1  0  0  0
  -20.5859  -28.3663   23.1338 C   0  0  2  0  0  0
  -20.6756  -26.9402   22.5434 C   0  0  0  0  0  0
  -19.5727  -26.6389   21.5232 C   0  0  0  0  0  0
  -18.1905  -26.7933   22.1636 C   0  0  0  0  0  0
  -19.1520  -28.8834   23.2923 C   0  0  0  0  0  0
  -18.9448  -30.1453   23.8923 C   0  0  0  0  0  0
  -17.6453  -30.6592   24.0578 C   0  0  0  0  0  0
  -25.9036  -34.9492   23.5143 C   0  0  0  0  0  0
  -16.5345  -29.9096   23.6341 C   0  0  0  0  0  0
  -16.7261  -28.6512   23.0360 C   0  0  0  0  0  0
  -26.4458  -31.6614   25.0727 C   0  0  0  0  0  0
  -25.3741  -31.3743   26.1495 C   0  0  0  0  0  0
  -27.0272  -30.3053   24.6096 C   0  0  0  0  0  0
  -27.6054  -32.4332   25.7454 C   0  0  0  0  0  0
  -27.5589  -37.1801   24.8464 C   0  0  0  0  0  0
  -21.4124  -29.3039   22.3745 N   0  0  0  0  0  0
  -26.4289  -37.3804   23.9422 N   0  0  0  0  0  0
  -24.6643  -31.0823   22.1021 N   0  0  0  0  0  0
  -23.4176  -28.8248   23.3053 O   0  0  0  0  0  0
  -28.3761  -26.7049   20.0515 O   0  0  0  0  0  0
  -26.5597  -34.8938   22.4707 O   0  0  0  0  0  0
  -23.5323  -32.1467   23.7528 O   0  0  0  0  0  0
  -30.9482  -19.4924   21.9319 C   0  0  0  0  0  0
  -30.4128  -17.6115   20.4935 C   0  0  0  0  0  0
  -30.7237  -18.9934   20.6280 C   0  0  0  0  0  0
  -30.8621  -18.6532   23.0620 C   0  0  0  0  0  0
  -30.3978  -16.7372   21.6109 C   0  0  0  0  0  0
  -30.5963  -17.2719   22.9045 C   0  0  0  0  0  0
  -28.1788  -24.2197   20.1456 C   0  0  0  0  0  0
  -26.9382  -23.6966   20.0388 C   0  0  0  0  0  0
  -29.5416  -22.1834   20.0307 C   0  0  0  0  0  0
  -30.9781  -25.9705   20.8593 C   0  0  0  0  0  0
  -31.4345  -24.8814   19.8763 C   0  0  0  0  0  0
  -29.7382  -25.6046   21.6989 C   0  0  0  0  0  0
  -30.3106  -24.3342   18.9782 C   0  0  0  0  0  0
  -28.4202  -25.5456   20.8980 C   0  0  1  0  0  0
  -31.0588  -19.2591   24.4407 C   0  0  0  0  0  0
  -33.2539  -17.8313   17.1723 C   0  0  0  0  0  0
  -30.8604  -21.4646   19.6377 C   0  0  0  0  0  0
  -32.0353  -19.5539   18.4810 C   0  0  0  0  0  0
  -30.8097  -19.9106   19.3772 C   0  0  1  0  0  0
  -29.3339  -23.5105   19.7162 N   0  0  0  0  0  0
  -30.1015  -15.3479   21.4605 N   0  0  0  0  0  0
  -32.1028  -18.1433   18.0418 N   0  3  0  0  0  0
  -28.7234  -21.5187   20.6763 O   0  0  0  0  0  0
  -30.5172  -16.2298   24.2870 Cl  0  0  0  0  0  0
  -31.4725  -12.4414   19.1266 H   0  0  0  0  0  0
  -30.3427  -11.3051   19.8071 H   0  0  0  0  0  0
  -29.7506  -11.8085   17.4281 H   0  0  0  0  0  0
  -29.6570  -13.5166   17.7856 H   0  0  0  0  0  0
  -27.8414  -11.3131   18.8257 H   0  0  0  0  0  0
  -27.3628  -12.6392   17.7966 H   0  0  0  0  0  0
  -27.7183  -14.2553   19.5950 H   0  0  0  0  0  0
  -28.6721  -11.9294   21.3343 H   0  0  0  0  0  0
  -28.4357  -13.5510   21.8890 H   0  0  0  0  0  0
  -25.2748   -9.5703   22.4750 H   0  0  0  0  0  0
  -24.0033   -7.4614   22.7452 H   0  0  0  0  0  0
  -21.0826   -8.8738   19.8935 H   0  0  0  0  0  0
  -22.3660  -10.9664   19.6159 H   0  0  0  0  0  0
  -21.1981   -7.6148   23.9749 H   0  0  0  0  0  0
  -21.1491   -6.0511   25.9101 H   0  0  0  0  0  0
  -22.0588   -2.7616   23.2832 H   0  0  0  0  0  0
  -22.4055  -11.9878   22.4834 H   0  0  0  0  0  0
  -21.1098  -13.1265   22.2624 H   0  0  0  0  0  0
  -24.6678  -15.8436   20.5374 H   0  0  0  0  0  0
  -26.2934  -15.6318   20.1209 H   0  0  0  0  0  0
  -26.7085  -32.5557   23.1173 H   0  0  0  0  0  0
  -25.0011  -33.9793   25.0469 H   0  0  0  0  0  0
  -22.6880  -31.3145   21.4178 H   0  0  0  0  0  0
  -23.3749  -35.9638   23.3308 H   0  0  0  0  0  0
  -24.3585  -36.8920   22.2059 H   0  0  0  0  0  0
  -23.7216  -37.6516   23.6647 H   0  0  0  0  0  0
  -26.0393  -31.6053   20.5974 H   0  0  0  0  0  0
  -26.8152  -30.8890   21.9834 H   0  0  0  0  0  0
  -28.0978  -29.1135   21.1526 H   0  0  0  0  0  0
  -26.0613  -25.9965   18.9819 H   0  0  0  0  0  0
  -23.9678  -27.3018   19.0343 H   0  0  0  0  0  0
  -23.7111  -30.6043   19.4087 H   0  0  0  0  0  0
  -22.7268  -29.2495   19.8738 H   0  0  0  0  0  0
  -25.1277  -36.1996   25.0843 H   0  0  0  0  0  0
  -20.9968  -28.3214   24.1449 H   0  0  0  0  0  0
  -20.5665  -26.2266   23.3612 H   0  0  0  0  0  0
  -21.6622  -26.7442   22.1214 H   0  0  0  0  0  0
  -19.6879  -25.6304   21.1239 H   0  0  0  0  0  0
  -19.6672  -27.3221   20.6779 H   0  0  0  0  0  0
  -17.4192  -26.6730   21.4015 H   0  0  0  0  0  0
  -18.0277  -26.0061   22.9007 H   0  0  0  0  0  0
  -19.7932  -30.7265   24.2283 H   0  0  0  0  0  0
  -17.5016  -31.6274   24.5173 H   0  0  0  0  0  0
  -15.5347  -30.3003   23.7651 H   0  0  0  0  0  0
  -15.8662  -28.0841   22.7045 H   0  0  0  0  0  0
  -24.5821  -30.7203   25.7826 H   0  0  0  0  0  0
  -24.9043  -32.2923   26.5044 H   0  0  0  0  0  0
  -25.8081  -30.8801   27.0196 H   0  0  0  0  0  0
  -26.2798  -29.6811   24.1180 H   0  0  0  0  0  0
  -27.4072  -29.7295   25.4547 H   0  0  0  0  0  0
  -27.8630  -30.4369   23.9217 H   0  0  0  0  0  0
  -27.2684  -33.3616   26.2082 H   0  0  0  0  0  0
  -28.3810  -32.6928   25.0233 H   0  0  0  0  0  0
  -28.0784  -31.8433   26.5319 H   0  0  0  0  0  0
  -28.2611  -38.0095   24.7524 H   0  0  0  0  0  0
  -28.1079  -36.2635   24.6265 H   0  0  0  0  0  0
  -27.2320  -37.1422   25.8869 H   0  0  0  0  0  0
  -20.9271  -29.8766   21.6980 H   0  0  0  0  0  0
  -26.0192  -38.2887   24.1423 H   0  0  0  0  0  0
  -31.1693  -20.5354   22.0939 H   0  0  0  0  0  0
  -30.1767  -17.1977   19.5241 H   0  0  0  0  0  0
  -26.0761  -24.2099   20.4394 H   0  0  0  0  0  0
  -26.7552  -22.7508   19.5494 H   0  0  0  0  0  0
  -30.7970  -26.9019   20.3200 H   0  0  0  0  0  0
  -31.8043  -26.1945   21.5338 H   0  0  0  0  0  0
  -31.9126  -24.0707   20.4243 H   0  0  0  0  0  0
  -32.2155  -25.3050   19.2419 H   0  0  0  0  0  0
  -29.6225  -26.3698   22.4669 H   0  0  0  0  0  0
  -29.8997  -24.6726   22.2421 H   0  0  0  0  0  0
  -30.7230  -23.8073   18.1218 H   0  0  0  0  0  0
  -29.7952  -25.1714   18.5036 H   0  0  0  0  0  0
  -27.6282  -25.6107   21.6480 H   0  0  0  0  0  0
  -30.9935  -20.3483   24.4120 H   0  0  0  0  0  0
  -32.0348  -18.9892   24.8446 H   0  0  0  0  0  0
  -30.2891  -18.9028   25.1252 H   0  0  0  0  0  0
  -33.3041  -16.7581   16.9851 H   0  0  0  0  0  0
  -34.1929  -18.1340   17.6377 H   0  0  0  0  0  0
  -33.1671  -18.3354   16.2085 H   0  0  0  0  0  0
  -31.6310  -21.7156   20.3661 H   0  0  0  0  0  0
  -31.2143  -21.9079   18.7143 H   0  0  0  0  0  0
  -32.9560  -19.7932   19.0142 H   0  0  0  0  0  0
  -32.0261  -20.1729   17.5825 H   0  0  0  0  0  0
  -29.9073  -19.7175   18.7930 H   0  0  0  0  0  0
  -29.3852  -14.9743   22.0645 H   0  0  0  0  0  0
  -32.1673  -17.5560   18.8598 H   0  0  0  0  0  0
  -31.2607  -17.9052   17.5422 H   0  0  0  0  0  0
  1 25  1  0  0  0
  1 30  2  0  0  0
  1 91  1  0  0  0
  2  3  1  0  0  0
  2 25  1  0  0  0
  2 95  1  0  0  0
  2 96  1  0  0  0
  3  4  1  0  0  0
  3 97  1  0  0  0
  3 98  1  0  0  0
  4  5  1  0  0  0
  4 99  1  0  0  0
  4100  1  0  0  0
  5  6  1  0  0  0
  5 26  1  0  0  0
  5101  1  0  0  0
  6 25  1  0  0  0
  6102  1  0  0  0
  6103  1  0  0  0
  7  8  2  0  0  0
  7 26  1  0  0  0
  7 29  1  0  0  0
  8  9  1  0  0  0
  8 22  1  0  0  0
  9 10  1  0  0  0
  9 27  2  0  0  0
 10 11  2  0  0  0
 10 15  1  0  0  0
 11 12  1  0  0  0
 11104  1  0  0  0
 12 13  2  0  0  0
 12105  1  0  0  0
 13 14  1  0  0  0
 13 31  1  0  0  0
 14 15  2  0  0  0
 14106  1  0  0  0
 15107  1  0  0  0
 16 17  2  0  0  0
 16 21  1  0  0  0
 16 31  1  0  0  0
 17 18  1  0  0  0
 17108  1  0  0  0
 18 19  2  0  0  0
 18109  1  0  0  0
 19 20  1  0  0  0
 19 24  1  0  0  0
 20 21  2  0  0  0
 20110  1  0  0  0
 21 23  1  0  0  0
 22 28  1  0  0  0
 22 32  2  0  0  0
 26 27  1  0  0  0
 28111  1  0  0  0
 28112  1  0  0  0
 29113  1  0  0  0
 29114  1  0  0  0
 33 34  1  0  0  0
 33 66  1  0  0  0
 33 70  2  0  0  0
 34 36  1  0  0  0
 34 59  1  0  0  0
 34115  1  0  0  0
 35 44  2  0  0  0
 35 45  1  0  0  0
 35 68  1  0  0  0
 36 56  1  0  0  0
 36116  1  0  0  0
 37 39  1  0  0  0
 37 47  1  0  0  0
 37 66  1  0  0  0
 37117  1  0  0  0
 38 43  2  0  0  0
 38 46  1  0  0  0
 38 47  1  0  0  0
 39 64  1  0  0  0
 39 67  2  0  0  0
 40 52  1  0  0  0
 40 53  2  0  0  0
 40 58  1  0  0  0
 41118  1  0  0  0
 41119  1  0  0  0
 41120  1  0  0  0
 41 48  1  0  0  0
 42 43  1  0  0  0
 42 66  1  0  0  0
 42121  1  0  0  0
 42122  1  0  0  0
 43 44  1  0  0  0
 44123  1  0  0  0
 45 46  2  0  0  0
 45124  1  0  0  0
 46125  1  0  0  0
 47126  1  0  0  0
 47127  1  0  0  0
 48 56  1  0  0  0
 48 65  1  0  0  0
 48128  1  0  0  0
 49 50  1  0  0  0
 49 53  1  0  0  0
 49 64  1  0  0  0
 49129  1  0  0  0
 50 51  1  0  0  0
 50130  1  0  0  0
 50131  1  0  0  0
 51 52  1  0  0  0
 51132  1  0  0  0
 51133  1  0  0  0
 52134  1  0  0  0
 52135  1  0  0  0
 53 54  1  0  0  0
 54 55  2  0  0  0
 54136  1  0  0  0
 55 57  1  0  0  0
 55137  1  0  0  0
 56 69  2  0  0  0
 57 58  2  0  0  0
 57138  1  0  0  0
 58139  1  0  0  0
 59 60  1  0  0  0
 59 61  1  0  0  0
 59 62  1  0  0  0
 60140  1  0  0  0
 60141  1  0  0  0
 60142  1  0  0  0
 61143  1  0  0  0
 61144  1  0  0  0
 61145  1  0  0  0
 62146  1  0  0  0
 62147  1  0  0  0
 62148  1  0  0  0
 63 65  1  0  0  0
 63149  1  0  0  0
 63150  1  0  0  0
 63151  1  0  0  0
 64152  1  0  0  0
 65153  1  0  0  0
 68 84  1  0  0  0
 71 73  2  0  0  0
 71 74  1  0  0  0
 71154  1  0  0  0
 72 73  1  0  0  0
 72 75  2  0  0  0
 72155  1  0  0  0
 73 89  1  0  0  0
 74 76  2  0  0  0
 74 85  1  0  0  0
 75 76  1  0  0  0
 75 91  1  0  0  0
 76 94  1  0  0  0
 77 78  2  0  0  0
 77 84  1  0  0  0
 77 90  1  0  0  0
 78156  1  0  0  0
 78157  1  0  0  0
 79 87  1  0  0  0
 79 90  1  0  0  0
 79 93  2  0  0  0
 80 81  1  0  0  0
 80 82  1  0  0  0
 80158  1  0  0  0
 80159  1  0  0  0
 81 83  1  0  0  0
 81160  1  0  0  0
 81161  1  0  0  0
 82 84  1  0  0  0
 82162  1  0  0  0
 82163  1  0  0  0
 83 90  1  0  0  0
 83164  1  0  0  0
 83165  1  0  0  0
 84166  1  0  0  0
 85167  1  0  0  0
 85168  1  0  0  0
 85169  1  0  0  0
 86 92  1  0  0  0
 86170  1  0  0  0
 86171  1  0  0  0
 86172  1  0  0  0
 87173  1  0  0  0
 87174  1  0  0  0
 87 89  1  0  0  0
 88 89  1  0  0  0
 88 92  1  0  0  0
 88175  1  0  0  0
 88176  1  0  0  0
 89177  1  0  0  0
 91178  1  0  0  0
 92179  1  0  0  0
 92180  1  0  0  0
M  CHG  1  92   1
M  ISO  4   1 100  68 101  84 101  91 100
M  END
> <chiral flag>
0

> <version>
0

> <s_m_source_file>
/data/baiqing/PycharmProjects/Reinvent-master-3.2/result/LINK_invent/BTK/process_docking_weight1_custom_product_contain_oxygen_bond_distance_aromatic_linkinvent_7_9_3/rearranged_h_0038.sdf

> <i_m_source_file_index>
14

> <r_mmod_Potential_Energy-OPLS-2005>
-129.592422485352

> <r_mmod_Stretch_Energy-OPLS-2005>
52.06884765625

> <r_mmod_Bend_Energy-OPLS-2005>
116.726531982422

> <r_mmod_Torsional_Energy-OPLS-2005>
307.419738769531

> <r_mmod_Improper_Torsional_Energy-OPLS-2005>
2.57345914840698

> <r_mmod_Van_der_Waal_Energy-OPLS-2005>
174.366287231445

> <r_mmod_Electrostatic_Energy-OPLS-2005>
-343.538726806641

> <r_mmod_Solvation_Energy-OPLS-2005>
-450.021392822266

> <b_mmod_Minimization_Converged-OPLS-2005>
0

> <r_mmod_RMS_Derivative-OPLS-2005>
2.79540252685547

$$$$
14
                    3D
 Structure written by MMmdl.
166175  0  0  1  0            999 V2000
  -30.7321  -14.4827   20.6015 C   0  0  0  0  0  0
  -30.4213  -12.3276   19.4381 C   0  0  0  0  0  0
  -29.4943  -12.4752   18.2179 C   0  0  0  0  0  0
  -28.0176  -12.3344   18.6332 C   0  0  0  0  0  0
  -27.6539  -13.2039   19.8642 C   0  0  2  0  0  0
  -28.6914  -13.0307   20.9942 C   0  0  0  0  0  0
  -25.2540  -13.8160   20.5683 C   0  0  0  0  0  0
  -24.1781  -13.0467   20.9188 C   0  0  0  0  0  0
  -24.6291  -11.6923   20.8732 C   0  0  0  0  0  0
  -23.8968  -10.4301   21.0405 C   0  0  0  0  0  0
  -24.3538   -9.4223   21.9175 C   0  0  0  0  0  0
  -23.6240   -8.2242   22.0745 C   0  0  0  0  0  0
  -22.4236   -8.0253   21.3532 C   0  0  0  0  0  0
  -21.9863   -9.0226   20.4649 C   0  0  0  0  0  0
  -22.7156  -10.2122   20.3054 C   0  0  0  0  0  0
  -21.6850   -6.0718   22.5281 C   0  0  0  0  0  0
  -21.4001   -6.5615   23.8209 C   0  0  0  0  0  0
  -21.3669   -5.6775   24.9172 C   0  0  0  0  0  0
  -21.6054   -4.3044   24.7218 C   0  0  0  0  0  0
  -21.8812   -3.8134   23.4330 C   0  0  0  0  0  0
  -21.9191   -4.6958   22.3402 C   0  0  0  0  0  0
  -22.7807  -13.5316   21.1866 C   0  0  0  0  0  0
  -22.1662   -4.2156   21.0977 F   0  0  0  0  0  0
  -21.5641   -3.4509   25.7714 F   0  0  0  0  0  0
  -30.0239  -13.3319   20.4387 N   0  0  0  0  0  0
  -26.2950  -12.9309   20.3306 N   0  0  0  0  0  0
  -25.9218  -11.6471   20.5727 N   0  0  0  0  0  0
  -22.0397  -12.8307   22.0390 N   0  0  0  0  0  0
  -25.4320  -15.1866   20.4113 N   0  0  0  0  0  0
  -31.8430  -14.6563   20.0926 O   0  0  0  0  0  0
  -21.6626   -6.8845   21.4228 O   0  0  0  0  0  0
  -22.3520  -14.5633   20.6740 O   0  0  0  0  0  0
  -24.6175  -31.8693   23.2117 C   0  0  0  0  0  0
  -25.9070  -32.4817   23.8395 C   0  0  1  0  0  0
  -27.2200  -27.4184   20.0657 C   0  0  0  0  0  0
  -25.5933  -33.8616   24.2334 N   0  0  0  0  0  0
  -23.4021  -30.4987   21.5550 C   0  0  2  0  0  0
  -24.8386  -28.9658   20.1207 C   0  0  0  0  0  0
  -22.7409  -29.4687   22.4988 C   0  0  0  0  0  0
  -18.0262  -28.1374   22.8486 C   0  0  0  0  0  0
  -24.1482  -36.7316   23.2630 C   0  0  0  0  0  0
  -25.9377  -30.8267   21.3673 C   0  0  0  0  0  0
  -26.0085  -29.4628   20.7080 C   0  0  0  0  0  0
  -27.2014  -28.6989   20.6747 C   0  0  0  0  0  0
  -26.0083  -26.9303   19.5177 C   0  0  0  0  0  0
  -24.8337  -27.6967   19.5282 C   0  0  0  0  0  0
  -23.6066  -29.8375   20.1690 C   0  0  0  0  0  0
  -25.4096  -36.3104   24.0333 C   0  0  1  0  0  0
  -20.5863  -28.3669   23.1304 C   0  0  2  0  0  0
  -20.6756  -26.9399   22.5414 C   0  0  0  0  0  0
  -19.5739  -26.6375   21.5203 C   0  0  0  0  0  0
  -18.1912  -26.7914   22.1617 C   0  0  0  0  0  0
  -19.1518  -28.8834   23.2890 C   0  0  0  0  0  0
  -18.9450  -30.1437   23.8896 C   0  0  0  0  0  0
  -17.6461  -30.6584   24.0556 C   0  0  0  0  0  0
  -25.9041  -34.9471   23.5123 C   0  0  0  0  0  0
  -16.5346  -29.9088   23.6329 C   0  0  0  0  0  0
  -16.7256  -28.6508   23.0342 C   0  0  0  0  0  0
  -26.4477  -31.6607   25.0743 C   0  0  0  0  0  0
  -25.3746  -31.3760   26.1512 C   0  0  0  0  0  0
  -27.0301  -30.3032   24.6160 C   0  0  0  0  0  0
  -27.6048  -32.4327   25.7515 C   0  0  0  0  0  0
  -27.5581  -37.1796   24.8445 C   0  0  0  0  0  0
  -21.4141  -29.3049   22.3730 N   0  0  0  0  0  0
  -26.4274  -37.3801   23.9422 N   0  0  0  0  0  0
  -24.6716  -31.0784   22.1018 N   0  0  0  0  0  0
  -23.4186  -28.8187   23.2992 O   0  0  0  0  0  0
  -28.4025  -26.6910   20.0289 O   0  0  0  0  0  0
  -26.5588  -34.8928   22.4678 O   0  0  0  0  0  0
  -23.5374  -32.1441   23.7522 O   0  0  0  0  0  0
  -29.8252  -18.9595   22.0582 C   0  0  0  0  0  0
  -31.1481  -18.4736   20.0915 C   0  0  0  0  0  0
  -30.5561  -18.0267   21.2942 C   0  0  0  0  0  0
  -29.7762  -20.3294   21.7083 C   0  0  0  0  0  0
  -30.4832  -20.8031   20.5700 C   0  0  0  0  0  0
  -31.1151  -19.8443   19.7294 C   0  0  0  0  0  0
  -28.2509  -23.6411   17.7298 C   0  0  0  0  0  0
  -28.2962  -25.1371   18.0854 C   0  0  0  0  0  0
  -29.4708  -22.8948   18.2955 C   0  0  0  0  0  0
  -29.6117  -24.5455   20.1309 C   0  0  0  0  0  0
  -28.3623  -25.3048   19.6208 C   0  0  1  0  0  0
  -29.0223  -21.2695   22.6355 C   0  0  0  0  0  0
  -30.8415  -16.6308   21.8763 C   0  0  0  0  0  0
  -30.7114  -22.3197   20.3620 C   0  0  0  0  0  0
  -30.1427  -15.4630   21.3121 N   0  0  0  0  0  0
  -29.5820  -23.0878   19.7664 N   0  3  2  0  0  0
  -31.9265  -20.3309   18.2827 Cl  0  0  0  0  0  0
  -31.4633  -12.4296   19.1314 H   0  0  0  0  0  0
  -30.3396  -11.3278   19.8680 H   0  0  0  0  0  0
  -29.7457  -11.7101   17.4824 H   0  0  0  0  0  0
  -29.6560  -13.4374   17.7322 H   0  0  0  0  0  0
  -27.8408  -11.2833   18.8642 H   0  0  0  0  0  0
  -27.3678  -12.5747   17.7922 H   0  0  0  0  0  0
  -27.6914  -14.2437   19.5344 H   0  0  0  0  0  0
  -28.6672  -12.0099   21.3779 H   0  0  0  0  0  0
  -28.4373  -13.6604   21.8467 H   0  0  0  0  0  0
  -25.2655   -9.5753   22.4770 H   0  0  0  0  0  0
  -23.9986   -7.4650   22.7442 H   0  0  0  0  0  0
  -21.0814   -8.8710   19.8935 H   0  0  0  0  0  0
  -22.3578  -10.9654   19.6173 H   0  0  0  0  0  0
  -21.1972   -7.6119   23.9709 H   0  0  0  0  0  0
  -21.1510   -6.0498   25.9083 H   0  0  0  0  0  0
  -22.0591   -2.7603   23.2818 H   0  0  0  0  0  0
  -22.3943  -11.9998   22.4868 H   0  0  0  0  0  0
  -21.1013  -13.1375   22.2527 H   0  0  0  0  0  0
  -24.6797  -15.8543   20.5375 H   0  0  0  0  0  0
  -26.2881  -15.6148   20.0851 H   0  0  0  0  0  0
  -26.7142  -32.5507   23.1154 H   0  0  0  0  0  0
  -25.0116  -33.9780   25.0503 H   0  0  0  0  0  0
  -22.6917  -31.3167   21.4192 H   0  0  0  0  0  0
  -23.3746  -35.9648   23.3282 H   0  0  0  0  0  0
  -24.3585  -36.8947   22.2049 H   0  0  0  0  0  0
  -23.7233  -37.6516   23.6653 H   0  0  0  0  0  0
  -26.0603  -31.5932   20.6004 H   0  0  0  0  0  0
  -26.8237  -30.8712   21.9901 H   0  0  0  0  0  0
  -28.1053  -29.0864   21.1238 H   0  0  0  0  0  0
  -25.9171  -25.9509   19.0772 H   0  0  0  0  0  0
  -23.9288  -27.2988   19.0885 H   0  0  0  0  0  0
  -23.7217  -30.6128   19.4111 H   0  0  0  0  0  0
  -22.7282  -29.2632   19.8680 H   0  0  0  0  0  0
  -25.1270  -36.1959   25.0825 H   0  0  0  0  0  0
  -20.9949  -28.3226   24.1426 H   0  0  0  0  0  0
  -20.5638  -26.2273   23.3603 H   0  0  0  0  0  0
  -21.6627  -26.7424   22.1215 H   0  0  0  0  0  0
  -19.6896  -25.6282   21.1226 H   0  0  0  0  0  0
  -19.6676  -27.3188   20.6731 H   0  0  0  0  0  0
  -17.4180  -26.6654   21.4017 H   0  0  0  0  0  0
  -18.0317  -26.0054   22.9018 H   0  0  0  0  0  0
  -19.7934  -30.7236   24.2268 H   0  0  0  0  0  0
  -17.5026  -31.6266   24.5155 H   0  0  0  0  0  0
  -15.5347  -30.2993   23.7658 H   0  0  0  0  0  0
  -15.8651  -28.0830   22.7058 H   0  0  0  0  0  0
  -24.5905  -30.7102   25.7895 H   0  0  0  0  0  0
  -24.8958  -32.2942   26.4928 H   0  0  0  0  0  0
  -25.8114  -30.8976   27.0291 H   0  0  0  0  0  0
  -26.2866  -29.6815   24.1164 H   0  0  0  0  0  0
  -27.3985  -29.7254   25.4648 H   0  0  0  0  0  0
  -27.8736  -30.4322   23.9375 H   0  0  0  0  0  0
  -27.2653  -33.3613   26.2117 H   0  0  0  0  0  0
  -28.3854  -32.6916   25.0350 H   0  0  0  0  0  0
  -28.0718  -31.8442   26.5425 H   0  0  0  0  0  0
  -28.2558  -38.0136   24.7560 H   0  0  0  0  0  0
  -28.1118  -36.2673   24.6169 H   0  0  0  0  0  0
  -27.2320  -37.1331   25.8851 H   0  0  0  0  0  0
  -20.9287  -29.8828   21.7015 H   0  0  0  0  0  0
  -26.0157  -38.2868   24.1477 H   0  0  0  0  0  0
  -29.3581  -18.6408   22.9796 H   0  0  0  0  0  0
  -31.7007  -17.7786   19.4734 H   0  0  0  0  0  0
  -28.2078  -23.5098   16.6490 H   0  0  0  0  0  0
  -27.3361  -23.1968   18.1253 H   0  0  0  0  0  0
  -27.4328  -25.6319   17.6476 H   0  0  0  0  0  0
  -29.1626  -25.6089   17.6227 H   0  0  0  0  0  0
  -30.3810  -23.2467   17.8047 H   0  0  0  0  0  0
  -29.3836  -21.8323   18.0667 H   0  0  0  0  0  0
  -29.6732  -24.6566   21.2136 H   0  0  0  0  0  0
  -30.5116  -25.0096   19.7230 H   0  0  0  0  0  0
  -27.4994  -24.8247   20.0872 H   0  0  0  0  0  0
  -28.2038  -20.7432   23.1274 H   0  0  0  0  0  0
  -28.5781  -22.1118   22.1091 H   0  0  0  0  0  0
  -29.6857  -21.6608   23.4058 H   0  0  0  0  0  0
  -30.5994  -16.6525   22.9398 H   0  0  0  0  0  0
  -31.9239  -16.4780   21.8531 H   0  0  0  0  0  0
  -31.6241  -22.5061   19.7962 H   0  0  0  0  0  0
  -30.9294  -22.7326   21.3480 H   0  0  0  0  0  0
  -29.2119  -15.2776   21.6590 H   0  0  0  0  0  0
  -28.7452  -22.7000   20.1766 H   0  0  0  0  0  0
  1 25  1  0  0  0
  1 30  2  0  0  0
  1 85  1  0  0  0
  2  3  1  0  0  0
  2 25  1  0  0  0
  2 88  1  0  0  0
  2 89  1  0  0  0
  3  4  1  0  0  0
  3 90  1  0  0  0
  3 91  1  0  0  0
  4  5  1  0  0  0
  4 92  1  0  0  0
  4 93  1  0  0  0
  5  6  1  0  0  0
  5 26  1  0  0  0
  5 94  1  0  0  0
  6 25  1  0  0  0
  6 95  1  0  0  0
  6 96  1  0  0  0
  7  8  2  0  0  0
  7 26  1  0  0  0
  7 29  1  0  0  0
  8  9  1  0  0  0
  8 22  1  0  0  0
  9 10  1  0  0  0
  9 27  2  0  0  0
 10 11  2  0  0  0
 10 15  1  0  0  0
 11 12  1  0  0  0
 11 97  1  0  0  0
 12 13  2  0  0  0
 12 98  1  0  0  0
 13 14  1  0  0  0
 13 31  1  0  0  0
 14 15  2  0  0  0
 14 99  1  0  0  0
 15100  1  0  0  0
 16 17  2  0  0  0
 16 21  1  0  0  0
 16 31  1  0  0  0
 17 18  1  0  0  0
 17101  1  0  0  0
 18 19  2  0  0  0
 18102  1  0  0  0
 19 20  1  0  0  0
 19 24  1  0  0  0
 20 21  2  0  0  0
 20103  1  0  0  0
 21 23  1  0  0  0
 22 28  1  0  0  0
 22 32  2  0  0  0
 26 27  1  0  0  0
 28104  1  0  0  0
 28105  1  0  0  0
 29106  1  0  0  0
 29107  1  0  0  0
 33 34  1  0  0  0
 33 66  1  0  0  0
 33 70  2  0  0  0
 34 36  1  0  0  0
 34 59  1  0  0  0
 34108  1  0  0  0
 35 44  2  0  0  0
 35 45  1  0  0  0
 35 68  1  0  0  0
 36 56  1  0  0  0
 36109  1  0  0  0
 37 39  1  0  0  0
 37 47  1  0  0  0
 37 66  1  0  0  0
 37110  1  0  0  0
 38 43  2  0  0  0
 38 46  1  0  0  0
 38 47  1  0  0  0
 39 64  1  0  0  0
 39 67  2  0  0  0
 40 52  1  0  0  0
 40 53  2  0  0  0
 40 58  1  0  0  0
 41111  1  0  0  0
 41112  1  0  0  0
 41113  1  0  0  0
 41 48  1  0  0  0
 42 43  1  0  0  0
 42 66  1  0  0  0
 42114  1  0  0  0
 42115  1  0  0  0
 43 44  1  0  0  0
 44116  1  0  0  0
 45 46  2  0  0  0
 45117  1  0  0  0
 46118  1  0  0  0
 47119  1  0  0  0
 47120  1  0  0  0
 48 56  1  0  0  0
 48 65  1  0  0  0
 48121  1  0  0  0
 49 50  1  0  0  0
 49 53  1  0  0  0
 49 64  1  0  0  0
 49122  1  0  0  0
 50 51  1  0  0  0
 50123  1  0  0  0
 50124  1  0  0  0
 51 52  1  0  0  0
 51125  1  0  0  0
 51126  1  0  0  0
 52127  1  0  0  0
 52128  1  0  0  0
 53 54  1  0  0  0
 54 55  2  0  0  0
 54129  1  0  0  0
 55 57  1  0  0  0
 55130  1  0  0  0
 56 69  2  0  0  0
 57 58  2  0  0  0
 57131  1  0  0  0
 58132  1  0  0  0
 59 60  1  0  0  0
 59 61  1  0  0  0
 59 62  1  0  0  0
 60133  1  0  0  0
 60134  1  0  0  0
 60135  1  0  0  0
 61136  1  0  0  0
 61137  1  0  0  0
 61138  1  0  0  0
 62139  1  0  0  0
 62140  1  0  0  0
 62141  1  0  0  0
 63 65  1  0  0  0
 63142  1  0  0  0
 63143  1  0  0  0
 63144  1  0  0  0
 64145  1  0  0  0
 65146  1  0  0  0
 68 81  1  0  0  0
 71 73  2  0  0  0
 71 74  1  0  0  0
 71147  1  0  0  0
 72 73  1  0  0  0
 72 76  2  0  0  0
 72148  1  0  0  0
 73 83  1  0  0  0
 74 75  2  0  0  0
 74 82  1  0  0  0
 75 76  1  0  0  0
 75 84  1  0  0  0
 76 87  1  0  0  0
 77 78  1  0  0  0
 77 79  1  0  0  0
 77149  1  0  0  0
 77150  1  0  0  0
 78 81  1  0  0  0
 78151  1  0  0  0
 78152  1  0  0  0
 79 86  1  0  0  0
 79153  1  0  0  0
 79154  1  0  0  0
 80 81  1  0  0  0
 80 86  1  0  0  0
 80155  1  0  0  0
 80156  1  0  0  0
 81157  1  0  0  0
 82158  1  0  0  0
 82159  1  0  0  0
 82160  1  0  0  0
 83 85  1  0  0  0
 83161  1  0  0  0
 83162  1  0  0  0
 84163  1  0  0  0
 84164  1  0  0  0
 84 86  1  0  0  0
 85165  1  0  0  0
 86166  1  0  0  0
M  CHG  1  86   1
M  ISO  4   1 100  68 101  81 101  85 100
M  END
> <chiral flag>
0

> <version>
0

> <s_m_source_file>
/data/baiqing/PycharmProjects/Reinvent-master-3.2/result/LINK_invent/BTK/process_docking_weight1_custom_product_contain_oxygen_bond_distance_aromatic_linkinvent_7_9_3/rearranged_h_0038.sdf

> <i_m_source_file_index>
15

> <r_mmod_Potential_Energy-OPLS-2005>
-162.508346557617

> <r_mmod_Stretch_Energy-OPLS-2005>
43.7925415039062

> <r_mmod_Bend_Energy-OPLS-2005>
109.000137329102

> <r_mmod_Torsional_Energy-OPLS-2005>
224.391479492188

> <r_mmod_Improper_Torsional_Energy-OPLS-2005>
3.97782874107361

> <r_mmod_Van_der_Waal_Energy-OPLS-2005>
160.924072265625

> <r_mmod_Electrostatic_Energy-OPLS-2005>
-304.826873779297

> <r_mmod_Solvation_Energy-OPLS-2005>
-416.023986816406

> <b_mmod_Minimization_Converged-OPLS-2005>
0

> <r_mmod_RMS_Derivative-OPLS-2005>
3.88645458221436

$$$$
15
                    3D
 Structure written by MMmdl.
169178  0  0  1  0            999 V2000
  -30.5660  -14.6341   20.5135 C   0  0  0  0  0  0
  -30.4405  -12.3888   19.4444 C   0  0  0  0  0  0
  -29.5204  -12.5383   18.2128 C   0  0  0  0  0  0
  -28.0320  -12.4014   18.6026 C   0  0  0  0  0  0
  -27.6619  -13.2130   19.8752 C   0  0  2  0  0  0
  -28.7027  -12.9992   20.9952 C   0  0  0  0  0  0
  -25.2612  -13.8147   20.5646 C   0  0  0  0  0  0
  -24.1881  -13.0417   20.9135 C   0  0  0  0  0  0
  -24.6415  -11.6863   20.8660 C   0  0  0  0  0  0
  -23.9064  -10.4262   21.0344 C   0  0  0  0  0  0
  -24.3620   -9.4209   21.9135 C   0  0  0  0  0  0
  -23.6293   -8.2267   22.0760 C   0  0  0  0  0  0
  -22.4279   -8.0272   21.3561 C   0  0  0  0  0  0
  -21.9891   -9.0224   20.4665 C   0  0  0  0  0  0
  -22.7218  -10.2105   20.3029 C   0  0  0  0  0  0
  -21.6873   -6.0705   22.5262 C   0  0  0  0  0  0
  -21.4013   -6.5607   23.8184 C   0  0  0  0  0  0
  -21.3679   -5.6766   24.9147 C   0  0  0  0  0  0
  -21.6066   -4.3035   24.7221 C   0  0  0  0  0  0
  -21.8826   -3.8121   23.4342 C   0  0  0  0  0  0
  -21.9214   -4.6932   22.3384 C   0  0  0  0  0  0
  -22.7903  -13.5220   21.1816 C   0  0  0  0  0  0
  -22.1684   -4.2095   21.0970 F   0  0  0  0  0  0
  -21.5647   -3.4534   25.7756 F   0  0  0  0  0  0
  -30.0131  -13.3825   20.4497 N   0  0  0  0  0  0
  -26.3045  -12.9307   20.3312 N   0  0  0  0  0  0
  -25.9346  -11.6469   20.5696 N   0  0  0  0  0  0
  -22.0550  -12.8216   22.0363 N   0  0  0  0  0  0
  -25.4328  -15.1890   20.4060 N   0  0  0  0  0  0
  -31.7028  -14.8516   20.0738 O   0  0  0  0  0  0
  -21.6675   -6.8845   21.4235 O   0  0  0  0  0  0
  -22.3585  -14.5518   20.6639 O   0  0  0  0  0  0
  -24.6242  -31.8599   23.1997 C   0  0  0  0  0  0
  -25.9085  -32.4777   23.8354 C   0  0  1  0  0  0
  -27.2323  -27.3272   20.1418 C   0  0  0  0  0  0
  -25.5882  -33.8576   24.2287 N   0  0  0  0  0  0
  -23.4199  -30.4782   21.5412 C   0  0  2  0  0  0
  -24.8674  -28.9159   20.1296 C   0  0  0  0  0  0
  -22.7486  -29.4616   22.4927 C   0  0  0  0  0  0
  -18.0291  -28.1383   22.8476 C   0  0  0  0  0  0
  -24.1481  -36.7290   23.2649 C   0  0  0  0  0  0
  -25.9579  -30.7897   21.3747 C   0  0  0  0  0  0
  -26.0302  -29.4118   20.7307 C   0  0  0  0  0  0
  -27.2198  -28.6301   20.7199 C   0  0  0  0  0  0
  -26.0497  -26.8602   19.5393 C   0  0  0  0  0  0
  -24.8763  -27.6449   19.5262 C   0  0  0  0  0  0
  -23.6395  -29.8037   20.1602 C   0  0  0  0  0  0
  -25.4101  -36.3086   24.0356 C   0  0  1  0  0  0
  -20.5894  -28.3685   23.1282 C   0  0  2  0  0  0
  -20.6790  -26.9406   22.5407 C   0  0  0  0  0  0
  -19.5757  -26.6384   21.5222 C   0  0  0  0  0  0
  -18.1935  -26.7926   22.1624 C   0  0  0  0  0  0
  -19.1546  -28.8849   23.2878 C   0  0  0  0  0  0
  -18.9481  -30.1458   23.8879 C   0  0  0  0  0  0
  -17.6481  -30.6582   24.0582 C   0  0  0  0  0  0
  -25.9034  -34.9460   23.5134 C   0  0  0  0  0  0
  -16.5369  -29.9086   23.6332 C   0  0  0  0  0  0
  -16.7283  -28.6520   23.0320 C   0  0  0  0  0  0
  -26.4448  -31.6590   25.0733 C   0  0  0  0  0  0
  -25.3704  -31.3751   26.1476 C   0  0  0  0  0  0
  -27.0306  -30.3018   24.6198 C   0  0  0  0  0  0
  -27.5987  -32.4346   25.7496 C   0  0  0  0  0  0
  -27.5581  -37.1807   24.8464 C   0  0  0  0  0  0
  -21.4208  -29.3044   22.3685 N   0  0  0  0  0  0
  -26.4279  -37.3791   23.9425 N   0  0  0  0  0  0
  -24.6851  -31.0623   22.0951 N   0  0  0  0  0  0
  -23.4217  -28.8179   23.3019 O   0  0  0  0  0  0
  -28.3990  -26.5754   20.0272 O   0  0  0  0  0  0
  -26.5622  -34.8932   22.4710 O   0  0  0  0  0  0
  -23.5400  -32.1366   23.7337 O   0  0  0  0  0  0
  -29.1359  -18.9922   19.2186 C   0  0  0  0  0  0
  -29.1580  -17.9233   21.7748 C   0  0  0  0  0  0
  -29.5092  -17.6208   19.4122 C   0  0  0  0  0  0
  -28.7628  -19.8667   20.2783 C   0  0  0  0  0  0
  -29.5437  -17.0456   20.7185 C   0  0  0  0  0  0
  -28.7777  -19.2860   21.5724 C   0  0  0  0  0  0
  -30.0970  -23.5732   23.1476 C   0  0  0  0  0  0
  -28.6982  -24.2428   23.1226 C   0  0  0  0  0  0
  -30.8847  -23.4038   21.8235 C   0  0  0  0  0  0
  -28.5377  -25.5027   22.2451 C   0  0  0  0  0  0
  -30.2507  -22.5959   20.6537 C   0  0  0  0  0  0
  -28.0683  -23.8862   20.1944 C   0  0  0  0  0  0
  -28.6375  -25.2912   20.7163 C   0  0  1  0  0  0
  -29.7708  -16.7733   18.1775 C   0  0  0  0  0  0
  -28.2047  -21.3175   19.9693 C   0  0  0  0  0  0
  -29.7493  -15.6177   21.0160 N   0  0  0  0  0  0
  -28.7623  -22.5734   20.6316 N   0  3  1  0  0  0
  -28.2720  -20.2303   22.9315 Cl  0  0  0  0  0  0
  -31.4854  -12.5178   19.1578 H   0  0  0  0  0  0
  -30.3645  -11.3784   19.8495 H   0  0  0  0  0  0
  -29.7781  -11.8002   17.4528 H   0  0  0  0  0  0
  -29.6944  -13.5152   17.7555 H   0  0  0  0  0  0
  -27.8229  -11.3419   18.7589 H   0  0  0  0  0  0
  -27.4045  -12.7178   17.7670 H   0  0  0  0  0  0
  -27.6957  -14.2652   19.5972 H   0  0  0  0  0  0
  -28.7224  -11.9498   21.2985 H   0  0  0  0  0  0
  -28.4512  -13.5539   21.8983 H   0  0  0  0  0  0
  -25.2769   -9.5712   22.4685 H   0  0  0  0  0  0
  -24.0013   -7.4686   22.7484 H   0  0  0  0  0  0
  -21.0829   -8.8713   19.8964 H   0  0  0  0  0  0
  -22.3647  -10.9624   19.6135 H   0  0  0  0  0  0
  -21.1970   -7.6102   23.9656 H   0  0  0  0  0  0
  -21.1519   -6.0511   25.9049 H   0  0  0  0  0  0
  -22.0599   -2.7579   23.2870 H   0  0  0  0  0  0
  -22.4201  -11.9879   22.4719 H   0  0  0  0  0  0
  -21.1161  -13.1226   22.2543 H   0  0  0  0  0  0
  -24.6622  -15.8414   20.5097 H   0  0  0  0  0  0
  -26.2861  -15.6308   20.0881 H   0  0  0  0  0  0
  -26.7162  -32.5450   23.1103 H   0  0  0  0  0  0
  -24.9990  -33.9711   25.0402 H   0  0  0  0  0  0
  -22.7132  -31.2968   21.3913 H   0  0  0  0  0  0
  -23.3759  -35.9600   23.3275 H   0  0  0  0  0  0
  -24.3579  -36.8934   22.2066 H   0  0  0  0  0  0
  -23.7207  -37.6483   23.6677 H   0  0  0  0  0  0
  -26.0944  -31.5507   20.6051 H   0  0  0  0  0  0
  -26.8386  -30.8351   22.0065 H   0  0  0  0  0  0
  -28.1250  -29.0233   21.1617 H   0  0  0  0  0  0
  -26.0458  -25.8917   19.0626 H   0  0  0  0  0  0
  -23.9910  -27.2586   19.0416 H   0  0  0  0  0  0
  -23.7723  -30.5765   19.4007 H   0  0  0  0  0  0
  -22.7603  -29.2373   19.8516 H   0  0  0  0  0  0
  -25.1278  -36.1942   25.0854 H   0  0  0  0  0  0
  -20.9986  -28.3259   24.1412 H   0  0  0  0  0  0
  -20.5708  -26.2303   23.3611 H   0  0  0  0  0  0
  -21.6655  -26.7442   22.1193 H   0  0  0  0  0  0
  -19.6922  -25.6310   21.1222 H   0  0  0  0  0  0
  -19.6686  -27.3230   20.6778 H   0  0  0  0  0  0
  -17.4214  -26.6681   21.4018 H   0  0  0  0  0  0
  -18.0320  -26.0071   22.9016 H   0  0  0  0  0  0
  -19.7964  -30.7294   24.2211 H   0  0  0  0  0  0
  -17.5041  -31.6259   24.5194 H   0  0  0  0  0  0
  -15.5373  -30.2991   23.7673 H   0  0  0  0  0  0
  -15.8690  -28.0878   22.6975 H   0  0  0  0  0  0
  -24.5803  -30.7169   25.7833 H   0  0  0  0  0  0
  -24.8974  -32.2943   26.4956 H   0  0  0  0  0  0
  -25.8021  -30.8882   27.0228 H   0  0  0  0  0  0
  -26.2908  -29.6779   24.1158 H   0  0  0  0  0  0
  -27.3936  -29.7237   25.4703 H   0  0  0  0  0  0
  -27.8797  -30.4293   23.9472 H   0  0  0  0  0  0
  -27.2538  -33.3606   26.2101 H   0  0  0  0  0  0
  -28.3768  -32.6985   25.0331 H   0  0  0  0  0  0
  -28.0688  -31.8484   26.5395 H   0  0  0  0  0  0
  -28.2584  -38.0123   24.7544 H   0  0  0  0  0  0
  -28.1100  -36.2660   24.6234 H   0  0  0  0  0  0
  -27.2320  -37.1397   25.8875 H   0  0  0  0  0  0
  -20.9381  -29.8763   21.6898 H   0  0  0  0  0  0
  -26.0162  -38.2869   24.1441 H   0  0  0  0  0  0
  -29.0734  -19.3681   18.2079 H   0  0  0  0  0  0
  -29.1124  -17.5391   22.7829 H   0  0  0  0  0  0
  -30.0088  -22.6069   23.6471 H   0  0  0  0  0  0
  -30.7241  -24.1694   23.8119 H   0  0  0  0  0  0
  -28.4594  -24.5308   24.1463 H   0  0  0  0  0  0
  -27.9176  -23.5195   22.8863 H   0  0  0  0  0  0
  -31.8183  -22.8980   22.0755 H   0  0  0  0  0  0
  -31.2377  -24.3726   21.4745 H   0  0  0  0  0  0
  -29.2644  -26.2562   22.5528 H   0  0  0  0  0  0
  -27.5644  -25.9374   22.4763 H   0  0  0  0  0  0
  -30.6182  -21.5757   20.7538 H   0  0  0  0  0  0
  -30.6377  -22.9363   19.6926 H   0  0  0  0  0  0
  -28.0362  -23.9135   19.1057 H   0  0  0  0  0  0
  -27.0304  -23.8188   20.5206 H   0  0  0  0  0  0
  -29.6861  -25.2398   20.4615 H   0  0  0  0  0  0
  -29.6016  -17.3364   17.2595 H   0  0  0  0  0  0
  -29.1022  -15.9109   18.1654 H   0  0  0  0  0  0
  -30.8011  -16.4185   18.1435 H   0  0  0  0  0  0
  -27.1349  -21.2854   20.1772 H   0  0  0  0  0  0
  -28.2819  -21.4686   18.8914 H   0  0  0  0  0  0
  -29.0291  -15.2251   21.6033 H   0  0  0  0  0  0
  -28.5271  -22.4460   21.6066 H   0  0  0  0  0  0
  1 25  1  0  0  0
  1 30  2  0  0  0
  1 86  1  0  0  0
  2  3  1  0  0  0
  2 25  1  0  0  0
  2 89  1  0  0  0
  2 90  1  0  0  0
  3  4  1  0  0  0
  3 91  1  0  0  0
  3 92  1  0  0  0
  4  5  1  0  0  0
  4 93  1  0  0  0
  4 94  1  0  0  0
  5  6  1  0  0  0
  5 26  1  0  0  0
  5 95  1  0  0  0
  6 25  1  0  0  0
  6 96  1  0  0  0
  6 97  1  0  0  0
  7  8  2  0  0  0
  7 26  1  0  0  0
  7 29  1  0  0  0
  8  9  1  0  0  0
  8 22  1  0  0  0
  9 10  1  0  0  0
  9 27  2  0  0  0
 10 11  2  0  0  0
 10 15  1  0  0  0
 11 12  1  0  0  0
 11 98  1  0  0  0
 12 13  2  0  0  0
 12 99  1  0  0  0
 13 14  1  0  0  0
 13 31  1  0  0  0
 14 15  2  0  0  0
 14100  1  0  0  0
 15101  1  0  0  0
 16 17  2  0  0  0
 16 21  1  0  0  0
 16 31  1  0  0  0
 17 18  1  0  0  0
 17102  1  0  0  0
 18 19  2  0  0  0
 18103  1  0  0  0
 19 20  1  0  0  0
 19 24  1  0  0  0
 20 21  2  0  0  0
 20104  1  0  0  0
 21 23  1  0  0  0
 22 28  1  0  0  0
 22 32  2  0  0  0
 26 27  1  0  0  0
 28105  1  0  0  0
 28106  1  0  0  0
 29107  1  0  0  0
 29108  1  0  0  0
 33 34  1  0  0  0
 33 66  1  0  0  0
 33 70  2  0  0  0
 34 36  1  0  0  0
 34 59  1  0  0  0
 34109  1  0  0  0
 35 44  2  0  0  0
 35 45  1  0  0  0
 35 68  1  0  0  0
 36 56  1  0  0  0
 36110  1  0  0  0
 37 39  1  0  0  0
 37 47  1  0  0  0
 37 66  1  0  0  0
 37111  1  0  0  0
 38 43  2  0  0  0
 38 46  1  0  0  0
 38 47  1  0  0  0
 39 64  1  0  0  0
 39 67  2  0  0  0
 40 52  1  0  0  0
 40 53  2  0  0  0
 40 58  1  0  0  0
 41112  1  0  0  0
 41113  1  0  0  0
 41114  1  0  0  0
 41 48  1  0  0  0
 42 43  1  0  0  0
 42 66  1  0  0  0
 42115  1  0  0  0
 42116  1  0  0  0
 43 44  1  0  0  0
 44117  1  0  0  0
 45 46  2  0  0  0
 45118  1  0  0  0
 46119  1  0  0  0
 47120  1  0  0  0
 47121  1  0  0  0
 48 56  1  0  0  0
 48 65  1  0  0  0
 48122  1  0  0  0
 49 50  1  0  0  0
 49 53  1  0  0  0
 49 64  1  0  0  0
 49123  1  0  0  0
 50 51  1  0  0  0
 50124  1  0  0  0
 50125  1  0  0  0
 51 52  1  0  0  0
 51126  1  0  0  0
 51127  1  0  0  0
 52128  1  0  0  0
 52129  1  0  0  0
 53 54  1  0  0  0
 54 55  2  0  0  0
 54130  1  0  0  0
 55 57  1  0  0  0
 55131  1  0  0  0
 56 69  2  0  0  0
 57 58  2  0  0  0
 57132  1  0  0  0
 58133  1  0  0  0
 59 60  1  0  0  0
 59 61  1  0  0  0
 59 62  1  0  0  0
 60134  1  0  0  0
 60135  1  0  0  0
 60136  1  0  0  0
 61137  1  0  0  0
 61138  1  0  0  0
 61139  1  0  0  0
 62140  1  0  0  0
 62141  1  0  0  0
 62142  1  0  0  0
 63 65  1  0  0  0
 63143  1  0  0  0
 63144  1  0  0  0
 63145  1  0  0  0
 64146  1  0  0  0
 65147  1  0  0  0
 68 83  1  0  0  0
 71 73  2  0  0  0
 71 74  1  0  0  0
 71148  1  0  0  0
 72 75  2  0  0  0
 72 76  1  0  0  0
 72149  1  0  0  0
 73 75  1  0  0  0
 73 84  1  0  0  0
 74 76  2  0  0  0
 74 85  1  0  0  0
 75 86  1  0  0  0
 76 88  1  0  0  0
 77 78  1  0  0  0
 77 79  1  0  0  0
 77150  1  0  0  0
 77151  1  0  0  0
 78 80  1  0  0  0
 78152  1  0  0  0
 78153  1  0  0  0
 79 81  1  0  0  0
 79154  1  0  0  0
 79155  1  0  0  0
 80 83  1  0  0  0
 80156  1  0  0  0
 80157  1  0  0  0
 81 87  1  0  0  0
 81158  1  0  0  0
 81159  1  0  0  0
 82 83  1  0  0  0
 82 87  1  0  0  0
 82160  1  0  0  0
 82161  1  0  0  0
 83162  1  0  0  0
 84163  1  0  0  0
 84164  1  0  0  0
 84165  1  0  0  0
 85166  1  0  0  0
 85167  1  0  0  0
 85 87  1  0  0  0
 86168  1  0  0  0
 87169  1  0  0  0
M  CHG  1  87   1
M  ISO  4   1 100  68 101  83 101  86 100
M  END
> <chiral flag>
0

> <version>
0

> <s_m_source_file>
/data/baiqing/PycharmProjects/Reinvent-master-3.2/result/LINK_invent/BTK/process_docking_weight1_custom_product_contain_oxygen_bond_distance_aromatic_linkinvent_7_9_3/rearranged_h_0038.sdf

> <i_m_source_file_index>
16

> <r_mmod_Potential_Energy-OPLS-2005>
88.0703048706055

> <r_mmod_Stretch_Energy-OPLS-2005>
90.2638092041016

> <r_mmod_Bend_Energy-OPLS-2005>
203.040512084961

> <r_mmod_Torsional_Energy-OPLS-2005>
297.312744140625

> <r_mmod_Improper_Torsional_Energy-OPLS-2005>
5.38555860519409

> <r_mmod_Van_der_Waal_Energy-OPLS-2005>
137.493041992188

> <r_mmod_Electrostatic_Energy-OPLS-2005>
-281.683929443359

> <r_mmod_Solvation_Energy-OPLS-2005>
-405.48876953125

> <b_mmod_Minimization_Converged-OPLS-2005>
0

> <r_mmod_RMS_Derivative-OPLS-2005>
5.11336851119995

$$$$
16
                    3D
 Structure written by MMmdl.
170179  0  0  1  0            999 V2000
  -30.6693  -14.4757   20.5092 C   0  0  0  0  0  0
  -30.4284  -12.2899   19.4198 C   0  0  0  0  0  0
  -29.4960  -12.4873   18.2048 C   0  0  0  0  0  0
  -28.0157  -12.3566   18.6179 C   0  0  0  0  0  0
  -27.6622  -13.1996   19.8721 C   0  0  2  0  0  0
  -28.7061  -12.9769   20.9915 C   0  0  0  0  0  0
  -25.2612  -13.8154   20.5690 C   0  0  0  0  0  0
  -24.1852  -13.0449   20.9188 C   0  0  0  0  0  0
  -24.6392  -11.6907   20.8739 C   0  0  0  0  0  0
  -23.9055  -10.4297   21.0399 C   0  0  0  0  0  0
  -24.3604   -9.4213   21.9183 C   0  0  0  0  0  0
  -23.6283   -8.2247   22.0746 C   0  0  0  0  0  0
  -22.4267   -8.0284   21.3537 C   0  0  0  0  0  0
  -21.9900   -9.0261   20.4644 C   0  0  0  0  0  0
  -22.7224  -10.2142   20.3054 C   0  0  0  0  0  0
  -21.6852   -6.0744   22.5279 C   0  0  0  0  0  0
  -21.4010   -6.5645   23.8214 C   0  0  0  0  0  0
  -21.3656   -5.6791   24.9173 C   0  0  0  0  0  0
  -21.6045   -4.3056   24.7220 C   0  0  0  0  0  0
  -21.8818   -3.8150   23.4342 C   0  0  0  0  0  0
  -21.9189   -4.6971   22.3401 C   0  0  0  0  0  0
  -22.7875  -13.5254   21.1847 C   0  0  0  0  0  0
  -22.1661   -4.2163   21.0976 F   0  0  0  0  0  0
  -21.5626   -3.4536   25.7729 F   0  0  0  0  0  0
  -30.0384  -13.2750   20.4367 N   0  0  0  0  0  0
  -26.3033  -12.9301   20.3362 N   0  0  0  0  0  0
  -25.9317  -11.6472   20.5772 N   0  0  0  0  0  0
  -22.0515  -12.8249   22.0395 N   0  0  0  0  0  0
  -25.4360  -15.1871   20.4100 N   0  0  0  0  0  0
  -31.8430  -14.6402   20.1700 O   0  0  0  0  0  0
  -21.6627   -6.8884   21.4237 O   0  0  0  0  0  0
  -22.3570  -14.5570   20.6698 O   0  0  0  0  0  0
  -24.6137  -31.8698   23.2118 C   0  0  0  0  0  0
  -25.9037  -32.4833   23.8407 C   0  0  1  0  0  0
  -27.2335  -27.4497   20.0943 C   0  0  0  0  0  0
  -25.5905  -33.8632   24.2342 N   0  0  0  0  0  0
  -23.3995  -30.4945   21.5526 C   0  0  2  0  0  0
  -24.8446  -28.9631   20.1168 C   0  0  0  0  0  0
  -22.7396  -29.4679   22.5009 C   0  0  0  0  0  0
  -18.0265  -28.1373   22.8500 C   0  0  0  0  0  0
  -24.1487  -36.7320   23.2637 C   0  0  0  0  0  0
  -25.9273  -30.8424   21.3599 C   0  0  0  0  0  0
  -26.0059  -29.4792   20.7046 C   0  0  0  0  0  0
  -27.2055  -28.7329   20.6837 C   0  0  0  0  0  0
  -26.0509  -26.9436   19.5081 C   0  0  0  0  0  0
  -24.8614  -27.6940   19.5150 C   0  0  0  0  0  0
  -23.6054  -29.8268   20.1673 C   0  0  0  0  0  0
  -25.4108  -36.3120   24.0339 C   0  0  1  0  0  0
  -20.5856  -28.3661   23.1324 C   0  0  2  0  0  0
  -20.6761  -26.9404   22.5415 C   0  0  0  0  0  0
  -19.5737  -26.6385   21.5212 C   0  0  0  0  0  0
  -18.1915  -26.7924   22.1622 C   0  0  0  0  0  0
  -19.1515  -28.8831   23.2913 C   0  0  0  0  0  0
  -18.9444  -30.1438   23.8925 C   0  0  0  0  0  0
  -17.6448  -30.6586   24.0563 C   0  0  0  0  0  0
  -25.9034  -34.9483   23.5133 C   0  0  0  0  0  0
  -16.5340  -29.9088   23.6326 C   0  0  0  0  0  0
  -16.7253  -28.6497   23.0363 C   0  0  0  0  0  0
  -26.4472  -31.6604   25.0725 C   0  0  0  0  0  0
  -25.3753  -31.3691   26.1482 C   0  0  0  0  0  0
  -27.0286  -30.3048   24.6083 C   0  0  0  0  0  0
  -27.6064  -32.4307   25.7483 C   0  0  0  0  0  0
  -27.5585  -37.1811   24.8464 C   0  0  0  0  0  0
  -21.4129  -29.3035   22.3739 N   0  0  0  0  0  0
  -26.4296  -37.3804   23.9410 N   0  0  0  0  0  0
  -24.6652  -31.0822   22.1002 N   0  0  0  0  0  0
  -23.4174  -28.8221   23.3046 O   0  0  0  0  0  0
  -28.4063  -26.7229   20.1000 O   0  0  0  0  0  0
  -26.5596  -34.8929   22.4696 O   0  0  0  0  0  0
  -23.5335  -32.1440   23.7527 O   0  0  0  0  0  0
  -28.8041  -19.0827   20.8716 C   0  0  0  0  0  0
  -30.1335  -18.7599   18.8759 C   0  0  0  0  0  0
  -29.3581  -19.6101   19.6859 C   0  0  0  0  0  0
  -29.0269  -17.7348   21.2358 C   0  0  0  0  0  0
  -30.3324  -17.3987   19.1963 C   0  0  0  0  0  0
  -29.7983  -16.8681   20.4130 C   0  0  0  0  0  0
  -27.6983  -23.0492   19.6919 C   0  0  0  0  0  0
  -26.3897  -22.7582   19.5833 C   0  0  0  0  0  0
  -28.3291  -24.3867   19.3163 C   0  0  0  0  0  0
  -29.4749  -23.6147   22.0405 C   0  0  0  0  0  0
  -29.4538  -25.0604   21.4931 C   0  0  0  0  0  0
  -29.8331  -22.5294   20.9930 C   0  0  0  0  0  0
  -28.3017  -25.3542   20.5168 C   0  0  1  0  0  0
  -28.3802  -17.2196   22.5139 C   0  0  0  0  0  0
  -31.0491  -16.5721   18.1401 C   0  0  0  0  0  0
  -29.0559  -21.0263   19.1763 C   0  0  0  0  0  0
  -29.8473  -15.4933   20.8268 N   0  0  0  0  0  0
  -28.6691  -22.0252   20.2086 N   0  3  2  0  0  0
  -31.4727  -12.3929   19.1193 H   0  0  0  0  0  0
  -30.3306  -11.2793   19.8189 H   0  0  0  0  0  0
  -29.7311  -11.7574   17.4293 H   0  0  0  0  0  0
  -29.6659  -13.4672   17.7582 H   0  0  0  0  0  0
  -27.8230  -11.3019   18.8175 H   0  0  0  0  0  0
  -27.3665  -12.6310   17.7857 H   0  0  0  0  0  0
  -27.7039  -14.2454   19.5686 H   0  0  0  0  0  0
  -28.6780  -11.9421   21.3358 H   0  0  0  0  0  0
  -28.4799  -13.5833   21.8704 H   0  0  0  0  0  0
  -25.2746   -9.5696   22.4756 H   0  0  0  0  0  0
  -23.9998   -7.4635   22.7455 H   0  0  0  0  0  0
  -21.0833   -8.8781   19.8948 H   0  0  0  0  0  0
  -22.3685  -10.9683   19.6162 H   0  0  0  0  0  0
  -21.2003   -7.6152   23.9728 H   0  0  0  0  0  0
  -21.1473   -6.0516   25.9078 H   0  0  0  0  0  0
  -22.0602   -2.7617   23.2833 H   0  0  0  0  0  0
  -22.4109  -11.9898   22.4776 H   0  0  0  0  0  0
  -21.1141  -13.1290   22.2602 H   0  0  0  0  0  0
  -24.6668  -15.8405   20.5116 H   0  0  0  0  0  0
  -26.2825  -15.6238   20.0673 H   0  0  0  0  0  0
  -26.7118  -32.5547   23.1184 H   0  0  0  0  0  0
  -25.0069  -33.9801   25.0494 H   0  0  0  0  0  0
  -22.6878  -31.3111   21.4149 H   0  0  0  0  0  0
  -23.3759  -35.9642   23.3287 H   0  0  0  0  0  0
  -24.3588  -36.8947   22.2055 H   0  0  0  0  0  0
  -23.7221  -37.6513   23.6660 H   0  0  0  0  0  0
  -26.0370  -31.6106   20.5930 H   0  0  0  0  0  0
  -26.8164  -30.8945   21.9769 H   0  0  0  0  0  0
  -28.1042  -29.1305   21.1341 H   0  0  0  0  0  0
  -26.0305  -25.9724   19.0405 H   0  0  0  0  0  0
  -23.9679  -27.2890   19.0598 H   0  0  0  0  0  0
  -23.7113  -30.6014   19.4068 H   0  0  0  0  0  0
  -22.7296  -29.2450   19.8735 H   0  0  0  0  0  0
  -25.1285  -36.1990   25.0830 H   0  0  0  0  0  0
  -20.9945  -28.3223   24.1444 H   0  0  0  0  0  0
  -20.5668  -26.2273   23.3601 H   0  0  0  0  0  0
  -21.6633  -26.7459   22.1201 H   0  0  0  0  0  0
  -19.6904  -25.6298   21.1235 H   0  0  0  0  0  0
  -19.6677  -27.3204   20.6750 H   0  0  0  0  0  0
  -17.4190  -26.6683   21.4021 H   0  0  0  0  0  0
  -18.0317  -26.0056   22.9005 H   0  0  0  0  0  0
  -19.7919  -30.7245   24.2319 H   0  0  0  0  0  0
  -17.5000  -31.6275   24.5149 H   0  0  0  0  0  0
  -15.5340  -30.2999   23.7630 H   0  0  0  0  0  0
  -15.8652  -28.0809   22.7091 H   0  0  0  0  0  0
  -24.5919  -30.7051   25.7810 H   0  0  0  0  0  0
  -24.8960  -32.2836   26.4984 H   0  0  0  0  0  0
  -25.8116  -30.8816   27.0209 H   0  0  0  0  0  0
  -26.2806  -29.6815   24.1169 H   0  0  0  0  0  0
  -27.4088  -29.7279   25.4524 H   0  0  0  0  0  0
  -27.8634  -30.4364   23.9194 H   0  0  0  0  0  0
  -27.2710  -33.3607   26.2086 H   0  0  0  0  0  0
  -28.3867  -32.6860   25.0299 H   0  0  0  0  0  0
  -28.0745  -31.8410   26.5376 H   0  0  0  0  0  0
  -28.2600  -38.0112   24.7530 H   0  0  0  0  0  0
  -28.1083  -36.2645   24.6267 H   0  0  0  0  0  0
  -27.2306  -37.1435   25.8868 H   0  0  0  0  0  0
  -20.9289  -29.8754   21.6962 H   0  0  0  0  0  0
  -26.0187  -38.2881   24.1422 H   0  0  0  0  0  0
  -28.1748  -19.6936   21.5025 H   0  0  0  0  0  0
  -30.5299  -19.1489   17.9470 H   0  0  0  0  0  0
  -25.6870  -23.4901   19.2109 H   0  0  0  0  0  0
  -25.9899  -21.7937   19.8617 H   0  0  0  0  0  0
  -27.7602  -24.7965   18.4829 H   0  0  0  0  0  0
  -29.3397  -24.2657   18.9253 H   0  0  0  0  0  0
  -28.5374  -23.3768   22.5444 H   0  0  0  0  0  0
  -30.2367  -23.5805   22.8205 H   0  0  0  0  0  0
  -30.4089  -25.2868   21.0167 H   0  0  0  0  0  0
  -29.3760  -25.7505   22.3348 H   0  0  0  0  0  0
  -30.2709  -21.6761   21.5126 H   0  0  0  0  0  0
  -30.6170  -22.8974   20.3292 H   0  0  0  0  0  0
  -27.3701  -25.2135   21.0705 H   0  0  0  0  0  0
  -29.1182  -16.7330   23.1524 H   0  0  0  0  0  0
  -27.5938  -16.5010   22.2807 H   0  0  0  0  0  0
  -27.9295  -18.0263   23.0930 H   0  0  0  0  0  0
  -31.0400  -17.0725   17.1716 H   0  0  0  0  0  0
  -30.5638  -15.6100   17.9895 H   0  0  0  0  0  0
  -32.0938  -16.4200   18.4093 H   0  0  0  0  0  0
  -28.2394  -20.9167   18.4607 H   0  0  0  0  0  0
  -29.8994  -21.4089   18.5993 H   0  0  0  0  0  0
  -29.0133  -15.1809   21.2973 H   0  0  0  0  0  0
  -28.1518  -21.4701   20.8721 H   0  0  0  0  0  0
  1 25  1  0  0  0
  1 30  2  0  0  0
  1 87  1  0  0  0
  2  3  1  0  0  0
  2 25  1  0  0  0
  2 89  1  0  0  0
  2 90  1  0  0  0
  3  4  1  0  0  0
  3 91  1  0  0  0
  3 92  1  0  0  0
  4  5  1  0  0  0
  4 93  1  0  0  0
  4 94  1  0  0  0
  5  6  1  0  0  0
  5 26  1  0  0  0
  5 95  1  0  0  0
  6 25  1  0  0  0
  6 96  1  0  0  0
  6 97  1  0  0  0
  7  8  2  0  0  0
  7 26  1  0  0  0
  7 29  1  0  0  0
  8  9  1  0  0  0
  8 22  1  0  0  0
  9 10  1  0  0  0
  9 27  2  0  0  0
 10 11  2  0  0  0
 10 15  1  0  0  0
 11 12  1  0  0  0
 11 98  1  0  0  0
 12 13  2  0  0  0
 12 99  1  0  0  0
 13 14  1  0  0  0
 13 31  1  0  0  0
 14 15  2  0  0  0
 14100  1  0  0  0
 15101  1  0  0  0
 16 17  2  0  0  0
 16 21  1  0  0  0
 16 31  1  0  0  0
 17 18  1  0  0  0
 17102  1  0  0  0
 18 19  2  0  0  0
 18103  1  0  0  0
 19 20  1  0  0  0
 19 24  1  0  0  0
 20 21  2  0  0  0
 20104  1  0  0  0
 21 23  1  0  0  0
 22 28  1  0  0  0
 22 32  2  0  0  0
 26 27  1  0  0  0
 28105  1  0  0  0
 28106  1  0  0  0
 29107  1  0  0  0
 29108  1  0  0  0
 33 34  1  0  0  0
 33 66  1  0  0  0
 33 70  2  0  0  0
 34 36  1  0  0  0
 34 59  1  0  0  0
 34109  1  0  0  0
 35 44  2  0  0  0
 35 45  1  0  0  0
 35 68  1  0  0  0
 36 56  1  0  0  0
 36110  1  0  0  0
 37 39  1  0  0  0
 37 47  1  0  0  0
 37 66  1  0  0  0
 37111  1  0  0  0
 38 43  2  0  0  0
 38 46  1  0  0  0
 38 47  1  0  0  0
 39 64  1  0  0  0
 39 67  2  0  0  0
 40 52  1  0  0  0
 40 53  2  0  0  0
 40 58  1  0  0  0
 41112  1  0  0  0
 41113  1  0  0  0
 41114  1  0  0  0
 41 48  1  0  0  0
 42 43  1  0  0  0
 42 66  1  0  0  0
 42115  1  0  0  0
 42116  1  0  0  0
 43 44  1  0  0  0
 44117  1  0  0  0
 45 46  2  0  0  0
 45118  1  0  0  0
 46119  1  0  0  0
 47120  1  0  0  0
 47121  1  0  0  0
 48 56  1  0  0  0
 48 65  1  0  0  0
 48122  1  0  0  0
 49 50  1  0  0  0
 49 53  1  0  0  0
 49 64  1  0  0  0
 49123  1  0  0  0
 50 51  1  0  0  0
 50124  1  0  0  0
 50125  1  0  0  0
 51 52  1  0  0  0
 51126  1  0  0  0
 51127  1  0  0  0
 52128  1  0  0  0
 52129  1  0  0  0
 53 54  1  0  0  0
 54 55  2  0  0  0
 54130  1  0  0  0
 55 57  1  0  0  0
 55131  1  0  0  0
 56 69  2  0  0  0
 57 58  2  0  0  0
 57132  1  0  0  0
 58133  1  0  0  0
 59 60  1  0  0  0
 59 61  1  0  0  0
 59 62  1  0  0  0
 60134  1  0  0  0
 60135  1  0  0  0
 60136  1  0  0  0
 61137  1  0  0  0
 61138  1  0  0  0
 61139  1  0  0  0
 62140  1  0  0  0
 62141  1  0  0  0
 62142  1  0  0  0
 63 65  1  0  0  0
 63143  1  0  0  0
 63144  1  0  0  0
 63145  1  0  0  0
 64146  1  0  0  0
 65147  1  0  0  0
 68 83  1  0  0  0
 71 73  2  0  0  0
 71 74  1  0  0  0
 71148  1  0  0  0
 72 73  1  0  0  0
 72 75  2  0  0  0
 72149  1  0  0  0
 73 86  1  0  0  0
 74 76  2  0  0  0
 74 84  1  0  0  0
 75 76  1  0  0  0
 75 85  1  0  0  0
 76 87  1  0  0  0
 77 78  2  0  0  0
 77 79  1  0  0  0
 77 88  1  0  0  0
 78150  1  0  0  0
 78151  1  0  0  0
 79 83  1  0  0  0
 79152  1  0  0  0
 79153  1  0  0  0
 80 81  1  0  0  0
 80 82  1  0  0  0
 80154  1  0  0  0
 80155  1  0  0  0
 81 83  1  0  0  0
 81156  1  0  0  0
 81157  1  0  0  0
 82 88  1  0  0  0
 82158  1  0  0  0
 82159  1  0  0  0
 83160  1  0  0  0
 84161  1  0  0  0
 84162  1  0  0  0
 84163  1  0  0  0
 85164  1  0  0  0
 85165  1  0  0  0
 85166  1  0  0  0
 86167  1  0  0  0
 86168  1  0  0  0
 86 88  1  0  0  0
 87169  1  0  0  0
 88170  1  0  0  0
M  CHG  1  88   1
M  ISO  4   1 100  68 101  83 101  87 100
M  END
> <chiral flag>
0

> <version>
0

> <s_m_source_file>
/data/baiqing/PycharmProjects/Reinvent-master-3.2/result/LINK_invent/BTK/process_docking_weight1_custom_product_contain_oxygen_bond_distance_aromatic_linkinvent_7_9_3/rearranged_h_0038.sdf

> <i_m_source_file_index>
17

> <r_mmod_Potential_Energy-OPLS-2005>
-121.682914733887

> <r_mmod_Stretch_Energy-OPLS-2005>
40.4755630493164

> <r_mmod_Bend_Energy-OPLS-2005>
124.007766723633

> <r_mmod_Torsional_Energy-OPLS-2005>
263.345123291016

> <r_mmod_Improper_Torsional_Energy-OPLS-2005>
5.43490123748779

> <r_mmod_Van_der_Waal_Energy-OPLS-2005>
159.483108520508

> <r_mmod_Electrostatic_Energy-OPLS-2005>
-295.841857910156

> <r_mmod_Solvation_Energy-OPLS-2005>
-433.620391845703

> <b_mmod_Minimization_Converged-OPLS-2005>
0

> <r_mmod_RMS_Derivative-OPLS-2005>
0.920806109905243

$$$$
17
                    3D
 Structure written by MMmdl.
167176  0  0  1  0            999 V2000
  -30.5874  -14.7098   20.4455 C   0  0  0  0  0  0
  -30.4286  -12.4236   19.4657 C   0  0  0  0  0  0
  -29.5034  -12.5112   18.2318 C   0  0  0  0  0  0
  -28.0256  -12.3571   18.6427 C   0  0  0  0  0  0
  -27.6472  -13.2300   19.8672 C   0  0  2  0  0  0
  -28.6942  -13.1128   20.9975 C   0  0  0  0  0  0
  -25.2543  -13.8166   20.5754 C   0  0  0  0  0  0
  -24.1807  -13.0409   20.9184 C   0  0  0  0  0  0
  -24.6381  -11.6881   20.8686 C   0  0  0  0  0  0
  -23.9041  -10.4280   21.0337 C   0  0  0  0  0  0
  -24.3586   -9.4211   21.9135 C   0  0  0  0  0  0
  -23.6279   -8.2255   22.0713 C   0  0  0  0  0  0
  -22.4258   -8.0262   21.3522 C   0  0  0  0  0  0
  -21.9874   -9.0233   20.4608 C   0  0  0  0  0  0
  -22.7196  -10.2114   20.3001 C   0  0  0  0  0  0
  -21.6860   -6.0697   22.5275 C   0  0  0  0  0  0
  -21.4022   -6.5617   23.8196 C   0  0  0  0  0  0
  -21.3696   -5.6782   24.9172 C   0  0  0  0  0  0
  -21.6061   -4.3050   24.7228 C   0  0  0  0  0  0
  -21.8809   -3.8133   23.4354 C   0  0  0  0  0  0
  -21.9198   -4.6941   22.3386 C   0  0  0  0  0  0
  -22.7845  -13.5198   21.1859 C   0  0  0  0  0  0
  -22.1642   -4.2130   21.0966 F   0  0  0  0  0  0
  -21.5670   -3.4525   25.7750 F   0  0  0  0  0  0
  -30.0003  -13.4661   20.4263 N   0  0  0  0  0  0
  -26.2961  -12.9367   20.3363 N   0  0  0  0  0  0
  -25.9323  -11.6502   20.5755 N   0  0  0  0  0  0
  -22.0539  -12.8165   22.0432 N   0  0  0  0  0  0
  -25.4324  -15.1871   20.4259 N   0  0  0  0  0  0
  -31.7463  -14.8563   20.0406 O   0  0  0  0  0  0
  -21.6646   -6.8845   21.4228 O   0  0  0  0  0  0
  -22.3509  -14.5513   20.6735 O   0  0  0  0  0  0
  -24.6324  -31.8532   23.1974 C   0  0  0  0  0  0
  -25.9143  -32.4735   23.8309 C   0  0  1  0  0  0
  -27.2170  -27.2523   20.1035 C   0  0  0  0  0  0
  -25.5961  -33.8547   24.2230 N   0  0  0  0  0  0
  -23.4278  -30.4768   21.5412 C   0  0  2  0  0  0
  -24.8708  -28.9235   20.1061 C   0  0  0  0  0  0
  -22.7517  -29.4589   22.4915 C   0  0  0  0  0  0
  -18.0322  -28.1367   22.8488 C   0  0  0  0  0  0
  -24.1517  -36.7265   23.2650 C   0  0  0  0  0  0
  -25.9772  -30.7562   21.3853 C   0  0  0  0  0  0
  -26.0435  -29.3844   20.7144 C   0  0  0  0  0  0
  -27.2162  -28.5612   20.7006 C   0  0  0  0  0  0
  -26.0102  -26.8566   19.4808 C   0  0  0  0  0  0
  -24.8608  -27.6695   19.4817 C   0  0  0  0  0  0
  -23.6423  -29.8102   20.1566 C   0  0  0  0  0  0
  -25.4150  -36.3053   24.0323 C   0  0  1  0  0  0
  -20.5921  -28.3681   23.1280 C   0  0  2  0  0  0
  -20.6825  -26.9401   22.5402 C   0  0  0  0  0  0
  -19.5797  -26.6349   21.5227 C   0  0  0  0  0  0
  -18.1979  -26.7913   22.1621 C   0  0  0  0  0  0
  -19.1572  -28.8842   23.2878 C   0  0  0  0  0  0
  -18.9488  -30.1458   23.8878 C   0  0  0  0  0  0
  -17.6477  -30.6572   24.0558 C   0  0  0  0  0  0
  -25.9083  -34.9428   23.5073 C   0  0  0  0  0  0
  -16.5378  -29.9050   23.6342 C   0  0  0  0  0  0
  -16.7294  -28.6469   23.0348 C   0  0  0  0  0  0
  -26.4510  -31.6603   25.0727 C   0  0  0  0  0  0
  -25.3702  -31.3746   26.1408 C   0  0  0  0  0  0
  -27.0402  -30.3032   24.6273 C   0  0  0  0  0  0
  -27.6061  -32.4396   25.7463 C   0  0  0  0  0  0
  -27.5606  -37.1788   24.8473 C   0  0  0  0  0  0
  -21.4223  -29.3023   22.3656 N   0  0  0  0  0  0
  -26.4319  -37.3754   23.9415 N   0  0  0  0  0  0
  -24.6971  -31.0487   22.0954 N   0  0  0  0  0  0
  -23.4222  -28.8135   23.3015 O   0  0  0  0  0  0
  -28.3364  -26.3864   20.1747 O   0  0  0  0  0  0
  -26.5626  -34.8904   22.4630 O   0  0  0  0  0  0
  -23.5481  -32.1350   23.7286 O   0  0  0  0  0  0
  -29.1235  -16.9107   18.7245 C   0  0  0  0  0  0
  -29.4285  -18.3889   20.6202 C   0  0  0  0  0  0
  -28.5504  -17.9837   18.0058 C   0  0  0  0  0  0
  -28.9234  -19.5497   19.8955 C   0  0  0  0  0  0
  -28.4154  -19.2812   18.5845 C   0  0  0  0  0  0
  -29.5232  -17.0468   20.0661 C   0  0  0  0  0  0
  -28.1220  -17.6918   16.6250 C   0  0  0  0  0  0
  -26.8979  -17.2426   16.2924 C   0  0  0  0  0  0
  -29.9070  -23.6667   17.9924 C   0  0  0  0  0  0
  -29.6915  -25.0097   18.7201 C   0  0  0  0  0  0
  -30.0577  -22.4929   18.9796 C   0  0  0  0  0  0
  -28.4804  -23.6605   20.5020 C   0  0  0  0  0  0
  -28.4144  -24.9987   19.5812 C   0  0  1  0  0  0
  -27.6432  -20.3329   17.7906 C   0  0  0  0  0  0
  -28.8183  -21.0036   20.5877 C   0  0  0  0  0  0
  -29.8203  -15.8024   20.8137 N   0  0  0  0  0  0
  -28.8234  -22.3270   19.7844 N   0  3  2  0  0  0
  -26.4282  -16.8794   14.6712 Cl  0  0  0  0  0  0
  -25.6266  -16.9675   17.4294 Cl  0  0  0  0  0  0
  -31.4701  -12.5417   19.1644 H   0  0  0  0  0  0
  -30.3614  -11.4343   19.9208 H   0  0  0  0  0  0
  -29.7627  -11.7480   17.4981 H   0  0  0  0  0  0
  -29.6537  -13.4713   17.7389 H   0  0  0  0  0  0
  -27.8622  -11.3054   18.8779 H   0  0  0  0  0  0
  -27.3680  -12.5875   17.8016 H   0  0  0  0  0  0
  -27.6556  -14.2647   19.5197 H   0  0  0  0  0  0
  -28.7207  -12.0956   21.3899 H   0  0  0  0  0  0
  -28.4440  -13.7561   21.8416 H   0  0  0  0  0  0
  -25.2721   -9.5722   22.4703 H   0  0  0  0  0  0
  -24.0013   -7.4646   22.7382 H   0  0  0  0  0  0
  -21.0818   -8.8692   19.8902 H   0  0  0  0  0  0
  -22.3606  -10.9629   19.6104 H   0  0  0  0  0  0
  -21.1983   -7.6110   23.9703 H   0  0  0  0  0  0
  -21.1541   -6.0499   25.9068 H   0  0  0  0  0  0
  -22.0552   -2.7591   23.2850 H   0  0  0  0  0  0
  -22.4193  -11.9770   22.4682 H   0  0  0  0  0  0
  -21.1141  -13.1095   22.2711 H   0  0  0  0  0  0
  -24.6617  -15.8363   20.5237 H   0  0  0  0  0  0
  -26.2774  -15.6203   20.0772 H   0  0  0  0  0  0
  -26.7185  -32.5352   23.1007 H   0  0  0  0  0  0
  -25.0170  -33.9697   25.0411 H   0  0  0  0  0  0
  -22.7258  -31.3009   21.3949 H   0  0  0  0  0  0
  -23.3813  -35.9567   23.3268 H   0  0  0  0  0  0
  -24.3618  -36.8916   22.2078 H   0  0  0  0  0  0
  -23.7219  -37.6434   23.6696 H   0  0  0  0  0  0
  -26.1438  -31.5284   20.6346 H   0  0  0  0  0  0
  -26.8455  -30.7806   22.0324 H   0  0  0  0  0  0
  -28.1181  -28.9139   21.1807 H   0  0  0  0  0  0
  -25.8927  -25.8999   19.0026 H   0  0  0  0  0  0
  -23.9571  -27.3074   19.0079 H   0  0  0  0  0  0
  -23.7631  -30.5864   19.4000 H   0  0  0  0  0  0
  -22.7599  -29.2425   19.8541 H   0  0  0  0  0  0
  -25.1341  -36.1885   25.0817 H   0  0  0  0  0  0
  -21.0036  -28.3234   24.1387 H   0  0  0  0  0  0
  -20.5809  -26.2267   23.3592 H   0  0  0  0  0  0
  -21.6682  -26.7458   22.1142 H   0  0  0  0  0  0
  -19.6986  -25.6252   21.1271 H   0  0  0  0  0  0
  -19.6759  -27.3144   20.6751 H   0  0  0  0  0  0
  -17.4267  -26.6694   21.3999 H   0  0  0  0  0  0
  -18.0354  -26.0024   22.8978 H   0  0  0  0  0  0
  -19.7967  -30.7317   24.2206 H   0  0  0  0  0  0
  -17.5015  -31.6257   24.5141 H   0  0  0  0  0  0
  -15.5372  -30.2939   23.7680 H   0  0  0  0  0  0
  -15.8695  -28.0784   22.7056 H   0  0  0  0  0  0
  -24.5855  -30.7154   25.7656 H   0  0  0  0  0  0
  -24.8911  -32.2912   26.4869 H   0  0  0  0  0  0
  -25.7944  -30.8832   27.0160 H   0  0  0  0  0  0
  -26.3003  -29.6741   24.1306 H   0  0  0  0  0  0
  -27.4086  -29.7350   25.4821 H   0  0  0  0  0  0
  -27.8866  -30.4340   23.9527 H   0  0  0  0  0  0
  -27.2667  -33.3714   26.1992 H   0  0  0  0  0  0
  -28.3837  -32.6936   25.0250 H   0  0  0  0  0  0
  -28.0760  -31.8562   26.5388 H   0  0  0  0  0  0
  -28.2577  -38.0131   24.7567 H   0  0  0  0  0  0
  -28.1137  -36.2655   24.6234 H   0  0  0  0  0  0
  -27.2317  -37.1341   25.8870 H   0  0  0  0  0  0
  -20.9430  -29.8647   21.6772 H   0  0  0  0  0  0
  -26.0192  -38.2821   24.1424 H   0  0  0  0  0  0
  -29.1643  -15.9420   18.2480 H   0  0  0  0  0  0
  -29.7145  -18.5315   21.6532 H   0  0  0  0  0  0
  -28.8579  -17.8451   15.8461 H   0  0  0  0  0  0
  -30.7961  -23.7252   17.3631 H   0  0  0  0  0  0
  -29.0739  -23.4694   17.3141 H   0  0  0  0  0  0
  -29.6393  -25.8172   17.9894 H   0  0  0  0  0  0
  -30.5536  -25.2245   19.3518 H   0  0  0  0  0  0
  -30.9053  -22.6666   19.6438 H   0  0  0  0  0  0
  -30.2866  -21.5785   18.4294 H   0  0  0  0  0  0
  -27.5288  -23.5490   21.0203 H   0  0  0  0  0  0
  -29.2268  -23.8117   21.2808 H   0  0  0  0  0  0
  -27.6061  -24.8450   18.8720 H   0  0  0  0  0  0
  -26.8342  -19.8810   17.2179 H   0  0  0  0  0  0
  -28.2925  -20.8524   17.0858 H   0  0  0  0  0  0
  -27.1304  -21.0484   18.4273 H   0  0  0  0  0  0
  -29.6353  -21.0711   21.3063 H   0  0  0  0  0  0
  -27.9094  -20.9888   21.1896 H   0  0  0  0  0  0
  -29.0697  -15.5348   21.4381 H   0  0  0  0  0  0
  -28.0822  -22.1929   19.1128 H   0  0  0  0  0  0
  1 25  1  0  0  0
  1 30  2  0  0  0
  1 86  1  0  0  0
  2  3  1  0  0  0
  2 25  1  0  0  0
  2 90  1  0  0  0
  2 91  1  0  0  0
  3  4  1  0  0  0
  3 92  1  0  0  0
  3 93  1  0  0  0
  4  5  1  0  0  0
  4 94  1  0  0  0
  4 95  1  0  0  0
  5  6  1  0  0  0
  5 26  1  0  0  0
  5 96  1  0  0  0
  6 25  1  0  0  0
  6 97  1  0  0  0
  6 98  1  0  0  0
  7  8  2  0  0  0
  7 26  1  0  0  0
  7 29  1  0  0  0
  8  9  1  0  0  0
  8 22  1  0  0  0
  9 10  1  0  0  0
  9 27  2  0  0  0
 10 11  2  0  0  0
 10 15  1  0  0  0
 11 12  1  0  0  0
 11 99  1  0  0  0
 12 13  2  0  0  0
 12100  1  0  0  0
 13 14  1  0  0  0
 13 31  1  0  0  0
 14 15  2  0  0  0
 14101  1  0  0  0
 15102  1  0  0  0
 16 17  2  0  0  0
 16 21  1  0  0  0
 16 31  1  0  0  0
 17 18  1  0  0  0
 17103  1  0  0  0
 18 19  2  0  0  0
 18104  1  0  0  0
 19 20  1  0  0  0
 19 24  1  0  0  0
 20 21  2  0  0  0
 20105  1  0  0  0
 21 23  1  0  0  0
 22 28  1  0  0  0
 22 32  2  0  0  0
 26 27  1  0  0  0
 28106  1  0  0  0
 28107  1  0  0  0
 29108  1  0  0  0
 29109  1  0  0  0
 33 34  1  0  0  0
 33 66  1  0  0  0
 33 70  2  0  0  0
 34 36  1  0  0  0
 34 59  1  0  0  0
 34110  1  0  0  0
 35 44  2  0  0  0
 35 45  1  0  0  0
 35 68  1  0  0  0
 36 56  1  0  0  0
 36111  1  0  0  0
 37 39  1  0  0  0
 37 47  1  0  0  0
 37 66  1  0  0  0
 37112  1  0  0  0
 38 43  2  0  0  0
 38 46  1  0  0  0
 38 47  1  0  0  0
 39 64  1  0  0  0
 39 67  2  0  0  0
 40 52  1  0  0  0
 40 53  2  0  0  0
 40 58  1  0  0  0
 41113  1  0  0  0
 41114  1  0  0  0
 41115  1  0  0  0
 41 48  1  0  0  0
 42 43  1  0  0  0
 42 66  1  0  0  0
 42116  1  0  0  0
 42117  1  0  0  0
 43 44  1  0  0  0
 44118  1  0  0  0
 45 46  2  0  0  0
 45119  1  0  0  0
 46120  1  0  0  0
 47121  1  0  0  0
 47122  1  0  0  0
 48 56  1  0  0  0
 48 65  1  0  0  0
 48123  1  0  0  0
 49 50  1  0  0  0
 49 53  1  0  0  0
 49 64  1  0  0  0
 49124  1  0  0  0
 50 51  1  0  0  0
 50125  1  0  0  0
 50126  1  0  0  0
 51 52  1  0  0  0
 51127  1  0  0  0
 51128  1  0  0  0
 52129  1  0  0  0
 52130  1  0  0  0
 53 54  1  0  0  0
 54 55  2  0  0  0
 54131  1  0  0  0
 55 57  1  0  0  0
 55132  1  0  0  0
 56 69  2  0  0  0
 57 58  2  0  0  0
 57133  1  0  0  0
 58134  1  0  0  0
 59 60  1  0  0  0
 59 61  1  0  0  0
 59 62  1  0  0  0
 60135  1  0  0  0
 60136  1  0  0  0
 60137  1  0  0  0
 61138  1  0  0  0
 61139  1  0  0  0
 61140  1  0  0  0
 62141  1  0  0  0
 62142  1  0  0  0
 62143  1  0  0  0
 63 65  1  0  0  0
 63144  1  0  0  0
 63145  1  0  0  0
 63146  1  0  0  0
 64147  1  0  0  0
 65148  1  0  0  0
 68 83  1  0  0  0
 71 73  2  0  0  0
 71 76  1  0  0  0
 71149  1  0  0  0
 72 74  1  0  0  0
 72 76  2  0  0  0
 72150  1  0  0  0
 73 75  1  0  0  0
 73 77  1  0  0  0
 74 75  2  0  0  0
 74 85  1  0  0  0
 75 84  1  0  0  0
 76 86  1  0  0  0
 77 78  2  0  0  0
 77151  1  0  0  0
 78 88  1  0  0  0
 78 89  1  0  0  0
 79 80  1  0  0  0
 79 81  1  0  0  0
 79152  1  0  0  0
 79153  1  0  0  0
 80 83  1  0  0  0
 80154  1  0  0  0
 80155  1  0  0  0
 81 87  1  0  0  0
 81156  1  0  0  0
 81157  1  0  0  0
 82 83  1  0  0  0
 82 87  1  0  0  0
 82158  1  0  0  0
 82159  1  0  0  0
 83160  1  0  0  0
 84161  1  0  0  0
 84162  1  0  0  0
 84163  1  0  0  0
 85164  1  0  0  0
 85165  1  0  0  0
 85 87  1  0  0  0
 86166  1  0  0  0
 87167  1  0  0  0
M  CHG  1  87   1
M  ISO  4   1 100  68 101  83 101  86 100
M  END
> <chiral flag>
0

> <version>
0

> <s_m_source_file>
/data/baiqing/PycharmProjects/Reinvent-master-3.2/result/LINK_invent/BTK/process_docking_weight1_custom_product_contain_oxygen_bond_distance_aromatic_linkinvent_7_9_3/rearranged_h_0038.sdf

> <i_m_source_file_index>
18

> <r_mmod_Potential_Energy-OPLS-2005>
161.664978027344

> <r_mmod_Stretch_Energy-OPLS-2005>
133.322021484375

> <r_mmod_Bend_Energy-OPLS-2005>
181.549545288086

> <r_mmod_Torsional_Energy-OPLS-2005>
309.800842285156

> <r_mmod_Improper_Torsional_Energy-OPLS-2005>
6.6356315612793

> <r_mmod_Van_der_Waal_Energy-OPLS-2005>
132.366577148438

> <r_mmod_Electrostatic_Energy-OPLS-2005>
-244.99787902832

> <r_mmod_Solvation_Energy-OPLS-2005>
-434.184112548828

> <b_mmod_Minimization_Converged-OPLS-2005>
0

> <r_mmod_RMS_Derivative-OPLS-2005>
4.22309732437134

$$$$
18
                    3D
 Structure written by MMmdl.
170179  0  0  1  0            999 V2000
  -30.8072  -14.3927   20.6787 C   0  0  0  0  0  0
  -30.4077  -12.3040   19.4324 C   0  0  0  0  0  0
  -29.4962  -12.5402   18.2165 C   0  0  0  0  0  0
  -28.0201  -12.4030   18.6251 C   0  0  0  0  0  0
  -27.6678  -13.2319   19.8898 C   0  0  2  0  0  0
  -28.7056  -13.0297   21.0196 C   0  0  0  0  0  0
  -25.2560  -13.8236   20.5726 C   0  0  0  0  0  0
  -24.1816  -13.0443   20.9168 C   0  0  0  0  0  0
  -24.6443  -11.6938   20.8727 C   0  0  0  0  0  0
  -23.9112  -10.4294   21.0369 C   0  0  0  0  0  0
  -24.3631   -9.4213   21.9157 C   0  0  0  0  0  0
  -23.6302   -8.2252   22.0728 C   0  0  0  0  0  0
  -22.4285   -8.0277   21.3546 C   0  0  0  0  0  0
  -21.9934   -9.0237   20.4637 C   0  0  0  0  0  0
  -22.7270  -10.2123   20.3036 C   0  0  0  0  0  0
  -21.6866   -6.0728   22.5268 C   0  0  0  0  0  0
  -21.4000   -6.5626   23.8189 C   0  0  0  0  0  0
  -21.3671   -5.6793   24.9170 C   0  0  0  0  0  0
  -21.6047   -4.3043   24.7228 C   0  0  0  0  0  0
  -21.8837   -3.8132   23.4347 C   0  0  0  0  0  0
  -21.9183   -4.6952   22.3399 C   0  0  0  0  0  0
  -22.7843  -13.5209   21.1831 C   0  0  0  0  0  0
  -22.1659   -4.2127   21.0982 F   0  0  0  0  0  0
  -21.5637   -3.4526   25.7742 F   0  0  0  0  0  0
  -30.0566  -13.2741   20.4829 N   0  0  0  0  0  0
  -26.3052  -12.9472   20.3451 N   0  0  0  0  0  0
  -25.9388  -11.6599   20.5796 N   0  0  0  0  0  0
  -22.0500  -12.8183   22.0405 N   0  0  0  0  0  0
  -25.4279  -15.1944   20.4147 N   0  0  0  0  0  0
  -31.7858  -14.6616   19.9766 O   0  0  0  0  0  0
  -21.6656   -6.8870   21.4237 O   0  0  0  0  0  0
  -22.3532  -14.5515   20.6716 O   0  0  0  0  0  0
  -24.6225  -31.8579   23.2082 C   0  0  0  0  0  0
  -25.9107  -32.4753   23.8366 C   0  0  1  0  0  0
  -27.2097  -27.3644   20.1293 C   0  0  0  0  0  0
  -25.5970  -33.8547   24.2291 N   0  0  0  0  0  0
  -23.4103  -30.4904   21.5432 C   0  0  2  0  0  0
  -24.8566  -28.9551   20.0990 C   0  0  0  0  0  0
  -22.7436  -29.4609   22.4847 C   0  0  0  0  0  0
  -18.0294  -28.1366   22.8450 C   0  0  0  0  0  0
  -24.1494  -36.7307   23.2632 C   0  0  0  0  0  0
  -25.9414  -30.8001   21.3777 C   0  0  0  0  0  0
  -26.0107  -29.4336   20.7284 C   0  0  0  0  0  0
  -27.1886  -28.6426   20.7428 C   0  0  0  0  0  0
  -26.0749  -26.9862   19.3781 C   0  0  0  0  0  0
  -24.8914  -27.7389   19.4028 C   0  0  0  0  0  0
  -23.6218  -29.8302   20.1557 C   0  0  0  0  0  0
  -25.4117  -36.3047   24.0318 C   0  0  1  0  0  0
  -20.5878  -28.3621   23.1192 C   0  0  2  0  0  0
  -20.6772  -26.9409   22.5158 C   0  0  0  0  0  0
  -19.5681  -26.6427   21.5061 C   0  0  0  0  0  0
  -18.1892  -26.7972   22.1509 C   0  0  0  0  0  0
  -19.1543  -28.8797   23.2831 C   0  0  0  0  0  0
  -18.9506  -30.1423   23.8808 C   0  0  0  0  0  0
  -17.6533  -30.6555   24.0557 C   0  0  0  0  0  0
  -25.9049  -34.9433   23.5083 C   0  0  0  0  0  0
  -16.5379  -29.9094   23.6327 C   0  0  0  0  0  0
  -16.7286  -28.6523   23.0303 C   0  0  0  0  0  0
  -26.4587  -31.6600   25.0721 C   0  0  0  0  0  0
  -25.3898  -31.3714   26.1491 C   0  0  0  0  0  0
  -27.0432  -30.3001   24.6214 C   0  0  0  0  0  0
  -27.6088  -32.4399   25.7563 C   0  0  0  0  0  0
  -27.5570  -37.1807   24.8481 C   0  0  0  0  0  0
  -21.4121  -29.3066   22.3660 N   0  0  0  0  0  0
  -26.4300  -37.3746   23.9405 N   0  0  0  0  0  0
  -24.6750  -31.0669   22.1020 N   0  0  0  0  0  0
  -23.4234  -28.8085   23.2800 O   0  0  0  0  0  0
  -28.3415  -26.5675   20.2417 O   0  0  0  0  0  0
  -26.5587  -34.8927   22.4635 O   0  0  0  0  0  0
  -23.5376  -32.1343   23.7451 O   0  0  0  0  0  0
  -28.9720  -19.4291   21.9799 C   0  0  0  0  0  0
  -29.5712  -18.1812   21.6876 C   0  0  0  0  0  0
  -29.2432  -20.0935   23.2030 C   0  0  0  0  0  0
  -30.4939  -17.5906   22.5760 C   0  0  0  0  0  0
  -30.0538  -19.4212   24.1658 C   0  0  0  0  0  0
  -30.7303  -18.2221   23.8249 C   0  0  0  0  0  0
  -29.5150  -23.1802   21.7882 C   0  0  0  0  0  0
  -30.6852  -22.5392   21.5985 C   0  0  0  0  0  0
  -29.3394  -24.6873   21.4594 C   0  0  0  0  0  0
  -26.5707  -24.3892   22.1093 C   0  0  0  0  0  0
  -26.9817  -24.3353   20.6363 C   0  0  0  0  0  0
  -27.2335  -23.3394   23.0204 C   0  0  0  0  0  0
  -28.3045  -25.0984   20.3555 C   0  0  2  0  0  0
  -30.1880  -19.9361   25.5986 C   0  0  0  0  0  0
  -31.2840  -16.3424   22.1420 C   0  0  0  0  0  0
  -28.6648  -21.4878   23.5299 C   0  0  0  0  0  0
  -30.4952  -15.1662   21.7313 N   0  0  0  0  0  0
  -28.3190  -22.4733   22.4449 N   0  3  2  0  0  0
  -31.8729  -17.5528   24.9475 Cl  0  0  0  0  0  0
  -31.4562  -12.3699   19.1340 H   0  0  0  0  0  0
  -30.2715  -11.2903   19.8153 H   0  0  0  0  0  0
  -29.7300  -11.8283   17.4230 H   0  0  0  0  0  0
  -29.6824  -13.5346   17.8070 H   0  0  0  0  0  0
  -27.8272  -11.3449   18.8102 H   0  0  0  0  0  0
  -27.3760  -12.6959   17.7951 H   0  0  0  0  0  0
  -27.7096  -14.2819   19.6011 H   0  0  0  0  0  0
  -28.6536  -12.0190   21.4258 H   0  0  0  0  0  0
  -28.4589  -13.6884   21.8526 H   0  0  0  0  0  0
  -25.2763   -9.5673   22.4750 H   0  0  0  0  0  0
  -23.9984   -7.4650   22.7453 H   0  0  0  0  0  0
  -21.0855   -8.8788   19.8935 H   0  0  0  0  0  0
  -22.3727  -10.9667   19.6134 H   0  0  0  0  0  0
  -21.2004   -7.6124   23.9700 H   0  0  0  0  0  0
  -21.1471   -6.0511   25.9079 H   0  0  0  0  0  0
  -22.0610   -2.7585   23.2865 H   0  0  0  0  0  0
  -22.4122  -11.9838   22.4800 H   0  0  0  0  0  0
  -21.1104  -13.1176   22.2586 H   0  0  0  0  0  0
  -24.6686  -15.8589   20.5302 H   0  0  0  0  0  0
  -26.3000  -15.6306   20.1481 H   0  0  0  0  0  0
  -26.7096  -32.5467   23.1056 H   0  0  0  0  0  0
  -25.0178  -33.9726   25.0464 H   0  0  0  0  0  0
  -22.7013  -31.3109   21.4075 H   0  0  0  0  0  0
  -23.3696  -35.9692   23.3320 H   0  0  0  0  0  0
  -24.3589  -36.8897   22.2042 H   0  0  0  0  0  0
  -23.7292  -37.6549   23.6617 H   0  0  0  0  0  0
  -26.0781  -31.5521   20.5978 H   0  0  0  0  0  0
  -26.8219  -30.8474   22.0009 H   0  0  0  0  0  0
  -28.0633  -28.9977   21.2669 H   0  0  0  0  0  0
  -26.0953  -26.1245   18.7281 H   0  0  0  0  0  0
  -24.0323  -27.4080   18.8300 H   0  0  0  0  0  0
  -23.7461  -30.6071   19.4035 H   0  0  0  0  0  0
  -22.7403  -29.2653   19.8427 H   0  0  0  0  0  0
  -25.1241  -36.1896   25.0781 H   0  0  0  0  0  0
  -20.9984  -28.3093   24.1316 H   0  0  0  0  0  0
  -20.5862  -26.2157   23.3229 H   0  0  0  0  0  0
  -21.6602  -26.7594   22.0811 H   0  0  0  0  0  0
  -19.6799  -25.6368   21.1041 H   0  0  0  0  0  0
  -19.6515  -27.3285   20.6657 H   0  0  0  0  0  0
  -17.4107  -26.6892   21.3929 H   0  0  0  0  0  0
  -18.0225  -26.0058   22.8807 H   0  0  0  0  0  0
  -19.8005  -30.7245   24.2056 H   0  0  0  0  0  0
  -17.5156  -31.6201   24.5222 H   0  0  0  0  0  0
  -15.5411  -30.2975   23.7742 H   0  0  0  0  0  0
  -15.8702  -28.0899   22.6962 H   0  0  0  0  0  0
  -24.5929  -30.7268   25.7811 H   0  0  0  0  0  0
  -24.9362  -32.2883   26.5257 H   0  0  0  0  0  0
  -25.8299  -30.8592   27.0052 H   0  0  0  0  0  0
  -26.2888  -29.6633   24.1545 H   0  0  0  0  0  0
  -27.4400  -29.7435   25.4739 H   0  0  0  0  0  0
  -27.8713  -30.4291   23.9231 H   0  0  0  0  0  0
  -27.2589  -33.3651   26.2218 H   0  0  0  0  0  0
  -28.3908  -32.7090   25.0429 H   0  0  0  0  0  0
  -28.0787  -31.8526   26.5485 H   0  0  0  0  0  0
  -28.2539  -38.0140   24.7409 H   0  0  0  0  0  0
  -28.1035  -36.2602   24.6338 H   0  0  0  0  0  0
  -27.2294  -37.1522   25.8898 H   0  0  0  0  0  0
  -20.9298  -29.8881   21.6933 H   0  0  0  0  0  0
  -26.0141  -38.2793   24.1406 H   0  0  0  0  0  0
  -28.3229  -19.8742   21.2366 H   0  0  0  0  0  0
  -29.3734  -17.7057   20.7368 H   0  0  0  0  0  0
  -31.5456  -23.0597   21.1970 H   0  0  0  0  0  0
  -30.8323  -21.4971   21.8374 H   0  0  0  0  0  0
  -30.3139  -25.0566   21.1394 H   0  0  0  0  0  0
  -29.1439  -25.2212   22.3917 H   0  0  0  0  0  0
  -26.7677  -25.3874   22.5055 H   0  0  0  0  0  0
  -25.4898  -24.2635   22.1911 H   0  0  0  0  0  0
  -26.1420  -24.6275   20.0295 H   0  0  0  0  0  0
  -27.1003  -23.2988   20.3225 H   0  0  0  0  0  0
  -26.4223  -22.6945   23.3666 H   0  0  0  0  0  0
  -27.6142  -23.8422   23.9131 H   0  0  0  0  0  0
  -28.6680  -24.7346   19.3944 H   0  0  0  0  0  0
  -29.5124  -20.7453   25.8618 H   0  0  0  0  0  0
  -31.2126  -20.2442   25.8151 H   0  0  0  0  0  0
  -29.9395  -19.1330   26.2932 H   0  0  0  0  0  0
  -31.9949  -16.0144   22.8977 H   0  0  0  0  0  0
  -31.9195  -16.6802   21.3245 H   0  0  0  0  0  0
  -29.3655  -22.0288   24.1664 H   0  0  0  0  0  0
  -27.7910  -21.2686   24.1424 H   0  0  0  0  0  0
  -29.7635  -14.8426   22.3457 H   0  0  0  0  0  0
  -27.8556  -21.9287   21.7317 H   0  0  0  0  0  0
  1 25  1  0  0  0
  1 30  2  0  0  0
  1 87  1  0  0  0
  2  3  1  0  0  0
  2 25  1  0  0  0
  2 90  1  0  0  0
  2 91  1  0  0  0
  3  4  1  0  0  0
  3 92  1  0  0  0
  3 93  1  0  0  0
  4  5  1  0  0  0
  4 94  1  0  0  0
  4 95  1  0  0  0
  5  6  1  0  0  0
  5 26  1  0  0  0
  5 96  1  0  0  0
  6 25  1  0  0  0
  6 97  1  0  0  0
  6 98  1  0  0  0
  7  8  2  0  0  0
  7 26  1  0  0  0
  7 29  1  0  0  0
  8  9  1  0  0  0
  8 22  1  0  0  0
  9 10  1  0  0  0
  9 27  2  0  0  0
 10 11  2  0  0  0
 10 15  1  0  0  0
 11 12  1  0  0  0
 11 99  1  0  0  0
 12 13  2  0  0  0
 12100  1  0  0  0
 13 14  1  0  0  0
 13 31  1  0  0  0
 14 15  2  0  0  0
 14101  1  0  0  0
 15102  1  0  0  0
 16 17  2  0  0  0
 16 21  1  0  0  0
 16 31  1  0  0  0
 17 18  1  0  0  0
 17103  1  0  0  0
 18 19  2  0  0  0
 18104  1  0  0  0
 19 20  1  0  0  0
 19 24  1  0  0  0
 20 21  2  0  0  0
 20105  1  0  0  0
 21 23  1  0  0  0
 22 28  1  0  0  0
 22 32  2  0  0  0
 26 27  1  0  0  0
 28106  1  0  0  0
 28107  1  0  0  0
 29108  1  0  0  0
 29109  1  0  0  0
 33 34  1  0  0  0
 33 66  1  0  0  0
 33 70  2  0  0  0
 34 36  1  0  0  0
 34 59  1  0  0  0
 34110  1  0  0  0
 35 44  2  0  0  0
 35 45  1  0  0  0
 35 68  1  0  0  0
 36 56  1  0  0  0
 36111  1  0  0  0
 37 39  1  0  0  0
 37 47  1  0  0  0
 37 66  1  0  0  0
 37112  1  0  0  0
 38 43  2  0  0  0
 38 46  1  0  0  0
 38 47  1  0  0  0
 39 64  1  0  0  0
 39 67  2  0  0  0
 40 52  1  0  0  0
 40 53  2  0  0  0
 40 58  1  0  0  0
 41113  1  0  0  0
 41114  1  0  0  0
 41115  1  0  0  0
 41 48  1  0  0  0
 42 43  1  0  0  0
 42 66  1  0  0  0
 42116  1  0  0  0
 42117  1  0  0  0
 43 44  1  0  0  0
 44118  1  0  0  0
 45 46  2  0  0  0
 45119  1  0  0  0
 46120  1  0  0  0
 47121  1  0  0  0
 47122  1  0  0  0
 48 56  1  0  0  0
 48 65  1  0  0  0
 48123  1  0  0  0
 49 50  1  0  0  0
 49 53  1  0  0  0
 49 64  1  0  0  0
 49124  1  0  0  0
 50 51  1  0  0  0
 50125  1  0  0  0
 50126  1  0  0  0
 51 52  1  0  0  0
 51127  1  0  0  0
 51128  1  0  0  0
 52129  1  0  0  0
 52130  1  0  0  0
 53 54  1  0  0  0
 54 55  2  0  0  0
 54131  1  0  0  0
 55 57  1  0  0  0
 55132  1  0  0  0
 56 69  2  0  0  0
 57 58  2  0  0  0
 57133  1  0  0  0
 58134  1  0  0  0
 59 60  1  0  0  0
 59 61  1  0  0  0
 59 62  1  0  0  0
 60135  1  0  0  0
 60136  1  0  0  0
 60137  1  0  0  0
 61138  1  0  0  0
 61139  1  0  0  0
 61140  1  0  0  0
 62141  1  0  0  0
 62142  1  0  0  0
 62143  1  0  0  0
 63 65  1  0  0  0
 63144  1  0  0  0
 63145  1  0  0  0
 63146  1  0  0  0
 64147  1  0  0  0
 65148  1  0  0  0
 68 83  1  0  0  0
 71 72  2  0  0  0
 71 73  1  0  0  0
 71149  1  0  0  0
 72 74  1  0  0  0
 72150  1  0  0  0
 73 75  2  0  0  0
 73 86  1  0  0  0
 74 76  2  0  0  0
 74 85  1  0  0  0
 75 76  1  0  0  0
 75 84  1  0  0  0
 76 89  1  0  0  0
 77 78  2  0  0  0
 77 79  1  0  0  0
 77 88  1  0  0  0
 78151  1  0  0  0
 78152  1  0  0  0
 79 83  1  0  0  0
 79153  1  0  0  0
 79154  1  0  0  0
 80 81  1  0  0  0
 80 82  1  0  0  0
 80155  1  0  0  0
 80156  1  0  0  0
 81 83  1  0  0  0
 81157  1  0  0  0
 81158  1  0  0  0
 82 88  1  0  0  0
 82159  1  0  0  0
 82160  1  0  0  0
 83161  1  0  0  0
 84162  1  0  0  0
 84163  1  0  0  0
 84164  1  0  0  0
 85 87  1  0  0  0
 85165  1  0  0  0
 85166  1  0  0  0
 86167  1  0  0  0
 86168  1  0  0  0
 86 88  1  0  0  0
 87169  1  0  0  0
 88170  1  0  0  0
M  CHG  1  88   1
M  ISO  4   1 100  68 101  83 101  87 100
M  END
> <chiral flag>
0

> <version>
0

> <s_m_source_file>
/data/baiqing/PycharmProjects/Reinvent-master-3.2/result/LINK_invent/BTK/process_docking_weight1_custom_product_contain_oxygen_bond_distance_aromatic_linkinvent_7_9_3/rearranged_h_0038.sdf

> <i_m_source_file_index>
19

> <r_mmod_Potential_Energy-OPLS-2005>
-20.7287464141846

> <r_mmod_Stretch_Energy-OPLS-2005>
58.3916778564453

> <r_mmod_Bend_Energy-OPLS-2005>
168.360809326172

> <r_mmod_Torsional_Energy-OPLS-2005>
259.093505859375

> <r_mmod_Improper_Torsional_Energy-OPLS-2005>
2.89070868492126

> <r_mmod_Van_der_Waal_Energy-OPLS-2005>
189.635467529297

> <r_mmod_Electrostatic_Energy-OPLS-2005>
-286.320037841797

> <r_mmod_Solvation_Energy-OPLS-2005>
-438.312652587891

> <b_mmod_Minimization_Converged-OPLS-2005>
0

> <r_mmod_RMS_Derivative-OPLS-2005>
8.04156494140625

$$$$
19
                    3D
 Structure written by MMmdl.
169178  0  0  1  0            999 V2000
  -30.7096  -14.5092   20.5922 C   0  0  0  0  0  0
  -30.4257  -12.3353   19.4427 C   0  0  0  0  0  0
  -29.5089  -12.5238   18.2170 C   0  0  0  0  0  0
  -28.0307  -12.3713   18.6254 C   0  0  0  0  0  0
  -27.6645  -13.2131   19.8779 C   0  0  2  0  0  0
  -28.7029  -13.0235   21.0068 C   0  0  0  0  0  0
  -25.2591  -13.8157   20.5642 C   0  0  0  0  0  0
  -24.1848  -13.0441   20.9154 C   0  0  0  0  0  0
  -24.6413  -11.6911   20.8714 C   0  0  0  0  0  0
  -23.9076  -10.4299   21.0394 C   0  0  0  0  0  0
  -24.3613   -9.4215   21.9182 C   0  0  0  0  0  0
  -23.6284   -8.2252   22.0772 C   0  0  0  0  0  0
  -22.4264   -8.0292   21.3562 C   0  0  0  0  0  0
  -21.9896   -9.0270   20.4662 C   0  0  0  0  0  0
  -22.7238  -10.2147   20.3060 C   0  0  0  0  0  0
  -21.6868   -6.0729   22.5279 C   0  0  0  0  0  0
  -21.4030   -6.5636   23.8210 C   0  0  0  0  0  0
  -21.3659   -5.6790   24.9173 C   0  0  0  0  0  0
  -21.6037   -4.3052   24.7232 C   0  0  0  0  0  0
  -21.8814   -3.8143   23.4353 C   0  0  0  0  0  0
  -21.9195   -4.6956   22.3404 C   0  0  0  0  0  0
  -22.7872  -13.5253   21.1816 C   0  0  0  0  0  0
  -22.1660   -4.2133   21.0984 F   0  0  0  0  0  0
  -21.5625   -3.4536   25.7746 F   0  0  0  0  0  0
  -30.0336  -13.3329   20.4545 N   0  0  0  0  0  0
  -26.3035  -12.9342   20.3331 N   0  0  0  0  0  0
  -25.9341  -11.6499   20.5730 N   0  0  0  0  0  0
  -22.0490  -12.8280   22.0371 N   0  0  0  0  0  0
  -25.4298  -15.1864   20.4046 N   0  0  0  0  0  0
  -31.8259  -14.6862   20.0952 O   0  0  0  0  0  0
  -21.6651   -6.8874   21.4242 O   0  0  0  0  0  0
  -22.3568  -14.5560   20.6672 O   0  0  0  0  0  0
  -24.6162  -31.8679   23.2070 C   0  0  0  0  0  0
  -25.9057  -32.4811   23.8365 C   0  0  1  0  0  0
  -27.2359  -27.3987   20.1221 C   0  0  0  0  0  0
  -25.5895  -33.8614   24.2297 N   0  0  0  0  0  0
  -23.4065  -30.4867   21.5493 C   0  0  2  0  0  0
  -24.8542  -28.9419   20.1197 C   0  0  0  0  0  0
  -22.7412  -29.4660   22.5000 C   0  0  0  0  0  0
  -18.0270  -28.1373   22.8505 C   0  0  0  0  0  0
  -24.1486  -36.7322   23.2635 C   0  0  0  0  0  0
  -25.9372  -30.8198   21.3661 C   0  0  0  0  0  0
  -26.0158  -29.4501   20.7163 C   0  0  0  0  0  0
  -27.2104  -28.6893   20.7093 C   0  0  0  0  0  0
  -26.0592  -26.9101   19.5149 C   0  0  0  0  0  0
  -24.8725  -27.6722   19.5139 C   0  0  0  0  0  0
  -23.6169  -29.8131   20.1670 C   0  0  0  0  0  0
  -25.4114  -36.3121   24.0325 C   0  0  1  0  0  0
  -20.5857  -28.3678   23.1314 C   0  0  2  0  0  0
  -20.6762  -26.9410   22.5431 C   0  0  0  0  0  0
  -19.5742  -26.6388   21.5213 C   0  0  0  0  0  0
  -18.1916  -26.7921   22.1623 C   0  0  0  0  0  0
  -19.1520  -28.8841   23.2903 C   0  0  0  0  0  0
  -18.9444  -30.1444   23.8917 C   0  0  0  0  0  0
  -17.6450  -30.6586   24.0560 C   0  0  0  0  0  0
  -25.9048  -34.9481   23.5125 C   0  0  0  0  0  0
  -16.5344  -29.9084   23.6325 C   0  0  0  0  0  0
  -16.7258  -28.6492   23.0367 C   0  0  0  0  0  0
  -26.4452  -31.6597   25.0718 C   0  0  0  0  0  0
  -25.3687  -31.3758   26.1460 C   0  0  0  0  0  0
  -27.0262  -30.3011   24.6162 C   0  0  0  0  0  0
  -27.6044  -32.4314   25.7464 C   0  0  0  0  0  0
  -27.5582  -37.1823   24.8466 C   0  0  0  0  0  0
  -21.4146  -29.3044   22.3734 N   0  0  0  0  0  0
  -26.4302  -37.3808   23.9396 N   0  0  0  0  0  0
  -24.6716  -31.0732   22.0985 N   0  0  0  0  0  0
  -23.4176  -28.8225   23.3078 O   0  0  0  0  0  0
  -28.3962  -26.6445   20.0904 O   0  0  0  0  0  0
  -26.5621  -34.8927   22.4692 O   0  0  0  0  0  0
  -23.5353  -32.1463   23.7442 O   0  0  0  0  0  0
  -30.0229  -19.3513   20.7664 C   0  0  0  0  0  0
  -28.1861  -17.8779   21.3606 C   0  0  0  0  0  0
  -29.5684  -18.0606   21.1570 C   0  0  0  0  0  0
  -29.1259  -20.4375   20.5333 C   0  0  0  0  0  0
  -27.7308  -20.1965   20.6753 C   0  0  0  0  0  0
  -27.2785  -18.9283   21.1208 C   0  0  0  0  0  0
  -29.0740  -25.6478   22.1510 C   0  0  0  0  0  0
  -29.2002  -24.3770   23.0057 C   0  0  0  0  0  0
  -29.1647  -24.2718   20.0463 C   0  0  0  0  0  0
  -28.3897  -25.3868   20.8135 C   0  0  2  0  0  0
  -29.1205  -23.0043   22.2702 C   0  0  2  0  0  0
  -26.6820  -21.2477   20.3305 C   0  0  0  0  0  0
  -29.9082  -22.0048   23.1508 C   0  0  0  0  0  0
  -30.5619  -16.9027   21.4065 C   0  0  0  0  0  0
  -29.6887  -21.7952   20.0259 C   0  0  0  0  0  0
  -30.0576  -15.5207   21.2125 N   0  0  0  0  0  0
  -29.6105  -23.0659   20.8510 N   0  3  1  0  0  0
  -25.5947  -18.6265   21.3696 Cl  0  0  0  0  0  0
  -31.4754  -12.4208   19.1561 H   0  0  0  0  0  0
  -30.3142  -11.3286   19.8473 H   0  0  0  0  0  0
  -29.7619  -11.8014   17.4388 H   0  0  0  0  0  0
  -29.6758  -13.5093   17.7791 H   0  0  0  0  0  0
  -27.8513  -11.3150   18.8270 H   0  0  0  0  0  0
  -27.3821  -12.6373   17.7909 H   0  0  0  0  0  0
  -27.7030  -14.2590   19.5730 H   0  0  0  0  0  0
  -28.6848  -11.9963   21.3755 H   0  0  0  0  0  0
  -28.4543  -13.6457   21.8680 H   0  0  0  0  0  0
  -25.2763   -9.5698   22.4752 H   0  0  0  0  0  0
  -23.9996   -7.4655   22.7509 H   0  0  0  0  0  0
  -21.0817   -8.8805   19.8974 H   0  0  0  0  0  0
  -22.3698  -10.9693   19.6172 H   0  0  0  0  0  0
  -21.2037   -7.6143   23.9712 H   0  0  0  0  0  0
  -21.1478   -6.0518   25.9073 H   0  0  0  0  0  0
  -22.0588   -2.7600   23.2866 H   0  0  0  0  0  0
  -22.4099  -11.9961   22.4802 H   0  0  0  0  0  0
  -21.1113  -13.1352   22.2546 H   0  0  0  0  0  0
  -24.6643  -15.8401   20.5281 H   0  0  0  0  0  0
  -26.2676  -15.6271   20.0517 H   0  0  0  0  0  0
  -26.7134  -32.5507   23.1121 H   0  0  0  0  0  0
  -25.0010  -33.9780   25.0419 H   0  0  0  0  0  0
  -22.6966  -31.3043   21.4063 H   0  0  0  0  0  0
  -23.3738  -35.9674   23.3343 H   0  0  0  0  0  0
  -24.3554  -36.8918   22.2041 H   0  0  0  0  0  0
  -23.7265  -37.6542   23.6641 H   0  0  0  0  0  0
  -26.0563  -31.5835   20.5972 H   0  0  0  0  0  0
  -26.8192  -30.8714   21.9923 H   0  0  0  0  0  0
  -28.1078  -29.0797   21.1656 H   0  0  0  0  0  0
  -26.0602  -25.9398   19.0365 H   0  0  0  0  0  0
  -23.9796  -27.2771   19.0486 H   0  0  0  0  0  0
  -23.7260  -30.5850   19.4041 H   0  0  0  0  0  0
  -22.7391  -29.2347   19.8747 H   0  0  0  0  0  0
  -25.1297  -36.1988   25.0819 H   0  0  0  0  0  0
  -20.9933  -28.3248   24.1437 H   0  0  0  0  0  0
  -20.5639  -26.2295   23.3637 H   0  0  0  0  0  0
  -21.6637  -26.7452   22.1230 H   0  0  0  0  0  0
  -19.6914  -25.6298   21.1247 H   0  0  0  0  0  0
  -19.6663  -27.3193   20.6731 H   0  0  0  0  0  0
  -17.4194  -26.6677   21.4022 H   0  0  0  0  0  0
  -18.0301  -26.0040   22.8992 H   0  0  0  0  0  0
  -19.7926  -30.7245   24.2300 H   0  0  0  0  0  0
  -17.5012  -31.6262   24.5165 H   0  0  0  0  0  0
  -15.5348  -30.2993   23.7643 H   0  0  0  0  0  0
  -15.8651  -28.0806   22.7096 H   0  0  0  0  0  0
  -24.5817  -30.7145   25.7816 H   0  0  0  0  0  0
  -24.8907  -32.2938   26.4892 H   0  0  0  0  0  0
  -25.7986  -30.8924   27.0238 H   0  0  0  0  0  0
  -26.2843  -29.6835   24.1089 H   0  0  0  0  0  0
  -27.3849  -29.7227   25.4685 H   0  0  0  0  0  0
  -27.8765  -30.4279   23.9460 H   0  0  0  0  0  0
  -27.2662  -33.3599   26.2075 H   0  0  0  0  0  0
  -28.3808  -32.6925   25.0257 H   0  0  0  0  0  0
  -28.0762  -31.8422   26.5346 H   0  0  0  0  0  0
  -28.2638  -38.0085   24.7487 H   0  0  0  0  0  0
  -28.1045  -36.2624   24.6326 H   0  0  0  0  0  0
  -27.2295  -37.1515   25.8870 H   0  0  0  0  0  0
  -20.9333  -29.8749   21.6925 H   0  0  0  0  0  0
  -26.0202  -38.2903   24.1361 H   0  0  0  0  0  0
  -31.0842  -19.5072   20.6238 H   0  0  0  0  0  0
  -27.8019  -16.9288   21.7006 H   0  0  0  0  0  0
  -30.0687  -26.0540   21.9659 H   0  0  0  0  0  0
  -28.5378  -26.4182   22.7061 H   0  0  0  0  0  0
  -28.4226  -24.3903   23.7709 H   0  0  0  0  0  0
  -30.1367  -24.4568   23.5608 H   0  0  0  0  0  0
  -30.0737  -24.7023   19.6239 H   0  0  0  0  0  0
  -28.5556  -23.9803   19.1898 H   0  0  0  0  0  0
  -27.3711  -25.0431   21.0066 H   0  0  0  0  0  0
  -28.0748  -22.7018   22.2452 H   0  0  0  0  0  0
  -26.0865  -21.4945   21.2100 H   0  0  0  0  0  0
  -26.0041  -20.8504   19.5745 H   0  0  0  0  0  0
  -27.0919  -22.1715   19.9315 H   0  0  0  0  0  0
  -30.9842  -22.1753   23.0917 H   0  0  0  0  0  0
  -29.7179  -20.9620   22.9192 H   0  0  0  0  0  0
  -29.6290  -22.1167   24.1997 H   0  0  0  0  0  0
  -30.8985  -16.9845   22.4416 H   0  0  0  0  0  0
  -31.4512  -17.0764   20.7970 H   0  0  0  0  0  0
  -29.2603  -21.9509   19.0368 H   0  0  0  0  0  0
  -30.7497  -21.6546   19.8184 H   0  0  0  0  0  0
  -29.1569  -15.3011   21.6061 H   0  0  0  0  0  0
  -30.5894  -23.2672   20.9906 H   0  0  0  0  0  0
  1 25  1  0  0  0
  1 30  2  0  0  0
  1 86  1  0  0  0
  2  3  1  0  0  0
  2 25  1  0  0  0
  2 89  1  0  0  0
  2 90  1  0  0  0
  3  4  1  0  0  0
  3 91  1  0  0  0
  3 92  1  0  0  0
  4  5  1  0  0  0
  4 93  1  0  0  0
  4 94  1  0  0  0
  5  6  1  0  0  0
  5 26  1  0  0  0
  5 95  1  0  0  0
  6 25  1  0  0  0
  6 96  1  0  0  0
  6 97  1  0  0  0
  7  8  2  0  0  0
  7 26  1  0  0  0
  7 29  1  0  0  0
  8  9  1  0  0  0
  8 22  1  0  0  0
  9 10  1  0  0  0
  9 27  2  0  0  0
 10 11  2  0  0  0
 10 15  1  0  0  0
 11 12  1  0  0  0
 11 98  1  0  0  0
 12 13  2  0  0  0
 12 99  1  0  0  0
 13 14  1  0  0  0
 13 31  1  0  0  0
 14 15  2  0  0  0
 14100  1  0  0  0
 15101  1  0  0  0
 16 17  2  0  0  0
 16 21  1  0  0  0
 16 31  1  0  0  0
 17 18  1  0  0  0
 17102  1  0  0  0
 18 19  2  0  0  0
 18103  1  0  0  0
 19 20  1  0  0  0
 19 24  1  0  0  0
 20 21  2  0  0  0
 20104  1  0  0  0
 21 23  1  0  0  0
 22 28  1  0  0  0
 22 32  2  0  0  0
 26 27  1  0  0  0
 28105  1  0  0  0
 28106  1  0  0  0
 29107  1  0  0  0
 29108  1  0  0  0
 33 34  1  0  0  0
 33 66  1  0  0  0
 33 70  2  0  0  0
 34 36  1  0  0  0
 34 59  1  0  0  0
 34109  1  0  0  0
 35 44  2  0  0  0
 35 45  1  0  0  0
 35 68  1  0  0  0
 36 56  1  0  0  0
 36110  1  0  0  0
 37 39  1  0  0  0
 37 47  1  0  0  0
 37 66  1  0  0  0
 37111  1  0  0  0
 38 43  2  0  0  0
 38 46  1  0  0  0
 38 47  1  0  0  0
 39 64  1  0  0  0
 39 67  2  0  0  0
 40 52  1  0  0  0
 40 53  2  0  0  0
 40 58  1  0  0  0
 41112  1  0  0  0
 41113  1  0  0  0
 41114  1  0  0  0
 41 48  1  0  0  0
 42 43  1  0  0  0
 42 66  1  0  0  0
 42115  1  0  0  0
 42116  1  0  0  0
 43 44  1  0  0  0
 44117  1  0  0  0
 45 46  2  0  0  0
 45118  1  0  0  0
 46119  1  0  0  0
 47120  1  0  0  0
 47121  1  0  0  0
 48 56  1  0  0  0
 48 65  1  0  0  0
 48122  1  0  0  0
 49 50  1  0  0  0
 49 53  1  0  0  0
 49 64  1  0  0  0
 49123  1  0  0  0
 50 51  1  0  0  0
 50124  1  0  0  0
 50125  1  0  0  0
 51 52  1  0  0  0
 51126  1  0  0  0
 51127  1  0  0  0
 52128  1  0  0  0
 52129  1  0  0  0
 53 54  1  0  0  0
 54 55  2  0  0  0
 54130  1  0  0  0
 55 57  1  0  0  0
 55131  1  0  0  0
 56 69  2  0  0  0
 57 58  2  0  0  0
 57132  1  0  0  0
 58133  1  0  0  0
 59 60  1  0  0  0
 59 61  1  0  0  0
 59 62  1  0  0  0
 60134  1  0  0  0
 60135  1  0  0  0
 60136  1  0  0  0
 61137  1  0  0  0
 61138  1  0  0  0
 61139  1  0  0  0
 62140  1  0  0  0
 62141  1  0  0  0
 62142  1  0  0  0
 63 65  1  0  0  0
 63143  1  0  0  0
 63144  1  0  0  0
 63145  1  0  0  0
 64146  1  0  0  0
 65147  1  0  0  0
 68 80  1  0  0  0
 71 73  2  0  0  0
 71 74  1  0  0  0
 71148  1  0  0  0
 72 73  1  0  0  0
 72 76  2  0  0  0
 72149  1  0  0  0
 73 84  1  0  0  0
 74 75  2  0  0  0
 74 85  1  0  0  0
 75 76  1  0  0  0
 75 82  1  0  0  0
 76 88  1  0  0  0
 77 78  1  0  0  0
 77 80  1  0  0  0
 77150  1  0  0  0
 77151  1  0  0  0
 78 81  1  0  0  0
 78152  1  0  0  0
 78153  1  0  0  0
 79 80  1  0  0  0
 79 87  1  0  0  0
 79154  1  0  0  0
 79155  1  0  0  0
 80156  1  0  0  0
 81 83  1  0  0  0
 81 87  1  0  0  0
 81157  1  0  0  0
 82158  1  0  0  0
 82159  1  0  0  0
 82160  1  0  0  0
 83161  1  0  0  0
 83162  1  0  0  0
 83163  1  0  0  0
 84 86  1  0  0  0
 84164  1  0  0  0
 84165  1  0  0  0
 85166  1  0  0  0
 85167  1  0  0  0
 85 87  1  0  0  0
 86168  1  0  0  0
 87169  1  0  0  0
M  CHG  1  87   1
M  ISO  4   1 100  68 101  80 101  86 100
M  END
> <chiral flag>
0

> <version>
0

> <s_m_source_file>
/data/baiqing/PycharmProjects/Reinvent-master-3.2/result/LINK_invent/BTK/process_docking_weight1_custom_product_contain_oxygen_bond_distance_aromatic_linkinvent_7_9_3/rearranged_h_0038.sdf

> <i_m_source_file_index>
20

> <r_mmod_Potential_Energy-OPLS-2005>
-86.1193466186523

> <r_mmod_Stretch_Energy-OPLS-2005>
56.0256042480469

> <r_mmod_Bend_Energy-OPLS-2005>
138.273040771484

> <r_mmod_Torsional_Energy-OPLS-2005>
274.253448486328

> <r_mmod_Improper_Torsional_Energy-OPLS-2005>
2.95695376396179

> <r_mmod_Van_der_Waal_Energy-OPLS-2005>
149.328704833984

> <r_mmod_Electrostatic_Energy-OPLS-2005>
-305.235321044922

> <r_mmod_Solvation_Energy-OPLS-2005>
-418.695159912109

> <b_mmod_Minimization_Converged-OPLS-2005>
0

> <r_mmod_RMS_Derivative-OPLS-2005>
3.26760077476501

$$$$
20
                    3D
 Structure written by MMmdl.
171180  0  0  1  0            999 V2000
  -30.6670  -14.5476   20.5438 C   0  0  0  0  0  0
  -30.4300  -12.3487   19.4314 C   0  0  0  0  0  0
  -29.4998  -12.5067   18.2105 C   0  0  0  0  0  0
  -28.0219  -12.3570   18.6237 C   0  0  0  0  0  0
  -27.6567  -13.2123   19.8670 C   0  0  2  0  0  0
  -28.7003  -13.0297   20.9915 C   0  0  0  0  0  0
  -25.2567  -13.8165   20.5662 C   0  0  0  0  0  0
  -24.1832  -13.0440   20.9183 C   0  0  0  0  0  0
  -24.6393  -11.6907   20.8736 C   0  0  0  0  0  0
  -23.9061  -10.4294   21.0407 C   0  0  0  0  0  0
  -24.3613   -9.4208   21.9184 C   0  0  0  0  0  0
  -23.6289   -8.2244   22.0754 C   0  0  0  0  0  0
  -22.4271   -8.0281   21.3546 C   0  0  0  0  0  0
  -21.9904   -9.0256   20.4649 C   0  0  0  0  0  0
  -22.7232  -10.2134   20.3057 C   0  0  0  0  0  0
  -21.6851   -6.0733   22.5281 C   0  0  0  0  0  0
  -21.4015   -6.5637   23.8215 C   0  0  0  0  0  0
  -21.3658   -5.6791   24.9178 C   0  0  0  0  0  0
  -21.6047   -4.3053   24.7229 C   0  0  0  0  0  0
  -21.8821   -3.8145   23.4349 C   0  0  0  0  0  0
  -21.9189   -4.6960   22.3403 C   0  0  0  0  0  0
  -22.7851  -13.5234   21.1848 C   0  0  0  0  0  0
  -22.1661   -4.2147   21.0981 F   0  0  0  0  0  0
  -21.5627   -3.4539   25.7742 F   0  0  0  0  0  0
  -30.0218  -13.3512   20.4302 N   0  0  0  0  0  0
  -26.3004  -12.9342   20.3328 N   0  0  0  0  0  0
  -25.9322  -11.6499   20.5759 N   0  0  0  0  0  0
  -22.0493  -12.8231   22.0407 N   0  0  0  0  0  0
  -25.4272  -15.1883   20.4030 N   0  0  0  0  0  0
  -31.8173  -14.7169   20.1311 O   0  0  0  0  0  0
  -21.6639   -6.8876   21.4242 O   0  0  0  0  0  0
  -22.3532  -14.5538   20.6693 O   0  0  0  0  0  0
  -24.6193  -31.8639   23.2048 C   0  0  0  0  0  0
  -25.9065  -32.4800   23.8364 C   0  0  1  0  0  0
  -27.2320  -27.3846   20.1131 C   0  0  0  0  0  0
  -25.5902  -33.8599   24.2297 N   0  0  0  0  0  0
  -23.4098  -30.4851   21.5465 C   0  0  2  0  0  0
  -24.8565  -28.9390   20.1182 C   0  0  0  0  0  0
  -22.7433  -29.4638   22.4972 C   0  0  0  0  0  0
  -18.0277  -28.1380   22.8491 C   0  0  0  0  0  0
  -24.1488  -36.7307   23.2639 C   0  0  0  0  0  0
  -25.9423  -30.8153   21.3635 C   0  0  0  0  0  0
  -26.0196  -29.4444   20.7130 C   0  0  0  0  0  0
  -27.2131  -28.6782   20.6975 C   0  0  0  0  0  0
  -26.0510  -26.9021   19.5120 C   0  0  0  0  0  0
  -24.8696  -27.6702   19.5118 C   0  0  0  0  0  0
  -23.6211  -29.8127   20.1636 C   0  0  0  0  0  0
  -25.4111  -36.3098   24.0333 C   0  0  1  0  0  0
  -20.5870  -28.3673   23.1308 C   0  0  2  0  0  0
  -20.6765  -26.9405   22.5416 C   0  0  0  0  0  0
  -19.5744  -26.6386   21.5213 C   0  0  0  0  0  0
  -18.1922  -26.7925   22.1624 C   0  0  0  0  0  0
  -19.1526  -28.8842   23.2897 C   0  0  0  0  0  0
  -18.9452  -30.1448   23.8909 C   0  0  0  0  0  0
  -17.6453  -30.6585   24.0565 C   0  0  0  0  0  0
  -25.9041  -34.9464   23.5115 C   0  0  0  0  0  0
  -16.5346  -29.9087   23.6326 C   0  0  0  0  0  0
  -16.7265  -28.6504   23.0349 C   0  0  0  0  0  0
  -26.4475  -31.6593   25.0712 C   0  0  0  0  0  0
  -25.3729  -31.3714   26.1457 C   0  0  0  0  0  0
  -27.0305  -30.3027   24.6115 C   0  0  0  0  0  0
  -27.6046  -32.4317   25.7476 C   0  0  0  0  0  0
  -27.5582  -37.1807   24.8464 C   0  0  0  0  0  0
  -21.4155  -29.3032   22.3709 N   0  0  0  0  0  0
  -26.4295  -37.3786   23.9409 N   0  0  0  0  0  0
  -24.6757  -31.0704   22.0964 N   0  0  0  0  0  0
  -23.4185  -28.8186   23.3034 O   0  0  0  0  0  0
  -28.3920  -26.6262   20.0825 O   0  0  0  0  0  0
  -26.5609  -34.8922   22.4681 O   0  0  0  0  0  0
  -23.5374  -32.1406   23.7420 O   0  0  0  0  0  0
  -29.3351  -19.3870   20.6650 C   0  0  0  0  0  0
  -29.2042  -17.6754   18.9439 C   0  0  0  0  0  0
  -29.5919  -18.0457   20.2433 C   0  0  0  0  0  0
  -28.6762  -20.3439   19.8267 C   0  0  0  0  0  0
  -28.2797  -19.9158   18.5233 C   0  0  0  0  0  0
  -28.5590  -18.5917   18.0965 C   0  0  0  0  0  0
  -28.7930  -24.1929   19.5408 C   0  0  0  0  0  0
  -29.4219  -23.8499   15.9066 C   0  0  0  0  0  0
  -28.8829  -24.4456   18.2186 C   0  0  0  0  0  0
  -29.4131  -23.5426   17.2125 C   0  0  0  0  0  0
  -29.6181  -23.9088   22.3678 C   0  0  0  0  0  0
  -29.2765  -25.2972   21.8193 C   0  0  0  0  0  0
  -30.2325  -23.0352   21.2618 C   0  0  0  0  0  0
  -28.3524  -25.2576   20.5866 C   0  0  1  0  0  0
  -27.5142  -20.8127   17.5537 C   0  0  0  0  0  0
  -30.3043  -17.0108   21.1478 C   0  0  0  0  0  0
  -28.3018  -21.7595   20.3730 C   0  0  0  0  0  0
  -29.9142  -15.5850   20.9842 N   0  0  0  0  0  0
  -29.2950  -22.8637   20.1263 N   0  3  2  0  0  0
  -28.0929  -18.0456   16.5230 Cl  0  0  0  0  0  0
  -31.4725  -12.4622   19.1289 H   0  0  0  0  0  0
  -30.3484  -11.3448   19.8505 H   0  0  0  0  0  0
  -29.7507  -11.7684   17.4480 H   0  0  0  0  0  0
  -29.6556  -13.4844   17.7514 H   0  0  0  0  0  0
  -27.8435  -11.3024   18.8364 H   0  0  0  0  0  0
  -27.3697  -12.6115   17.7875 H   0  0  0  0  0  0
  -27.6878  -14.2545   19.5481 H   0  0  0  0  0  0
  -28.6936  -12.0012   21.3556 H   0  0  0  0  0  0
  -28.4567  -13.6492   21.8557 H   0  0  0  0  0  0
  -25.2759   -9.5683   22.4757 H   0  0  0  0  0  0
  -23.9999   -7.4635   22.7470 H   0  0  0  0  0  0
  -21.0836   -8.8774   19.8954 H   0  0  0  0  0  0
  -22.3691  -10.9672   19.6167 H   0  0  0  0  0  0
  -21.2007   -7.6146   23.9716 H   0  0  0  0  0  0
  -21.1477   -6.0522   25.9079 H   0  0  0  0  0  0
  -22.0596   -2.7606   23.2854 H   0  0  0  0  0  0
  -22.4106  -11.9897   22.4808 H   0  0  0  0  0  0
  -21.1114  -13.1264   22.2614 H   0  0  0  0  0  0
  -24.6532  -15.8377   20.4902 H   0  0  0  0  0  0
  -26.2668  -15.6221   20.0409 H   0  0  0  0  0  0
  -26.7135  -32.5494   23.1124 H   0  0  0  0  0  0
  -25.0052  -33.9753   25.0443 H   0  0  0  0  0  0
  -22.7008  -31.3032   21.4033 H   0  0  0  0  0  0
  -23.3746  -35.9644   23.3306 H   0  0  0  0  0  0
  -24.3581  -36.8920   22.2053 H   0  0  0  0  0  0
  -23.7244  -37.6513   23.6653 H   0  0  0  0  0  0
  -26.0602  -31.5782   20.5929 H   0  0  0  0  0  0
  -26.8280  -30.8697   21.9851 H   0  0  0  0  0  0
  -28.1147  -29.0680   21.1492 H   0  0  0  0  0  0
  -26.0434  -25.9328   19.0340 H   0  0  0  0  0  0
  -23.9765  -27.2780   19.0451 H   0  0  0  0  0  0
  -23.7336  -30.5851   19.4020 H   0  0  0  0  0  0
  -22.7436  -29.2350   19.8675 H   0  0  0  0  0  0
  -25.1289  -36.1958   25.0825 H   0  0  0  0  0  0
  -20.9963  -28.3239   24.1430 H   0  0  0  0  0  0
  -20.5666  -26.2280   23.3607 H   0  0  0  0  0  0
  -21.6636  -26.7441   22.1211 H   0  0  0  0  0  0
  -19.6905  -25.6299   21.1235 H   0  0  0  0  0  0
  -19.6685  -27.3203   20.6749 H   0  0  0  0  0  0
  -17.4194  -26.6678   21.4024 H   0  0  0  0  0  0
  -18.0323  -26.0065   22.9018 H   0  0  0  0  0  0
  -19.7930  -30.7261   24.2283 H   0  0  0  0  0  0
  -17.5009  -31.6266   24.5165 H   0  0  0  0  0  0
  -15.5346  -30.2992   23.7644 H   0  0  0  0  0  0
  -15.8666  -28.0827   22.7055 H   0  0  0  0  0  0
  -24.5899  -30.7066   25.7792 H   0  0  0  0  0  0
  -24.8926  -32.2876   26.4902 H   0  0  0  0  0  0
  -25.8074  -30.8882   27.0218 H   0  0  0  0  0  0
  -26.2856  -29.6793   24.1155 H   0  0  0  0  0  0
  -27.4042  -29.7263   25.4588 H   0  0  0  0  0  0
  -27.8706  -30.4332   23.9290 H   0  0  0  0  0  0
  -27.2662  -33.3607   26.2077 H   0  0  0  0  0  0
  -28.3842  -32.6895   25.0294 H   0  0  0  0  0  0
  -28.0731  -31.8429   26.5373 H   0  0  0  0  0  0
  -28.2602  -38.0103   24.7509 H   0  0  0  0  0  0
  -28.1073  -36.2632   24.6290 H   0  0  0  0  0  0
  -27.2300  -37.1461   25.8868 H   0  0  0  0  0  0
  -20.9321  -29.8755   21.6930 H   0  0  0  0  0  0
  -26.0180  -38.2864   24.1403 H   0  0  0  0  0  0
  -29.6267  -19.6758   21.6662 H   0  0  0  0  0  0
  -29.3993  -16.6760   18.5823 H   0  0  0  0  0  0
  -29.8235  -23.1625   15.1751 H   0  0  0  0  0  0
  -29.0300  -24.7888   15.5406 H   0  0  0  0  0  0
  -28.5635  -25.4237   17.8843 H   0  0  0  0  0  0
  -29.8255  -22.5849   17.4964 H   0  0  0  0  0  0
  -28.7272  -23.4419   22.7888 H   0  0  0  0  0  0
  -30.3266  -24.0067   23.1911 H   0  0  0  0  0  0
  -30.2059  -25.8025   21.5507 H   0  0  0  0  0  0
  -28.8202  -25.9054   22.6013 H   0  0  0  0  0  0
  -30.5353  -22.0654   21.6591 H   0  0  0  0  0  0
  -31.1449  -23.5039   20.8902 H   0  0  0  0  0  0
  -27.3474  -24.9864   20.9146 H   0  0  0  0  0  0
  -27.3410  -21.8279   17.8964 H   0  0  0  0  0  0
  -26.5371  -20.3774   17.3422 H   0  0  0  0  0  0
  -28.0518  -20.8870   16.6079 H   0  0  0  0  0  0
  -30.1200  -17.2802   22.1885 H   0  0  0  0  0  0
  -31.3800  -17.1240   21.0025 H   0  0  0  0  0  0
  -28.1245  -21.6600   21.4439 H   0  0  0  0  0  0
  -27.3254  -22.0579   19.9958 H   0  0  0  0  0  0
  -28.9740  -15.3522   21.2650 H   0  0  0  0  0  0
  -29.8776  -22.4581   19.4109 H   0  0  0  0  0  0
  1 25  1  0  0  0
  1 30  2  0  0  0
  1 88  1  0  0  0
  2  3  1  0  0  0
  2 25  1  0  0  0
  2 91  1  0  0  0
  2 92  1  0  0  0
  3  4  1  0  0  0
  3 93  1  0  0  0
  3 94  1  0  0  0
  4  5  1  0  0  0
  4 95  1  0  0  0
  4 96  1  0  0  0
  5  6  1  0  0  0
  5 26  1  0  0  0
  5 97  1  0  0  0
  6 25  1  0  0  0
  6 98  1  0  0  0
  6 99  1  0  0  0
  7  8  2  0  0  0
  7 26  1  0  0  0
  7 29  1  0  0  0
  8  9  1  0  0  0
  8 22  1  0  0  0
  9 10  1  0  0  0
  9 27  2  0  0  0
 10 11  2  0  0  0
 10 15  1  0  0  0
 11 12  1  0  0  0
 11100  1  0  0  0
 12 13  2  0  0  0
 12101  1  0  0  0
 13 14  1  0  0  0
 13 31  1  0  0  0
 14 15  2  0  0  0
 14102  1  0  0  0
 15103  1  0  0  0
 16 17  2  0  0  0
 16 21  1  0  0  0
 16 31  1  0  0  0
 17 18  1  0  0  0
 17104  1  0  0  0
 18 19  2  0  0  0
 18105  1  0  0  0
 19 20  1  0  0  0
 19 24  1  0  0  0
 20 21  2  0  0  0
 20106  1  0  0  0
 21 23  1  0  0  0
 22 28  1  0  0  0
 22 32  2  0  0  0
 26 27  1  0  0  0
 28107  1  0  0  0
 28108  1  0  0  0
 29109  1  0  0  0
 29110  1  0  0  0
 33 34  1  0  0  0
 33 66  1  0  0  0
 33 70  2  0  0  0
 34 36  1  0  0  0
 34 59  1  0  0  0
 34111  1  0  0  0
 35 44  2  0  0  0
 35 45  1  0  0  0
 35 68  1  0  0  0
 36 56  1  0  0  0
 36112  1  0  0  0
 37 39  1  0  0  0
 37 47  1  0  0  0
 37 66  1  0  0  0
 37113  1  0  0  0
 38 43  2  0  0  0
 38 46  1  0  0  0
 38 47  1  0  0  0
 39 64  1  0  0  0
 39 67  2  0  0  0
 40 52  1  0  0  0
 40 53  2  0  0  0
 40 58  1  0  0  0
 41114  1  0  0  0
 41115  1  0  0  0
 41116  1  0  0  0
 41 48  1  0  0  0
 42 43  1  0  0  0
 42 66  1  0  0  0
 42117  1  0  0  0
 42118  1  0  0  0
 43 44  1  0  0  0
 44119  1  0  0  0
 45 46  2  0  0  0
 45120  1  0  0  0
 46121  1  0  0  0
 47122  1  0  0  0
 47123  1  0  0  0
 48 56  1  0  0  0
 48 65  1  0  0  0
 48124  1  0  0  0
 49 50  1  0  0  0
 49 53  1  0  0  0
 49 64  1  0  0  0
 49125  1  0  0  0
 50 51  1  0  0  0
 50126  1  0  0  0
 50127  1  0  0  0
 51 52  1  0  0  0
 51128  1  0  0  0
 51129  1  0  0  0
 52130  1  0  0  0
 52131  1  0  0  0
 53 54  1  0  0  0
 54 55  2  0  0  0
 54132  1  0  0  0
 55 57  1  0  0  0
 55133  1  0  0  0
 56 69  2  0  0  0
 57 58  2  0  0  0
 57134  1  0  0  0
 58135  1  0  0  0
 59 60  1  0  0  0
 59 61  1  0  0  0
 59 62  1  0  0  0
 60136  1  0  0  0
 60137  1  0  0  0
 60138  1  0  0  0
 61139  1  0  0  0
 61140  1  0  0  0
 61141  1  0  0  0
 62142  1  0  0  0
 62143  1  0  0  0
 62144  1  0  0  0
 63 65  1  0  0  0
 63145  1  0  0  0
 63146  1  0  0  0
 63147  1  0  0  0
 64148  1  0  0  0
 65149  1  0  0  0
 68 84  1  0  0  0
 71 73  2  0  0  0
 71 74  1  0  0  0
 71150  1  0  0  0
 72 73  1  0  0  0
 72 76  2  0  0  0
 72151  1  0  0  0
 73 86  1  0  0  0
 74 75  2  0  0  0
 74 87  1  0  0  0
 75 76  1  0  0  0
 75 85  1  0  0  0
 76 90  1  0  0  0
 77 79  2  0  0  0
 77 84  1  0  0  0
 77 89  1  0  0  0
 78 80  2  0  0  0
 78152  1  0  0  0
 78153  1  0  0  0
 79 80  1  0  0  0
 79154  1  0  0  0
 80155  1  0  0  0
 81 82  1  0  0  0
 81 83  1  0  0  0
 81156  1  0  0  0
 81157  1  0  0  0
 82 84  1  0  0  0
 82158  1  0  0  0
 82159  1  0  0  0
 83 89  1  0  0  0
 83160  1  0  0  0
 83161  1  0  0  0
 84162  1  0  0  0
 85163  1  0  0  0
 85164  1  0  0  0
 85165  1  0  0  0
 86 88  1  0  0  0
 86166  1  0  0  0
 86167  1  0  0  0
 87168  1  0  0  0
 87169  1  0  0  0
 87 89  1  0  0  0
 88170  1  0  0  0
 89171  1  0  0  0
M  CHG  1  89   1
M  ISO  4   1 100  68 101  84 101  88 100
M  END
> <chiral flag>
0

> <version>
0

> <s_m_source_file>
/data/baiqing/PycharmProjects/Reinvent-master-3.2/result/LINK_invent/BTK/process_docking_weight1_custom_product_contain_oxygen_bond_distance_aromatic_linkinvent_7_9_3/rearranged_h_0038.sdf

> <i_m_source_file_index>
21

> <r_mmod_Potential_Energy-OPLS-2005>
-183.70539855957

> <r_mmod_Stretch_Energy-OPLS-2005>
60.2080307006836

> <r_mmod_Bend_Energy-OPLS-2005>
121.95825958252

> <r_mmod_Torsional_Energy-OPLS-2005>
223.05436706543

> <r_mmod_Improper_Torsional_Energy-OPLS-2005>
4.27691698074341

> <r_mmod_Van_der_Waal_Energy-OPLS-2005>
139.725051879883

> <r_mmod_Electrostatic_Energy-OPLS-2005>
-321.777282714844

> <r_mmod_Solvation_Energy-OPLS-2005>
-433.692657470703

> <b_mmod_Minimization_Converged-OPLS-2005>
0

> <r_mmod_RMS_Derivative-OPLS-2005>
0.630574703216553

$$$$
21
                    3D
 Structure written by MMmdl.
163171  0  0  1  0            999 V2000
  -30.7480  -14.3782   20.6499 C   0  0  0  0  0  0
  -30.4249  -12.2747   19.4103 C   0  0  0  0  0  0
  -29.5006  -12.5213   18.2052 C   0  0  0  0  0  0
  -28.0180  -12.3962   18.6069 C   0  0  0  0  0  0
  -27.6750  -13.2080   19.8840 C   0  0  2  0  0  0
  -28.7091  -12.9356   20.9989 C   0  0  0  0  0  0
  -25.2648  -13.8176   20.5668 C   0  0  0  0  0  0
  -24.1885  -13.0445   20.9120 C   0  0  0  0  0  0
  -24.6427  -11.6904   20.8688 C   0  0  0  0  0  0
  -23.9066  -10.4302   21.0371 C   0  0  0  0  0  0
  -24.3616   -9.4221   21.9149 C   0  0  0  0  0  0
  -23.6300   -8.2250   22.0741 C   0  0  0  0  0  0
  -22.4284   -8.0272   21.3531 C   0  0  0  0  0  0
  -21.9901   -9.0249   20.4642 C   0  0  0  0  0  0
  -22.7229  -10.2127   20.3042 C   0  0  0  0  0  0
  -21.6859   -6.0725   22.5270 C   0  0  0  0  0  0
  -21.4028   -6.5626   23.8202 C   0  0  0  0  0  0
  -21.3657   -5.6779   24.9164 C   0  0  0  0  0  0
  -21.6054   -4.3044   24.7213 C   0  0  0  0  0  0
  -21.8824   -3.8131   23.4334 C   0  0  0  0  0  0
  -21.9194   -4.6952   22.3396 C   0  0  0  0  0  0
  -22.7893  -13.5234   21.1768 C   0  0  0  0  0  0
  -22.1665   -4.2129   21.0978 F   0  0  0  0  0  0
  -21.5610   -3.4532   25.7727 F   0  0  0  0  0  0
  -30.0564  -13.2240   20.4711 N   0  0  0  0  0  0
  -26.3098  -12.9345   20.3378 N   0  0  0  0  0  0
  -25.9365  -11.6493   20.5734 N   0  0  0  0  0  0
  -22.0539  -12.8258   22.0357 N   0  0  0  0  0  0
  -25.4367  -15.1898   20.4116 N   0  0  0  0  0  0
  -31.7941  -14.6392   20.0446 O   0  0  0  0  0  0
  -21.6642   -6.8869   21.4238 O   0  0  0  0  0  0
  -22.3557  -14.5498   20.6541 O   0  0  0  0  0  0
  -24.6128  -31.8681   23.2125 C   0  0  0  0  0  0
  -25.9036  -32.4816   23.8382 C   0  0  1  0  0  0
  -27.2358  -27.4579   20.0761 C   0  0  0  0  0  0
  -25.5880  -33.8617   24.2287 N   0  0  0  0  0  0
  -23.3989  -30.4916   21.5517 C   0  0  2  0  0  0
  -24.8448  -28.9553   20.1180 C   0  0  0  0  0  0
  -22.7388  -29.4648   22.4988 C   0  0  0  0  0  0
  -18.0265  -28.1369   22.8485 C   0  0  0  0  0  0
  -24.1459  -36.7334   23.2634 C   0  0  0  0  0  0
  -25.9260  -30.8329   21.3700 C   0  0  0  0  0  0
  -26.0012  -29.4690   20.7194 C   0  0  0  0  0  0
  -27.1985  -28.7212   20.7031 C   0  0  0  0  0  0
  -26.0659  -26.9493   19.4749 C   0  0  0  0  0  0
  -24.8691  -27.6918   19.4995 C   0  0  0  0  0  0
  -23.6073  -29.8223   20.1655 C   0  0  0  0  0  0
  -25.4089  -36.3102   24.0294 C   0  0  1  0  0  0
  -20.5841  -28.3648   23.1313 C   0  0  2  0  0  0
  -20.6739  -26.9383   22.5414 C   0  0  0  0  0  0
  -19.5731  -26.6386   21.5188 C   0  0  0  0  0  0
  -18.1909  -26.7916   22.1594 C   0  0  0  0  0  0
  -19.1508  -28.8820   23.2905 C   0  0  0  0  0  0
  -18.9453  -30.1431   23.8911 C   0  0  0  0  0  0
  -17.6456  -30.6582   24.0563 C   0  0  0  0  0  0
  -25.9011  -34.9472   23.5087 C   0  0  0  0  0  0
  -16.5343  -29.9089   23.6329 C   0  0  0  0  0  0
  -16.7254  -28.6503   23.0350 C   0  0  0  0  0  0
  -26.4526  -31.6612   25.0714 C   0  0  0  0  0  0
  -25.3817  -31.3721   26.1490 C   0  0  0  0  0  0
  -27.0389  -30.3046   24.6152 C   0  0  0  0  0  0
  -27.6065  -32.4409   25.7465 C   0  0  0  0  0  0
  -27.5559  -37.1832   24.8446 C   0  0  0  0  0  0
  -21.4106  -29.3026   22.3726 N   0  0  0  0  0  0
  -26.4267  -37.3790   23.9386 N   0  0  0  0  0  0
  -24.6627  -31.0780   22.1031 N   0  0  0  0  0  0
  -23.4154  -28.8181   23.3028 O   0  0  0  0  0  0
  -28.4261  -26.7694   20.0116 O   0  0  0  0  0  0
  -26.5593  -34.8925   22.4668 O   0  0  0  0  0  0
  -23.5324  -32.1436   23.7535 O   0  0  0  0  0  0
  -30.5699  -18.7880   20.4323 C   0  0  0  0  0  0
  -30.5867  -17.3830   20.4093 C   0  0  0  0  0  0
  -30.1234  -18.7381   22.8262 C   0  0  0  0  0  0
  -30.3133  -19.4702   21.6359 C   0  0  0  0  0  0
  -30.1148  -17.3257   22.8050 C   0  0  0  0  0  0
  -30.3431  -16.6353   21.5891 C   0  0  0  0  0  0
  -29.2324  -23.5886   23.4088 C   0  0  0  0  0  0
  -28.8707  -23.8040   22.1238 C   0  0  0  0  0  0
  -28.9105  -25.1855   21.5440 C   0  0  0  0  0  0
  -29.8222  -16.5794   24.0935 C   0  0  0  0  0  0
  -29.6763  -26.2490   22.3317 C   0  0  0  0  0  0
  -30.1605  -20.9794   21.6311 C   0  0  0  0  0  0
  -28.3388  -22.6845   21.2187 C   0  0  0  0  0  0
  -28.3082  -25.4344   20.4434 N   0  0  0  0  0  0
  -30.2275  -15.2173   21.5589 N   0  0  0  0  0  0
  -28.7162  -21.3114   21.6390 N   0  3  0  0  0  0
  -31.4680  -12.3671   19.1038 H   0  0  0  0  0  0
  -30.3150  -11.2531   19.7778 H   0  0  0  0  0  0
  -29.7364  -11.8159   17.4068 H   0  0  0  0  0  0
  -29.6901  -13.5175   17.8023 H   0  0  0  0  0  0
  -27.8065  -11.3394   18.7712 H   0  0  0  0  0  0
  -27.3768  -12.7113   17.7811 H   0  0  0  0  0  0
  -27.7378  -14.2659   19.6228 H   0  0  0  0  0  0
  -28.6671  -11.8897   21.3073 H   0  0  0  0  0  0
  -28.4593  -13.5082   21.8912 H   0  0  0  0  0  0
  -25.2775   -9.5672   22.4696 H   0  0  0  0  0  0
  -23.9991   -7.4653   22.7478 H   0  0  0  0  0  0
  -21.0805   -8.8776   19.8981 H   0  0  0  0  0  0
  -22.3687  -10.9648   19.6129 H   0  0  0  0  0  0
  -21.2046   -7.6134   23.9697 H   0  0  0  0  0  0
  -21.1467   -6.0509   25.9056 H   0  0  0  0  0  0
  -22.0606   -2.7590   23.2839 H   0  0  0  0  0  0
  -22.4151  -11.9975   22.4856 H   0  0  0  0  0  0
  -21.1143  -13.1282   22.2513 H   0  0  0  0  0  0
  -24.6734  -15.8474   20.5287 H   0  0  0  0  0  0
  -26.2997  -15.6315   20.1169 H   0  0  0  0  0  0
  -26.7101  -32.5544   23.1125 H   0  0  0  0  0  0
  -25.0041  -33.9786   25.0438 H   0  0  0  0  0  0
  -22.6879  -31.3091   21.4126 H   0  0  0  0  0  0
  -23.3679  -35.9714   23.3330 H   0  0  0  0  0  0
  -24.3523  -36.8951   22.2045 H   0  0  0  0  0  0
  -23.7285  -37.6556   23.6677 H   0  0  0  0  0  0
  -26.0472  -31.6038   20.6075 H   0  0  0  0  0  0
  -26.8100  -30.8755   21.9957 H   0  0  0  0  0  0
  -28.0983  -29.1170   21.1524 H   0  0  0  0  0  0
  -26.0883  -25.9904   18.9763 H   0  0  0  0  0  0
  -23.9820  -27.2919   19.0287 H   0  0  0  0  0  0
  -23.7197  -30.5971   19.4052 H   0  0  0  0  0  0
  -22.7304  -29.2445   19.8676 H   0  0  0  0  0  0
  -25.1306  -36.1925   25.0783 H   0  0  0  0  0  0
  -20.9953  -28.3213   24.1422 H   0  0  0  0  0  0
  -20.5584  -26.2273   23.3596 H   0  0  0  0  0  0
  -21.6630  -26.7415   22.1249 H   0  0  0  0  0  0
  -19.6895  -25.6303   21.1219 H   0  0  0  0  0  0
  -19.6663  -27.3194   20.6708 H   0  0  0  0  0  0
  -17.4179  -26.6656   21.3988 H   0  0  0  0  0  0
  -18.0316  -26.0043   22.8978 H   0  0  0  0  0  0
  -19.7945  -30.7241   24.2260 H   0  0  0  0  0  0
  -17.5032  -31.6255   24.5195 H   0  0  0  0  0  0
  -15.5351  -30.3008   23.7657 H   0  0  0  0  0  0
  -15.8644  -28.0847   22.7050 H   0  0  0  0  0  0
  -24.5908  -30.7167   25.7820 H   0  0  0  0  0  0
  -24.9124  -32.2887   26.5070 H   0  0  0  0  0  0
  -25.8207  -30.8768   27.0163 H   0  0  0  0  0  0
  -26.2926  -29.6696   24.1359 H   0  0  0  0  0  0
  -27.4270  -29.7404   25.4644 H   0  0  0  0  0  0
  -27.8711  -30.4309   23.9217 H   0  0  0  0  0  0
  -27.2626  -33.3687   26.2042 H   0  0  0  0  0  0
  -28.3859  -32.7030   25.0298 H   0  0  0  0  0  0
  -28.0756  -31.8567   26.5382 H   0  0  0  0  0  0
  -28.2601  -38.0109   24.7467 H   0  0  0  0  0  0
  -28.1030  -36.2645   24.6296 H   0  0  0  0  0  0
  -27.2274  -37.1514   25.8849 H   0  0  0  0  0  0
  -20.9234  -29.8794   21.7006 H   0  0  0  0  0  0
  -26.0125  -38.2843   24.1418 H   0  0  0  0  0  0
  -30.7202  -19.3335   19.5101 H   0  0  0  0  0  0
  -30.7473  -16.8986   19.4562 H   0  0  0  0  0  0
  -29.9450  -19.2617   23.7545 H   0  0  0  0  0  0
  -29.5877  -24.3725   24.0587 H   0  0  0  0  0  0
  -29.1718  -22.6110   23.8615 H   0  0  0  0  0  0
  -29.8010  -17.2502   24.9529 H   0  0  0  0  0  0
  -30.5831  -15.8231   24.2835 H   0  0  0  0  0  0
  -28.8492  -16.0940   24.0276 H   0  0  0  0  0  0
  -30.6564  -25.8668   22.6180 H   0  0  0  0  0  0
  -29.1268  -26.5247   23.2296 H   0  0  0  0  0  0
  -29.8663  -27.1576   21.7664 H   0  0  0  0  0  0
  -30.6404  -21.3876   20.7406 H   0  0  0  0  0  0
  -30.6776  -21.4022   22.4931 H   0  0  0  0  0  0
  -28.6930  -22.8251   20.1937 H   0  0  0  0  0  0
  -27.2498  -22.7551   21.1812 H   0  0  0  0  0  0
  -29.5296  -14.8133   22.1647 H   0  0  0  0  0  0
  -28.3357  -21.1117   22.5472 H   0  0  0  0  0  0
  -28.2763  -20.6719   21.0001 H   0  0  0  0  0  0
  1 25  1  0  0  0
  1 30  2  0  0  0
  1 85  1  0  0  0
  2  3  1  0  0  0
  2 25  1  0  0  0
  2 87  1  0  0  0
  2 88  1  0  0  0
  3  4  1  0  0  0
  3 89  1  0  0  0
  3 90  1  0  0  0
  4  5  1  0  0  0
  4 91  1  0  0  0
  4 92  1  0  0  0
  5  6  1  0  0  0
  5 26  1  0  0  0
  5 93  1  0  0  0
  6 25  1  0  0  0
  6 94  1  0  0  0
  6 95  1  0  0  0
  7  8  2  0  0  0
  7 26  1  0  0  0
  7 29  1  0  0  0
  8  9  1  0  0  0
  8 22  1  0  0  0
  9 10  1  0  0  0
  9 27  2  0  0  0
 10 11  2  0  0  0
 10 15  1  0  0  0
 11 12  1  0  0  0
 11 96  1  0  0  0
 12 13  2  0  0  0
 12 97  1  0  0  0
 13 14  1  0  0  0
 13 31  1  0  0  0
 14 15  2  0  0  0
 14 98  1  0  0  0
 15 99  1  0  0  0
 16 17  2  0  0  0
 16 21  1  0  0  0
 16 31  1  0  0  0
 17 18  1  0  0  0
 17100  1  0  0  0
 18 19  2  0  0  0
 18101  1  0  0  0
 19 20  1  0  0  0
 19 24  1  0  0  0
 20 21  2  0  0  0
 20102  1  0  0  0
 21 23  1  0  0  0
 22 28  1  0  0  0
 22 32  2  0  0  0
 26 27  1  0  0  0
 28103  1  0  0  0
 28104  1  0  0  0
 29105  1  0  0  0
 29106  1  0  0  0
 33 34  1  0  0  0
 33 66  1  0  0  0
 33 70  2  0  0  0
 34 36  1  0  0  0
 34 59  1  0  0  0
 34107  1  0  0  0
 35 44  2  0  0  0
 35 45  1  0  0  0
 35 68  1  0  0  0
 36 56  1  0  0  0
 36108  1  0  0  0
 37 39  1  0  0  0
 37 47  1  0  0  0
 37 66  1  0  0  0
 37109  1  0  0  0
 38 43  2  0  0  0
 38 46  1  0  0  0
 38 47  1  0  0  0
 39 64  1  0  0  0
 39 67  2  0  0  0
 40 52  1  0  0  0
 40 53  2  0  0  0
 40 58  1  0  0  0
 41110  1  0  0  0
 41111  1  0  0  0
 41112  1  0  0  0
 41 48  1  0  0  0
 42 43  1  0  0  0
 42 66  1  0  0  0
 42113  1  0  0  0
 42114  1  0  0  0
 43 44  1  0  0  0
 44115  1  0  0  0
 45 46  2  0  0  0
 45116  1  0  0  0
 46117  1  0  0  0
 47118  1  0  0  0
 47119  1  0  0  0
 48 56  1  0  0  0
 48 65  1  0  0  0
 48120  1  0  0  0
 49 50  1  0  0  0
 49 53  1  0  0  0
 49 64  1  0  0  0
 49121  1  0  0  0
 50 51  1  0  0  0
 50122  1  0  0  0
 50123  1  0  0  0
 51 52  1  0  0  0
 51124  1  0  0  0
 51125  1  0  0  0
 52126  1  0  0  0
 52127  1  0  0  0
 53 54  1  0  0  0
 54 55  2  0  0  0
 54128  1  0  0  0
 55 57  1  0  0  0
 55129  1  0  0  0
 56 69  2  0  0  0
 57 58  2  0  0  0
 57130  1  0  0  0
 58131  1  0  0  0
 59 60  1  0  0  0
 59 61  1  0  0  0
 59 62  1  0  0  0
 60132  1  0  0  0
 60133  1  0  0  0
 60134  1  0  0  0
 61135  1  0  0  0
 61136  1  0  0  0
 61137  1  0  0  0
 62138  1  0  0  0
 62139  1  0  0  0
 62140  1  0  0  0
 63 65  1  0  0  0
 63141  1  0  0  0
 63142  1  0  0  0
 63143  1  0  0  0
 64144  1  0  0  0
 65145  1  0  0  0
 68 84  1  0  0  0
 71 72  2  0  0  0
 71 74  1  0  0  0
 71146  1  0  0  0
 72 76  1  0  0  0
 72147  1  0  0  0
 73 74  2  0  0  0
 73 75  1  0  0  0
 73148  1  0  0  0
 74 82  1  0  0  0
 75 76  2  0  0  0
 75 80  1  0  0  0
 76 85  1  0  0  0
 77 78  2  0  0  0
 77149  1  0  0  0
 77150  1  0  0  0
 78 79  1  0  0  0
 78 83  1  0  0  0
 79 81  1  0  0  0
 79 84  2  0  0  0
 80151  1  0  0  0
 80152  1  0  0  0
 80153  1  0  0  0
 81154  1  0  0  0
 81155  1  0  0  0
 81156  1  0  0  0
 82 86  1  0  0  0
 82157  1  0  0  0
 82158  1  0  0  0
 83 86  1  0  0  0
 83159  1  0  0  0
 83160  1  0  0  0
 85161  1  0  0  0
 86162  1  0  0  0
 86163  1  0  0  0
M  CHG  1  86   1
M  ISO  4   1 100  68 101  84 101  85 100
M  END
> <chiral flag>
0

> <version>
0

> <s_m_source_file>
/data/baiqing/PycharmProjects/Reinvent-master-3.2/result/LINK_invent/BTK/process_docking_weight1_custom_product_contain_oxygen_bond_distance_aromatic_linkinvent_7_9_3/rearranged_h_0038.sdf

> <i_m_source_file_index>
22

> <r_mmod_Potential_Energy-OPLS-2005>
-305.8310546875

> <r_mmod_Stretch_Energy-OPLS-2005>
36.321231842041

> <r_mmod_Bend_Energy-OPLS-2005>
93.8530426025391

> <r_mmod_Torsional_Energy-OPLS-2005>
220.148773193359

> <r_mmod_Improper_Torsional_Energy-OPLS-2005>
3.2399730682373

> <r_mmod_Van_der_Waal_Energy-OPLS-2005>
175.115295410156

> <r_mmod_Electrostatic_Energy-OPLS-2005>
-369.7353515625

> <r_mmod_Solvation_Energy-OPLS-2005>
-472.062652587891

> <b_mmod_Minimization_Converged-OPLS-2005>
0

> <r_mmod_RMS_Derivative-OPLS-2005>
3.52164483070374

$$$$
22
                    3D
 Structure written by MMmdl.
153161  0  0  1  0            999 V2000
  -30.6234  -14.6280   20.5038 C   0  0  0  0  0  0
  -30.4387  -12.3855   19.4485 C   0  0  0  0  0  0
  -29.5051  -12.5084   18.2224 C   0  0  0  0  0  0
  -28.0285  -12.3425   18.6361 C   0  0  0  0  0  0
  -27.6534  -13.2130   19.8652 C   0  0  2  0  0  0
  -28.6994  -13.0595   20.9938 C   0  0  0  0  0  0
  -25.2564  -13.8172   20.5710 C   0  0  0  0  0  0
  -24.1818  -13.0440   20.9199 C   0  0  0  0  0  0
  -24.6379  -11.6907   20.8740 C   0  0  0  0  0  0
  -23.9045  -10.4293   21.0399 C   0  0  0  0  0  0
  -24.3602   -9.4215   21.9184 C   0  0  0  0  0  0
  -23.6284   -8.2247   22.0752 C   0  0  0  0  0  0
  -22.4270   -8.0283   21.3536 C   0  0  0  0  0  0
  -21.9893   -9.0256   20.4643 C   0  0  0  0  0  0
  -22.7215  -10.2138   20.3051 C   0  0  0  0  0  0
  -21.6849   -6.0729   22.5272 C   0  0  0  0  0  0
  -21.4011   -6.5632   23.8204 C   0  0  0  0  0  0
  -21.3664   -5.6789   24.9171 C   0  0  0  0  0  0
  -21.6046   -4.3050   24.7220 C   0  0  0  0  0  0
  -21.8819   -3.8137   23.4342 C   0  0  0  0  0  0
  -21.9190   -4.6955   22.3400 C   0  0  0  0  0  0
  -22.7841  -13.5246   21.1857 C   0  0  0  0  0  0
  -22.1660   -4.2137   21.0976 F   0  0  0  0  0  0
  -21.5632   -3.4541   25.7739 F   0  0  0  0  0  0
  -30.0166  -13.4013   20.4317 N   0  0  0  0  0  0
  -26.2984  -12.9340   20.3329 N   0  0  0  0  0  0
  -25.9309  -11.6499   20.5765 N   0  0  0  0  0  0
  -22.0469  -12.8244   22.0410 N   0  0  0  0  0  0
  -25.4288  -15.1898   20.4153 N   0  0  0  0  0  0
  -31.7864  -14.7935   20.1265 O   0  0  0  0  0  0
  -21.6638   -6.8876   21.4234 O   0  0  0  0  0  0
  -22.3537  -14.5560   20.6710 O   0  0  0  0  0  0
  -24.6270  -31.8611   23.2047 C   0  0  0  0  0  0
  -25.9124  -32.4782   23.8365 C   0  0  1  0  0  0
  -27.2199  -27.3237   20.1049 C   0  0  0  0  0  0
  -25.5947  -33.8581   24.2283 N   0  0  0  0  0  0
  -23.4192  -30.4876   21.5476 C   0  0  2  0  0  0
  -24.8643  -28.9492   20.1080 C   0  0  0  0  0  0
  -22.7472  -29.4634   22.4932 C   0  0  0  0  0  0
  -18.0295  -28.1378   22.8485 C   0  0  0  0  0  0
  -24.1492  -36.7296   23.2634 C   0  0  0  0  0  0
  -25.9622  -30.7906   21.3781 C   0  0  0  0  0  0
  -26.0342  -29.4212   20.7152 C   0  0  0  0  0  0
  -27.2148  -28.6204   20.7054 C   0  0  0  0  0  0
  -26.0246  -26.9116   19.4670 C   0  0  0  0  0  0
  -24.8613  -27.6993   19.4756 C   0  0  0  0  0  0
  -23.6321  -29.8274   20.1609 C   0  0  0  0  0  0
  -25.4115  -36.3083   24.0323 C   0  0  1  0  0  0
  -20.5891  -28.3691   23.1272 C   0  0  2  0  0  0
  -20.6787  -26.9410   22.5401 C   0  0  0  0  0  0
  -19.5760  -26.6377   21.5208 C   0  0  0  0  0  0
  -18.1944  -26.7922   22.1624 C   0  0  0  0  0  0
  -19.1543  -28.8848   23.2877 C   0  0  0  0  0  0
  -18.9464  -30.1447   23.8898 C   0  0  0  0  0  0
  -17.6462  -30.6582   24.0558 C   0  0  0  0  0  0
  -25.9054  -34.9454   23.5100 C   0  0  0  0  0  0
  -16.5354  -29.9076   23.6328 C   0  0  0  0  0  0
  -16.7279  -28.6489   23.0356 C   0  0  0  0  0  0
  -26.4499  -31.6588   25.0731 C   0  0  0  0  0  0
  -25.3731  -31.3752   26.1457 C   0  0  0  0  0  0
  -27.0330  -30.2999   24.6203 C   0  0  0  0  0  0
  -27.6053  -32.4324   25.7509 C   0  0  0  0  0  0
  -27.5577  -37.1800   24.8458 C   0  0  0  0  0  0
  -21.4183  -29.3055   22.3670 N   0  0  0  0  0  0
  -26.4290  -37.3776   23.9405 N   0  0  0  0  0  0
  -24.6881  -31.0630   22.1001 N   0  0  0  0  0  0
  -23.4194  -28.8166   23.3002 O   0  0  0  0  0  0
  -28.3290  -26.4617   20.1625 O   0  0  0  0  0  0
  -26.5614  -34.8923   22.4661 O   0  0  0  0  0  0
  -23.5432  -32.1403   23.7376 O   0  0  0  0  0  0
  -28.7430  -17.9129   20.9414 C   0  0  0  0  0  0
  -31.0840  -17.8457   20.4439 C   0  0  0  0  0  0
  -29.9463  -20.0789   20.6438 C   0  0  0  0  0  0
  -28.7431  -19.3430   20.9015 C   0  0  0  0  0  0
  -29.9030  -17.1214   20.7319 C   0  0  0  0  0  0
  -31.1038  -19.2711   20.3971 C   0  0  0  0  0  0
  -29.0379  -22.6106   20.2392 C   0  0  0  0  0  0
  -29.1435  -23.9794   20.3657 C   0  0  0  0  0  0
  -30.1037  -21.6255   20.6842 C   0  0  0  0  0  0
  -27.4205  -20.0349   21.2005 C   0  0  0  0  0  0
  -28.0723  -25.0223   19.9316 C   0  0  0  0  0  0
  -29.7965  -15.6652   20.8449 N   0  0  0  0  0  0
  -31.1629  -22.0975   21.1096 O   0  0  0  0  0  0
  -32.2920  -19.8564   20.1088 F   0  0  0  0  0  0
  -31.4793  -12.5131   19.1444 H   0  0  0  0  0  0
  -30.3741  -11.3879   19.8854 H   0  0  0  0  0  0
  -29.7684  -11.7630   17.4708 H   0  0  0  0  0  0
  -29.6419  -13.4818   17.7477 H   0  0  0  0  0  0
  -27.8646  -11.2888   18.8672 H   0  0  0  0  0  0
  -27.3732  -12.5715   17.7946 H   0  0  0  0  0  0
  -27.6728  -14.2487   19.5266 H   0  0  0  0  0  0
  -28.7087  -12.0347   21.3678 H   0  0  0  0  0  0
  -28.4471  -13.6839   21.8527 H   0  0  0  0  0  0
  -25.2747   -9.5693   22.4754 H   0  0  0  0  0  0
  -23.9989   -7.4639   22.7472 H   0  0  0  0  0  0
  -21.0817   -8.8775   19.8952 H   0  0  0  0  0  0
  -22.3674  -10.9678   19.6160 H   0  0  0  0  0  0
  -21.2005   -7.6142   23.9708 H   0  0  0  0  0  0
  -21.1486   -6.0516   25.9074 H   0  0  0  0  0  0
  -22.0596   -2.7596   23.2843 H   0  0  0  0  0  0
  -22.4072  -11.9896   22.4792 H   0  0  0  0  0  0
  -21.1092  -13.1275   22.2625 H   0  0  0  0  0  0
  -24.6640  -15.8449   20.5360 H   0  0  0  0  0  0
  -26.2717  -15.6257   20.0657 H   0  0  0  0  0  0
  -26.7187  -32.5441   23.1108 H   0  0  0  0  0  0
  -25.0111  -33.9722   25.0439 H   0  0  0  0  0  0
  -22.7140  -31.3090   21.4069 H   0  0  0  0  0  0
  -23.3749  -35.9632   23.3300 H   0  0  0  0  0  0
  -24.3586  -36.8916   22.2048 H   0  0  0  0  0  0
  -23.7254  -37.6501   23.6656 H   0  0  0  0  0  0
  -26.0994  -31.5582   20.6146 H   0  0  0  0  0  0
  -26.8406  -30.8324   22.0103 H   0  0  0  0  0  0
  -28.1112  -28.9766   21.1937 H   0  0  0  0  0  0
  -25.9486  -25.9623   18.9604 H   0  0  0  0  0  0
  -23.9665  -27.3344   18.9898 H   0  0  0  0  0  0
  -23.7481  -30.6052   19.4053 H   0  0  0  0  0  0
  -22.7525  -29.2552   19.8600 H   0  0  0  0  0  0
  -25.1295  -36.1930   25.0813 H   0  0  0  0  0  0
  -20.9991  -28.3277   24.1391 H   0  0  0  0  0  0
  -20.5706  -26.2302   23.3608 H   0  0  0  0  0  0
  -21.6653  -26.7455   22.1190 H   0  0  0  0  0  0
  -19.6924  -25.6290   21.1238 H   0  0  0  0  0  0
  -19.6692  -27.3187   20.6741 H   0  0  0  0  0  0
  -17.4210  -26.6666   21.4034 H   0  0  0  0  0  0
  -18.0355  -26.0057   22.9020 H   0  0  0  0  0  0
  -19.7940  -30.7261   24.2268 H   0  0  0  0  0  0
  -17.5016  -31.6264   24.5160 H   0  0  0  0  0  0
  -15.5353  -30.2978   23.7647 H   0  0  0  0  0  0
  -15.8677  -28.0807   22.7080 H   0  0  0  0  0  0
  -24.5897  -30.7108   25.7799 H   0  0  0  0  0  0
  -24.8934  -32.2932   26.4863 H   0  0  0  0  0  0
  -25.8045  -30.8945   27.0246 H   0  0  0  0  0  0
  -26.2907  -29.6763   24.1204 H   0  0  0  0  0  0
  -27.3986  -29.7246   25.4721 H   0  0  0  0  0  0
  -27.8805  -30.4266   23.9461 H   0  0  0  0  0  0
  -27.2652  -33.3619   26.2092 H   0  0  0  0  0  0
  -28.3867  -32.6893   25.0345 H   0  0  0  0  0  0
  -28.0719  -31.8450   26.5429 H   0  0  0  0  0  0
  -28.2586  -38.0103   24.7500 H   0  0  0  0  0  0
  -28.1081  -36.2632   24.6286 H   0  0  0  0  0  0
  -27.2296  -37.1452   25.8861 H   0  0  0  0  0  0
  -20.9362  -29.8782   21.6881 H   0  0  0  0  0  0
  -26.0171  -38.2850   24.1406 H   0  0  0  0  0  0
  -27.8132  -17.4066   21.1618 H   0  0  0  0  0  0
  -32.0112  -17.3208   20.2676 H   0  0  0  0  0  0
  -28.1475  -22.2002   19.7902 H   0  0  0  0  0  0
  -30.0368  -24.4000   20.8055 H   0  0  0  0  0  0
  -26.7394  -19.3736   21.7369 H   0  0  0  0  0  0
  -26.9265  -20.3217   20.2718 H   0  0  0  0  0  0
  -27.5517  -20.9193   21.8239 H   0  0  0  0  0  0
  -27.1638  -24.7309   20.4628 H   0  0  0  0  0  0
  -27.8867  -24.8649   18.8681 H   0  0  0  0  0  0
  -28.8862  -15.3364   21.1273 H   0  0  0  0  0  0
  1 25  1  0  0  0
  1 30  2  0  0  0
  1 82  1  0  0  0
  2  3  1  0  0  0
  2 25  1  0  0  0
  2 85  1  0  0  0
  2 86  1  0  0  0
  3  4  1  0  0  0
  3 87  1  0  0  0
  3 88  1  0  0  0
  4  5  1  0  0  0
  4 89  1  0  0  0
  4 90  1  0  0  0
  5  6  1  0  0  0
  5 26  1  0  0  0
  5 91  1  0  0  0
  6 25  1  0  0  0
  6 92  1  0  0  0
  6 93  1  0  0  0
  7  8  2  0  0  0
  7 26  1  0  0  0
  7 29  1  0  0  0
  8  9  1  0  0  0
  8 22  1  0  0  0
  9 10  1  0  0  0
  9 27  2  0  0  0
 10 11  2  0  0  0
 10 15  1  0  0  0
 11 12  1  0  0  0
 11 94  1  0  0  0
 12 13  2  0  0  0
 12 95  1  0  0  0
 13 14  1  0  0  0
 13 31  1  0  0  0
 14 15  2  0  0  0
 14 96  1  0  0  0
 15 97  1  0  0  0
 16 17  2  0  0  0
 16 21  1  0  0  0
 16 31  1  0  0  0
 17 18  1  0  0  0
 17 98  1  0  0  0
 18 19  2  0  0  0
 18 99  1  0  0  0
 19 20  1  0  0  0
 19 24  1  0  0  0
 20 21  2  0  0  0
 20100  1  0  0  0
 21 23  1  0  0  0
 22 28  1  0  0  0
 22 32  2  0  0  0
 26 27  1  0  0  0
 28101  1  0  0  0
 28102  1  0  0  0
 29103  1  0  0  0
 29104  1  0  0  0
 33 34  1  0  0  0
 33 66  1  0  0  0
 33 70  2  0  0  0
 34 36  1  0  0  0
 34 59  1  0  0  0
 34105  1  0  0  0
 35 44  2  0  0  0
 35 45  1  0  0  0
 35 68  1  0  0  0
 36 56  1  0  0  0
 36106  1  0  0  0
 37 39  1  0  0  0
 37 47  1  0  0  0
 37 66  1  0  0  0
 37107  1  0  0  0
 38 43  2  0  0  0
 38 46  1  0  0  0
 38 47  1  0  0  0
 39 64  1  0  0  0
 39 67  2  0  0  0
 40 52  1  0  0  0
 40 53  2  0  0  0
 40 58  1  0  0  0
 41108  1  0  0  0
 41109  1  0  0  0
 41110  1  0  0  0
 41 48  1  0  0  0
 42 43  1  0  0  0
 42 66  1  0  0  0
 42111  1  0  0  0
 42112  1  0  0  0
 43 44  1  0  0  0
 44113  1  0  0  0
 45 46  2  0  0  0
 45114  1  0  0  0
 46115  1  0  0  0
 47116  1  0  0  0
 47117  1  0  0  0
 48 56  1  0  0  0
 48 65  1  0  0  0
 48118  1  0  0  0
 49 50  1  0  0  0
 49 53  1  0  0  0
 49 64  1  0  0  0
 49119  1  0  0  0
 50 51  1  0  0  0
 50120  1  0  0  0
 50121  1  0  0  0
 51 52  1  0  0  0
 51122  1  0  0  0
 51123  1  0  0  0
 52124  1  0  0  0
 52125  1  0  0  0
 53 54  1  0  0  0
 54 55  2  0  0  0
 54126  1  0  0  0
 55 57  1  0  0  0
 55127  1  0  0  0
 56 69  2  0  0  0
 57 58  2  0  0  0
 57128  1  0  0  0
 58129  1  0  0  0
 59 60  1  0  0  0
 59 61  1  0  0  0
 59 62  1  0  0  0
 60130  1  0  0  0
 60131  1  0  0  0
 60132  1  0  0  0
 61133  1  0  0  0
 61134  1  0  0  0
 61135  1  0  0  0
 62136  1  0  0  0
 62137  1  0  0  0
 62138  1  0  0  0
 63 65  1  0  0  0
 63139  1  0  0  0
 63140  1  0  0  0
 63141  1  0  0  0
 64142  1  0  0  0
 65143  1  0  0  0
 68 81  1  0  0  0
 71 74  2  0  0  0
 71 75  1  0  0  0
 71144  1  0  0  0
 72 75  2  0  0  0
 72 76  1  0  0  0
 72145  1  0  0  0
 73 74  1  0  0  0
 73 76  2  0  0  0
 73 79  1  0  0  0
 74 80  1  0  0  0
 75 82  1  0  0  0
 76 84  1  0  0  0
 77 78  2  0  0  0
 77 79  1  0  0  0
 77146  1  0  0  0
 78 81  1  0  0  0
 78147  1  0  0  0
 79 83  2  0  0  0
 80148  1  0  0  0
 80149  1  0  0  0
 80150  1  0  0  0
 81151  1  0  0  0
 81152  1  0  0  0
 82153  1  0  0  0
M  ISO  4   1 100  68 101  81 101  82 100
M  END
> <chiral flag>
0

> <version>
0

> <s_m_source_file>
/data/baiqing/PycharmProjects/Reinvent-master-3.2/result/LINK_invent/BTK/process_docking_weight1_custom_product_contain_oxygen_bond_distance_aromatic_linkinvent_7_9_3/rearranged_h_0038.sdf

> <i_m_source_file_index>
23

> <r_mmod_Potential_Energy-OPLS-2005>
113.151100158691

> <r_mmod_Stretch_Energy-OPLS-2005>
81.0024642944336

> <r_mmod_Bend_Energy-OPLS-2005>
138.35546875

> <r_mmod_Torsional_Energy-OPLS-2005>
217.983093261719

> <r_mmod_Improper_Torsional_Energy-OPLS-2005>
4.45400285720825

> <r_mmod_Van_der_Waal_Energy-OPLS-2005>
157.211578369141

> <r_mmod_Electrostatic_Energy-OPLS-2005>
-308.469818115234

> <r_mmod_Solvation_Energy-OPLS-2005>
-224.590209960938

> <b_mmod_Minimization_Converged-OPLS-2005>
0

> <r_mmod_RMS_Derivative-OPLS-2005>
1.59463965892792

$$$$
23
                    3D
 Structure written by MMmdl.
167176  0  0  1  0            999 V2000
  -30.6182  -14.7112   20.4355 C   0  0  0  0  0  0
  -30.4265  -12.4250   19.4752 C   0  0  0  0  0  0
  -29.5089  -12.4922   18.2360 C   0  0  0  0  0  0
  -28.0338  -12.3265   18.6481 C   0  0  0  0  0  0
  -27.6414  -13.2280   19.8491 C   0  0  2  0  0  0
  -28.6837  -13.1541   20.9865 C   0  0  0  0  0  0
  -25.2509  -13.8197   20.5680 C   0  0  0  0  0  0
  -24.1804  -13.0443   20.9207 C   0  0  0  0  0  0
  -24.6386  -11.6918   20.8753 C   0  0  0  0  0  0
  -23.9070  -10.4297   21.0410 C   0  0  0  0  0  0
  -24.3619   -9.4210   21.9188 C   0  0  0  0  0  0
  -23.6290   -8.2245   22.0754 C   0  0  0  0  0  0
  -22.4276   -8.0278   21.3543 C   0  0  0  0  0  0
  -21.9918   -9.0255   20.4644 C   0  0  0  0  0  0
  -22.7244  -10.2136   20.3055 C   0  0  0  0  0  0
  -21.6855   -6.0736   22.5281 C   0  0  0  0  0  0
  -21.4009   -6.5641   23.8214 C   0  0  0  0  0  0
  -21.3661   -5.6792   24.9181 C   0  0  0  0  0  0
  -21.6041   -4.3053   24.7225 C   0  0  0  0  0  0
  -21.8821   -3.8149   23.4347 C   0  0  0  0  0  0
  -21.9191   -4.6964   22.3404 C   0  0  0  0  0  0
  -22.7833  -13.5231   21.1873 C   0  0  0  0  0  0
  -22.1665   -4.2156   21.0977 F   0  0  0  0  0  0
  -21.5632   -3.4536   25.7737 F   0  0  0  0  0  0
  -29.9911  -13.4885   20.4093 N   0  0  0  0  0  0
  -26.2931  -12.9395   20.3268 N   0  0  0  0  0  0
  -25.9303  -11.6551   20.5742 N   0  0  0  0  0  0
  -22.0474  -12.8213   22.0425 N   0  0  0  0  0  0
  -25.4197  -15.1911   20.4073 N   0  0  0  0  0  0
  -31.8131  -14.7869   20.1347 O   0  0  0  0  0  0
  -21.6633   -6.8874   21.4243 O   0  0  0  0  0  0
  -22.3517  -14.5547   20.6730 O   0  0  0  0  0  0
  -24.6301  -31.8556   23.2006 C   0  0  0  0  0  0
  -25.9134  -32.4750   23.8333 C   0  0  1  0  0  0
  -27.2069  -27.2478   20.1380 C   0  0  0  0  0  0
  -25.5943  -33.8560   24.2246 N   0  0  0  0  0  0
  -23.4280  -30.4772   21.5447 C   0  0  2  0  0  0
  -24.8763  -28.9275   20.1084 C   0  0  0  0  0  0
  -22.7494  -29.4590   22.4925 C   0  0  0  0  0  0
  -18.0282  -28.1383   22.8448 C   0  0  0  0  0  0
  -24.1508  -36.7271   23.2637 C   0  0  0  0  0  0
  -25.9761  -30.7563   21.3939 C   0  0  0  0  0  0
  -26.0446  -29.3792   20.7380 C   0  0  0  0  0  0
  -27.2107  -28.5456   20.7534 C   0  0  0  0  0  0
  -26.0480  -26.9114   19.4087 C   0  0  0  0  0  0
  -24.8849  -27.7009   19.4314 C   0  0  0  0  0  0
  -23.6472  -29.8132   20.1601 C   0  0  0  0  0  0
  -25.4136  -36.3067   24.0321 C   0  0  1  0  0  0
  -20.5890  -28.3691   23.1267 C   0  0  2  0  0  0
  -20.6793  -26.9414   22.5411 C   0  0  0  0  0  0
  -19.5778  -26.6377   21.5203 C   0  0  0  0  0  0
  -18.1937  -26.7914   22.1597 C   0  0  0  0  0  0
  -19.1537  -28.8853   23.2835 C   0  0  0  0  0  0
  -18.9469  -30.1442   23.8874 C   0  0  0  0  0  0
  -17.6476  -30.6581   24.0558 C   0  0  0  0  0  0
  -25.9083  -34.9442   23.5090 C   0  0  0  0  0  0
  -16.5359  -29.9085   23.6345 C   0  0  0  0  0  0
  -16.7269  -28.6507   23.0350 C   0  0  0  0  0  0
  -26.4498  -31.6590   25.0733 C   0  0  0  0  0  0
  -25.3695  -31.3745   26.1425 C   0  0  0  0  0  0
  -27.0363  -30.3010   24.6245 C   0  0  0  0  0  0
  -27.6044  -32.4344   25.7495 C   0  0  0  0  0  0
  -27.5581  -37.1785   24.8463 C   0  0  0  0  0  0
  -21.4203  -29.3030   22.3652 N   0  0  0  0  0  0
  -26.4305  -37.3772   23.9402 N   0  0  0  0  0  0
  -24.6960  -31.0495   22.1005 N   0  0  0  0  0  0
  -23.4171  -28.8145   23.3045 O   0  0  0  0  0  0
  -28.2831  -26.3301   20.1789 O   0  0  0  0  0  0
  -26.5662  -34.8916   22.4656 O   0  0  0  0  0  0
  -23.5460  -32.1419   23.7295 O   0  0  0  0  0  0
  -31.1021  -18.6478   18.3834 C   0  0  0  0  0  0
  -30.8388  -17.3862   18.9367 C   0  0  0  0  0  0
  -30.6247  -19.8362   18.9717 C   0  0  0  0  0  0
  -29.8039  -19.7980   20.1326 C   0  0  0  0  0  0
  -29.5100  -18.4641   20.6716 C   0  0  0  0  0  0
  -30.0689  -17.2341   20.1099 C   0  0  0  0  0  0
  -27.0932  -22.0236   20.4164 C   0  0  0  0  0  0
  -26.3370  -21.1157   19.7774 C   0  0  0  0  0  0
  -26.6325  -22.9816   21.4981 C   0  0  0  0  0  0
  -26.6826  -24.4218   20.9796 C   0  0  0  0  0  0
  -28.9532  -23.7077   19.9438 C   0  0  0  0  0  0
  -28.1257  -24.8956   20.6747 C   0  0  1  0  0  0
  -31.0601  -21.1465   18.3288 C   0  0  0  0  0  0
  -28.6110  -18.3377   21.8914 C   0  0  0  0  0  0
  -29.4339  -21.2034   20.8164 C   0  0  0  0  0  0
  -29.8495  -15.8532   20.6206 N   0  0  0  0  0  0
  -28.5327  -22.2191   20.0974 N   0  3  1  0  0  0
  -31.4702  -12.5346   19.1762 H   0  0  0  0  0  0
  -30.3564  -11.4483   19.9559 H   0  0  0  0  0  0
  -29.7856  -11.7163   17.5210 H   0  0  0  0  0  0
  -29.6434  -13.4456   17.7226 H   0  0  0  0  0  0
  -27.8860  -11.2785   18.9120 H   0  0  0  0  0  0
  -27.3778  -12.5176   17.7982 H   0  0  0  0  0  0
  -27.6406  -14.2499   19.4692 H   0  0  0  0  0  0
  -28.7063  -12.1572   21.4285 H   0  0  0  0  0  0
  -28.4234  -13.8400   21.7946 H   0  0  0  0  0  0
  -25.2756   -9.5691   22.4764 H   0  0  0  0  0  0
  -24.0007   -7.4634   22.7467 H   0  0  0  0  0  0
  -21.0855   -8.8759   19.8937 H   0  0  0  0  0  0
  -22.3697  -10.9670   19.6162 H   0  0  0  0  0  0
  -21.1997   -7.6145   23.9724 H   0  0  0  0  0  0
  -21.1486   -6.0517   25.9081 H   0  0  0  0  0  0
  -22.0598   -2.7613   23.2840 H   0  0  0  0  0  0
  -22.4090  -11.9864   22.4797 H   0  0  0  0  0  0
  -21.1089  -13.1231   22.2636 H   0  0  0  0  0  0
  -24.6430  -15.8368   20.4975 H   0  0  0  0  0  0
  -26.2551  -15.6286   20.0410 H   0  0  0  0  0  0
  -26.7173  -32.5395   23.1041 H   0  0  0  0  0  0
  -25.0074  -33.9702   25.0381 H   0  0  0  0  0  0
  -22.7275  -31.3009   21.3963 H   0  0  0  0  0  0
  -23.3786  -35.9590   23.3320 H   0  0  0  0  0  0
  -24.3590  -36.8898   22.2048 H   0  0  0  0  0  0
  -23.7262  -37.6470   23.6673 H   0  0  0  0  0  0
  -26.1299  -31.5130   20.6234 H   0  0  0  0  0  0
  -26.8498  -30.7983   22.0336 H   0  0  0  0  0  0
  -28.0977  -28.8766   21.2739 H   0  0  0  0  0  0
  -26.0303  -26.0185   18.8030 H   0  0  0  0  0  0
  -24.0064  -27.3720   18.8918 H   0  0  0  0  0  0
  -23.7738  -30.5907   19.4065 H   0  0  0  0  0  0
  -22.7662  -29.2460   19.8549 H   0  0  0  0  0  0
  -25.1324  -36.1901   25.0819 H   0  0  0  0  0  0
  -20.9943  -28.3280   24.1406 H   0  0  0  0  0  0
  -20.5748  -26.2280   23.3610 H   0  0  0  0  0  0
  -21.6650  -26.7480   22.1174 H   0  0  0  0  0  0
  -19.6984  -25.6289   21.1240 H   0  0  0  0  0  0
  -19.6756  -27.3176   20.6728 H   0  0  0  0  0  0
  -17.4228  -26.6646   21.3978 H   0  0  0  0  0  0
  -18.0325  -26.0064   22.9005 H   0  0  0  0  0  0
  -19.7961  -30.7222   24.2255 H   0  0  0  0  0  0
  -17.5061  -31.6268   24.5131 H   0  0  0  0  0  0
  -15.5372  -30.2997   23.7686 H   0  0  0  0  0  0
  -15.8654  -28.0824   22.7103 H   0  0  0  0  0  0
  -24.5900  -30.7070   25.7723 H   0  0  0  0  0  0
  -24.8833  -32.2919   26.4767 H   0  0  0  0  0  0
  -25.7964  -30.8965   27.0253 H   0  0  0  0  0  0
  -26.2960  -29.6729   24.1278 H   0  0  0  0  0  0
  -27.4063  -29.7288   25.4765 H   0  0  0  0  0  0
  -27.8831  -30.4287   23.9495 H   0  0  0  0  0  0
  -27.2663  -33.3688   26.1981 H   0  0  0  0  0  0
  -28.3876  -32.6837   25.0325 H   0  0  0  0  0  0
  -28.0687  -31.8533   26.5479 H   0  0  0  0  0  0
  -28.2578  -38.0095   24.7529 H   0  0  0  0  0  0
  -28.1096  -36.2629   24.6282 H   0  0  0  0  0  0
  -27.2290  -37.1408   25.8860 H   0  0  0  0  0  0
  -20.9409  -29.8730   21.6823 H   0  0  0  0  0  0
  -26.0190  -38.2844   24.1418 H   0  0  0  0  0  0
  -31.7146  -18.6945   17.4934 H   0  0  0  0  0  0
  -31.2483  -16.5273   18.4252 H   0  0  0  0  0  0
  -25.2895  -21.0005   20.0186 H   0  0  0  0  0  0
  -26.7365  -20.4745   19.0049 H   0  0  0  0  0  0
  -27.2454  -22.8620   22.3936 H   0  0  0  0  0  0
  -25.6098  -22.7308   21.7858 H   0  0  0  0  0  0
  -26.2138  -25.0892   21.7050 H   0  0  0  0  0  0
  -26.0617  -24.4263   20.0889 H   0  0  0  0  0  0
  -30.0159  -23.8193   20.1656 H   0  0  0  0  0  0
  -28.8704  -23.9033   18.8743 H   0  0  0  0  0  0
  -28.5847  -24.9507   21.6644 H   0  0  0  0  0  0
  -31.7759  -20.9685   17.5250 H   0  0  0  0  0  0
  -31.5569  -21.7997   19.0462 H   0  0  0  0  0  0
  -30.2131  -21.6701   17.8879 H   0  0  0  0  0  0
  -29.1871  -18.4773   22.8055 H   0  0  0  0  0  0
  -28.1315  -17.3604   21.9397 H   0  0  0  0  0  0
  -27.8043  -19.0706   21.8707 H   0  0  0  0  0  0
  -30.3825  -21.6944   21.0285 H   0  0  0  0  0  0
  -29.0243  -21.0261   21.8096 H   0  0  0  0  0  0
  -28.9460  -15.6812   21.0322 H   0  0  0  0  0  0
  -28.6416  -21.9004   19.1472 H   0  0  0  0  0  0
  1 25  1  0  0  0
  1 30  2  0  0  0
  1 86  1  0  0  0
  2  3  1  0  0  0
  2 25  1  0  0  0
  2 88  1  0  0  0
  2 89  1  0  0  0
  3  4  1  0  0  0
  3 90  1  0  0  0
  3 91  1  0  0  0
  4  5  1  0  0  0
  4 92  1  0  0  0
  4 93  1  0  0  0
  5  6  1  0  0  0
  5 26  1  0  0  0
  5 94  1  0  0  0
  6 25  1  0  0  0
  6 95  1  0  0  0
  6 96  1  0  0  0
  7  8  2  0  0  0
  7 26  1  0  0  0
  7 29  1  0  0  0
  8  9  1  0  0  0
  8 22  1  0  0  0
  9 10  1  0  0  0
  9 27  2  0  0  0
 10 11  2  0  0  0
 10 15  1  0  0  0
 11 12  1  0  0  0
 11 97  1  0  0  0
 12 13  2  0  0  0
 12 98  1  0  0  0
 13 14  1  0  0  0
 13 31  1  0  0  0
 14 15  2  0  0  0
 14 99  1  0  0  0
 15100  1  0  0  0
 16 17  2  0  0  0
 16 21  1  0  0  0
 16 31  1  0  0  0
 17 18  1  0  0  0
 17101  1  0  0  0
 18 19  2  0  0  0
 18102  1  0  0  0
 19 20  1  0  0  0
 19 24  1  0  0  0
 20 21  2  0  0  0
 20103  1  0  0  0
 21 23  1  0  0  0
 22 28  1  0  0  0
 22 32  2  0  0  0
 26 27  1  0  0  0
 28104  1  0  0  0
 28105  1  0  0  0
 29106  1  0  0  0
 29107  1  0  0  0
 33 34  1  0  0  0
 33 66  1  0  0  0
 33 70  2  0  0  0
 34 36  1  0  0  0
 34 59  1  0  0  0
 34108  1  0  0  0
 35 44  2  0  0  0
 35 45  1  0  0  0
 35 68  1  0  0  0
 36 56  1  0  0  0
 36109  1  0  0  0
 37 39  1  0  0  0
 37 47  1  0  0  0
 37 66  1  0  0  0
 37110  1  0  0  0
 38 43  2  0  0  0
 38 46  1  0  0  0
 38 47  1  0  0  0
 39 64  1  0  0  0
 39 67  2  0  0  0
 40 52  1  0  0  0
 40 53  2  0  0  0
 40 58  1  0  0  0
 41111  1  0  0  0
 41112  1  0  0  0
 41113  1  0  0  0
 41 48  1  0  0  0
 42 43  1  0  0  0
 42 66  1  0  0  0
 42114  1  0  0  0
 42115  1  0  0  0
 43 44  1  0  0  0
 44116  1  0  0  0
 45 46  2  0  0  0
 45117  1  0  0  0
 46118  1  0  0  0
 47119  1  0  0  0
 47120  1  0  0  0
 48 56  1  0  0  0
 48 65  1  0  0  0
 48121  1  0  0  0
 49 50  1  0  0  0
 49 53  1  0  0  0
 49 64  1  0  0  0
 49122  1  0  0  0
 50 51  1  0  0  0
 50123  1  0  0  0
 50124  1  0  0  0
 51 52  1  0  0  0
 51125  1  0  0  0
 51126  1  0  0  0
 52127  1  0  0  0
 52128  1  0  0  0
 53 54  1  0  0  0
 54 55  2  0  0  0
 54129  1  0  0  0
 55 57  1  0  0  0
 55130  1  0  0  0
 56 69  2  0  0  0
 57 58  2  0  0  0
 57131  1  0  0  0
 58132  1  0  0  0
 59 60  1  0  0  0
 59 61  1  0  0  0
 59 62  1  0  0  0
 60133  1  0  0  0
 60134  1  0  0  0
 60135  1  0  0  0
 61136  1  0  0  0
 61137  1  0  0  0
 61138  1  0  0  0
 62139  1  0  0  0
 62140  1  0  0  0
 62141  1  0  0  0
 63 65  1  0  0  0
 63142  1  0  0  0
 63143  1  0  0  0
 63144  1  0  0  0
 64145  1  0  0  0
 65146  1  0  0  0
 68 82  1  0  0  0
 71 72  2  0  0  0
 71 73  1  0  0  0
 71147  1  0  0  0
 72 76  1  0  0  0
 72148  1  0  0  0
 73 74  2  0  0  0
 73 83  1  0  0  0
 74 75  1  0  0  0
 74 85  1  0  0  0
 75 76  2  0  0  0
 75 84  1  0  0  0
 76 86  1  0  0  0
 77 78  2  0  0  0
 77 79  1  0  0  0
 77 87  1  0  0  0
 78149  1  0  0  0
 78150  1  0  0  0
 79 80  1  0  0  0
 79151  1  0  0  0
 79152  1  0  0  0
 80 82  1  0  0  0
 80153  1  0  0  0
 80154  1  0  0  0
 81 82  1  0  0  0
 81 87  1  0  0  0
 81155  1  0  0  0
 81156  1  0  0  0
 82157  1  0  0  0
 83158  1  0  0  0
 83159  1  0  0  0
 83160  1  0  0  0
 84161  1  0  0  0
 84162  1  0  0  0
 84163  1  0  0  0
 85164  1  0  0  0
 85165  1  0  0  0
 85 87  1  0  0  0
 86166  1  0  0  0
 87167  1  0  0  0
M  CHG  1  87   1
M  ISO  4   1 100  68 101  82 101  86 100
M  END
> <chiral flag>
0

> <version>
0

> <s_m_source_file>
/data/baiqing/PycharmProjects/Reinvent-master-3.2/result/LINK_invent/BTK/process_docking_weight1_custom_product_contain_oxygen_bond_distance_aromatic_linkinvent_7_9_3/rearranged_h_0038.sdf

> <i_m_source_file_index>
24

> <r_mmod_Potential_Energy-OPLS-2005>
132.745529174805

> <r_mmod_Stretch_Energy-OPLS-2005>
135.028900146484

> <r_mmod_Bend_Energy-OPLS-2005>
188.580947875977

> <r_mmod_Torsional_Energy-OPLS-2005>
281.410980224609

> <r_mmod_Improper_Torsional_Energy-OPLS-2005>
5.27987623214722

> <r_mmod_Van_der_Waal_Energy-OPLS-2005>
147.033340454102

> <r_mmod_Electrostatic_Energy-OPLS-2005>
-289.703430175781

> <r_mmod_Solvation_Energy-OPLS-2005>
-420.095123291016

> <b_mmod_Minimization_Converged-OPLS-2005>
0

> <r_mmod_RMS_Derivative-OPLS-2005>
2.53369832038879

$$$$
24
                    3D
 Structure written by MMmdl.
175184  0  0  1  0            999 V2000
  -30.6576  -14.5685   20.5290 C   0  0  0  0  0  0
  -30.4252  -12.3578   19.4354 C   0  0  0  0  0  0
  -29.4992  -12.5158   18.2104 C   0  0  0  0  0  0
  -28.0188  -12.3686   18.6163 C   0  0  0  0  0  0
  -27.6503  -13.2201   19.8609 C   0  0  2  0  0  0
  -28.6953  -13.0453   20.9854 C   0  0  0  0  0  0
  -25.2499  -13.8146   20.5666 C   0  0  0  0  0  0
  -24.1797  -13.0387   20.9214 C   0  0  0  0  0  0
  -24.6384  -11.6884   20.8718 C   0  0  0  0  0  0
  -23.9043  -10.4273   21.0370 C   0  0  0  0  0  0
  -24.3590   -9.4215   21.9168 C   0  0  0  0  0  0
  -23.6283   -8.2240   22.0729 C   0  0  0  0  0  0
  -22.4277   -8.0256   21.3516 C   0  0  0  0  0  0
  -21.9894   -9.0221   20.4616 C   0  0  0  0  0  0
  -22.7201  -10.2121   20.3029 C   0  0  0  0  0  0
  -21.6858   -6.0717   22.5273 C   0  0  0  0  0  0
  -21.4017   -6.5615   23.8209 C   0  0  0  0  0  0
  -21.3665   -5.6768   24.9170 C   0  0  0  0  0  0
  -21.6053   -4.3029   24.7222 C   0  0  0  0  0  0
  -21.8833   -3.8130   23.4339 C   0  0  0  0  0  0
  -21.9210   -4.6946   22.3401 C   0  0  0  0  0  0
  -22.7825  -13.5194   21.1847 C   0  0  0  0  0  0
  -22.1678   -4.2127   21.0975 F   0  0  0  0  0  0
  -21.5627   -3.4515   25.7735 F   0  0  0  0  0  0
  -30.0158  -13.3673   20.4265 N   0  0  0  0  0  0
  -26.2955  -12.9363   20.3279 N   0  0  0  0  0  0
  -25.9308  -11.6507   20.5693 N   0  0  0  0  0  0
  -22.0454  -12.8203   22.0408 N   0  0  0  0  0  0
  -25.4046  -15.1842   20.4046 N   0  0  0  0  0  0
  -31.8234  -14.7161   20.1547 O   0  0  0  0  0  0
  -21.6640   -6.8848   21.4233 O   0  0  0  0  0  0
  -22.3530  -14.5505   20.6700 O   0  0  0  0  0  0
  -24.6193  -31.8618   23.2017 C   0  0  0  0  0  0
  -25.9083  -32.4766   23.8316 C   0  0  1  0  0  0
  -27.2555  -27.4015   20.1001 C   0  0  0  0  0  0
  -25.5915  -33.8562   24.2252 N   0  0  0  0  0  0
  -23.4055  -30.4838   21.5409 C   0  0  2  0  0  0
  -24.8551  -28.9345   20.1120 C   0  0  0  0  0  0
  -22.7391  -29.4651   22.4940 C   0  0  0  0  0  0
  -18.0288  -28.1374   22.8525 C   0  0  0  0  0  0
  -24.1505  -36.7319   23.2654 C   0  0  0  0  0  0
  -25.9344  -30.8204   21.3490 C   0  0  0  0  0  0
  -26.0148  -29.4487   20.7030 C   0  0  0  0  0  0
  -27.2123  -28.6944   20.6851 C   0  0  0  0  0  0
  -26.0707  -26.9015   19.5125 C   0  0  0  0  0  0
  -24.8808  -27.6616   19.5133 C   0  0  0  0  0  0
  -23.6148  -29.8030   20.1590 C   0  0  0  0  0  0
  -25.4124  -36.3078   24.0322 C   0  0  1  0  0  0
  -20.5885  -28.3647   23.1334 C   0  0  2  0  0  0
  -20.6760  -26.9374   22.5422 C   0  0  0  0  0  0
  -19.5733  -26.6374   21.5218 C   0  0  0  0  0  0
  -18.1919  -26.7932   22.1637 C   0  0  0  0  0  0
  -19.1545  -28.8821   23.2943 C   0  0  0  0  0  0
  -18.9471  -30.1448   23.8921 C   0  0  0  0  0  0
  -17.6469  -30.6589   24.0577 C   0  0  0  0  0  0
  -25.9051  -34.9439   23.5096 C   0  0  0  0  0  0
  -16.5359  -29.9086   23.6334 C   0  0  0  0  0  0
  -16.7275  -28.6510   23.0346 C   0  0  0  0  0  0
  -26.4494  -31.6570   25.0677 C   0  0  0  0  0  0
  -25.3752  -31.3665   26.1415 C   0  0  0  0  0  0
  -27.0352  -30.3023   24.6077 C   0  0  0  0  0  0
  -27.6059  -32.4288   25.7459 C   0  0  0  0  0  0
  -27.5575  -37.1812   24.8462 C   0  0  0  0  0  0
  -21.4110  -29.3027   22.3692 N   0  0  0  0  0  0
  -26.4297  -37.3774   23.9393 N   0  0  0  0  0  0
  -24.6713  -31.0711   22.0902 N   0  0  0  0  0  0
  -23.4148  -28.8198   23.2996 O   0  0  0  0  0  0
  -28.4534  -26.6978   20.1307 O   0  0  0  0  0  0
  -26.5634  -34.8903   22.4676 O   0  0  0  0  0  0
  -23.5390  -32.1396   23.7421 O   0  0  0  0  0  0
  -30.7629  -19.8355   21.0467 C   0  0  0  0  0  0
  -31.4068  -17.5001   21.4095 C   0  0  0  0  0  0
  -31.7001  -18.8772   21.5029 C   0  0  0  0  0  0
  -29.5074  -19.4396   20.5269 C   0  0  0  0  0  0
  -29.2207  -18.0302   20.4671 C   0  0  0  0  0  0
  -30.1790  -17.0473   20.8841 C   0  0  0  0  0  0
  -31.8702  -20.6083   25.4618 C   0  0  0  0  0  0
  -32.3402  -21.8828   24.7517 C   0  0  0  0  0  0
  -31.8201  -19.5723   24.3413 C   0  0  0  0  0  0
  -33.1232  -21.3984   23.5185 C   0  0  0  0  0  0
  -27.8753  -17.5265   19.9615 C   0  0  0  0  0  0
  -33.0344  -19.3108   22.1111 C   0  0  0  0  0  0
  -28.4544  -20.5132   20.0995 C   0  0  0  0  0  0
  -28.1605  -24.2338   20.6895 C   0  0  0  0  0  0
  -29.0234  -22.9212   20.8230 C   0  0  0  0  0  0
  -28.5927  -25.3294   19.6631 C   0  0  0  0  0  0
  -29.8694  -15.6299   20.8620 N   0  0  0  0  0  0
  -32.9574  -19.9285   23.4642 N   0  3  0  0  0  0
  -28.8908  -21.9033   19.7347 N   0  3  0  0  0  0
  -31.4710  -12.4630   19.1393 H   0  0  0  0  0  0
  -30.3317  -11.3567   19.8576 H   0  0  0  0  0  0
  -29.7550  -11.7801   17.4464 H   0  0  0  0  0  0
  -29.6556  -13.4951   17.7545 H   0  0  0  0  0  0
  -27.8384  -11.3130   18.8207 H   0  0  0  0  0  0
  -27.3696  -12.6293   17.7789 H   0  0  0  0  0  0
  -27.6771  -14.2618   19.5415 H   0  0  0  0  0  0
  -28.6875  -12.0177   21.3511 H   0  0  0  0  0  0
  -28.4554  -13.6704   21.8465 H   0  0  0  0  0  0
  -25.2714   -9.5708   22.4765 H   0  0  0  0  0  0
  -24.0005   -7.4628   22.7425 H   0  0  0  0  0  0
  -21.0841   -8.8717   19.8898 H   0  0  0  0  0  0
  -22.3633  -10.9665   19.6153 H   0  0  0  0  0  0
  -21.2004   -7.6122   23.9708 H   0  0  0  0  0  0
  -21.1465   -6.0491   25.9075 H   0  0  0  0  0  0
  -22.0615   -2.7586   23.2855 H   0  0  0  0  0  0
  -22.4015  -11.9882   22.4856 H   0  0  0  0  0  0
  -21.1071  -13.1252   22.2541 H   0  0  0  0  0  0
  -24.6130  -15.8146   20.4746 H   0  0  0  0  0  0
  -26.2255  -15.6234   20.0150 H   0  0  0  0  0  0
  -26.7165  -32.5442   23.1080 H   0  0  0  0  0  0
  -25.0039  -33.9699   25.0373 H   0  0  0  0  0  0
  -22.7033  -31.3061   21.3901 H   0  0  0  0  0  0
  -23.3737  -35.9687   23.3322 H   0  0  0  0  0  0
  -24.3630  -36.8941   22.2076 H   0  0  0  0  0  0
  -23.7258  -37.6526   23.6680 H   0  0  0  0  0  0
  -26.0484  -31.5795   20.5745 H   0  0  0  0  0  0
  -26.8250  -30.8812   21.9609 H   0  0  0  0  0  0
  -28.1107  -29.1092   21.1226 H   0  0  0  0  0  0
  -26.0456  -25.9244   19.0578 H   0  0  0  0  0  0
  -23.9880  -27.2559   19.0569 H   0  0  0  0  0  0
  -23.7166  -30.5711   19.3901 H   0  0  0  0  0  0
  -22.7393  -29.2169   19.8738 H   0  0  0  0  0  0
  -25.1294  -36.1959   25.0808 H   0  0  0  0  0  0
  -21.0039  -28.3210   24.1433 H   0  0  0  0  0  0
  -20.5614  -26.2242   23.3597 H   0  0  0  0  0  0
  -21.6632  -26.7352   22.1236 H   0  0  0  0  0  0
  -19.6847  -25.6276   21.1250 H   0  0  0  0  0  0
  -19.6715  -27.3190   20.6759 H   0  0  0  0  0  0
  -17.4181  -26.6733   21.4048 H   0  0  0  0  0  0
  -18.0327  -26.0060   22.9016 H   0  0  0  0  0  0
  -19.7935  -30.7292   24.2278 H   0  0  0  0  0  0
  -17.5002  -31.6276   24.5170 H   0  0  0  0  0  0
  -15.5358  -30.2976   23.7643 H   0  0  0  0  0  0
  -15.8686  -28.0829   22.7016 H   0  0  0  0  0  0
  -24.5938  -30.7015   25.7716 H   0  0  0  0  0  0
  -24.8952  -32.2833   26.4850 H   0  0  0  0  0  0
  -25.8107  -30.8815   27.0163 H   0  0  0  0  0  0
  -26.2909  -29.6727   24.1207 H   0  0  0  0  0  0
  -27.4215  -29.7310   25.4521 H   0  0  0  0  0  0
  -27.8679  -30.4345   23.9173 H   0  0  0  0  0  0
  -27.2689  -33.3589   26.2047 H   0  0  0  0  0  0
  -28.3898  -32.6837   25.0315 H   0  0  0  0  0  0
  -28.0720  -31.8397   26.5377 H   0  0  0  0  0  0
  -28.2580  -38.0117   24.7507 H   0  0  0  0  0  0
  -28.1072  -36.2640   24.6298 H   0  0  0  0  0  0
  -27.2296  -37.1467   25.8867 H   0  0  0  0  0  0
  -20.9208  -29.8795   21.6987 H   0  0  0  0  0  0
  -26.0177  -38.2849   24.1399 H   0  0  0  0  0  0
  -31.0130  -20.8828   21.1307 H   0  0  0  0  0  0
  -32.1286  -16.7786   21.7675 H   0  0  0  0  0  0
  -30.9097  -20.7350   25.9655 H   0  0  0  0  0  0
  -32.6046  -20.3014   26.2079 H   0  0  0  0  0  0
  -32.9448  -22.5148   25.4038 H   0  0  0  0  0  0
  -31.4814  -22.4760   24.4329 H   0  0  0  0  0  0
  -30.8667  -19.6798   23.8230 H   0  0  0  0  0  0
  -31.8872  -18.5479   24.7088 H   0  0  0  0  0  0
  -34.1833  -21.6436   23.5948 H   0  0  0  0  0  0
  -32.7431  -21.8795   22.6175 H   0  0  0  0  0  0
  -27.1111  -18.2929   19.8627 H   0  0  0  0  0  0
  -27.4819  -16.7967   20.6658 H   0  0  0  0  0  0
  -28.0002  -17.0423   18.9921 H   0  0  0  0  0  0
  -33.5715  -19.9599   21.4173 H   0  0  0  0  0  0
  -33.6629  -18.4246   22.2151 H   0  0  0  0  0  0
  -27.6520  -20.5426   20.8395 H   0  0  0  0  0  0
  -27.9963  -20.1577   19.1761 H   0  0  0  0  0  0
  -28.2005  -24.7115   21.6706 H   0  0  0  0  0  0
  -27.1093  -23.9840   20.5448 H   0  0  0  0  0  0
  -28.7472  -22.4426   21.7644 H   0  0  0  0  0  0
  -30.0806  -23.1723   20.9311 H   0  0  0  0  0  0
  -29.6578  -25.1975   19.4641 H   0  0  0  0  0  0
  -28.1157  -25.1845   18.6937 H   0  0  0  0  0  0
  -28.9017  -15.3927   21.0121 H   0  0  0  0  0  0
  -33.7713  -19.5761   23.9453 H   0  0  0  0  0  0
  -28.1865  -22.2482   19.1032 H   0  0  0  0  0  0
  -29.7417  -21.8525   19.1976 H   0  0  0  0  0  0
  1 25  1  0  0  0
  1 30  2  0  0  0
  1 87  1  0  0  0
  2  3  1  0  0  0
  2 25  1  0  0  0
  2 90  1  0  0  0
  2 91  1  0  0  0
  3  4  1  0  0  0
  3 92  1  0  0  0
  3 93  1  0  0  0
  4  5  1  0  0  0
  4 94  1  0  0  0
  4 95  1  0  0  0
  5  6  1  0  0  0
  5 26  1  0  0  0
  5 96  1  0  0  0
  6 25  1  0  0  0
  6 97  1  0  0  0
  6 98  1  0  0  0
  7  8  2  0  0  0
  7 26  1  0  0  0
  7 29  1  0  0  0
  8  9  1  0  0  0
  8 22  1  0  0  0
  9 10  1  0  0  0
  9 27  2  0  0  0
 10 11  2  0  0  0
 10 15  1  0  0  0
 11 12  1  0  0  0
 11 99  1  0  0  0
 12 13  2  0  0  0
 12100  1  0  0  0
 13 14  1  0  0  0
 13 31  1  0  0  0
 14 15  2  0  0  0
 14101  1  0  0  0
 15102  1  0  0  0
 16 17  2  0  0  0
 16 21  1  0  0  0
 16 31  1  0  0  0
 17 18  1  0  0  0
 17103  1  0  0  0
 18 19  2  0  0  0
 18104  1  0  0  0
 19 20  1  0  0  0
 19 24  1  0  0  0
 20 21  2  0  0  0
 20105  1  0  0  0
 21 23  1  0  0  0
 22 28  1  0  0  0
 22 32  2  0  0  0
 26 27  1  0  0  0
 28106  1  0  0  0
 28107  1  0  0  0
 29108  1  0  0  0
 29109  1  0  0  0
 33 34  1  0  0  0
 33 66  1  0  0  0
 33 70  2  0  0  0
 34 36  1  0  0  0
 34 59  1  0  0  0
 34110  1  0  0  0
 35 44  2  0  0  0
 35 45  1  0  0  0
 35 68  1  0  0  0
 36 56  1  0  0  0
 36111  1  0  0  0
 37 39  1  0  0  0
 37 47  1  0  0  0
 37 66  1  0  0  0
 37112  1  0  0  0
 38 43  2  0  0  0
 38 46  1  0  0  0
 38 47  1  0  0  0
 39 64  1  0  0  0
 39 67  2  0  0  0
 40 52  1  0  0  0
 40 53  2  0  0  0
 40 58  1  0  0  0
 41113  1  0  0  0
 41114  1  0  0  0
 41115  1  0  0  0
 41 48  1  0  0  0
 42 43  1  0  0  0
 42 66  1  0  0  0
 42116  1  0  0  0
 42117  1  0  0  0
 43 44  1  0  0  0
 44118  1  0  0  0
 45 46  2  0  0  0
 45119  1  0  0  0
 46120  1  0  0  0
 47121  1  0  0  0
 47122  1  0  0  0
 48 56  1  0  0  0
 48 65  1  0  0  0
 48123  1  0  0  0
 49 50  1  0  0  0
 49 53  1  0  0  0
 49 64  1  0  0  0
 49124  1  0  0  0
 50 51  1  0  0  0
 50125  1  0  0  0
 50126  1  0  0  0
 51 52  1  0  0  0
 51127  1  0  0  0
 51128  1  0  0  0
 52129  1  0  0  0
 52130  1  0  0  0
 53 54  1  0  0  0
 54 55  2  0  0  0
 54131  1  0  0  0
 55 57  1  0  0  0
 55132  1  0  0  0
 56 69  2  0  0  0
 57 58  2  0  0  0
 57133  1  0  0  0
 58134  1  0  0  0
 59 60  1  0  0  0
 59 61  1  0  0  0
 59 62  1  0  0  0
 60135  1  0  0  0
 60136  1  0  0  0
 60137  1  0  0  0
 61138  1  0  0  0
 61139  1  0  0  0
 61140  1  0  0  0
 62141  1  0  0  0
 62142  1  0  0  0
 62143  1  0  0  0
 63 65  1  0  0  0
 63144  1  0  0  0
 63145  1  0  0  0
 63146  1  0  0  0
 64147  1  0  0  0
 65148  1  0  0  0
 68 86  1  0  0  0
 71 73  2  0  0  0
 71 74  1  0  0  0
 71149  1  0  0  0
 72 73  1  0  0  0
 72 76  2  0  0  0
 72150  1  0  0  0
 73 82  1  0  0  0
 74 75  2  0  0  0
 74 83  1  0  0  0
 75 76  1  0  0  0
 75 81  1  0  0  0
 76 87  1  0  0  0
 77 78  1  0  0  0
 77 79  1  0  0  0
 77151  1  0  0  0
 77152  1  0  0  0
 78 80  1  0  0  0
 78153  1  0  0  0
 78154  1  0  0  0
 79 88  1  0  0  0
 79155  1  0  0  0
 79156  1  0  0  0
 80 88  1  0  0  0
 80157  1  0  0  0
 80158  1  0  0  0
 81159  1  0  0  0
 81160  1  0  0  0
 81161  1  0  0  0
 82162  1  0  0  0
 82163  1  0  0  0
 82 88  1  0  0  0
 83 89  1  0  0  0
 83164  1  0  0  0
 83165  1  0  0  0
 84 85  1  0  0  0
 84 86  1  0  0  0
 84166  1  0  0  0
 84167  1  0  0  0
 85 89  1  0  0  0
 85168  1  0  0  0
 85169  1  0  0  0
 86170  1  0  0  0
 86171  1  0  0  0
 87172  1  0  0  0
 88173  1  0  0  0
 89174  1  0  0  0
 89175  1  0  0  0
M  CHG  2  88   1  89   1
M  ISO  4   1 100  68 101  86 101  87 100
M  END
> <chiral flag>
0

> <version>
0

> <s_m_source_file>
/data/baiqing/PycharmProjects/Reinvent-master-3.2/result/LINK_invent/BTK/process_docking_weight1_custom_product_contain_oxygen_bond_distance_aromatic_linkinvent_7_9_3/rearranged_h_0038.sdf

> <i_m_source_file_index>
25

> <r_mmod_Potential_Energy-OPLS-2005>
-236.172073364258

> <r_mmod_Stretch_Energy-OPLS-2005>
58.4802131652832

> <r_mmod_Bend_Energy-OPLS-2005>
168.476989746094

> <r_mmod_Torsional_Energy-OPLS-2005>
297.146545410156

> <r_mmod_Improper_Torsional_Energy-OPLS-2005>
5.64425182342529

> <r_mmod_Van_der_Waal_Energy-OPLS-2005>
140.99430847168

> <r_mmod_Electrostatic_Energy-OPLS-2005>
3.16451048851013

> <r_mmod_Solvation_Energy-OPLS-2005>
-934.761352539062

> <b_mmod_Minimization_Converged-OPLS-2005>
0

> <r_mmod_RMS_Derivative-OPLS-2005>
3.31283617019653

$$$$
25
                    3D
 Structure written by MMmdl.
172181  0  0  1  0            999 V2000
  -30.6614  -14.5409   20.5111 C   0  0  0  0  0  0
  -30.4264  -12.3302   19.4503 C   0  0  0  0  0  0
  -29.5037  -12.4871   18.2216 C   0  0  0  0  0  0
  -28.0233  -12.3506   18.6300 C   0  0  0  0  0  0
  -27.6562  -13.2102   19.8705 C   0  0  2  0  0  0
  -28.6963  -13.0359   21.0008 C   0  0  0  0  0  0
  -25.2561  -13.8172   20.5685 C   0  0  0  0  0  0
  -24.1822  -13.0448   20.9198 C   0  0  0  0  0  0
  -24.6376  -11.6909   20.8751 C   0  0  0  0  0  0
  -23.9054  -10.4297   21.0416 C   0  0  0  0  0  0
  -24.3621   -9.4213   21.9188 C   0  0  0  0  0  0
  -23.6302   -8.2252   22.0759 C   0  0  0  0  0  0
  -22.4277   -8.0292   21.3560 C   0  0  0  0  0  0
  -21.9911   -9.0260   20.4650 C   0  0  0  0  0  0
  -22.7240  -10.2132   20.3059 C   0  0  0  0  0  0
  -21.6866   -6.0736   22.5291 C   0  0  0  0  0  0
  -21.4019   -6.5641   23.8219 C   0  0  0  0  0  0
  -21.3655   -5.6800   24.9179 C   0  0  0  0  0  0
  -21.6043   -4.3067   24.7231 C   0  0  0  0  0  0
  -21.8825   -3.8152   23.4361 C   0  0  0  0  0  0
  -21.9197   -4.6959   22.3410 C   0  0  0  0  0  0
  -22.7850  -13.5240   21.1856 C   0  0  0  0  0  0
  -22.1666   -4.2145   21.0990 F   0  0  0  0  0  0
  -21.5612   -3.4549   25.7742 F   0  0  0  0  0  0
  -30.0234  -13.3385   20.4444 N   0  0  0  0  0  0
  -26.2989  -12.9344   20.3343 N   0  0  0  0  0  0
  -25.9306  -11.6499   20.5778 N   0  0  0  0  0  0
  -22.0497  -12.8226   22.0395 N   0  0  0  0  0  0
  -25.4284  -15.1890   20.4068 N   0  0  0  0  0  0
  -31.8139  -14.7019   20.1014 O   0  0  0  0  0  0
  -21.6653   -6.8881   21.4255 O   0  0  0  0  0  0
  -22.3541  -14.5557   20.6710 O   0  0  0  0  0  0
  -24.6165  -31.8641   23.2043 C   0  0  0  0  0  0
  -25.9043  -32.4799   23.8358 C   0  0  1  0  0  0
  -27.2376  -27.3918   20.1238 C   0  0  0  0  0  0
  -25.5892  -33.8598   24.2295 N   0  0  0  0  0  0
  -23.4057  -30.4841   21.5445 C   0  0  2  0  0  0
  -24.8533  -28.9413   20.1111 C   0  0  0  0  0  0
  -22.7418  -29.4646   22.4973 C   0  0  0  0  0  0
  -18.0268  -28.1378   22.8496 C   0  0  0  0  0  0
  -24.1488  -36.7308   23.2640 C   0  0  0  0  0  0
  -25.9335  -30.8206   21.3601 C   0  0  0  0  0  0
  -26.0093  -29.4496   20.7123 C   0  0  0  0  0  0
  -27.1963  -28.6805   20.7147 C   0  0  0  0  0  0
  -26.0611  -26.9025   19.5124 C   0  0  0  0  0  0
  -24.8766  -27.6705   19.5063 C   0  0  0  0  0  0
  -23.6152  -29.8105   20.1600 C   0  0  0  0  0  0
  -25.4108  -36.3096   24.0336 C   0  0  1  0  0  0
  -20.5862  -28.3668   23.1318 C   0  0  2  0  0  0
  -20.6761  -26.9403   22.5426 C   0  0  0  0  0  0
  -19.5739  -26.6385   21.5219 C   0  0  0  0  0  0
  -18.1914  -26.7924   22.1629 C   0  0  0  0  0  0
  -19.1519  -28.8837   23.2900 C   0  0  0  0  0  0
  -18.9452  -30.1445   23.8907 C   0  0  0  0  0  0
  -17.6457  -30.6583   24.0571 C   0  0  0  0  0  0
  -25.9037  -34.9463   23.5118 C   0  0  0  0  0  0
  -16.5346  -29.9091   23.6332 C   0  0  0  0  0  0
  -16.7261  -28.6512   23.0345 C   0  0  0  0  0  0
  -26.4465  -31.6586   25.0695 C   0  0  0  0  0  0
  -25.3730  -31.3707   26.1445 C   0  0  0  0  0  0
  -27.0299  -30.3028   24.6082 C   0  0  0  0  0  0
  -27.6036  -32.4306   25.7458 C   0  0  0  0  0  0
  -27.5578  -37.1803   24.8464 C   0  0  0  0  0  0
  -21.4145  -29.3026   22.3718 N   0  0  0  0  0  0
  -26.4288  -37.3788   23.9412 N   0  0  0  0  0  0
  -24.6700  -31.0725   22.0952 N   0  0  0  0  0  0
  -23.4179  -28.8191   23.3028 O   0  0  0  0  0  0
  -28.4289  -26.6870   20.2122 O   0  0  0  0  0  0
  -26.5613  -34.8922   22.4685 O   0  0  0  0  0  0
  -23.5355  -32.1406   23.7421 O   0  0  0  0  0  0
  -29.1118  -17.8675   22.5260 C   0  0  0  0  0  0
  -28.8770  -20.2393   23.0122 C   0  0  0  0  0  0
  -28.7236  -18.8948   23.3973 C   0  0  0  0  0  0
  -29.5967  -18.1601   21.2362 C   0  0  0  0  0  0
  -29.3957  -20.6064   21.7466 C   0  0  0  0  0  0
  -29.6738  -19.5374   20.8205 C   0  0  0  0  0  0
  -30.0101  -25.6116   18.9641 C   0  0  0  0  0  0
  -30.6949  -24.3066   18.5824 C   0  0  0  0  0  0
  -28.7897  -24.2484   20.7726 C   0  0  0  0  0  0
  -28.6688  -25.3679   19.6635 C   0  0  1  0  0  0
  -30.9250  -23.4442   19.8349 C   0  0  2  0  0  0
  -28.2085  -18.5401   24.7780 C   0  0  0  0  0  0
  -30.0229  -19.8160   19.3701 C   0  0  0  0  0  0
  -31.9351  -22.3351   19.4778 C   0  0  0  0  0  0
  -30.0861  -16.9921   20.3382 C   0  0  0  0  0  0
  -29.8089  -22.1206   21.6481 C   0  0  0  0  0  0
  -29.8720  -15.6001   20.8083 N   0  0  0  0  0  0
  -29.6129  -23.0087   20.4360 N   0  3  1  0  0  0
  -31.4730  -12.4283   19.1579 H   0  0  0  0  0  0
  -30.3337  -11.3310   19.8793 H   0  0  0  0  0  0
  -29.7498  -11.7351   17.4714 H   0  0  0  0  0  0
  -29.6648  -13.4581   17.7492 H   0  0  0  0  0  0
  -27.8377  -11.2975   18.8460 H   0  0  0  0  0  0
  -27.3789  -12.6044   17.7881 H   0  0  0  0  0  0
  -27.6846  -14.2500   19.5485 H   0  0  0  0  0  0
  -28.6784  -12.0152   21.3850 H   0  0  0  0  0  0
  -28.4561  -13.6761   21.8508 H   0  0  0  0  0  0
  -25.2756   -9.5693   22.4773 H   0  0  0  0  0  0
  -24.0020   -7.4636   22.7472 H   0  0  0  0  0  0
  -21.0851   -8.8784   19.8936 H   0  0  0  0  0  0
  -22.3717  -10.9682   19.6179 H   0  0  0  0  0  0
  -21.2028   -7.6152   23.9726 H   0  0  0  0  0  0
  -21.1458   -6.0522   25.9079 H   0  0  0  0  0  0
  -22.0603   -2.7614   23.2869 H   0  0  0  0  0  0
  -22.4112  -11.9885   22.4785 H   0  0  0  0  0  0
  -21.1116  -13.1239   22.2586 H   0  0  0  0  0  0
  -24.6656  -15.8475   20.5184 H   0  0  0  0  0  0
  -26.2771  -15.6251   20.0700 H   0  0  0  0  0  0
  -26.7111  -32.5506   23.1116 H   0  0  0  0  0  0
  -25.0031  -33.9756   25.0434 H   0  0  0  0  0  0
  -22.6955  -31.3004   21.4017 H   0  0  0  0  0  0
  -23.3746  -35.9644   23.3300 H   0  0  0  0  0  0
  -24.3581  -36.8928   22.2054 H   0  0  0  0  0  0
  -23.7238  -37.6511   23.6658 H   0  0  0  0  0  0
  -26.0429  -31.5810   20.5859 H   0  0  0  0  0  0
  -26.8236  -30.8812   21.9750 H   0  0  0  0  0  0
  -28.0847  -29.0683   21.1934 H   0  0  0  0  0  0
  -26.0232  -25.9259   19.0568 H   0  0  0  0  0  0
  -23.9848  -27.2717   19.0409 H   0  0  0  0  0  0
  -23.7221  -30.5824   19.3974 H   0  0  0  0  0  0
  -22.7410  -29.2265   19.8681 H   0  0  0  0  0  0
  -25.1281  -36.1956   25.0832 H   0  0  0  0  0  0
  -20.9947  -28.3227   24.1441 H   0  0  0  0  0  0
  -20.5667  -26.2270   23.3606 H   0  0  0  0  0  0
  -21.6629  -26.7441   22.1214 H   0  0  0  0  0  0
  -19.6902  -25.6299   21.1229 H   0  0  0  0  0  0
  -19.6677  -27.3211   20.6756 H   0  0  0  0  0  0
  -17.4189  -26.6675   21.4029 H   0  0  0  0  0  0
  -18.0315  -26.0060   22.9021 H   0  0  0  0  0  0
  -19.7927  -30.7259   24.2278 H   0  0  0  0  0  0
  -17.5012  -31.6262   24.5169 H   0  0  0  0  0  0
  -15.5347  -30.2998   23.7641 H   0  0  0  0  0  0
  -15.8661  -28.0838   22.7043 H   0  0  0  0  0  0
  -24.5885  -30.7077   25.7780 H   0  0  0  0  0  0
  -24.8946  -32.2879   26.4896 H   0  0  0  0  0  0
  -25.8078  -30.8864   27.0199 H   0  0  0  0  0  0
  -26.2853  -29.6780   24.1139 H   0  0  0  0  0  0
  -27.4075  -29.7264   25.4536 H   0  0  0  0  0  0
  -27.8679  -30.4342   23.9230 H   0  0  0  0  0  0
  -27.2657  -33.3603   26.2048 H   0  0  0  0  0  0
  -28.3844  -32.6869   25.0284 H   0  0  0  0  0  0
  -28.0710  -31.8422   26.5366 H   0  0  0  0  0  0
  -28.2590  -38.0103   24.7514 H   0  0  0  0  0  0
  -28.1076  -36.2633   24.6284 H   0  0  0  0  0  0
  -27.2301  -37.1452   25.8868 H   0  0  0  0  0  0
  -20.9295  -29.8755   21.6953 H   0  0  0  0  0  0
  -26.0174  -38.2867   24.1407 H   0  0  0  0  0  0
  -29.0436  -16.8452   22.8714 H   0  0  0  0  0  0
  -28.6456  -21.0025   23.7431 H   0  0  0  0  0  0
  -29.8641  -26.2370   18.0829 H   0  0  0  0  0  0
  -30.6743  -26.1706   19.6257 H   0  0  0  0  0  0
  -31.6489  -24.5463   18.1110 H   0  0  0  0  0  0
  -30.1094  -23.7659   17.8387 H   0  0  0  0  0  0
  -27.7881  -23.9465   21.0835 H   0  0  0  0  0  0
  -29.2429  -24.7175   21.6472 H   0  0  0  0  0  0
  -27.9446  -25.0693   18.9085 H   0  0  0  0  0  0
  -31.4207  -24.0612   20.5883 H   0  0  0  0  0  0
  -27.3704  -17.8447   24.7053 H   0  0  0  0  0  0
  -27.8678  -19.4185   25.3254 H   0  0  0  0  0  0
  -28.9950  -18.0619   25.3637 H   0  0  0  0  0  0
  -29.4745  -19.1478   18.7059 H   0  0  0  0  0  0
  -31.0870  -19.6744   19.1849 H   0  0  0  0  0  0
  -29.7141  -20.8094   19.0651 H   0  0  0  0  0  0
  -31.6564  -21.8094   18.5651 H   0  0  0  0  0  0
  -32.0987  -21.6100   20.2729 H   0  0  0  0  0  0
  -32.9073  -22.7838   19.2719 H   0  0  0  0  0  0
  -31.1461  -17.1603   20.1424 H   0  0  0  0  0  0
  -29.5910  -17.0543   19.3702 H   0  0  0  0  0  0
  -30.8425  -22.1771   21.9859 H   0  0  0  0  0  0
  -29.2872  -22.6159   22.4661 H   0  0  0  0  0  0
  -28.9431  -15.3764   21.1263 H   0  0  0  0  0  0
  -29.1013  -22.4720   19.7516 H   0  0  0  0  0  0
  1 25  1  0  0  0
  1 30  2  0  0  0
  1 87  1  0  0  0
  2  3  1  0  0  0
  2 25  1  0  0  0
  2 89  1  0  0  0
  2 90  1  0  0  0
  3  4  1  0  0  0
  3 91  1  0  0  0
  3 92  1  0  0  0
  4  5  1  0  0  0
  4 93  1  0  0  0
  4 94  1  0  0  0
  5  6  1  0  0  0
  5 26  1  0  0  0
  5 95  1  0  0  0
  6 25  1  0  0  0
  6 96  1  0  0  0
  6 97  1  0  0  0
  7  8  2  0  0  0
  7 26  1  0  0  0
  7 29  1  0  0  0
  8  9  1  0  0  0
  8 22  1  0  0  0
  9 10  1  0  0  0
  9 27  2  0  0  0
 10 11  2  0  0  0
 10 15  1  0  0  0
 11 12  1  0  0  0
 11 98  1  0  0  0
 12 13  2  0  0  0
 12 99  1  0  0  0
 13 14  1  0  0  0
 13 31  1  0  0  0
 14 15  2  0  0  0
 14100  1  0  0  0
 15101  1  0  0  0
 16 17  2  0  0  0
 16 21  1  0  0  0
 16 31  1  0  0  0
 17 18  1  0  0  0
 17102  1  0  0  0
 18 19  2  0  0  0
 18103  1  0  0  0
 19 20  1  0  0  0
 19 24  1  0  0  0
 20 21  2  0  0  0
 20104  1  0  0  0
 21 23  1  0  0  0
 22 28  1  0  0  0
 22 32  2  0  0  0
 26 27  1  0  0  0
 28105  1  0  0  0
 28106  1  0  0  0
 29107  1  0  0  0
 29108  1  0  0  0
 33 34  1  0  0  0
 33 66  1  0  0  0
 33 70  2  0  0  0
 34 36  1  0  0  0
 34 59  1  0  0  0
 34109  1  0  0  0
 35 44  2  0  0  0
 35 45  1  0  0  0
 35 68  1  0  0  0
 36 56  1  0  0  0
 36110  1  0  0  0
 37 39  1  0  0  0
 37 47  1  0  0  0
 37 66  1  0  0  0
 37111  1  0  0  0
 38 43  2  0  0  0
 38 46  1  0  0  0
 38 47  1  0  0  0
 39 64  1  0  0  0
 39 67  2  0  0  0
 40 52  1  0  0  0
 40 53  2  0  0  0
 40 58  1  0  0  0
 41112  1  0  0  0
 41113  1  0  0  0
 41114  1  0  0  0
 41 48  1  0  0  0
 42 43  1  0  0  0
 42 66  1  0  0  0
 42115  1  0  0  0
 42116  1  0  0  0
 43 44  1  0  0  0
 44117  1  0  0  0
 45 46  2  0  0  0
 45118  1  0  0  0
 46119  1  0  0  0
 47120  1  0  0  0
 47121  1  0  0  0
 48 56  1  0  0  0
 48 65  1  0  0  0
 48122  1  0  0  0
 49 50  1  0  0  0
 49 53  1  0  0  0
 49 64  1  0  0  0
 49123  1  0  0  0
 50 51  1  0  0  0
 50124  1  0  0  0
 50125  1  0  0  0
 51 52  1  0  0  0
 51126  1  0  0  0
 51127  1  0  0  0
 52128  1  0  0  0
 52129  1  0  0  0
 53 54  1  0  0  0
 54 55  2  0  0  0
 54130  1  0  0  0
 55 57  1  0  0  0
 55131  1  0  0  0
 56 69  2  0  0  0
 57 58  2  0  0  0
 57132  1  0  0  0
 58133  1  0  0  0
 59 60  1  0  0  0
 59 61  1  0  0  0
 59 62  1  0  0  0
 60134  1  0  0  0
 60135  1  0  0  0
 60136  1  0  0  0
 61137  1  0  0  0
 61138  1  0  0  0
 61139  1  0  0  0
 62140  1  0  0  0
 62141  1  0  0  0
 62142  1  0  0  0
 63 65  1  0  0  0
 63143  1  0  0  0
 63144  1  0  0  0
 63145  1  0  0  0
 64146  1  0  0  0
 65147  1  0  0  0
 68 80  1  0  0  0
 71 73  2  0  0  0
 71 74  1  0  0  0
 71148  1  0  0  0
 72 73  1  0  0  0
 72 75  2  0  0  0
 72149  1  0  0  0
 73 82  1  0  0  0
 74 76  2  0  0  0
 74 85  1  0  0  0
 75 76  1  0  0  0
 75 86  1  0  0  0
 76 83  1  0  0  0
 77 78  1  0  0  0
 77 80  1  0  0  0
 77150  1  0  0  0
 77151  1  0  0  0
 78 81  1  0  0  0
 78152  1  0  0  0
 78153  1  0  0  0
 79 80  1  0  0  0
 79 88  1  0  0  0
 79154  1  0  0  0
 79155  1  0  0  0
 80156  1  0  0  0
 81 84  1  0  0  0
 81 88  1  0  0  0
 81157  1  0  0  0
 82158  1  0  0  0
 82159  1  0  0  0
 82160  1  0  0  0
 83161  1  0  0  0
 83162  1  0  0  0
 83163  1  0  0  0
 84164  1  0  0  0
 84165  1  0  0  0
 84166  1  0  0  0
 85 87  1  0  0  0
 85167  1  0  0  0
 85168  1  0  0  0
 86169  1  0  0  0
 86170  1  0  0  0
 86 88  1  0  0  0
 87171  1  0  0  0
 88172  1  0  0  0
M  CHG  1  88   1
M  ISO  4   1 100  68 101  80 101  87 100
M  END
> <chiral flag>
0

> <version>
0

> <s_m_source_file>
/data/baiqing/PycharmProjects/Reinvent-master-3.2/result/LINK_invent/BTK/process_docking_weight1_custom_product_contain_oxygen_bond_distance_aromatic_linkinvent_7_9_3/rearranged_h_0038.sdf

> <i_m_source_file_index>
26

> <r_mmod_Potential_Energy-OPLS-2005>
-34.338924407959

> <r_mmod_Stretch_Energy-OPLS-2005>
63.8372077941895

> <r_mmod_Bend_Energy-OPLS-2005>
169.828460693359

> <r_mmod_Torsional_Energy-OPLS-2005>
254.579574584961

> <r_mmod_Improper_Torsional_Energy-OPLS-2005>
8.53506374359131

> <r_mmod_Van_der_Waal_Energy-OPLS-2005>
165.766876220703

> <r_mmod_Electrostatic_Energy-OPLS-2005>
-309.482757568359

> <r_mmod_Solvation_Energy-OPLS-2005>
-411.841278076172

> <b_mmod_Minimization_Converged-OPLS-2005>
0

> <r_mmod_RMS_Derivative-OPLS-2005>
2.32322359085083

$$$$
26
                    3D
 Structure written by MMmdl.
170179  0  0  1  0            999 V2000
  -30.6913  -14.4675   20.6057 C   0  0  0  0  0  0
  -30.4360  -12.3234   19.4089 C   0  0  0  0  0  0
  -29.5001  -12.5341   18.1994 C   0  0  0  0  0  0
  -28.0189  -12.3885   18.6071 C   0  0  0  0  0  0
  -27.6645  -13.2024   19.8798 C   0  0  2  0  0  0
  -28.7071  -12.9534   20.9931 C   0  0  0  0  0  0
  -25.2598  -13.8138   20.5685 C   0  0  0  0  0  0
  -24.1829  -13.0427   20.9165 C   0  0  0  0  0  0
  -24.6375  -11.6888   20.8699 C   0  0  0  0  0  0
  -23.9024  -10.4290   21.0370 C   0  0  0  0  0  0
  -24.3597   -9.4223   21.9155 C   0  0  0  0  0  0
  -23.6290   -8.2246   22.0722 C   0  0  0  0  0  0
  -22.4282   -8.0260   21.3513 C   0  0  0  0  0  0
  -21.9890   -9.0228   20.4628 C   0  0  0  0  0  0
  -22.7195  -10.2125   20.3025 C   0  0  0  0  0  0
  -21.6858   -6.0725   22.5275 C   0  0  0  0  0  0
  -21.4012   -6.5627   23.8212 C   0  0  0  0  0  0
  -21.3657   -5.6781   24.9174 C   0  0  0  0  0  0
  -21.6050   -4.3043   24.7218 C   0  0  0  0  0  0
  -21.8824   -3.8133   23.4337 C   0  0  0  0  0  0
  -21.9192   -4.6949   22.3400 C   0  0  0  0  0  0
  -22.7854  -13.5234   21.1830 C   0  0  0  0  0  0
  -22.1667   -4.2128   21.0976 F   0  0  0  0  0  0
  -21.5636   -3.4530   25.7737 F   0  0  0  0  0  0
  -30.0403  -13.2805   20.4532 N   0  0  0  0  0  0
  -26.3029  -12.9297   20.3363 N   0  0  0  0  0  0
  -25.9301  -11.6453   20.5713 N   0  0  0  0  0  0
  -22.0474  -12.8261   22.0402 N   0  0  0  0  0  0
  -25.4340  -15.1857   20.4123 N   0  0  0  0  0  0
  -31.7968  -14.7010   20.1113 O   0  0  0  0  0  0
  -21.6635   -6.8866   21.4234 O   0  0  0  0  0  0
  -22.3555  -14.5552   20.6687 O   0  0  0  0  0  0
  -24.6153  -31.8684   23.2098 C   0  0  0  0  0  0
  -25.9040  -32.4828   23.8398 C   0  0  1  0  0  0
  -27.2350  -27.4189   20.0970 C   0  0  0  0  0  0
  -25.5903  -33.8625   24.2339 N   0  0  0  0  0  0
  -23.4054  -30.4899   21.5532 C   0  0  2  0  0  0
  -24.8529  -28.9582   20.1163 C   0  0  0  0  0  0
  -22.7410  -29.4655   22.5012 C   0  0  0  0  0  0
  -18.0271  -28.1369   22.8508 C   0  0  0  0  0  0
  -24.1495  -36.7311   23.2642 C   0  0  0  0  0  0
  -25.9381  -30.8247   21.3721 C   0  0  0  0  0  0
  -26.0150  -29.4609   20.7149 C   0  0  0  0  0  0
  -27.2094  -28.6994   20.7020 C   0  0  0  0  0  0
  -26.0514  -26.9433   19.4831 C   0  0  0  0  0  0
  -24.8671  -27.6988   19.4981 C   0  0  0  0  0  0
  -23.6144  -29.8229   20.1686 C   0  0  0  0  0  0
  -25.4119  -36.3123   24.0348 C   0  0  1  0  0  0
  -20.5862  -28.3661   23.1325 C   0  0  2  0  0  0
  -20.6765  -26.9399   22.5422 C   0  0  0  0  0  0
  -19.5740  -26.6388   21.5215 C   0  0  0  0  0  0
  -18.1916  -26.7925   22.1624 C   0  0  0  0  0  0
  -19.1523  -28.8828   23.2913 C   0  0  0  0  0  0
  -18.9455  -30.1435   23.8921 C   0  0  0  0  0  0
  -17.6457  -30.6585   24.0563 C   0  0  0  0  0  0
  -25.9043  -34.9484   23.5139 C   0  0  0  0  0  0
  -16.5344  -29.9090   23.6330 C   0  0  0  0  0  0
  -16.7258  -28.6496   23.0372 C   0  0  0  0  0  0
  -26.4469  -31.6601   25.0715 C   0  0  0  0  0  0
  -25.3725  -31.3708   26.1453 C   0  0  0  0  0  0
  -27.0322  -30.3048   24.6102 C   0  0  0  0  0  0
  -27.6062  -32.4317   25.7451 C   0  0  0  0  0  0
  -27.5598  -37.1802   24.8471 C   0  0  0  0  0  0
  -21.4140  -29.3035   22.3742 N   0  0  0  0  0  0
  -26.4314  -37.3802   23.9410 N   0  0  0  0  0  0
  -24.6709  -31.0755   22.1026 N   0  0  0  0  0  0
  -23.4173  -28.8201   23.3062 O   0  0  0  0  0  0
  -28.3915  -26.6540   20.1286 O   0  0  0  0  0  0
  -26.5602  -34.8923   22.4697 O   0  0  0  0  0  0
  -23.5339  -32.1472   23.7454 O   0  0  0  0  0  0
  -29.8119  -19.1237   20.6377 C   0  0  0  0  0  0
  -30.8997  -18.6930   22.7651 C   0  0  0  0  0  0
  -30.3593  -19.6196   21.8445 C   0  0  0  0  0  0
  -29.7538  -17.7285   20.3850 C   0  0  0  0  0  0
  -30.2450  -16.8062   21.3526 C   0  0  0  0  0  0
  -30.8363  -17.3038   22.5355 C   0  0  0  0  0  0
  -29.1037  -22.9192   20.8907 C   0  0  0  0  0  0
  -27.9154  -22.2869   20.8069 C   0  0  0  0  0  0
  -31.7764  -23.5588   19.8472 C   0  0  0  0  0  0
  -30.5608  -24.4442   19.4848 C   0  0  0  0  0  0
  -31.3597  -22.1223   20.2297 C   0  0  0  0  0  0
  -29.4344  -24.3888   20.5474 C   0  0  1  0  0  0
  -30.1394  -17.0961   17.9585 C   0  0  0  0  0  0
  -29.1132  -17.2549   19.0859 C   0  0  0  0  0  0
  -30.2784  -21.0926   22.2921 C   0  0  0  0  0  0
  -28.1966  -25.2241   20.1229 C   0  0  0  0  0  0
  -29.9803  -15.4076   21.2527 N   0  0  0  0  0  0
  -30.3607  -22.2154   21.3130 N   0  3  2  0  0  0
  -31.4236  -16.2286   23.7559 Cl  0  0  0  0  0  0
  -31.4774  -12.4504   19.1066 H   0  0  0  0  0  0
  -30.3559  -11.3016   19.7868 H   0  0  0  0  0  0
  -29.7460  -11.8266   17.4067 H   0  0  0  0  0  0
  -29.6663  -13.5287   17.7808 H   0  0  0  0  0  0
  -27.8234  -11.3292   18.7801 H   0  0  0  0  0  0
  -27.3703  -12.6847   17.7804 H   0  0  0  0  0  0
  -27.7129  -14.2543   19.6020 H   0  0  0  0  0  0
  -28.6861  -11.9055   21.2968 H   0  0  0  0  0  0
  -28.4560  -13.5150   21.8940 H   0  0  0  0  0  0
  -25.2725   -9.5739   22.4732 H   0  0  0  0  0  0
  -24.0009   -7.4648   22.7443 H   0  0  0  0  0  0
  -21.0810   -8.8754   19.8947 H   0  0  0  0  0  0
  -22.3625  -10.9667   19.6149 H   0  0  0  0  0  0
  -21.2006   -7.6135   23.9720 H   0  0  0  0  0  0
  -21.1477   -6.0498   25.9089 H   0  0  0  0  0  0
  -22.0603   -2.7582   23.2842 H   0  0  0  0  0  0
  -22.4069  -11.9945   22.4857 H   0  0  0  0  0  0
  -21.1078  -13.1302   22.2529 H   0  0  0  0  0  0
  -24.6665  -15.8403   20.5172 H   0  0  0  0  0  0
  -26.2924  -15.6267   20.1076 H   0  0  0  0  0  0
  -26.7097  -32.5531   23.1150 H   0  0  0  0  0  0
  -25.0057  -33.9800   25.0483 H   0  0  0  0  0  0
  -22.6955  -31.3077   21.4125 H   0  0  0  0  0  0
  -23.3766  -35.9637   23.3322 H   0  0  0  0  0  0
  -24.3595  -36.8891   22.2053 H   0  0  0  0  0  0
  -23.7218  -37.6510   23.6637 H   0  0  0  0  0  0
  -26.0615  -31.5923   20.6076 H   0  0  0  0  0  0
  -26.8215  -30.8702   21.9972 H   0  0  0  0  0  0
  -28.1020  -29.0801   21.1798 H   0  0  0  0  0  0
  -26.0180  -25.9856   18.9851 H   0  0  0  0  0  0
  -23.9764  -27.3056   19.0285 H   0  0  0  0  0  0
  -23.7195  -30.5969   19.4082 H   0  0  0  0  0  0
  -22.7401  -29.2394   19.8738 H   0  0  0  0  0  0
  -25.1286  -36.2019   25.0844 H   0  0  0  0  0  0
  -20.9948  -28.3220   24.1444 H   0  0  0  0  0  0
  -20.5684  -26.2254   23.3603 H   0  0  0  0  0  0
  -21.6634  -26.7461   22.1196 H   0  0  0  0  0  0
  -19.6910  -25.6307   21.1221 H   0  0  0  0  0  0
  -19.6680  -27.3215   20.6761 H   0  0  0  0  0  0
  -17.4194  -26.6690   21.4016 H   0  0  0  0  0  0
  -18.0312  -26.0051   22.9000 H   0  0  0  0  0  0
  -19.7933  -30.7239   24.2307 H   0  0  0  0  0  0
  -17.5020  -31.6272   24.5157 H   0  0  0  0  0  0
  -15.5347  -30.3002   23.7645 H   0  0  0  0  0  0
  -15.8654  -28.0811   22.7102 H   0  0  0  0  0  0
  -24.5869  -30.7104   25.7753 H   0  0  0  0  0  0
  -24.8948  -32.2872   26.4941 H   0  0  0  0  0  0
  -25.8049  -30.8811   27.0189 H   0  0  0  0  0  0
  -26.2876  -29.6764   24.1197 H   0  0  0  0  0  0
  -27.4148  -29.7320   25.4561 H   0  0  0  0  0  0
  -27.8692  -30.4376   23.9239 H   0  0  0  0  0  0
  -27.2712  -33.3616   26.2067 H   0  0  0  0  0  0
  -28.3836  -32.6874   25.0234 H   0  0  0  0  0  0
  -28.0785  -31.8414   26.5317 H   0  0  0  0  0  0
  -28.2623  -38.0094   24.7525 H   0  0  0  0  0  0
  -28.1082  -36.2618   24.6301 H   0  0  0  0  0  0
  -27.2314  -37.1464   25.8873 H   0  0  0  0  0  0
  -20.9308  -29.8746   21.6949 H   0  0  0  0  0  0
  -26.0218  -38.2897   24.1370 H   0  0  0  0  0  0
  -29.3880  -19.8068   19.9147 H   0  0  0  0  0  0
  -31.3151  -19.0403   23.7006 H   0  0  0  0  0  0
  -27.0113  -22.7890   20.4925 H   0  0  0  0  0  0
  -27.8085  -21.2426   21.0584 H   0  0  0  0  0  0
  -32.3097  -24.0112   20.6845 H   0  0  0  0  0  0
  -32.4863  -23.5367   19.0189 H   0  0  0  0  0  0
  -30.1680  -24.1298   18.5171 H   0  0  0  0  0  0
  -30.8835  -25.4780   19.3514 H   0  0  0  0  0  0
  -32.2307  -21.5530   20.5555 H   0  0  0  0  0  0
  -30.9338  -21.5977   19.3729 H   0  0  0  0  0  0
  -29.8130  -24.8364   21.4678 H   0  0  0  0  0  0
  -29.6629  -16.7296   17.0481 H   0  0  0  0  0  0
  -30.9240  -16.3899   18.2277 H   0  0  0  0  0  0
  -30.6164  -18.0480   17.7254 H   0  0  0  0  0  0
  -28.3453  -17.9657   18.7789 H   0  0  0  0  0  0
  -28.5865  -16.3166   19.2418 H   0  0  0  0  0  0
  -31.1164  -21.2620   22.9688 H   0  0  0  0  0  0
  -29.3886  -21.2133   22.9110 H   0  0  0  0  0  0
  -27.3892  -25.0027   20.8240 H   0  0  0  0  0  0
  -27.8771  -24.8916   19.1339 H   0  0  0  0  0  0
  -29.1193  -15.0891   21.6677 H   0  0  0  0  0  0
  -30.8155  -22.8821   21.9177 H   0  0  0  0  0  0
  1 25  1  0  0  0
  1 30  2  0  0  0
  1 87  1  0  0  0
  2  3  1  0  0  0
  2 25  1  0  0  0
  2 90  1  0  0  0
  2 91  1  0  0  0
  3  4  1  0  0  0
  3 92  1  0  0  0
  3 93  1  0  0  0
  4  5  1  0  0  0
  4 94  1  0  0  0
  4 95  1  0  0  0
  5  6  1  0  0  0
  5 26  1  0  0  0
  5 96  1  0  0  0
  6 25  1  0  0  0
  6 97  1  0  0  0
  6 98  1  0  0  0
  7  8  2  0  0  0
  7 26  1  0  0  0
  7 29  1  0  0  0
  8  9  1  0  0  0
  8 22  1  0  0  0
  9 10  1  0  0  0
  9 27  2  0  0  0
 10 11  2  0  0  0
 10 15  1  0  0  0
 11 12  1  0  0  0
 11 99  1  0  0  0
 12 13  2  0  0  0
 12100  1  0  0  0
 13 14  1  0  0  0
 13 31  1  0  0  0
 14 15  2  0  0  0
 14101  1  0  0  0
 15102  1  0  0  0
 16 17  2  0  0  0
 16 21  1  0  0  0
 16 31  1  0  0  0
 17 18  1  0  0  0
 17103  1  0  0  0
 18 19  2  0  0  0
 18104  1  0  0  0
 19 20  1  0  0  0
 19 24  1  0  0  0
 20 21  2  0  0  0
 20105  1  0  0  0
 21 23  1  0  0  0
 22 28  1  0  0  0
 22 32  2  0  0  0
 26 27  1  0  0  0
 28106  1  0  0  0
 28107  1  0  0  0
 29108  1  0  0  0
 29109  1  0  0  0
 33 34  1  0  0  0
 33 66  1  0  0  0
 33 70  2  0  0  0
 34 36  1  0  0  0
 34 59  1  0  0  0
 34110  1  0  0  0
 35 44  2  0  0  0
 35 45  1  0  0  0
 35 68  1  0  0  0
 36 56  1  0  0  0
 36111  1  0  0  0
 37 39  1  0  0  0
 37 47  1  0  0  0
 37 66  1  0  0  0
 37112  1  0  0  0
 38 43  2  0  0  0
 38 46  1  0  0  0
 38 47  1  0  0  0
 39 64  1  0  0  0
 39 67  2  0  0  0
 40 52  1  0  0  0
 40 53  2  0  0  0
 40 58  1  0  0  0
 41113  1  0  0  0
 41114  1  0  0  0
 41115  1  0  0  0
 41 48  1  0  0  0
 42 43  1  0  0  0
 42 66  1  0  0  0
 42116  1  0  0  0
 42117  1  0  0  0
 43 44  1  0  0  0
 44118  1  0  0  0
 45 46  2  0  0  0
 45119  1  0  0  0
 46120  1  0  0  0
 47121  1  0  0  0
 47122  1  0  0  0
 48 56  1  0  0  0
 48 65  1  0  0  0
 48123  1  0  0  0
 49 50  1  0  0  0
 49 53  1  0  0  0
 49 64  1  0  0  0
 49124  1  0  0  0
 50 51  1  0  0  0
 50125  1  0  0  0
 50126  1  0  0  0
 51 52  1  0  0  0
 51127  1  0  0  0
 51128  1  0  0  0
 52129  1  0  0  0
 52130  1  0  0  0
 53 54  1  0  0  0
 54 55  2  0  0  0
 54131  1  0  0  0
 55 57  1  0  0  0
 55132  1  0  0  0
 56 69  2  0  0  0
 57 58  2  0  0  0
 57133  1  0  0  0
 58134  1  0  0  0
 59 60  1  0  0  0
 59 61  1  0  0  0
 59 62  1  0  0  0
 60135  1  0  0  0
 60136  1  0  0  0
 60137  1  0  0  0
 61138  1  0  0  0
 61139  1  0  0  0
 61140  1  0  0  0
 62141  1  0  0  0
 62142  1  0  0  0
 62143  1  0  0  0
 63 65  1  0  0  0
 63144  1  0  0  0
 63145  1  0  0  0
 63146  1  0  0  0
 64147  1  0  0  0
 65148  1  0  0  0
 68 86  1  0  0  0
 71 73  2  0  0  0
 71 74  1  0  0  0
 71149  1  0  0  0
 72 73  1  0  0  0
 72 76  2  0  0  0
 72150  1  0  0  0
 73 85  1  0  0  0
 74 75  2  0  0  0
 74 84  1  0  0  0
 75 76  1  0  0  0
 75 87  1  0  0  0
 76 89  1  0  0  0
 77 78  2  0  0  0
 77 82  1  0  0  0
 77 88  1  0  0  0
 78151  1  0  0  0
 78152  1  0  0  0
 79 80  1  0  0  0
 79 81  1  0  0  0
 79153  1  0  0  0
 79154  1  0  0  0
 80 82  1  0  0  0
 80155  1  0  0  0
 80156  1  0  0  0
 81 88  1  0  0  0
 81157  1  0  0  0
 81158  1  0  0  0
 82 86  1  0  0  0
 82159  1  0  0  0
 83 84  1  0  0  0
 83160  1  0  0  0
 83161  1  0  0  0
 83162  1  0  0  0
 84163  1  0  0  0
 84164  1  0  0  0
 85165  1  0  0  0
 85166  1  0  0  0
 85 88  1  0  0  0
 86167  1  0  0  0
 86168  1  0  0  0
 87169  1  0  0  0
 88170  1  0  0  0
M  CHG  1  88   1
M  ISO  4   1 100  68 101  86 101  87 100
M  END
> <chiral flag>
0

> <version>
0

> <s_m_source_file>
/data/baiqing/PycharmProjects/Reinvent-master-3.2/result/LINK_invent/BTK/process_docking_weight1_custom_product_contain_oxygen_bond_distance_aromatic_linkinvent_7_9_3/rearranged_h_0038.sdf

> <i_m_source_file_index>
27

> <r_mmod_Potential_Energy-OPLS-2005>
-122.843223571777

> <r_mmod_Stretch_Energy-OPLS-2005>
43.2404861450195

> <r_mmod_Bend_Energy-OPLS-2005>
129.412826538086

> <r_mmod_Torsional_Energy-OPLS-2005>
260.629608154297

> <r_mmod_Improper_Torsional_Energy-OPLS-2005>
4.22296047210693

> <r_mmod_Van_der_Waal_Energy-OPLS-2005>
151.79052734375

> <r_mmod_Electrostatic_Energy-OPLS-2005>
-275.803833007812

> <r_mmod_Solvation_Energy-OPLS-2005>
-449.95263671875

> <b_mmod_Minimization_Converged-OPLS-2005>
0

> <r_mmod_RMS_Derivative-OPLS-2005>
2.956547498703

$$$$
27
                    3D
 Structure written by MMmdl.
164173  0  0  1  0            999 V2000
  -30.6277  -14.6168   20.4917 C   0  0  0  0  0  0
  -30.4270  -12.3744   19.4400 C   0  0  0  0  0  0
  -29.4932  -12.5101   18.2166 C   0  0  0  0  0  0
  -28.0196  -12.3463   18.6372 C   0  0  0  0  0  0
  -27.6519  -13.2120   19.8705 C   0  0  2  0  0  0
  -28.7002  -13.0542   20.9941 C   0  0  0  0  0  0
  -25.2559  -13.8168   20.5725 C   0  0  0  0  0  0
  -24.1810  -13.0428   20.9215 C   0  0  0  0  0  0
  -24.6361  -11.6906   20.8739 C   0  0  0  0  0  0
  -23.9050  -10.4281   21.0402 C   0  0  0  0  0  0
  -24.3608   -9.4200   21.9188 C   0  0  0  0  0  0
  -23.6288   -8.2236   22.0756 C   0  0  0  0  0  0
  -22.4273   -8.0263   21.3547 C   0  0  0  0  0  0
  -21.9906   -9.0238   20.4645 C   0  0  0  0  0  0
  -22.7227  -10.2114   20.3050 C   0  0  0  0  0  0
  -21.6862   -6.0715   22.5281 C   0  0  0  0  0  0
  -21.4010   -6.5635   23.8199 C   0  0  0  0  0  0
  -21.3663   -5.6797   24.9177 C   0  0  0  0  0  0
  -21.6042   -4.3056   24.7226 C   0  0  0  0  0  0
  -21.8825   -3.8139   23.4350 C   0  0  0  0  0  0
  -21.9194   -4.6950   22.3398 C   0  0  0  0  0  0
  -22.7826  -13.5205   21.1871 C   0  0  0  0  0  0
  -22.1666   -4.2135   21.0970 F   0  0  0  0  0  0
  -21.5637   -3.4539   25.7738 F   0  0  0  0  0  0
  -30.0143  -13.3921   20.4253 N   0  0  0  0  0  0
  -26.2988  -12.9337   20.3387 N   0  0  0  0  0  0
  -25.9297  -11.6497   20.5809 N   0  0  0  0  0  0
  -22.0480  -12.8175   22.0423 N   0  0  0  0  0  0
  -25.4261  -15.1872   20.4105 N   0  0  0  0  0  0
  -31.7885  -14.7795   20.1055 O   0  0  0  0  0  0
  -21.6637   -6.8857   21.4238 O   0  0  0  0  0  0
  -22.3520  -14.5535   20.6743 O   0  0  0  0  0  0
  -24.6232  -31.8583   23.2054 C   0  0  0  0  0  0
  -25.9083  -32.4786   23.8384 C   0  0  1  0  0  0
  -27.2301  -27.3068   20.1248 C   0  0  0  0  0  0
  -25.5908  -33.8597   24.2290 N   0  0  0  0  0  0
  -23.4242  -30.4835   21.5461 C   0  0  2  0  0  0
  -24.8727  -28.9313   20.1181 C   0  0  0  0  0  0
  -22.7471  -29.4634   22.4920 C   0  0  0  0  0  0
  -18.0235  -28.1373   22.8639 C   0  0  0  0  0  0
  -24.1473  -36.7264   23.2646 C   0  0  0  0  0  0
  -25.9679  -30.7778   21.3908 C   0  0  0  0  0  0
  -26.0414  -29.4077   20.7247 C   0  0  0  0  0  0
  -27.2249  -28.6112   20.7117 C   0  0  0  0  0  0
  -26.0371  -26.8859   19.4946 C   0  0  0  0  0  0
  -24.8749  -27.6782   19.4907 C   0  0  0  0  0  0
  -23.6418  -29.8129   20.1646 C   0  0  0  0  0  0
  -25.4131  -36.3087   24.0304 C   0  0  1  0  0  0
  -20.5854  -28.3790   23.1315 C   0  0  2  0  0  0
  -20.6810  -26.9475   22.5493 C   0  0  0  0  0  0
  -19.5661  -26.6267   21.5505 C   0  0  0  0  0  0
  -18.1898  -26.7823   22.2016 C   0  0  0  0  0  0
  -19.1493  -28.8900   23.2922 C   0  0  0  0  0  0
  -18.9424  -30.1536   23.8851 C   0  0  0  0  0  0
  -17.6419  -30.6666   24.0528 C   0  0  0  0  0  0
  -25.9072  -34.9454   23.5115 C   0  0  0  0  0  0
  -16.5308  -29.9145   23.6356 C   0  0  0  0  0  0
  -16.7223  -28.6518   23.0474 C   0  0  0  0  0  0
  -26.4425  -31.6647   25.0809 C   0  0  0  0  0  0
  -25.3593  -31.3836   26.1489 C   0  0  0  0  0  0
  -27.0299  -30.3046   24.6398 C   0  0  0  0  0  0
  -27.5951  -32.4430   25.7585 C   0  0  0  0  0  0
  -27.5575  -37.1792   24.8463 C   0  0  0  0  0  0
  -21.4167  -29.3182   22.3739 N   0  0  0  0  0  0
  -26.4307  -37.3784   23.9382 N   0  0  0  0  0  0
  -24.6900  -31.0559   22.1035 N   0  0  0  0  0  0
  -23.4206  -28.8052   23.2883 O   0  0  0  0  0  0
  -28.3581  -26.4684   20.1417 O   0  0  0  0  0  0
  -26.5644  -34.8900   22.4691 O   0  0  0  0  0  0
  -23.5382  -32.1412   23.7335 O   0  0  0  0  0  0
  -29.6519  -19.1914   19.3590 C   0  0  0  0  0  0
  -30.3410  -17.9333   21.7518 C   0  0  0  0  0  0
  -29.6172  -17.7659   19.4586 C   0  0  0  0  0  0
  -30.0177  -20.0321   20.4471 C   0  0  0  0  0  0
  -29.9863  -17.1002   20.6626 C   0  0  0  0  0  0
  -30.3643  -19.3552   21.6543 C   0  0  0  0  0  0
  -28.0597  -22.3474   21.4591 C   0  0  0  0  0  0
  -27.1448  -21.3630   21.4705 C   0  0  0  0  0  0
  -28.2341  -23.4320   22.5225 C   0  0  0  0  0  0
  -28.0572  -24.8790   21.9927 C   0  0  0  0  0  0
  -29.2984  -23.9954   19.9830 C   0  0  0  0  0  0
  -28.1880  -25.0226   20.4602 C   0  0  2  0  0  0
  -29.1611  -16.9509   18.2623 C   0  0  0  0  0  0
  -30.1830  -21.5954   20.2708 C   0  0  0  0  0  0
  -29.8252  -15.6643   20.8482 N   0  0  0  0  0  0
  -28.9852  -22.5311   20.2959 N   0  3  1  0  0  0
  -30.8357  -20.2507   23.0554 Cl  0  0  0  0  0  0
  -31.4700  -12.4843   19.1379 H   0  0  0  0  0  0
  -30.3446  -11.3746   19.8701 H   0  0  0  0  0  0
  -29.7479  -11.7698   17.4573 H   0  0  0  0  0  0
  -29.6312  -13.4867   17.7484 H   0  0  0  0  0  0
  -27.8596  -11.2942   18.8733 H   0  0  0  0  0  0
  -27.3522  -12.5766   17.8058 H   0  0  0  0  0  0
  -27.6739  -14.2490   19.5388 H   0  0  0  0  0  0
  -28.7056  -12.0271   21.3653 H   0  0  0  0  0  0
  -28.4567  -13.6783   21.8545 H   0  0  0  0  0  0
  -25.2743   -9.5679   22.4780 H   0  0  0  0  0  0
  -24.0000   -7.4615   22.7462 H   0  0  0  0  0  0
  -21.0858   -8.8751   19.8928 H   0  0  0  0  0  0
  -22.3696  -10.9662   19.6163 H   0  0  0  0  0  0
  -21.2002   -7.6141   23.9711 H   0  0  0  0  0  0
  -21.1490   -6.0518   25.9079 H   0  0  0  0  0  0
  -22.0599   -2.7603   23.2854 H   0  0  0  0  0  0
  -22.4112  -11.9817   22.4780 H   0  0  0  0  0  0
  -21.1094  -13.1176   22.2636 H   0  0  0  0  0  0
  -24.6595  -15.8412   20.5222 H   0  0  0  0  0  0
  -26.2752  -15.6294   20.0844 H   0  0  0  0  0  0
  -26.7157  -32.5372   23.1109 H   0  0  0  0  0  0
  -24.9924  -33.9815   25.0329 H   0  0  0  0  0  0
  -22.7220  -31.3077   21.4017 H   0  0  0  0  0  0
  -23.3747  -35.9589   23.3342 H   0  0  0  0  0  0
  -24.3543  -36.8872   22.2065 H   0  0  0  0  0  0
  -23.7229  -37.6466   23.6667 H   0  0  0  0  0  0
  -26.1419  -31.5541   20.6455 H   0  0  0  0  0  0
  -26.8323  -30.8009   22.0420 H   0  0  0  0  0  0
  -28.1249  -28.9733   21.1843 H   0  0  0  0  0  0
  -25.9768  -25.9354   18.9848 H   0  0  0  0  0  0
  -23.9802  -27.3156   19.0037 H   0  0  0  0  0  0
  -23.7632  -30.5848   19.4028 H   0  0  0  0  0  0
  -22.7619  -29.2394   19.8722 H   0  0  0  0  0  0
  -25.1319  -36.1942   25.0798 H   0  0  0  0  0  0
  -20.9934  -28.3435   24.1438 H   0  0  0  0  0  0
  -20.6007  -26.2382   23.3738 H   0  0  0  0  0  0
  -21.6602  -26.7605   22.1107 H   0  0  0  0  0  0
  -19.6875  -25.6109   21.1766 H   0  0  0  0  0  0
  -19.6476  -27.2926   20.6887 H   0  0  0  0  0  0
  -17.4028  -26.6305   21.4591 H   0  0  0  0  0  0
  -18.0508  -26.0148   22.9675 H   0  0  0  0  0  0
  -19.7903  -30.7399   24.2144 H   0  0  0  0  0  0
  -17.4976  -31.6390   24.5036 H   0  0  0  0  0  0
  -15.5310  -30.3052   23.7640 H   0  0  0  0  0  0
  -15.8605  -28.0829   22.7295 H   0  0  0  0  0  0
  -24.5710  -30.7299   25.7754 H   0  0  0  0  0  0
  -24.8799  -32.3024   26.4884 H   0  0  0  0  0  0
  -25.7775  -30.8965   27.0308 H   0  0  0  0  0  0
  -26.2997  -29.6841   24.1197 H   0  0  0  0  0  0
  -27.3684  -29.7287   25.5017 H   0  0  0  0  0  0
  -27.8972  -30.4287   23.9914 H   0  0  0  0  0  0
  -27.2546  -33.3722   26.2169 H   0  0  0  0  0  0
  -28.3735  -32.7056   25.0415 H   0  0  0  0  0  0
  -28.0660  -31.8589   26.5504 H   0  0  0  0  0  0
  -28.2588  -38.0084   24.7490 H   0  0  0  0  0  0
  -28.1074  -36.2610   24.6312 H   0  0  0  0  0  0
  -27.2272  -37.1462   25.8862 H   0  0  0  0  0  0
  -20.9357  -29.9130   21.7153 H   0  0  0  0  0  0
  -26.0163  -38.2849   24.1395 H   0  0  0  0  0  0
  -29.3978  -19.6529   18.4144 H   0  0  0  0  0  0
  -30.5942  -17.4737   22.6957 H   0  0  0  0  0  0
  -26.4520  -21.2494   22.2925 H   0  0  0  0  0  0
  -27.0675  -20.6516   20.6608 H   0  0  0  0  0  0
  -29.2340  -23.3154   22.9455 H   0  0  0  0  0  0
  -27.5488  -23.2568   23.3549 H   0  0  0  0  0  0
  -28.7970  -25.5121   22.4862 H   0  0  0  0  0  0
  -27.0894  -25.2786   22.3000 H   0  0  0  0  0  0
  -29.4512  -24.0819   18.9068 H   0  0  0  0  0  0
  -30.2457  -24.2770   20.4452 H   0  0  0  0  0  0
  -27.2648  -24.6522   20.0238 H   0  0  0  0  0  0
  -28.2629  -16.3865   18.5093 H   0  0  0  0  0  0
  -29.9331  -16.2398   17.9697 H   0  0  0  0  0  0
  -28.9386  -17.5751   17.3963 H   0  0  0  0  0  0
  -30.6858  -21.7494   19.3152 H   0  0  0  0  0  0
  -30.8915  -21.9587   21.0142 H   0  0  0  0  0  0
  -28.9064  -15.3797   21.1525 H   0  0  0  0  0  0
  -28.4593  -22.2384   19.4863 H   0  0  0  0  0  0
  1 25  1  0  0  0
  1 30  2  0  0  0
  1 85  1  0  0  0
  2  3  1  0  0  0
  2 25  1  0  0  0
  2 88  1  0  0  0
  2 89  1  0  0  0
  3  4  1  0  0  0
  3 90  1  0  0  0
  3 91  1  0  0  0
  4  5  1  0  0  0
  4 92  1  0  0  0
  4 93  1  0  0  0
  5  6  1  0  0  0
  5 26  1  0  0  0
  5 94  1  0  0  0
  6 25  1  0  0  0
  6 95  1  0  0  0
  6 96  1  0  0  0
  7  8  2  0  0  0
  7 26  1  0  0  0
  7 29  1  0  0  0
  8  9  1  0  0  0
  8 22  1  0  0  0
  9 10  1  0  0  0
  9 27  2  0  0  0
 10 11  2  0  0  0
 10 15  1  0  0  0
 11 12  1  0  0  0
 11 97  1  0  0  0
 12 13  2  0  0  0
 12 98  1  0  0  0
 13 14  1  0  0  0
 13 31  1  0  0  0
 14 15  2  0  0  0
 14 99  1  0  0  0
 15100  1  0  0  0
 16 17  2  0  0  0
 16 21  1  0  0  0
 16 31  1  0  0  0
 17 18  1  0  0  0
 17101  1  0  0  0
 18 19  2  0  0  0
 18102  1  0  0  0
 19 20  1  0  0  0
 19 24  1  0  0  0
 20 21  2  0  0  0
 20103  1  0  0  0
 21 23  1  0  0  0
 22 28  1  0  0  0
 22 32  2  0  0  0
 26 27  1  0  0  0
 28104  1  0  0  0
 28105  1  0  0  0
 29106  1  0  0  0
 29107  1  0  0  0
 33 34  1  0  0  0
 33 66  1  0  0  0
 33 70  2  0  0  0
 34 36  1  0  0  0
 34 59  1  0  0  0
 34108  1  0  0  0
 35 44  2  0  0  0
 35 45  1  0  0  0
 35 68  1  0  0  0
 36 56  1  0  0  0
 36109  1  0  0  0
 37 39  1  0  0  0
 37 47  1  0  0  0
 37 66  1  0  0  0
 37110  1  0  0  0
 38 43  2  0  0  0
 38 46  1  0  0  0
 38 47  1  0  0  0
 39 64  1  0  0  0
 39 67  2  0  0  0
 40 52  1  0  0  0
 40 53  2  0  0  0
 40 58  1  0  0  0
 41111  1  0  0  0
 41112  1  0  0  0
 41113  1  0  0  0
 41 48  1  0  0  0
 42 43  1  0  0  0
 42 66  1  0  0  0
 42114  1  0  0  0
 42115  1  0  0  0
 43 44  1  0  0  0
 44116  1  0  0  0
 45 46  2  0  0  0
 45117  1  0  0  0
 46118  1  0  0  0
 47119  1  0  0  0
 47120  1  0  0  0
 48 56  1  0  0  0
 48 65  1  0  0  0
 48121  1  0  0  0
 49 50  1  0  0  0
 49 53  1  0  0  0
 49 64  1  0  0  0
 49122  1  0  0  0
 50 51  1  0  0  0
 50123  1  0  0  0
 50124  1  0  0  0
 51 52  1  0  0  0
 51125  1  0  0  0
 51126  1  0  0  0
 52127  1  0  0  0
 52128  1  0  0  0
 53 54  1  0  0  0
 54 55  2  0  0  0
 54129  1  0  0  0
 55 57  1  0  0  0
 55130  1  0  0  0
 56 69  2  0  0  0
 57 58  2  0  0  0
 57131  1  0  0  0
 58132  1  0  0  0
 59 60  1  0  0  0
 59 61  1  0  0  0
 59 62  1  0  0  0
 60133  1  0  0  0
 60134  1  0  0  0
 60135  1  0  0  0
 61136  1  0  0  0
 61137  1  0  0  0
 61138  1  0  0  0
 62139  1  0  0  0
 62140  1  0  0  0
 62141  1  0  0  0
 63 65  1  0  0  0
 63142  1  0  0  0
 63143  1  0  0  0
 63144  1  0  0  0
 64145  1  0  0  0
 65146  1  0  0  0
 68 82  1  0  0  0
 71 73  2  0  0  0
 71 74  1  0  0  0
 71147  1  0  0  0
 72 75  2  0  0  0
 72 76  1  0  0  0
 72148  1  0  0  0
 73 75  1  0  0  0
 73 83  1  0  0  0
 74 76  2  0  0  0
 74 84  1  0  0  0
 75 85  1  0  0  0
 76 87  1  0  0  0
 77 78  2  0  0  0
 77 79  1  0  0  0
 77 86  1  0  0  0
 78149  1  0  0  0
 78150  1  0  0  0
 79 80  1  0  0  0
 79151  1  0  0  0
 79152  1  0  0  0
 80 82  1  0  0  0
 80153  1  0  0  0
 80154  1  0  0  0
 81 82  1  0  0  0
 81 86  1  0  0  0
 81155  1  0  0  0
 81156  1  0  0  0
 82157  1  0  0  0
 83158  1  0  0  0
 83159  1  0  0  0
 83160  1  0  0  0
 84161  1  0  0  0
 84162  1  0  0  0
 84 86  1  0  0  0
 85163  1  0  0  0
 86164  1  0  0  0
M  CHG  1  86   1
M  ISO  4   1 100  68 101  82 101  85 100
M  END
> <chiral flag>
0

> <version>
0

> <s_m_source_file>
/data/baiqing/PycharmProjects/Reinvent-master-3.2/result/LINK_invent/BTK/process_docking_weight1_custom_product_contain_oxygen_bond_distance_aromatic_linkinvent_7_9_3/rearranged_h_0038.sdf

> <i_m_source_file_index>
28

> <r_mmod_Potential_Energy-OPLS-2005>
-41.2608451843262

> <r_mmod_Stretch_Energy-OPLS-2005>
81.0235137939453

> <r_mmod_Bend_Energy-OPLS-2005>
139.793151855469

> <r_mmod_Torsional_Energy-OPLS-2005>
272.877349853516

> <r_mmod_Improper_Torsional_Energy-OPLS-2005>
5.55814027786255

> <r_mmod_Van_der_Waal_Energy-OPLS-2005>
138.607421875

> <r_mmod_Electrostatic_Energy-OPLS-2005>
-295.833862304688

> <r_mmod_Solvation_Energy-OPLS-2005>
-429.470581054688

> <b_mmod_Minimization_Converged-OPLS-2005>
0

> <r_mmod_RMS_Derivative-OPLS-2005>
4.75995635986328

$$$$
28
                    3D
 Structure written by MMmdl.
166175  0  0  1  0            999 V2000
  -30.5518  -16.0153   21.2866 C   0  0  0  0  0  0
  -30.9231  -13.9389   18.9694 C   0  0  0  0  0  0
  -29.7430  -13.4248   17.7877 C   0  0  0  0  0  0
  -28.0474  -13.3721   17.7790 C   0  0  0  0  0  0
  -27.4012  -14.1337   19.0844 C   0  0  2  0  0  0
  -29.8810  -14.4868   20.7788 C   0  0  0  0  0  0
  -24.5931  -14.7255   20.1555 C   0  0  0  0  0  0
  -23.5820  -13.7751   21.3266 C   0  0  0  0  0  0
  -24.4454  -12.1504   21.7102 C   0  0  0  0  0  0
  -23.8338  -10.7240   21.4958 C   0  0  0  0  0  0
  -24.3402   -9.5756   22.1627 C   0  0  0  0  0  0
  -23.6841   -8.3122   22.1315 C   0  0  0  0  0  0
  -22.5022   -8.1167   21.3794 C   0  0  0  0  0  0
  -22.1005   -9.1772   20.5390 C   0  0  0  0  0  0
  -22.7693  -10.4363   20.5755 C   0  0  0  0  0  0
  -21.7239   -6.1119   22.5037 C   0  0  0  0  0  0
  -21.4278   -6.5892   23.8017 C   0  0  0  0  0  0
  -21.3711   -5.6992   24.8963 C   0  0  0  0  0  0
  -21.5978   -4.3235   24.7033 C   0  0  0  0  0  0
  -21.8739   -3.8374   23.4140 C   0  0  0  0  0  0
  -21.9281   -4.7247   22.3211 C   0  0  0  0  0  0
  -22.1854  -13.8388   21.3202 C   0  0  0  0  0  0
  -22.1720   -4.2339   21.0827 F   0  0  0  0  0  0
  -21.5536   -3.4693   25.7539 F   0  0  0  0  0  0
  -30.8308  -14.8016   20.3937 N   0  0  0  0  0  0
  -26.1391  -13.6975   19.8341 N   0  0  0  0  0  0
  -25.9448  -12.1304   20.8759 N   0  0  0  0  0  0
  -21.5819  -12.9572   22.0926 N   0  0  0  0  0  0
  -24.7065  -15.9765   19.7011 N   0  0  0  0  0  0
  -31.6871  -16.4230   21.0768 O   0  0  0  0  0  0
  -21.7556   -6.9470   21.4003 O   0  0  0  0  0  0
  -21.6835  -14.6766   20.6034 O   0  0  0  0  0  0
  -24.8307  -31.5707   23.0228 C   0  0  0  0  0  0
  -26.0054  -32.3405   23.7322 C   0  0  1  0  0  0
  -26.9692  -24.9343   20.3646 C   0  0  0  0  0  0
  -25.5945  -33.7352   24.0966 N   0  0  0  0  0  0
  -23.7021  -30.1057   21.4211 C   0  0  2  0  0  0
  -25.0856  -28.0565   20.1661 C   0  0  0  0  0  0
  -22.8256  -29.3125   22.4361 C   0  0  0  0  0  0
  -18.0378  -28.1489   22.8367 C   0  0  0  0  0  0
  -24.1484  -36.6722   23.2703 C   0  0  0  0  0  0
  -26.2771  -29.6944   21.5536 C   0  0  0  0  0  0
  -26.2585  -28.0694   20.9213 C   0  0  0  0  0  0
  -27.1166  -26.6103   20.9431 C   0  0  0  0  0  0
  -25.8570  -25.5606   19.5345 C   0  0  0  0  0  0
  -25.0251  -26.8254   19.4418 C   0  0  0  0  0  0
  -24.0084  -29.2431   20.1244 C   0  0  0  0  0  0
  -25.4185  -36.2287   24.0168 C   0  0  1  0  0  0
  -20.6049  -28.3837   23.0919 C   0  0  2  0  0  0
  -20.6730  -26.9366   22.5477 C   0  0  0  0  0  0
  -19.5770  -26.6288   21.5235 C   0  0  0  0  0  0
  -18.1942  -26.7987   22.1570 C   0  0  0  0  0  0
  -19.1678  -28.9029   23.2575 C   0  0  0  0  0  0
  -18.9590  -30.1583   23.8680 C   0  0  0  0  0  0
  -17.6574  -30.6636   24.0519 C   0  0  0  0  0  0
  -25.9243  -34.8712   23.4559 C   0  0  0  0  0  0
  -16.5447  -29.9109   23.6381 C   0  0  0  0  0  0
  -16.7358  -28.6545   23.0371 C   0  0  0  0  0  0
  -26.4848  -31.6270   25.0585 C   0  0  0  0  0  0
  -25.3579  -31.3983   26.0949 C   0  0  0  0  0  0
  -27.1081  -30.2559   24.7523 C   0  0  0  0  0  0
  -27.5957  -32.4587   25.7434 C   0  0  0  0  0  0
  -27.5493  -37.1490   24.8462 C   0  0  0  0  0  0
  -21.4810  -29.2729   22.3051 N   0  0  0  0  0  0
  -26.4174  -37.3235   23.9410 N   0  0  0  0  0  0
  -24.9933  -30.5362   22.0515 N   0  0  0  0  0  0
  -23.3974  -28.7081   23.3447 O   0  0  0  0  0  0
  -27.5990  -22.9586   20.4056 O   0  0  0  0  0  0
  -26.6164  -34.8642   22.4374 O   0  0  0  0  0  0
  -23.7060  -31.9610   23.4138 O   0  0  0  0  0  0
  -25.6825  -14.2632   22.0686 C   0  0  0  0  0  0
  -26.5195  -14.0927   23.2790 C   0  0  0  0  0  0
  -26.6674  -14.9497   24.4804 C   0  0  0  0  0  0
  -27.2336  -16.3049   24.2954 C   0  0  0  0  0  0
  -27.4323  -16.7467   22.9288 C   0  0  0  0  0  0
  -25.9321  -15.9526   22.4338 C   0  0  0  0  0  0
  -28.7999  -12.7998   20.0156 C   0  0  0  0  0  0
  -28.8276  -15.7800   19.2646 C   0  0  0  0  0  0
  -28.0520  -13.2791   21.2959 C   0  0  0  0  0  0
  -27.9552  -17.2478   20.3062 C   0  0  2  0  0  0
  -26.4514  -14.3655   25.8623 C   0  0  0  0  0  0
  -27.8875  -17.0419   25.4443 C   0  0  0  0  0  0
  -27.8842  -14.3962   22.6886 C   0  0  0  0  0  0
  -27.5288  -20.2737   20.3521 C   0  0  0  0  0  0
  -29.3286  -16.6344   22.3374 N   0  0  0  0  0  0
  -27.7407  -15.1773   21.1920 N   0  3  1  0  0  0
  -24.5195  -16.9431   22.5987 Cl  0  0  0  0  0  0
  -31.6167  -14.5524   18.3930 H   0  0  0  0  0  0
  -31.5501  -13.0689   19.1750 H   0  0  0  0  0  0
  -30.0671  -12.4405   17.4495 H   0  0  0  0  0  0
  -29.9695  -14.0476   16.9205 H   0  0  0  0  0  0
  -27.6702  -12.3542   17.6481 H   0  0  0  0  0  0
  -27.7033  -13.8871   16.8800 H   0  0  0  0  0  0
  -26.8754  -14.9603   18.5878 H   0  0  0  0  0  0
  -30.5529  -13.6275   21.0380 H   0  0  0  0  0  0
  -30.0063  -14.1195   21.8572 H   0  0  0  0  0  0
  -25.2034   -9.6912   22.8033 H   0  0  0  0  0  0
  -24.0791   -7.5067   22.7349 H   0  0  0  0  0  0
  -21.2446   -9.0487   19.8929 H   0  0  0  0  0  0
  -22.3883  -11.2330   19.9535 H   0  0  0  0  0  0
  -21.2456   -7.6419   23.9609 H   0  0  0  0  0  0
  -21.1530   -6.0723   25.8866 H   0  0  0  0  0  0
  -22.0399   -2.7820   23.2596 H   0  0  0  0  0  0
  -22.1046  -12.3258   22.6780 H   0  0  0  0  0  0
  -20.5725  -12.9415   22.1352 H   0  0  0  0  0  0
  -23.9472  -16.6320   19.8461 H   0  0  0  0  0  0
  -25.2690  -16.2255   18.8979 H   0  0  0  0  0  0
  -26.8373  -32.3778   23.0265 H   0  0  0  0  0  0
  -24.9688  -33.8121   24.8847 H   0  0  0  0  0  0
  -23.1356  -30.9830   21.1021 H   0  0  0  0  0  0
  -23.3780  -35.9010   23.3159 H   0  0  0  0  0  0
  -24.3503  -36.8691   22.2164 H   0  0  0  0  0  0
  -23.7237  -37.5771   23.7060 H   0  0  0  0  0  0
  -26.6934  -30.3007   20.7485 H   0  0  0  0  0  0
  -27.0652  -29.7131   22.2891 H   0  0  0  0  0  0
  -27.9714  -26.7003   21.5985 H   0  0  0  0  0  0
  -25.4594  -24.8198   18.8545 H   0  0  0  0  0  0
  -24.2031  -26.7607   18.7416 H   0  0  0  0  0  0
  -24.3391  -29.9224   19.3383 H   0  0  0  0  0  0
  -23.0738  -28.8205   19.7535 H   0  0  0  0  0  0
  -25.1477  -36.0802   25.0649 H   0  0  0  0  0  0
  -21.0058  -28.3586   24.1078 H   0  0  0  0  0  0
  -20.5393  -26.2515   23.3863 H   0  0  0  0  0  0
  -21.6586  -26.7029   22.1432 H   0  0  0  0  0  0
  -19.6880  -25.6141   21.1399 H   0  0  0  0  0  0
  -19.6802  -27.2986   20.6688 H   0  0  0  0  0  0
  -17.4233  -26.6762   21.3945 H   0  0  0  0  0  0
  -18.0242  -26.0180   22.8999 H   0  0  0  0  0  0
  -19.8083  -30.7423   24.1970 H   0  0  0  0  0  0
  -17.5140  -31.6290   24.5173 H   0  0  0  0  0  0
  -15.5448  -30.2962   23.7830 H   0  0  0  0  0  0
  -15.8750  -28.0814   22.7193 H   0  0  0  0  0  0
  -24.5856  -30.7237   25.7232 H   0  0  0  0  0  0
  -24.8699  -32.3333   26.3714 H   0  0  0  0  0  0
  -25.7466  -30.9580   27.0140 H   0  0  0  0  0  0
  -26.3862  -29.5500   24.3421 H   0  0  0  0  0  0
  -27.4821  -29.7888   25.6644 H   0  0  0  0  0  0
  -27.9699  -30.3452   24.0906 H   0  0  0  0  0  0
  -27.2245  -33.4127   26.1195 H   0  0  0  0  0  0
  -28.4138  -32.6765   25.0554 H   0  0  0  0  0  0
  -28.0220  -31.9335   26.5991 H   0  0  0  0  0  0
  -28.2355  -37.9912   24.7489 H   0  0  0  0  0  0
  -28.1123  -36.2401   24.6286 H   0  0  0  0  0  0
  -27.2207  -37.1087   25.8862 H   0  0  0  0  0  0
  -21.0489  -29.8127   21.5679 H   0  0  0  0  0  0
  -25.9834  -38.2197   24.1462 H   0  0  0  0  0  0
  -24.5662  -12.9524   20.1049 H   0  0  0  0  0  0
  -29.6948  -12.1630   20.1124 H   0  0  0  0  0  0
  -28.1502  -11.9991   19.6365 H   0  0  0  0  0  0
  -28.5168  -15.9743   18.2287 H   0  0  0  0  0  0
  -29.7712  -16.1991   18.8994 H   0  0  0  0  0  0
  -28.8543  -12.6690   21.7628 H   0  0  0  0  0  0
  -27.6957  -12.4659   21.9678 H   0  0  0  0  0  0
  -26.9694  -17.2029   19.8533 H   0  0  0  0  0  0
  -26.1552  -13.3183   25.8007 H   0  0  0  0  0  0
  -25.6682  -14.9124   26.3889 H   0  0  0  0  0  0
  -27.3666  -14.4182   26.4520 H   0  0  0  0  0  0
  -28.8341  -16.5708   25.7054 H   0  0  0  0  0  0
  -27.2510  -17.0413   26.3274 H   0  0  0  0  0  0
  -28.0810  -18.0805   25.1780 H   0  0  0  0  0  0
  -28.5474  -13.7087   23.2721 H   0  0  0  0  0  0
  -28.6548  -14.7970   23.3422 H   0  0  0  0  0  0
  -26.7168  -20.2390   21.0761 H   0  0  0  0  0  0
  -27.0485  -20.2864   19.3746 H   0  0  0  0  0  0
  -29.8172  -17.3795   22.8149 H   0  0  0  0  0  0
  -26.7370  -15.1402   21.0674 H   0  0  0  0  0  0
  1 25  1  0  0  0
  1 30  2  0  0  0
  1 85  1  0  0  0
  2  3  1  0  0  0
  2 25  1  0  0  0
  2 88  1  0  0  0
  2 89  1  0  0  0
  3  4  1  0  0  0
  3 90  1  0  0  0
  3 91  1  0  0  0
  4  5  1  0  0  0
  4 92  1  0  0  0
  4 93  1  0  0  0
  5  6  1  0  0  0
  5 26  1  0  0  0
  5 94  1  0  0  0
  6 25  1  0  0  0
  6 95  1  0  0  0
  6 96  1  0  0  0
  7  8  2  0  0  0
  7 26  1  0  0  0
  7 29  1  0  0  0
  8  9  1  0  0  0
  8 22  1  0  0  0
  9 10  1  0  0  0
  9 27  2  0  0  0
 10 11  2  0  0  0
 10 15  1  0  0  0
 11 12  1  0  0  0
 11 97  1  0  0  0
 12 13  2  0  0  0
 12 98  1  0  0  0
 13 14  1  0  0  0
 13 31  1  0  0  0
 14 15  2  0  0  0
 14 99  1  0  0  0
 15100  1  0  0  0
 16 17  2  0  0  0
 16 21  1  0  0  0
 16 31  1  0  0  0
 17 18  1  0  0  0
 17101  1  0  0  0
 18 19  2  0  0  0
 18102  1  0  0  0
 19 20  1  0  0  0
 19 24  1  0  0  0
 20 21  2  0  0  0
 20103  1  0  0  0
 21 23  1  0  0  0
 22 28  1  0  0  0
 22 32  2  0  0  0
 26 27  1  0  0  0
 28104  1  0  0  0
 28105  1  0  0  0
 29106  1  0  0  0
 29107  1  0  0  0
 33 34  1  0  0  0
 33 66  1  0  0  0
 33 70  2  0  0  0
 34 36  1  0  0  0
 34 59  1  0  0  0
 34108  1  0  0  0
 35 44  2  0  0  0
 35 45  1  0  0  0
 35 68  1  0  0  0
 36 56  1  0  0  0
 36109  1  0  0  0
 37 39  1  0  0  0
 37 47  1  0  0  0
 37 66  1  0  0  0
 37110  1  0  0  0
 38 43  2  0  0  0
 38 46  1  0  0  0
 38 47  1  0  0  0
 39 64  1  0  0  0
 39 67  2  0  0  0
 40 52  1  0  0  0
 40 53  2  0  0  0
 40 58  1  0  0  0
 41111  1  0  0  0
 41112  1  0  0  0
 41113  1  0  0  0
 41 48  1  0  0  0
 42 43  1  0  0  0
 42 66  1  0  0  0
 42114  1  0  0  0
 42115  1  0  0  0
 43 44  1  0  0  0
 44116  1  0  0  0
 45 46  2  0  0  0
 45117  1  0  0  0
 46118  1  0  0  0
 47119  1  0  0  0
 47120  1  0  0  0
 48 56  1  0  0  0
 48 65  1  0  0  0
 48121  1  0  0  0
 49 50  1  0  0  0
 49 53  1  0  0  0
 49 64  1  0  0  0
 49122  1  0  0  0
 50 51  1  0  0  0
 50123  1  0  0  0
 50124  1  0  0  0
 51 52  1  0  0  0
 51125  1  0  0  0
 51126  1  0  0  0
 52127  1  0  0  0
 52128  1  0  0  0
 53 54  1  0  0  0
 54 55  2  0  0  0
 54129  1  0  0  0
 55 57  1  0  0  0
 55130  1  0  0  0
 56 69  2  0  0  0
 57 58  2  0  0  0
 57131  1  0  0  0
 58132  1  0  0  0
 59 60  1  0  0  0
 59 61  1  0  0  0
 59 62  1  0  0  0
 60133  1  0  0  0
 60134  1  0  0  0
 60135  1  0  0  0
 61136  1  0  0  0
 61137  1  0  0  0
 61138  1  0  0  0
 62139  1  0  0  0
 62140  1  0  0  0
 62141  1  0  0  0
 63 65  1  0  0  0
 63142  1  0  0  0
 63143  1  0  0  0
 63144  1  0  0  0
 64145  1  0  0  0
 65146  1  0  0  0
 68 84  1  0  0  0
 71 72  2  0  0  0
 71 76  1  0  0  0
 71147  1  0  0  0
 72 73  1  0  0  0
 72 83  1  0  0  0
 73 74  2  0  0  0
 73 81  1  0  0  0
 74 75  1  0  0  0
 74 82  1  0  0  0
 75 76  2  0  0  0
 75 85  1  0  0  0
 76 87  1  0  0  0
 77 78  1  0  0  0
 77 79  1  0  0  0
 77148  1  0  0  0
 77149  1  0  0  0
 78 80  1  0  0  0
 78150  1  0  0  0
 78151  1  0  0  0
 79 86  1  0  0  0
 79152  1  0  0  0
 79153  1  0  0  0
 80 84  1  0  0  0
 80 86  1  0  0  0
 80154  1  0  0  0
 81155  1  0  0  0
 81156  1  0  0  0
 81157  1  0  0  0
 82158  1  0  0  0
 82159  1  0  0  0
 82160  1  0  0  0
 83161  1  0  0  0
 83162  1  0  0  0
 83 86  1  0  0  0
 84163  1  0  0  0
 84164  1  0  0  0
 85165  1  0  0  0
 86166  1  0  0  0
M  CHG  1  86   1
M  ISO  4   1 100  68 101  84 101  85 100
M  END
> <chiral flag>
0

> <version>
0

> <s_m_source_file>
/data/baiqing/PycharmProjects/Reinvent-master-3.2/result/LINK_invent/BTK/process_docking_weight1_custom_product_contain_oxygen_bond_distance_aromatic_linkinvent_7_9_3/rearranged_h_0038.sdf

> <i_m_source_file_index>
29

> <r_mmod_Potential_Energy-OPLS-2005>
37216.58203125

> <r_mmod_Stretch_Energy-OPLS-2005>
20792.0546875

> <r_mmod_Bend_Energy-OPLS-2005>
3798.3115234375

> <r_mmod_Torsional_Energy-OPLS-2005>
882.595458984375

> <r_mmod_Improper_Torsional_Energy-OPLS-2005>
94.5028076171875

> <r_mmod_Van_der_Waal_Energy-OPLS-2005>
5806.65087890625

> <r_mmod_Electrostatic_Energy-OPLS-2005>
-323.859436035156

> <r_mmod_Solvation_Energy-OPLS-2005>
-403.631042480469

> <b_mmod_Minimization_Converged-OPLS-2005>
0

> <r_mmod_RMS_Derivative-OPLS-2005>
3.37569141387939

$$$$
29
                    3D
 Structure written by MMmdl.
169178  0  0  1  0            999 V2000
  -30.5712  -14.7593   20.4547 C   0  0  0  0  0  0
  -30.4364  -12.4640   19.4569 C   0  0  0  0  0  0
  -29.5053  -12.4928   18.2246 C   0  0  0  0  0  0
  -28.0332  -12.3109   18.6470 C   0  0  0  0  0  0
  -27.6357  -13.2221   19.8387 C   0  0  2  0  0  0
  -28.6801  -13.1613   20.9720 C   0  0  0  0  0  0
  -25.2494  -13.8174   20.5653 C   0  0  0  0  0  0
  -24.1788  -13.0432   20.9204 C   0  0  0  0  0  0
  -24.6375  -11.6909   20.8770 C   0  0  0  0  0  0
  -23.9063  -10.4290   21.0429 C   0  0  0  0  0  0
  -24.3621   -9.4203   21.9197 C   0  0  0  0  0  0
  -23.6295   -8.2239   22.0759 C   0  0  0  0  0  0
  -22.4281   -8.0283   21.3540 C   0  0  0  0  0  0
  -21.9913   -9.0262   20.4645 C   0  0  0  0  0  0
  -22.7246  -10.2139   20.3062 C   0  0  0  0  0  0
  -21.6853   -6.0743   22.5285 C   0  0  0  0  0  0
  -21.4014   -6.5641   23.8219 C   0  0  0  0  0  0
  -21.3658   -5.6791   24.9176 C   0  0  0  0  0  0
  -21.6035   -4.3053   24.7226 C   0  0  0  0  0  0
  -21.8820   -3.8150   23.4345 C   0  0  0  0  0  0
  -21.9193   -4.6970   22.3402 C   0  0  0  0  0  0
  -22.7815  -13.5222   21.1872 C   0  0  0  0  0  0
  -22.1660   -4.2155   21.0980 F   0  0  0  0  0  0
  -21.5630   -3.4535   25.7738 F   0  0  0  0  0  0
  -29.9732  -13.5224   20.3801 N   0  0  0  0  0  0
  -26.2901  -12.9358   20.3219 N   0  0  0  0  0  0
  -25.9294  -11.6519   20.5744 N   0  0  0  0  0  0
  -22.0452  -12.8220   22.0428 N   0  0  0  0  0  0
  -25.4156  -15.1898   20.4025 N   0  0  0  0  0  0
  -31.7717  -14.8758   20.1858 O   0  0  0  0  0  0
  -21.6632   -6.8889   21.4249 O   0  0  0  0  0  0
  -22.3506  -14.5526   20.6718 O   0  0  0  0  0  0
  -24.6285  -31.8610   23.1981 C   0  0  0  0  0  0
  -25.9117  -32.4796   23.8328 C   0  0  1  0  0  0
  -27.2293  -27.2799   20.1436 C   0  0  0  0  0  0
  -25.5940  -33.8589   24.2276 N   0  0  0  0  0  0
  -23.4240  -30.4768   21.5430 C   0  0  2  0  0  0
  -24.8724  -28.9138   20.1245 C   0  0  0  0  0  0
  -22.7497  -29.4619   22.4966 C   0  0  0  0  0  0
  -18.0293  -28.1423   22.8508 C   0  0  0  0  0  0
  -24.1484  -36.7267   23.2635 C   0  0  0  0  0  0
  -25.9654  -30.7777   21.3719 C   0  0  0  0  0  0
  -26.0430  -29.3964   20.7241 C   0  0  0  0  0  0
  -27.2253  -28.5954   20.7134 C   0  0  0  0  0  0
  -26.0356  -26.8454   19.5333 C   0  0  0  0  0  0
  -24.8746  -27.6451   19.5180 C   0  0  0  0  0  0
  -23.6421  -29.7999   20.1630 C   0  0  0  0  0  0
  -25.4128  -36.3098   24.0323 C   0  0  1  0  0  0
  -20.5889  -28.3720   23.1316 C   0  0  2  0  0  0
  -20.6777  -26.9448   22.5428 C   0  0  0  0  0  0
  -19.5745  -26.6421   21.5241 C   0  0  0  0  0  0
  -18.1931  -26.7969   22.1646 C   0  0  0  0  0  0
  -19.1546  -28.8888   23.2907 C   0  0  0  0  0  0
  -18.9462  -30.1488   23.8922 C   0  0  0  0  0  0
  -17.6459  -30.6626   24.0575 C   0  0  0  0  0  0
  -25.9071  -34.9461   23.5109 C   0  0  0  0  0  0
  -16.5355  -29.9117   23.6340 C   0  0  0  0  0  0
  -16.7271  -28.6528   23.0376 C   0  0  0  0  0  0
  -26.4497  -31.6605   25.0701 C   0  0  0  0  0  0
  -25.3723  -31.3709   26.1421 C   0  0  0  0  0  0
  -27.0340  -30.3028   24.6152 C   0  0  0  0  0  0
  -27.6069  -32.4331   25.7475 C   0  0  0  0  0  0
  -27.5604  -37.1786   24.8472 C   0  0  0  0  0  0
  -21.4207  -29.3050   22.3689 N   0  0  0  0  0  0
  -26.4308  -37.3804   23.9429 N   0  0  0  0  0  0
  -24.6918  -31.0577   22.0937 N   0  0  0  0  0  0
  -23.4193  -28.8170   23.3074 O   0  0  0  0  0  0
  -28.3633  -26.4533   20.0792 O   0  0  0  0  0  0
  -26.5630  -34.8936   22.4667 O   0  0  0  0  0  0
  -23.5442  -32.1416   23.7289 O   0  0  0  0  0  0
  -30.0772  -19.8956   22.2027 C   0  0  0  0  0  0
  -30.6899  -18.7831   22.8015 C   0  0  0  0  0  0
  -29.3788  -19.8084   20.9807 C   0  0  0  0  0  0
  -30.6105  -17.4917   22.2447 C   0  0  0  0  0  0
  -29.2956  -18.4558   20.4067 C   0  0  0  0  0  0
  -29.9289  -17.2725   21.0147 C   0  0  0  0  0  0
  -29.7131  -25.1937   21.5405 C   0  0  0  0  0  0
  -30.2540  -23.8353   22.0110 C   0  0  0  0  0  0
  -28.3865  -23.7450   19.8036 C   0  0  0  0  0  0
  -28.4183  -25.0957   20.7101 C   0  0  2  0  0  0
  -30.5204  -22.8775   20.8307 C   0  0  2  0  0  0
  -31.1739  -16.3504   23.0820 C   0  0  0  0  0  0
  -28.4391  -18.2595   19.1637 C   0  0  0  0  0  0
  -31.5109  -23.4696   19.8077 C   0  0  0  0  0  0
  -28.5854  -21.1426   20.5173 C   0  0  0  0  0  0
  -29.7306  -15.8667   20.5553 N   0  0  0  0  0  0
  -29.2524  -22.5005   20.1550 N   0  3  1  0  0  0
  -31.4725  -12.6099   19.1485 H   0  0  0  0  0  0
  -30.4037  -11.4898   19.9474 H   0  0  0  0  0  0
  -29.7897  -11.7128   17.5166 H   0  0  0  0  0  0
  -29.6197  -13.4423   17.6985 H   0  0  0  0  0  0
  -27.9021  -11.2648   18.9271 H   0  0  0  0  0  0
  -27.3699  -12.4824   17.7984 H   0  0  0  0  0  0
  -27.6251  -14.2381   19.4446 H   0  0  0  0  0  0
  -28.7219  -12.1639   21.4127 H   0  0  0  0  0  0
  -28.4138  -13.8462   21.7793 H   0  0  0  0  0  0
  -25.2773   -9.5669   22.4765 H   0  0  0  0  0  0
  -24.0004   -7.4619   22.7472 H   0  0  0  0  0  0
  -21.0846   -8.8786   19.8944 H   0  0  0  0  0  0
  -22.3720  -10.9682   19.6163 H   0  0  0  0  0  0
  -21.2008   -7.6149   23.9728 H   0  0  0  0  0  0
  -21.1474   -6.0514   25.9077 H   0  0  0  0  0  0
  -22.0602   -2.7614   23.2841 H   0  0  0  0  0  0
  -22.4067  -11.9882   22.4824 H   0  0  0  0  0  0
  -21.1066  -13.1246   22.2626 H   0  0  0  0  0  0
  -24.6383  -15.8337   20.5007 H   0  0  0  0  0  0
  -26.2474  -15.6328   20.0377 H   0  0  0  0  0  0
  -26.7184  -32.5454   23.1072 H   0  0  0  0  0  0
  -25.0096  -33.9724   25.0428 H   0  0  0  0  0  0
  -22.7170  -31.2945   21.3910 H   0  0  0  0  0  0
  -23.3780  -35.9569   23.3305 H   0  0  0  0  0  0
  -24.3554  -36.8884   22.2053 H   0  0  0  0  0  0
  -23.7204  -37.6450   23.6643 H   0  0  0  0  0  0
  -26.0987  -31.5353   20.5985 H   0  0  0  0  0  0
  -26.8463  -30.8368   21.9991 H   0  0  0  0  0  0
  -28.1329  -28.9729   21.1632 H   0  0  0  0  0  0
  -26.0044  -25.8743   19.0618 H   0  0  0  0  0  0
  -23.9787  -27.2683   19.0416 H   0  0  0  0  0  0
  -23.7642  -30.5697   19.4007 H   0  0  0  0  0  0
  -22.7614  -29.2279   19.8647 H   0  0  0  0  0  0
  -25.1296  -36.1948   25.0814 H   0  0  0  0  0  0
  -20.9990  -28.3327   24.1440 H   0  0  0  0  0  0
  -20.5745  -26.2332   23.3631 H   0  0  0  0  0  0
  -21.6642  -26.7516   22.1200 H   0  0  0  0  0  0
  -19.6911  -25.6336   21.1274 H   0  0  0  0  0  0
  -19.6708  -27.3232   20.6770 H   0  0  0  0  0  0
  -17.4218  -26.6762   21.4036 H   0  0  0  0  0  0
  -18.0297  -26.0113   22.9022 H   0  0  0  0  0  0
  -19.7924  -30.7306   24.2332 H   0  0  0  0  0  0
  -17.4998  -31.6303   24.5178 H   0  0  0  0  0  0
  -15.5351  -30.3018   23.7662 H   0  0  0  0  0  0
  -15.8666  -28.0834   22.7121 H   0  0  0  0  0  0
  -24.5916  -30.7047   25.7723 H   0  0  0  0  0  0
  -24.8872  -32.2850   26.4843 H   0  0  0  0  0  0
  -25.8040  -30.8877   27.0191 H   0  0  0  0  0  0
  -26.2905  -29.6785   24.1171 H   0  0  0  0  0  0
  -27.4041  -29.7276   25.4645 H   0  0  0  0  0  0
  -27.8770  -30.4307   23.9360 H   0  0  0  0  0  0
  -27.2705  -33.3644   26.2029 H   0  0  0  0  0  0
  -28.3890  -32.6878   25.0316 H   0  0  0  0  0  0
  -28.0716  -31.8460   26.5410 H   0  0  0  0  0  0
  -28.2602  -38.0109   24.7582 H   0  0  0  0  0  0
  -28.1124  -36.2635   24.6215 H   0  0  0  0  0  0
  -27.2304  -37.1343   25.8870 H   0  0  0  0  0  0
  -20.9414  -29.8698   21.6813 H   0  0  0  0  0  0
  -26.0181  -38.2871   24.1455 H   0  0  0  0  0  0
  -30.1149  -20.8315   22.7413 H   0  0  0  0  0  0
  -31.1826  -18.9234   23.7547 H   0  0  0  0  0  0
  -30.4819  -25.7099   20.9634 H   0  0  0  0  0  0
  -29.5354  -25.8326   22.4053 H   0  0  0  0  0  0
  -29.5534  -23.3812   22.7116 H   0  0  0  0  0  0
  -31.1805  -23.9935   22.5643 H   0  0  0  0  0  0
  -28.7237  -24.0470   18.8130 H   0  0  0  0  0  0
  -27.3505  -23.4406   19.6548 H   0  0  0  0  0  0
  -27.5978  -25.0193   21.4257 H   0  0  0  0  0  0
  -31.0330  -21.9962   21.2020 H   0  0  0  0  0  0
  -31.5094  -16.6932   24.0602 H   0  0  0  0  0  0
  -32.0307  -15.8862   22.5964 H   0  0  0  0  0  0
  -30.4093  -15.5927   23.2586 H   0  0  0  0  0  0
  -28.6715  -19.0088   18.4059 H   0  0  0  0  0  0
  -27.3818  -18.3450   19.4192 H   0  0  0  0  0  0
  -28.5857  -17.2854   18.7005 H   0  0  0  0  0  0
  -31.0944  -24.3072   19.2479 H   0  0  0  0  0  0
  -31.8206  -22.7178   19.0830 H   0  0  0  0  0  0
  -32.4130  -23.8295   20.3018 H   0  0  0  0  0  0
  -27.8793  -21.3555   21.3209 H   0  0  0  0  0  0
  -27.9504  -20.8812   19.6715 H   0  0  0  0  0  0
  -28.7644  -15.6272   20.3991 H   0  0  0  0  0  0
  -29.6038  -22.2384   19.2466 H   0  0  0  0  0  0
  1 25  1  0  0  0
  1 30  2  0  0  0
  1 86  1  0  0  0
  2  3  1  0  0  0
  2 25  1  0  0  0
  2 88  1  0  0  0
  2 89  1  0  0  0
  3  4  1  0  0  0
  3 90  1  0  0  0
  3 91  1  0  0  0
  4  5  1  0  0  0
  4 92  1  0  0  0
  4 93  1  0  0  0
  5  6  1  0  0  0
  5 26  1  0  0  0
  5 94  1  0  0  0
  6 25  1  0  0  0
  6 95  1  0  0  0
  6 96  1  0  0  0
  7  8  2  0  0  0
  7 26  1  0  0  0
  7 29  1  0  0  0
  8  9  1  0  0  0
  8 22  1  0  0  0
  9 10  1  0  0  0
  9 27  2  0  0  0
 10 11  2  0  0  0
 10 15  1  0  0  0
 11 12  1  0  0  0
 11 97  1  0  0  0
 12 13  2  0  0  0
 12 98  1  0  0  0
 13 14  1  0  0  0
 13 31  1  0  0  0
 14 15  2  0  0  0
 14 99  1  0  0  0
 15100  1  0  0  0
 16 17  2  0  0  0
 16 21  1  0  0  0
 16 31  1  0  0  0
 17 18  1  0  0  0
 17101  1  0  0  0
 18 19  2  0  0  0
 18102  1  0  0  0
 19 20  1  0  0  0
 19 24  1  0  0  0
 20 21  2  0  0  0
 20103  1  0  0  0
 21 23  1  0  0  0
 22 28  1  0  0  0
 22 32  2  0  0  0
 26 27  1  0  0  0
 28104  1  0  0  0
 28105  1  0  0  0
 29106  1  0  0  0
 29107  1  0  0  0
 33 34  1  0  0  0
 33 66  1  0  0  0
 33 70  2  0  0  0
 34 36  1  0  0  0
 34 59  1  0  0  0
 34108  1  0  0  0
 35 44  2  0  0  0
 35 45  1  0  0  0
 35 68  1  0  0  0
 36 56  1  0  0  0
 36109  1  0  0  0
 37 39  1  0  0  0
 37 47  1  0  0  0
 37 66  1  0  0  0
 37110  1  0  0  0
 38 43  2  0  0  0
 38 46  1  0  0  0
 38 47  1  0  0  0
 39 64  1  0  0  0
 39 67  2  0  0  0
 40 52  1  0  0  0
 40 53  2  0  0  0
 40 58  1  0  0  0
 41111  1  0  0  0
 41112  1  0  0  0
 41113  1  0  0  0
 41 48  1  0  0  0
 42 43  1  0  0  0
 42 66  1  0  0  0
 42114  1  0  0  0
 42115  1  0  0  0
 43 44  1  0  0  0
 44116  1  0  0  0
 45 46  2  0  0  0
 45117  1  0  0  0
 46118  1  0  0  0
 47119  1  0  0  0
 47120  1  0  0  0
 48 56  1  0  0  0
 48 65  1  0  0  0
 48121  1  0  0  0
 49 50  1  0  0  0
 49 53  1  0  0  0
 49 64  1  0  0  0
 49122  1  0  0  0
 50 51  1  0  0  0
 50123  1  0  0  0
 50124  1  0  0  0
 51 52  1  0  0  0
 51125  1  0  0  0
 51126  1  0  0  0
 52127  1  0  0  0
 52128  1  0  0  0
 53 54  1  0  0  0
 54 55  2  0  0  0
 54129  1  0  0  0
 55 57  1  0  0  0
 55130  1  0  0  0
 56 69  2  0  0  0
 57 58  2  0  0  0
 57131  1  0  0  0
 58132  1  0  0  0
 59 60  1  0  0  0
 59 61  1  0  0  0
 59 62  1  0  0  0
 60133  1  0  0  0
 60134  1  0  0  0
 60135  1  0  0  0
 61136  1  0  0  0
 61137  1  0  0  0
 61138  1  0  0  0
 62139  1  0  0  0
 62140  1  0  0  0
 62141  1  0  0  0
 63 65  1  0  0  0
 63142  1  0  0  0
 63143  1  0  0  0
 63144  1  0  0  0
 64145  1  0  0  0
 65146  1  0  0  0
 68 80  1  0  0  0
 71 72  2  0  0  0
 71 73  1  0  0  0
 71147  1  0  0  0
 72 74  1  0  0  0
 72148  1  0  0  0
 73 75  2  0  0  0
 73 85  1  0  0  0
 74 76  2  0  0  0
 74 82  1  0  0  0
 75 76  1  0  0  0
 75 83  1  0  0  0
 76 86  1  0  0  0
 77 78  1  0  0  0
 77 80  1  0  0  0
 77149  1  0  0  0
 77150  1  0  0  0
 78 81  1  0  0  0
 78151  1  0  0  0
 78152  1  0  0  0
 79 80  1  0  0  0
 79 87  1  0  0  0
 79153  1  0  0  0
 79154  1  0  0  0
 80155  1  0  0  0
 81 84  1  0  0  0
 81 87  1  0  0  0
 81156  1  0  0  0
 82157  1  0  0  0
 82158  1  0  0  0
 82159  1  0  0  0
 83160  1  0  0  0
 83161  1  0  0  0
 83162  1  0  0  0
 84163  1  0  0  0
 84164  1  0  0  0
 84165  1  0  0  0
 85166  1  0  0  0
 85167  1  0  0  0
 85 87  1  0  0  0
 86168  1  0  0  0
 87169  1  0  0  0
M  CHG  1  87   1
M  ISO  4   1 100  68 101  80 101  86 100
M  END
> <chiral flag>
0

> <version>
0

> <s_m_source_file>
/data/baiqing/PycharmProjects/Reinvent-master-3.2/result/LINK_invent/BTK/process_docking_weight1_custom_product_contain_oxygen_bond_distance_aromatic_linkinvent_7_9_3/rearranged_h_0038.sdf

> <i_m_source_file_index>
30

> <r_mmod_Potential_Energy-OPLS-2005>
176.122024536133

> <r_mmod_Stretch_Energy-OPLS-2005>
141.221740722656

> <r_mmod_Bend_Energy-OPLS-2005>
208.159912109375

> <r_mmod_Torsional_Energy-OPLS-2005>
310.971160888672

> <r_mmod_Improper_Torsional_Energy-OPLS-2005>
9.74515056610107

> <r_mmod_Van_der_Waal_Energy-OPLS-2005>
141.163543701172

> <r_mmod_Electrostatic_Energy-OPLS-2005>
-298.761169433594

> <r_mmod_Solvation_Energy-OPLS-2005>
-417.077056884766

> <b_mmod_Minimization_Converged-OPLS-2005>
0

> <r_mmod_RMS_Derivative-OPLS-2005>
3.26955723762512

$$$$
30
                    3D
 Structure written by MMmdl.
167176  0  0  1  0            999 V2000
  -30.5904  -14.7723   20.4049 C   0  0  0  0  0  0
  -30.4321  -12.4506   19.4822 C   0  0  0  0  0  0
  -29.5132  -12.4575   18.2379 C   0  0  0  0  0  0
  -28.0312  -12.3305   18.6353 C   0  0  0  0  0  0
  -27.6410  -13.2290   19.8432 C   0  0  2  0  0  0
  -28.6861  -13.1763   20.9791 C   0  0  0  0  0  0
  -25.2563  -13.8201   20.5724 C   0  0  0  0  0  0
  -24.1824  -13.0457   20.9165 C   0  0  0  0  0  0
  -24.6384  -11.6924   20.8678 C   0  0  0  0  0  0
  -23.9042  -10.4317   21.0387 C   0  0  0  0  0  0
  -24.3620   -9.4249   21.9170 C   0  0  0  0  0  0
  -23.6300   -8.2273   22.0759 C   0  0  0  0  0  0
  -22.4293   -8.0299   21.3542 C   0  0  0  0  0  0
  -21.9899   -9.0257   20.4644 C   0  0  0  0  0  0
  -22.7205  -10.2154   20.3058 C   0  0  0  0  0  0
  -21.6861   -6.0726   22.5269 C   0  0  0  0  0  0
  -21.4021   -6.5625   23.8210 C   0  0  0  0  0  0
  -21.3654   -5.6779   24.9157 C   0  0  0  0  0  0
  -21.6041   -4.3029   24.7207 C   0  0  0  0  0  0
  -21.8821   -3.8130   23.4318 C   0  0  0  0  0  0
  -21.9203   -4.6948   22.3374 C   0  0  0  0  0  0
  -22.7855  -13.5271   21.1796 C   0  0  0  0  0  0
  -22.1686   -4.2141   21.0952 F   0  0  0  0  0  0
  -21.5609   -3.4507   25.7694 F   0  0  0  0  0  0
  -29.9845  -13.5304   20.3949 N   0  0  0  0  0  0
  -26.2954  -12.9396   20.3257 N   0  0  0  0  0  0
  -25.9322  -11.6532   20.5696 N   0  0  0  0  0  0
  -22.0511  -12.8295   22.0381 N   0  0  0  0  0  0
  -25.4257  -15.1943   20.4234 N   0  0  0  0  0  0
  -31.7757  -14.8699   20.0762 O   0  0  0  0  0  0
  -21.6672   -6.8886   21.4244 O   0  0  0  0  0  0
  -22.3543  -14.5566   20.6621 O   0  0  0  0  0  0
  -24.6312  -31.8546   23.1917 C   0  0  0  0  0  0
  -25.9131  -32.4762   23.8275 C   0  0  1  0  0  0
  -27.2226  -27.2625   20.1362 C   0  0  0  0  0  0
  -25.5911  -33.8556   24.2249 N   0  0  0  0  0  0
  -23.4301  -30.4716   21.5376 C   0  0  2  0  0  0
  -24.8780  -28.9138   20.1131 C   0  0  0  0  0  0
  -22.7508  -29.4573   22.4895 C   0  0  0  0  0  0
  -18.0295  -28.1394   22.8480 C   0  0  0  0  0  0
  -24.1474  -36.7290   23.2627 C   0  0  0  0  0  0
  -25.9736  -30.7730   21.3637 C   0  0  0  0  0  0
  -26.0509  -29.3887   20.7183 C   0  0  0  0  0  0
  -27.2308  -28.5769   20.7138 C   0  0  0  0  0  0
  -26.0309  -26.8494   19.5102 C   0  0  0  0  0  0
  -24.8723  -27.6522   19.4959 C   0  0  0  0  0  0
  -23.6482  -29.7999   20.1556 C   0  0  0  0  0  0
  -25.4102  -36.3094   24.0330 C   0  0  1  0  0  0
  -20.5908  -28.3688   23.1267 C   0  0  2  0  0  0
  -20.6789  -26.9400   22.5414 C   0  0  0  0  0  0
  -19.5756  -26.6378   21.5220 C   0  0  0  0  0  0
  -18.1934  -26.7926   22.1637 C   0  0  0  0  0  0
  -19.1560  -28.8860   23.2878 C   0  0  0  0  0  0
  -18.9469  -30.1461   23.8888 C   0  0  0  0  0  0
  -17.6469  -30.6582   24.0564 C   0  0  0  0  0  0
  -25.9046  -34.9459   23.5108 C   0  0  0  0  0  0
  -16.5356  -29.9084   23.6326 C   0  0  0  0  0  0
  -16.7291  -28.6514   23.0331 C   0  0  0  0  0  0
  -26.4503  -31.6550   25.0629 C   0  0  0  0  0  0
  -25.3726  -31.3707   26.1355 C   0  0  0  0  0  0
  -27.0296  -30.2956   24.6039 C   0  0  0  0  0  0
  -27.6074  -32.4235   25.7435 C   0  0  0  0  0  0
  -27.5600  -37.1797   24.8450 C   0  0  0  0  0  0
  -21.4228  -29.3031   22.3659 N   0  0  0  0  0  0
  -26.4285  -37.3794   23.9423 N   0  0  0  0  0  0
  -24.6989  -31.0479   22.0902 N   0  0  0  0  0  0
  -23.4206  -28.8104   23.2998 O   0  0  0  0  0  0
  -28.3050  -26.3589   20.1216 O   0  0  0  0  0  0
  -26.5639  -34.8943   22.4691 O   0  0  0  0  0  0
  -23.5460  -32.1356   23.7195 O   0  0  0  0  0  0
  -29.8603  -18.6731   17.9547 C   0  0  0  0  0  0
  -29.4548  -18.5152   20.6805 C   0  0  0  0  0  0
  -29.5219  -19.8559   18.6447 C   0  0  0  0  0  0
  -29.9547  -17.4095   18.5798 C   0  0  0  0  0  0
  -29.2930  -19.8294   20.0437 C   0  0  0  0  0  0
  -29.7960  -17.2704   19.9878 C   0  0  0  0  0  0
  -28.1814  -23.6455   20.2863 C   0  0  0  0  0  0
  -30.6510  -25.1049   21.8379 C   0  0  0  0  0  0
  -31.0875  -23.6372   21.7494 C   0  0  0  0  0  0
  -29.1644  -25.2685   22.1661 C   0  0  0  0  0  0
  -30.5333  -22.8843   20.5276 C   0  0  0  0  0  0
  -28.2124  -25.1196   20.9633 C   0  0  1  0  0  0
  -29.3334  -21.1112   17.8058 C   0  0  0  0  0  0
  -30.1081  -16.2198   17.6470 C   0  0  0  0  0  0
  -28.7224  -21.1290   20.8083 C   0  0  0  0  0  0
  -29.0886  -22.6117   20.5533 N   0  0  0  0  0  0
  -29.8066  -15.9095   20.6277 N   0  0  0  0  0  0
  -27.1733  -23.3870   19.6227 O   0  0  0  0  0  0
  -31.4708  -12.5725   19.1736 H   0  0  0  0  0  0
  -30.3824  -11.4834   19.9880 H   0  0  0  0  0  0
  -29.7867  -11.6412   17.5694 H   0  0  0  0  0  0
  -29.6679  -13.3647   17.6581 H   0  0  0  0  0  0
  -27.8500  -11.2827   18.8802 H   0  0  0  0  0  0
  -27.3929  -12.5463   17.7754 H   0  0  0  0  0  0
  -27.6311  -14.2477   19.4542 H   0  0  0  0  0  0
  -28.7279  -12.1797   21.4255 H   0  0  0  0  0  0
  -28.4218  -13.8650   21.7852 H   0  0  0  0  0  0
  -25.2783   -9.5683   22.4716 H   0  0  0  0  0  0
  -23.9984   -7.4657   22.7484 H   0  0  0  0  0  0
  -21.0809   -8.8757   19.8970 H   0  0  0  0  0  0
  -22.3650  -10.9680   19.6155 H   0  0  0  0  0  0
  -21.2077   -7.6142   23.9706 H   0  0  0  0  0  0
  -21.1467   -6.0516   25.9063 H   0  0  0  0  0  0
  -22.0624   -2.7588   23.2829 H   0  0  0  0  0  0
  -22.4101  -11.9947   22.4768 H   0  0  0  0  0  0
  -21.1133  -13.1335   22.2574 H   0  0  0  0  0  0
  -24.6600  -15.8485   20.5400 H   0  0  0  0  0  0
  -26.2870  -15.6377   20.1280 H   0  0  0  0  0  0
  -26.7196  -32.5442   23.1024 H   0  0  0  0  0  0
  -25.0015  -33.9656   25.0358 H   0  0  0  0  0  0
  -22.7278  -31.2939   21.3875 H   0  0  0  0  0  0
  -23.3764  -35.9591   23.3230 H   0  0  0  0  0  0
  -24.3578  -36.8960   22.2051 H   0  0  0  0  0  0
  -23.7164  -37.6451   23.6671 H   0  0  0  0  0  0
  -26.0858  -31.5219   20.5774 H   0  0  0  0  0  0
  -26.8636  -30.8443   21.9785 H   0  0  0  0  0  0
  -28.1369  -28.9334   21.1851 H   0  0  0  0  0  0
  -25.9905  -25.8746   19.0456 H   0  0  0  0  0  0
  -23.9762  -27.2814   19.0169 H   0  0  0  0  0  0
  -23.7706  -30.5724   19.3965 H   0  0  0  0  0  0
  -22.7666  -29.2313   19.8533 H   0  0  0  0  0  0
  -25.1267  -36.1971   25.0821 H   0  0  0  0  0  0
  -21.0015  -28.3269   24.1385 H   0  0  0  0  0  0
  -20.5668  -26.2286   23.3617 H   0  0  0  0  0  0
  -21.6653  -26.7393   22.1222 H   0  0  0  0  0  0
  -19.6908  -25.6297   21.1215 H   0  0  0  0  0  0
  -19.6686  -27.3214   20.6771 H   0  0  0  0  0  0
  -17.4201  -26.6664   21.4050 H   0  0  0  0  0  0
  -18.0332  -26.0079   22.9041 H   0  0  0  0  0  0
  -19.7947  -30.7296   24.2225 H   0  0  0  0  0  0
  -17.5007  -31.6245   24.5194 H   0  0  0  0  0  0
  -15.5353  -30.2978   23.7631 H   0  0  0  0  0  0
  -15.8703  -28.0839   22.7006 H   0  0  0  0  0  0
  -24.5906  -30.7055   25.7681 H   0  0  0  0  0  0
  -24.8916  -32.2884   26.4742 H   0  0  0  0  0  0
  -25.8032  -30.8902   27.0142 H   0  0  0  0  0  0
  -26.2835  -29.6734   24.1074 H   0  0  0  0  0  0
  -27.4025  -29.7176   25.4501 H   0  0  0  0  0  0
  -27.8697  -30.4237   23.9206 H   0  0  0  0  0  0
  -27.2730  -33.3558   26.2003 H   0  0  0  0  0  0
  -28.3929  -32.6735   25.0287 H   0  0  0  0  0  0
  -28.0676  -31.8317   26.5359 H   0  0  0  0  0  0
  -28.2574  -38.0145   24.7598 H   0  0  0  0  0  0
  -28.1151  -36.2685   24.6160 H   0  0  0  0  0  0
  -27.2334  -37.1306   25.8854 H   0  0  0  0  0  0
  -20.9378  -29.8780   21.6908 H   0  0  0  0  0  0
  -26.0176  -38.2863   24.1467 H   0  0  0  0  0  0
  -29.9824  -18.7244   16.8814 H   0  0  0  0  0  0
  -29.2666  -18.4555   21.7450 H   0  0  0  0  0  0
  -30.9064  -25.6448   20.9246 H   0  0  0  0  0  0
  -31.2288  -25.5828   22.6313 H   0  0  0  0  0  0
  -30.8489  -23.1123   22.6751 H   0  0  0  0  0  0
  -32.1765  -23.6252   21.6912 H   0  0  0  0  0  0
  -29.0027  -26.2536   22.6089 H   0  0  0  0  0  0
  -28.8883  -24.5579   22.9450 H   0  0  0  0  0  0
  -31.0776  -21.9452   20.4211 H   0  0  0  0  0  0
  -30.7685  -23.4501   19.6232 H   0  0  0  0  0  0
  -27.2212  -25.1707   21.4204 H   0  0  0  0  0  0
  -29.4721  -20.9034   16.7433 H   0  0  0  0  0  0
  -30.0591  -21.8762   18.0703 H   0  0  0  0  0  0
  -28.3273  -21.5145   17.9252 H   0  0  0  0  0  0
  -29.8901  -16.4922   16.6148 H   0  0  0  0  0  0
  -29.3795  -15.4606   17.9169 H   0  0  0  0  0  0
  -31.1130  -15.7986   17.6767 H   0  0  0  0  0  0
  -28.9014  -20.9698   21.8732 H   0  0  0  0  0  0
  -27.6388  -21.0488   20.7136 H   0  0  0  0  0  0
  -28.9831  -15.7027   21.1710 H   0  0  0  0  0  0
  1 25  1  0  0  0
  1 30  2  0  0  0
  1 87  1  0  0  0
  2  3  1  0  0  0
  2 25  1  0  0  0
  2 89  1  0  0  0
  2 90  1  0  0  0
  3  4  1  0  0  0
  3 91  1  0  0  0
  3 92  1  0  0  0
  4  5  1  0  0  0
  4 93  1  0  0  0
  4 94  1  0  0  0
  5  6  1  0  0  0
  5 26  1  0  0  0
  5 95  1  0  0  0
  6 25  1  0  0  0
  6 96  1  0  0  0
  6 97  1  0  0  0
  7  8  2  0  0  0
  7 26  1  0  0  0
  7 29  1  0  0  0
  8  9  1  0  0  0
  8 22  1  0  0  0
  9 10  1  0  0  0
  9 27  2  0  0  0
 10 11  2  0  0  0
 10 15  1  0  0  0
 11 12  1  0  0  0
 11 98  1  0  0  0
 12 13  2  0  0  0
 12 99  1  0  0  0
 13 14  1  0  0  0
 13 31  1  0  0  0
 14 15  2  0  0  0
 14100  1  0  0  0
 15101  1  0  0  0
 16 17  2  0  0  0
 16 21  1  0  0  0
 16 31  1  0  0  0
 17 18  1  0  0  0
 17102  1  0  0  0
 18 19  2  0  0  0
 18103  1  0  0  0
 19 20  1  0  0  0
 19 24  1  0  0  0
 20 21  2  0  0  0
 20104  1  0  0  0
 21 23  1  0  0  0
 22 28  1  0  0  0
 22 32  2  0  0  0
 26 27  1  0  0  0
 28105  1  0  0  0
 28106  1  0  0  0
 29107  1  0  0  0
 29108  1  0  0  0
 33 34  1  0  0  0
 33 66  1  0  0  0
 33 70  2  0  0  0
 34 36  1  0  0  0
 34 59  1  0  0  0
 34109  1  0  0  0
 35 44  2  0  0  0
 35 45  1  0  0  0
 35 68  1  0  0  0
 36 56  1  0  0  0
 36110  1  0  0  0
 37 39  1  0  0  0
 37 47  1  0  0  0
 37 66  1  0  0  0
 37111  1  0  0  0
 38 43  2  0  0  0
 38 46  1  0  0  0
 38 47  1  0  0  0
 39 64  1  0  0  0
 39 67  2  0  0  0
 40 52  1  0  0  0
 40 53  2  0  0  0
 40 58  1  0  0  0
 41112  1  0  0  0
 41113  1  0  0  0
 41114  1  0  0  0
 41 48  1  0  0  0
 42 43  1  0  0  0
 42 66  1  0  0  0
 42115  1  0  0  0
 42116  1  0  0  0
 43 44  1  0  0  0
 44117  1  0  0  0
 45 46  2  0  0  0
 45118  1  0  0  0
 46119  1  0  0  0
 47120  1  0  0  0
 47121  1  0  0  0
 48 56  1  0  0  0
 48 65  1  0  0  0
 48122  1  0  0  0
 49 50  1  0  0  0
 49 53  1  0  0  0
 49 64  1  0  0  0
 49123  1  0  0  0
 50 51  1  0  0  0
 50124  1  0  0  0
 50125  1  0  0  0
 51 52  1  0  0  0
 51126  1  0  0  0
 51127  1  0  0  0
 52128  1  0  0  0
 52129  1  0  0  0
 53 54  1  0  0  0
 54 55  2  0  0  0
 54130  1  0  0  0
 55 57  1  0  0  0
 55131  1  0  0  0
 56 69  2  0  0  0
 57 58  2  0  0  0
 57132  1  0  0  0
 58133  1  0  0  0
 59 60  1  0  0  0
 59 61  1  0  0  0
 59 62  1  0  0  0
 60134  1  0  0  0
 60135  1  0  0  0
 60136  1  0  0  0
 61137  1  0  0  0
 61138  1  0  0  0
 61139  1  0  0  0
 62140  1  0  0  0
 62141  1  0  0  0
 62142  1  0  0  0
 63 65  1  0  0  0
 63143  1  0  0  0
 63144  1  0  0  0
 63145  1  0  0  0
 64146  1  0  0  0
 65147  1  0  0  0
 68 82  1  0  0  0
 71 73  2  0  0  0
 71 74  1  0  0  0
 71148  1  0  0  0
 72 75  2  0  0  0
 72 76  1  0  0  0
 72149  1  0  0  0
 73 75  1  0  0  0
 73 83  1  0  0  0
 74 76  2  0  0  0
 74 84  1  0  0  0
 75 85  1  0  0  0
 76 87  1  0  0  0
 77 82  1  0  0  0
 77 86  1  0  0  0
 77 88  2  0  0  0
 78 79  1  0  0  0
 78 80  1  0  0  0
 78150  1  0  0  0
 78151  1  0  0  0
 79 81  1  0  0  0
 79152  1  0  0  0
 79153  1  0  0  0
 80 82  1  0  0  0
 80154  1  0  0  0
 80155  1  0  0  0
 81 86  1  0  0  0
 81156  1  0  0  0
 81157  1  0  0  0
 82158  1  0  0  0
 83159  1  0  0  0
 83160  1  0  0  0
 83161  1  0  0  0
 84162  1  0  0  0
 84163  1  0  0  0
 84164  1  0  0  0
 85 86  1  0  0  0
 85165  1  0  0  0
 85166  1  0  0  0
 87167  1  0  0  0
M  ISO  4   1 100  68 101  82 101  87 100
M  END
> <chiral flag>
0

> <version>
0

> <s_m_source_file>
/data/baiqing/PycharmProjects/Reinvent-master-3.2/result/LINK_invent/BTK/process_docking_weight1_custom_product_contain_oxygen_bond_distance_aromatic_linkinvent_7_9_3/rearranged_h_0038.sdf

> <i_m_source_file_index>
31

> <r_mmod_Potential_Energy-OPLS-2005>
341.088134765625

> <r_mmod_Stretch_Energy-OPLS-2005>
149.313613891602

> <r_mmod_Bend_Energy-OPLS-2005>
198.553466796875

> <r_mmod_Torsional_Energy-OPLS-2005>
334.378082275391

> <r_mmod_Improper_Torsional_Energy-OPLS-2005>
8.5549955368042

> <r_mmod_Van_der_Waal_Energy-OPLS-2005>
132.295989990234

> <r_mmod_Electrostatic_Energy-OPLS-2005>
-356.000823974609

> <r_mmod_Solvation_Energy-OPLS-2005>
-218.217269897461

> <b_mmod_Minimization_Converged-OPLS-2005>
0

> <r_mmod_RMS_Derivative-OPLS-2005>
4.86446666717529

$$$$
31
                    3D
 Structure written by MMmdl.
164173  0  0  1  0            999 V2000
  -30.5711  -14.6527   20.5077 C   0  0  0  0  0  0
  -30.4492  -12.4071   19.4396 C   0  0  0  0  0  0
  -29.5074  -12.5184   18.2178 C   0  0  0  0  0  0
  -28.0273  -12.3553   18.6232 C   0  0  0  0  0  0
  -27.6519  -13.1989   19.8674 C   0  0  2  0  0  0
  -28.6986  -13.0278   20.9911 C   0  0  0  0  0  0
  -25.2554  -13.8124   20.5611 C   0  0  0  0  0  0
  -24.1815  -13.0430   20.9190 C   0  0  0  0  0  0
  -24.6369  -11.6891   20.8757 C   0  0  0  0  0  0
  -23.9024  -10.4291   21.0415 C   0  0  0  0  0  0
  -24.3600   -9.4214   21.9183 C   0  0  0  0  0  0
  -23.6305   -8.2240   22.0734 C   0  0  0  0  0  0
  -22.4282   -8.0279   21.3523 C   0  0  0  0  0  0
  -21.9895   -9.0246   20.4621 C   0  0  0  0  0  0
  -22.7205  -10.2136   20.3052 C   0  0  0  0  0  0
  -21.6845   -6.0731   22.5280 C   0  0  0  0  0  0
  -21.4001   -6.5630   23.8212 C   0  0  0  0  0  0
  -21.3664   -5.6774   24.9171 C   0  0  0  0  0  0
  -21.6056   -4.3042   24.7215 C   0  0  0  0  0  0
  -21.8829   -3.8134   23.4338 C   0  0  0  0  0  0
  -21.9190   -4.6958   22.3392 C   0  0  0  0  0  0
  -22.7844  -13.5240   21.1864 C   0  0  0  0  0  0
  -22.1665   -4.2139   21.0976 F   0  0  0  0  0  0
  -21.5643   -3.4531   25.7733 F   0  0  0  0  0  0
  -30.0093  -13.4040   20.4343 N   0  0  0  0  0  0
  -26.2963  -12.9264   20.3296 N   0  0  0  0  0  0
  -25.9282  -11.6445   20.5753 N   0  0  0  0  0  0
  -22.0478  -12.8233   22.0432 N   0  0  0  0  0  0
  -25.4246  -15.1829   20.3871 N   0  0  0  0  0  0
  -31.7325  -14.8637   20.1428 O   0  0  0  0  0  0
  -21.6639   -6.8881   21.4240 O   0  0  0  0  0  0
  -22.3539  -14.5561   20.6731 O   0  0  0  0  0  0
  -24.6241  -31.8599   23.2028 C   0  0  0  0  0  0
  -25.9092  -32.4784   23.8367 C   0  0  1  0  0  0
  -27.2395  -27.3343   20.1149 C   0  0  0  0  0  0
  -25.5918  -33.8592   24.2273 N   0  0  0  0  0  0
  -23.4177  -30.4804   21.5448 C   0  0  2  0  0  0
  -24.8656  -28.9326   20.1171 C   0  0  0  0  0  0
  -22.7472  -29.4609   22.4951 C   0  0  0  0  0  0
  -18.0276  -28.1368   22.8508 C   0  0  0  0  0  0
  -24.1488  -36.7283   23.2621 C   0  0  0  0  0  0
  -25.9555  -30.7961   21.3709 C   0  0  0  0  0  0
  -26.0323  -29.4256   20.7126 C   0  0  0  0  0  0
  -27.2189  -28.6378   20.6984 C   0  0  0  0  0  0
  -26.0388  -26.8759   19.5255 C   0  0  0  0  0  0
  -24.8681  -27.6617   19.5214 C   0  0  0  0  0  0
  -23.6320  -29.8092   20.1627 C   0  0  0  0  0  0
  -25.4107  -36.3085   24.0319 C   0  0  1  0  0  0
  -20.5880  -28.3672   23.1298 C   0  0  2  0  0  0
  -20.6767  -26.9401   22.5413 C   0  0  0  0  0  0
  -19.5731  -26.6369   21.5235 C   0  0  0  0  0  0
  -18.1917  -26.7908   22.1644 C   0  0  0  0  0  0
  -19.1530  -28.8834   23.2898 C   0  0  0  0  0  0
  -18.9449  -30.1435   23.8913 C   0  0  0  0  0  0
  -17.6450  -30.6581   24.0552 C   0  0  0  0  0  0
  -25.9062  -34.9453   23.5099 C   0  0  0  0  0  0
  -16.5340  -29.9073   23.6331 C   0  0  0  0  0  0
  -16.7261  -28.6478   23.0379 C   0  0  0  0  0  0
  -26.4480  -31.6604   25.0734 C   0  0  0  0  0  0
  -25.3722  -31.3784   26.1477 C   0  0  0  0  0  0
  -27.0286  -30.3007   24.6201 C   0  0  0  0  0  0
  -27.6042  -32.4345   25.7489 C   0  0  0  0  0  0
  -27.5607  -37.1751   24.8420 C   0  0  0  0  0  0
  -21.4186  -29.3026   22.3700 N   0  0  0  0  0  0
  -26.4261  -37.3811   23.9458 N   0  0  0  0  0  0
  -24.6838  -31.0634   22.0966 N   0  0  0  0  0  0
  -23.4190  -28.8147   23.3041 O   0  0  0  0  0  0
  -28.4079  -26.5567   20.1622 O   0  0  0  0  0  0
  -26.5647  -34.8926   22.4677 O   0  0  0  0  0  0
  -23.5404  -32.1381   23.7367 O   0  0  0  0  0  0
  -30.0395  -19.3421   21.7038 C   0  0  0  0  0  0
  -29.1165  -19.9836   20.8287 C   0  0  0  0  0  0
  -28.5352  -19.1491   19.8255 C   0  0  0  0  0  0
  -29.6937  -17.0999   20.7059 C   0  0  0  0  0  0
  -30.3175  -17.9444   21.6607 C   0  0  0  0  0  0
  -28.8212  -17.7406   19.7758 C   0  0  0  0  0  0
  -28.3051  -24.0334   20.7167 C   0  0  0  0  0  0
  -27.7597  -24.2447   21.9297 C   0  0  0  0  0  0
  -30.8937  -24.2256   19.8309 C   0  0  0  0  0  0
  -29.8980  -25.0408   18.9843 C   0  0  0  0  0  0
  -30.4149  -22.7692   20.0484 C   0  0  0  0  0  0
  -28.5087  -25.1695   19.6537 C   0  0  2  0  0  0
  -27.5190  -19.7204   18.8393 C   0  0  0  0  0  0
  -28.6139  -21.4473   21.1700 C   0  0  0  0  0  0
  -29.6871  -15.6422   20.8381 N   0  0  0  0  0  0
  -28.9565  -22.6694   20.3274 N   0  3  1  0  0  0
  -31.3343  -17.2687   22.8857 Cl  0  0  0  0  0  0
  -28.0137  -16.7624   18.5964 Cl  0  0  0  0  0  0
  -31.4811  -12.5742   19.1272 H   0  0  0  0  0  0
  -30.4247  -11.4033   19.8660 H   0  0  0  0  0  0
  -29.7755  -11.7738   17.4680 H   0  0  0  0  0  0
  -29.6447  -13.4911   17.7431 H   0  0  0  0  0  0
  -27.8480  -11.2987   18.8260 H   0  0  0  0  0  0
  -27.3773  -12.6181   17.7860 H   0  0  0  0  0  0
  -27.6733  -14.2354   19.5452 H   0  0  0  0  0  0
  -28.7202  -11.9945   21.3388 H   0  0  0  0  0  0
  -28.4378  -13.6271   21.8639 H   0  0  0  0  0  0
  -25.2747   -9.5690   22.4757 H   0  0  0  0  0  0
  -24.0016   -7.4609   22.7447 H   0  0  0  0  0  0
  -21.0820   -8.8754   19.8931 H   0  0  0  0  0  0
  -22.3654  -10.9682   19.6167 H   0  0  0  0  0  0
  -21.1988   -7.6135   23.9714 H   0  0  0  0  0  0
  -21.1477   -6.0499   25.9072 H   0  0  0  0  0  0
  -22.0607   -2.7599   23.2828 H   0  0  0  0  0  0
  -22.4057  -11.9898   22.4837 H   0  0  0  0  0  0
  -21.1096  -13.1256   22.2638 H   0  0  0  0  0  0
  -24.6347  -15.8158   20.4425 H   0  0  0  0  0  0
  -26.2221  -15.5917   19.9172 H   0  0  0  0  0  0
  -26.7160  -32.5461   23.1125 H   0  0  0  0  0  0
  -25.0075  -33.9753   25.0423 H   0  0  0  0  0  0
  -22.7093  -31.2985   21.3992 H   0  0  0  0  0  0
  -23.3822  -35.9539   23.3136 H   0  0  0  0  0  0
  -24.3625  -36.9069   22.2072 H   0  0  0  0  0  0
  -23.7133  -37.6383   23.6754 H   0  0  0  0  0  0
  -26.0899  -31.5649   20.6089 H   0  0  0  0  0  0
  -26.8334  -30.8397   22.0038 H   0  0  0  0  0  0
  -28.1194  -29.0187   21.1605 H   0  0  0  0  0  0
  -25.9566  -25.8975   19.0819 H   0  0  0  0  0  0
  -23.9675  -27.2651   19.0741 H   0  0  0  0  0  0
  -23.7468  -30.5792   19.3989 H   0  0  0  0  0  0
  -22.7542  -29.2308   19.8682 H   0  0  0  0  0  0
  -25.1277  -36.1907   25.0806 H   0  0  0  0  0  0
  -20.9971  -28.3240   24.1418 H   0  0  0  0  0  0
  -20.5690  -26.2297   23.3621 H   0  0  0  0  0  0
  -21.6632  -26.7450   22.1179 H   0  0  0  0  0  0
  -19.6892  -25.6283   21.1264 H   0  0  0  0  0  0
  -19.6654  -27.3189   20.6773 H   0  0  0  0  0  0
  -17.4197  -26.6674   21.4034 H   0  0  0  0  0  0
  -18.0292  -26.0033   22.9016 H   0  0  0  0  0  0
  -19.7928  -30.7244   24.2283 H   0  0  0  0  0  0
  -17.5006  -31.6268   24.5137 H   0  0  0  0  0  0
  -15.5342  -30.2978   23.7635 H   0  0  0  0  0  0
  -15.8659  -28.0782   22.7116 H   0  0  0  0  0  0
  -24.5800  -30.7254   25.7809 H   0  0  0  0  0  0
  -24.9040  -32.2982   26.4987 H   0  0  0  0  0  0
  -25.8010  -30.8859   27.0211 H   0  0  0  0  0  0
  -26.2834  -29.6787   24.1218 H   0  0  0  0  0  0
  -27.3944  -29.7252   25.4719 H   0  0  0  0  0  0
  -27.8748  -30.4266   23.9438 H   0  0  0  0  0  0
  -27.2654  -33.3675   26.2012 H   0  0  0  0  0  0
  -28.3865  -32.6860   25.0314 H   0  0  0  0  0  0
  -28.0688  -31.8508   26.5447 H   0  0  0  0  0  0
  -28.2462  -38.0206   24.7740 H   0  0  0  0  0  0
  -28.1259  -36.2768   24.5899 H   0  0  0  0  0  0
  -27.2373  -37.0959   25.8812 H   0  0  0  0  0  0
  -20.9360  -29.8751   21.6913 H   0  0  0  0  0  0
  -26.0122  -38.2842   24.1636 H   0  0  0  0  0  0
  -30.4832  -19.9153   22.5059 H   0  0  0  0  0  0
  -27.3896  -25.2253   22.1979 H   0  0  0  0  0  0
  -27.6848  -23.4803   22.6864 H   0  0  0  0  0  0
  -31.0261  -24.7160   20.7979 H   0  0  0  0  0  0
  -31.8766  -24.2230   19.3608 H   0  0  0  0  0  0
  -29.7917  -24.5565   18.0123 H   0  0  0  0  0  0
  -30.3054  -26.0308   18.7739 H   0  0  0  0  0  0
  -30.9924  -22.3258   20.8615 H   0  0  0  0  0  0
  -30.6251  -22.1672   19.1635 H   0  0  0  0  0  0
  -27.7901  -25.0055   18.8532 H   0  0  0  0  0  0
  -27.5147  -20.8069   18.8030 H   0  0  0  0  0  0
  -26.5119  -19.3939   19.1021 H   0  0  0  0  0  0
  -27.7253  -19.3800   17.8234 H   0  0  0  0  0  0
  -28.9545  -21.6579   22.1851 H   0  0  0  0  0  0
  -27.5275  -21.4000   21.2489 H   0  0  0  0  0  0
  -28.7711  -15.2682   21.0250 H   0  0  0  0  0  0
  -28.5676  -22.4342   19.4272 H   0  0  0  0  0  0
  1 25  1  0  0  0
  1 30  2  0  0  0
  1 85  1  0  0  0
  2  3  1  0  0  0
  2 25  1  0  0  0
  2 89  1  0  0  0
  2 90  1  0  0  0
  3  4  1  0  0  0
  3 91  1  0  0  0
  3 92  1  0  0  0
  4  5  1  0  0  0
  4 93  1  0  0  0
  4 94  1  0  0  0
  5  6  1  0  0  0
  5 26  1  0  0  0
  5 95  1  0  0  0
  6 25  1  0  0  0
  6 96  1  0  0  0
  6 97  1  0  0  0
  7  8  2  0  0  0
  7 26  1  0  0  0
  7 29  1  0  0  0
  8  9  1  0  0  0
  8 22  1  0  0  0
  9 10  1  0  0  0
  9 27  2  0  0  0
 10 11  2  0  0  0
 10 15  1  0  0  0
 11 12  1  0  0  0
 11 98  1  0  0  0
 12 13  2  0  0  0
 12 99  1  0  0  0
 13 14  1  0  0  0
 13 31  1  0  0  0
 14 15  2  0  0  0
 14100  1  0  0  0
 15101  1  0  0  0
 16 17  2  0  0  0
 16 21  1  0  0  0
 16 31  1  0  0  0
 17 18  1  0  0  0
 17102  1  0  0  0
 18 19  2  0  0  0
 18103  1  0  0  0
 19 20  1  0  0  0
 19 24  1  0  0  0
 20 21  2  0  0  0
 20104  1  0  0  0
 21 23  1  0  0  0
 22 28  1  0  0  0
 22 32  2  0  0  0
 26 27  1  0  0  0
 28105  1  0  0  0
 28106  1  0  0  0
 29107  1  0  0  0
 29108  1  0  0  0
 33 34  1  0  0  0
 33 66  1  0  0  0
 33 70  2  0  0  0
 34 36  1  0  0  0
 34 59  1  0  0  0
 34109  1  0  0  0
 35 44  2  0  0  0
 35 45  1  0  0  0
 35 68  1  0  0  0
 36 56  1  0  0  0
 36110  1  0  0  0
 37 39  1  0  0  0
 37 47  1  0  0  0
 37 66  1  0  0  0
 37111  1  0  0  0
 38 43  2  0  0  0
 38 46  1  0  0  0
 38 47  1  0  0  0
 39 64  1  0  0  0
 39 67  2  0  0  0
 40 52  1  0  0  0
 40 53  2  0  0  0
 40 58  1  0  0  0
 41112  1  0  0  0
 41113  1  0  0  0
 41114  1  0  0  0
 41 48  1  0  0  0
 42 43  1  0  0  0
 42 66  1  0  0  0
 42115  1  0  0  0
 42116  1  0  0  0
 43 44  1  0  0  0
 44117  1  0  0  0
 45 46  2  0  0  0
 45118  1  0  0  0
 46119  1  0  0  0
 47120  1  0  0  0
 47121  1  0  0  0
 48 56  1  0  0  0
 48 65  1  0  0  0
 48122  1  0  0  0
 49 50  1  0  0  0
 49 53  1  0  0  0
 49 64  1  0  0  0
 49123  1  0  0  0
 50 51  1  0  0  0
 50124  1  0  0  0
 50125  1  0  0  0
 51 52  1  0  0  0
 51126  1  0  0  0
 51127  1  0  0  0
 52128  1  0  0  0
 52129  1  0  0  0
 53 54  1  0  0  0
 54 55  2  0  0  0
 54130  1  0  0  0
 55 57  1  0  0  0
 55131  1  0  0  0
 56 69  2  0  0  0
 57 58  2  0  0  0
 57132  1  0  0  0
 58133  1  0  0  0
 59 60  1  0  0  0
 59 61  1  0  0  0
 59 62  1  0  0  0
 60134  1  0  0  0
 60135  1  0  0  0
 60136  1  0  0  0
 61137  1  0  0  0
 61138  1  0  0  0
 61139  1  0  0  0
 62140  1  0  0  0
 62141  1  0  0  0
 62142  1  0  0  0
 63 65  1  0  0  0
 63143  1  0  0  0
 63144  1  0  0  0
 63145  1  0  0  0
 64146  1  0  0  0
 65147  1  0  0  0
 68 82  1  0  0  0
 71 72  2  0  0  0
 71 75  1  0  0  0
 71148  1  0  0  0
 72 73  1  0  0  0
 72 84  1  0  0  0
 73 76  2  0  0  0
 73 83  1  0  0  0
 74 75  2  0  0  0
 74 76  1  0  0  0
 74 85  1  0  0  0
 75 87  1  0  0  0
 76 88  1  0  0  0
 77 78  2  0  0  0
 77 82  1  0  0  0
 77 86  1  0  0  0
 78149  1  0  0  0
 78150  1  0  0  0
 79 80  1  0  0  0
 79 81  1  0  0  0
 79151  1  0  0  0
 79152  1  0  0  0
 80 82  1  0  0  0
 80153  1  0  0  0
 80154  1  0  0  0
 81 86  1  0  0  0
 81155  1  0  0  0
 81156  1  0  0  0
 82157  1  0  0  0
 83158  1  0  0  0
 83159  1  0  0  0
 83160  1  0  0  0
 84161  1  0  0  0
 84162  1  0  0  0
 84 86  1  0  0  0
 85163  1  0  0  0
 86164  1  0  0  0
M  CHG  1  86   1
M  ISO  4   1 100  68 101  82 101  85 100
M  END
> <chiral flag>
0

> <version>
0

> <s_m_source_file>
/data/baiqing/PycharmProjects/Reinvent-master-3.2/result/LINK_invent/BTK/process_docking_weight1_custom_product_contain_oxygen_bond_distance_aromatic_linkinvent_7_9_3/rearranged_h_0038.sdf

> <i_m_source_file_index>
32

> <r_mmod_Potential_Energy-OPLS-2005>
-55.9912490844727

> <r_mmod_Stretch_Energy-OPLS-2005>
87.5794143676758

> <r_mmod_Bend_Energy-OPLS-2005>
156.71858215332

> <r_mmod_Torsional_Energy-OPLS-2005>
266.743072509766

> <r_mmod_Improper_Torsional_Energy-OPLS-2005>
9.84552669525146

> <r_mmod_Van_der_Waal_Energy-OPLS-2005>
147.126205444336

> <r_mmod_Electrostatic_Energy-OPLS-2005>
-316.635406494141

> <r_mmod_Solvation_Energy-OPLS-2005>
-454.480834960938

> <b_mmod_Minimization_Converged-OPLS-2005>
0

> <r_mmod_RMS_Derivative-OPLS-2005>
3.03235816955566

$$$$
32
                    3D
 Structure written by MMmdl.
169178  0  0  1  0            999 V2000
  -30.7663  -14.4630   20.5108 C   0  0  0  0  0  0
  -30.3936  -12.2860   19.4496 C   0  0  0  0  0  0
  -29.4817  -12.4803   18.2236 C   0  0  0  0  0  0
  -28.0067  -12.3563   18.6382 C   0  0  0  0  0  0
  -27.6543  -13.2250   19.8743 C   0  0  2  0  0  0
  -28.7000  -13.0815   21.0054 C   0  0  0  0  0  0
  -25.2544  -13.8223   20.5714 C   0  0  0  0  0  0
  -24.1820  -13.0471   20.9210 C   0  0  0  0  0  0
  -24.6402  -11.6938   20.8779 C   0  0  0  0  0  0
  -23.9079  -10.4312   21.0424 C   0  0  0  0  0  0
  -24.3626   -9.4217   21.9187 C   0  0  0  0  0  0
  -23.6309   -8.2250   22.0749 C   0  0  0  0  0  0
  -22.4283   -8.0293   21.3546 C   0  0  0  0  0  0
  -21.9920   -9.0273   20.4645 C   0  0  0  0  0  0
  -22.7254  -10.2155   20.3066 C   0  0  0  0  0  0
  -21.6865   -6.0744   22.5273 C   0  0  0  0  0  0
  -21.4016   -6.5646   23.8205 C   0  0  0  0  0  0
  -21.3658   -5.6802   24.9173 C   0  0  0  0  0  0
  -21.6042   -4.3065   24.7224 C   0  0  0  0  0  0
  -21.8827   -3.8153   23.4349 C   0  0  0  0  0  0
  -21.9191   -4.6969   22.3403 C   0  0  0  0  0  0
  -22.7831  -13.5236   21.1876 C   0  0  0  0  0  0
  -22.1667   -4.2149   21.0985 F   0  0  0  0  0  0
  -21.5623   -3.4550   25.7742 F   0  0  0  0  0  0
  -30.0302  -13.3223   20.4324 N   0  0  0  0  0  0
  -26.2997  -12.9427   20.3429 N   0  0  0  0  0  0
  -25.9339  -11.6567   20.5863 N   0  0  0  0  0  0
  -22.0502  -12.8190   22.0430 N   0  0  0  0  0  0
  -25.4254  -15.1942   20.4100 N   0  0  0  0  0  0
  -31.9304  -14.5090   20.1106 O   0  0  0  0  0  0
  -21.6653   -6.8882   21.4236 O   0  0  0  0  0  0
  -22.3489  -14.5535   20.6737 O   0  0  0  0  0  0
  -24.6182  -31.8696   23.2149 C   0  0  0  0  0  0
  -25.9088  -32.4821   23.8431 C   0  0  1  0  0  0
  -27.2077  -27.4202   20.1192 C   0  0  0  0  0  0
  -25.5961  -33.8620   24.2394 N   0  0  0  0  0  0
  -23.4045  -30.4996   21.5521 C   0  0  2  0  0  0
  -24.8488  -28.9720   20.1079 C   0  0  0  0  0  0
  -22.7454  -29.4673   22.4957 C   0  0  0  0  0  0
  -18.0282  -28.1415   22.8494 C   0  0  0  0  0  0
  -24.1471  -36.7282   23.2616 C   0  0  0  0  0  0
  -25.9342  -30.8339   21.3671 C   0  0  0  0  0  0
  -26.0084  -29.4682   20.7176 C   0  0  0  0  0  0
  -27.1949  -28.6984   20.7237 C   0  0  0  0  0  0
  -26.0415  -26.9588   19.4678 C   0  0  0  0  0  0
  -24.8607  -27.7195   19.4746 C   0  0  0  0  0  0
  -23.6157  -29.8436   20.1615 C   0  0  0  0  0  0
  -25.4103  -36.3107   24.0317 C   0  0  1  0  0  0
  -20.5881  -28.3700   23.1313 C   0  0  2  0  0  0
  -20.6777  -26.9431   22.5421 C   0  0  0  0  0  0
  -19.5738  -26.6386   21.5239 C   0  0  0  0  0  0
  -18.1920  -26.7957   22.1637 C   0  0  0  0  0  0
  -19.1536  -28.8866   23.2903 C   0  0  0  0  0  0
  -18.9454  -30.1466   23.8915 C   0  0  0  0  0  0
  -17.6458  -30.6610   24.0575 C   0  0  0  0  0  0
  -25.9038  -34.9458   23.5140 C   0  0  0  0  0  0
  -16.5349  -29.9119   23.6320 C   0  0  0  0  0  0
  -16.7270  -28.6543   23.0348 C   0  0  0  0  0  0
  -26.4526  -31.6560   25.0717 C   0  0  0  0  0  0
  -25.3781  -31.3685   26.1455 C   0  0  0  0  0  0
  -27.0309  -30.2991   24.6045 C   0  0  0  0  0  0
  -27.6165  -32.4189   25.7485 C   0  0  0  0  0  0
  -27.5557  -37.1819   24.8477 C   0  0  0  0  0  0
  -21.4167  -29.3053   22.3703 N   0  0  0  0  0  0
  -26.4289  -37.3805   23.9398 N   0  0  0  0  0  0
  -24.6705  -31.0817   22.1049 N   0  0  0  0  0  0
  -23.4237  -28.8190   23.2965 O   0  0  0  0  0  0
  -28.3226  -26.6124   20.1873 O   0  0  0  0  0  0
  -26.5540  -34.8891   22.4668 O   0  0  0  0  0  0
  -23.5378  -32.1461   23.7553 O   0  0  0  0  0  0
  -30.8674  -19.3477   20.0240 C   0  0  0  0  0  0
  -29.0899  -19.9578   22.0591 C   0  0  0  0  0  0
  -30.6620  -20.7035   20.3598 C   0  0  0  0  0  0
  -30.2322  -18.2816   20.6963 C   0  0  0  0  0  0
  -29.7584  -21.0312   21.4123 C   0  0  0  0  0  0
  -29.3099  -18.6014   21.7223 C   0  0  0  0  0  0
  -28.2454  -25.4773   22.3566 C   0  0  0  0  0  0
  -29.7136  -25.5232   22.8245 C   0  0  0  0  0  0
  -28.9703  -24.2062   20.2246 C   0  0  0  0  0  0
  -28.0879  -25.3338   20.8287 C   0  0  2  0  0  0
  -30.6801  -24.6668   21.9658 C   0  0  2  0  0  0
  -31.4625  -21.7285   19.5673 C   0  0  0  0  0  0
  -31.5493  -25.5548   21.0529 C   0  0  0  0  0  0
  -30.6924  -16.8815   20.2581 C   0  0  0  0  0  0
  -29.4846  -22.4481   21.9707 C   0  0  0  0  0  0
  -30.1218  -15.6182   20.7760 N   0  0  0  0  0  0
  -29.9653  -23.6214   21.1755 N   0  3  1  0  0  0
  -28.4534  -17.3876   22.6059 Cl  0  0  0  0  0  0
  -31.4408  -12.3303   19.1456 H   0  0  0  0  0  0
  -30.2539  -11.2932   19.8814 H   0  0  0  0  0  0
  -29.7157  -11.7422   17.4554 H   0  0  0  0  0  0
  -29.6585  -13.4586   17.7747 H   0  0  0  0  0  0
  -27.8177  -11.3055   18.8598 H   0  0  0  0  0  0
  -27.3540  -12.6121   17.8037 H   0  0  0  0  0  0
  -27.6800  -14.2614   19.5376 H   0  0  0  0  0  0
  -28.6609  -12.0834   21.4443 H   0  0  0  0  0  0
  -28.4859  -13.7788   21.8167 H   0  0  0  0  0  0
  -25.2769   -9.5693   22.4767 H   0  0  0  0  0  0
  -24.0020   -7.4635   22.7458 H   0  0  0  0  0  0
  -21.0849   -8.8800   19.8951 H   0  0  0  0  0  0
  -22.3707  -10.9702   19.6184 H   0  0  0  0  0  0
  -21.2017   -7.6154   23.9711 H   0  0  0  0  0  0
  -21.1468   -6.0533   25.9072 H   0  0  0  0  0  0
  -22.0602   -2.7613   23.2857 H   0  0  0  0  0  0
  -22.4136  -11.9826   22.4764 H   0  0  0  0  0  0
  -21.1131  -13.1197   22.2718 H   0  0  0  0  0  0
  -24.6660  -15.8549   20.5294 H   0  0  0  0  0  0
  -26.2896  -15.6323   20.1161 H   0  0  0  0  0  0
  -26.7151  -32.5520   23.1176 H   0  0  0  0  0  0
  -25.0268  -33.9826   25.0644 H   0  0  0  0  0  0
  -22.6937  -31.3175   21.4199 H   0  0  0  0  0  0
  -23.3731  -35.9612   23.3312 H   0  0  0  0  0  0
  -24.3577  -36.8876   22.2030 H   0  0  0  0  0  0
  -23.7200  -37.6487   23.6604 H   0  0  0  0  0  0
  -26.0412  -31.5941   20.5928 H   0  0  0  0  0  0
  -26.8270  -30.8938   21.9786 H   0  0  0  0  0  0
  -28.0795  -29.0583   21.2304 H   0  0  0  0  0  0
  -26.0286  -25.9999   18.9691 H   0  0  0  0  0  0
  -23.9724  -27.3450   18.9841 H   0  0  0  0  0  0
  -23.7323  -30.6279   19.4122 H   0  0  0  0  0  0
  -22.7377  -29.2732   19.8573 H   0  0  0  0  0  0
  -25.1262  -36.1976   25.0802 H   0  0  0  0  0  0
  -20.9972  -28.3283   24.1437 H   0  0  0  0  0  0
  -20.5728  -26.2311   23.3631 H   0  0  0  0  0  0
  -21.6634  -26.7506   22.1156 H   0  0  0  0  0  0
  -19.6890  -25.6298   21.1264 H   0  0  0  0  0  0
  -19.6675  -27.3187   20.6768 H   0  0  0  0  0  0
  -17.4193  -26.6726   21.4040 H   0  0  0  0  0  0
  -18.0304  -26.0113   22.9036 H   0  0  0  0  0  0
  -19.7928  -30.7296   24.2289 H   0  0  0  0  0  0
  -17.5005  -31.6289   24.5189 H   0  0  0  0  0  0
  -15.5351  -30.3035   23.7632 H   0  0  0  0  0  0
  -15.8667  -28.0880   22.7048 H   0  0  0  0  0  0
  -24.5940  -30.7062   25.7797 H   0  0  0  0  0  0
  -24.8982  -32.2847   26.4907 H   0  0  0  0  0  0
  -25.8102  -30.8831   27.0209 H   0  0  0  0  0  0
  -26.2887  -29.6830   24.0952 H   0  0  0  0  0  0
  -27.3991  -29.7120   25.4462 H   0  0  0  0  0  0
  -27.8752  -30.4350   23.9285 H   0  0  0  0  0  0
  -27.2877  -33.3494   26.2117 H   0  0  0  0  0  0
  -28.3990  -32.6727   25.0314 H   0  0  0  0  0  0
  -28.0835  -31.8220   26.5348 H   0  0  0  0  0  0
  -28.2624  -38.0073   24.7535 H   0  0  0  0  0  0
  -28.0992  -36.2608   24.6301 H   0  0  0  0  0  0
  -27.2274  -37.1520   25.8887 H   0  0  0  0  0  0
  -20.9329  -29.8746   21.6903 H   0  0  0  0  0  0
  -26.0156  -38.2876   24.1404 H   0  0  0  0  0  0
  -31.5698  -19.1056   19.2377 H   0  0  0  0  0  0
  -28.4039  -20.1703   22.8668 H   0  0  0  0  0  0
  -27.7027  -26.3493   22.7233 H   0  0  0  0  0  0
  -27.7578  -24.6253   22.8307 H   0  0  0  0  0  0
  -29.7623  -25.1934   23.8644 H   0  0  0  0  0  0
  -30.0521  -26.5607   22.8399 H   0  0  0  0  0  0
  -29.5083  -24.6162   19.3690 H   0  0  0  0  0  0
  -28.3482  -23.4094   19.8111 H   0  0  0  0  0  0
  -27.0627  -25.0012   20.6653 H   0  0  0  0  0  0
  -31.3792  -24.1582   22.6330 H   0  0  0  0  0  0
  -30.8065  -22.3608   18.9712 H   0  0  0  0  0  0
  -32.0829  -22.3411   20.2208 H   0  0  0  0  0  0
  -32.1413  -21.2481   18.8589 H   0  0  0  0  0  0
  -32.1334  -24.9583   20.3533 H   0  0  0  0  0  0
  -32.2606  -26.1333   21.6422 H   0  0  0  0  0  0
  -30.9578  -26.2670   20.4759 H   0  0  0  0  0  0
  -31.7649  -16.8900   20.4654 H   0  0  0  0  0  0
  -30.6092  -16.8412   19.1698 H   0  0  0  0  0  0
  -29.9403  -22.4722   22.9613 H   0  0  0  0  0  0
  -28.4129  -22.5445   22.1486 H   0  0  0  0  0  0
  -29.1684  -15.6078   21.1045 H   0  0  0  0  0  0
  -30.6799  -23.1930   20.6047 H   0  0  0  0  0  0
  1 25  1  0  0  0
  1 30  2  0  0  0
  1 86  1  0  0  0
  2  3  1  0  0  0
  2 25  1  0  0  0
  2 89  1  0  0  0
  2 90  1  0  0  0
  3  4  1  0  0  0
  3 91  1  0  0  0
  3 92  1  0  0  0
  4  5  1  0  0  0
  4 93  1  0  0  0
  4 94  1  0  0  0
  5  6  1  0  0  0
  5 26  1  0  0  0
  5 95  1  0  0  0
  6 25  1  0  0  0
  6 96  1  0  0  0
  6 97  1  0  0  0
  7  8  2  0  0  0
  7 26  1  0  0  0
  7 29  1  0  0  0
  8  9  1  0  0  0
  8 22  1  0  0  0
  9 10  1  0  0  0
  9 27  2  0  0  0
 10 11  2  0  0  0
 10 15  1  0  0  0
 11 12  1  0  0  0
 11 98  1  0  0  0
 12 13  2  0  0  0
 12 99  1  0  0  0
 13 14  1  0  0  0
 13 31  1  0  0  0
 14 15  2  0  0  0
 14100  1  0  0  0
 15101  1  0  0  0
 16 17  2  0  0  0
 16 21  1  0  0  0
 16 31  1  0  0  0
 17 18  1  0  0  0
 17102  1  0  0  0
 18 19  2  0  0  0
 18103  1  0  0  0
 19 20  1  0  0  0
 19 24  1  0  0  0
 20 21  2  0  0  0
 20104  1  0  0  0
 21 23  1  0  0  0
 22 28  1  0  0  0
 22 32  2  0  0  0
 26 27  1  0  0  0
 28105  1  0  0  0
 28106  1  0  0  0
 29107  1  0  0  0
 29108  1  0  0  0
 33 34  1  0  0  0
 33 66  1  0  0  0
 33 70  2  0  0  0
 34 36  1  0  0  0
 34 59  1  0  0  0
 34109  1  0  0  0
 35 44  2  0  0  0
 35 45  1  0  0  0
 35 68  1  0  0  0
 36 56  1  0  0  0
 36110  1  0  0  0
 37 39  1  0  0  0
 37 47  1  0  0  0
 37 66  1  0  0  0
 37111  1  0  0  0
 38 43  2  0  0  0
 38 46  1  0  0  0
 38 47  1  0  0  0
 39 64  1  0  0  0
 39 67  2  0  0  0
 40 52  1  0  0  0
 40 53  2  0  0  0
 40 58  1  0  0  0
 41112  1  0  0  0
 41113  1  0  0  0
 41114  1  0  0  0
 41 48  1  0  0  0
 42 43  1  0  0  0
 42 66  1  0  0  0
 42115  1  0  0  0
 42116  1  0  0  0
 43 44  1  0  0  0
 44117  1  0  0  0
 45 46  2  0  0  0
 45118  1  0  0  0
 46119  1  0  0  0
 47120  1  0  0  0
 47121  1  0  0  0
 48 56  1  0  0  0
 48 65  1  0  0  0
 48122  1  0  0  0
 49 50  1  0  0  0
 49 53  1  0  0  0
 49 64  1  0  0  0
 49123  1  0  0  0
 50 51  1  0  0  0
 50124  1  0  0  0
 50125  1  0  0  0
 51 52  1  0  0  0
 51126  1  0  0  0
 51127  1  0  0  0
 52128  1  0  0  0
 52129  1  0  0  0
 53 54  1  0  0  0
 54 55  2  0  0  0
 54130  1  0  0  0
 55 57  1  0  0  0
 55131  1  0  0  0
 56 69  2  0  0  0
 57 58  2  0  0  0
 57132  1  0  0  0
 58133  1  0  0  0
 59 60  1  0  0  0
 59 61  1  0  0  0
 59 62  1  0  0  0
 60134  1  0  0  0
 60135  1  0  0  0
 60136  1  0  0  0
 61137  1  0  0  0
 61138  1  0  0  0
 61139  1  0  0  0
 62140  1  0  0  0
 62141  1  0  0  0
 62142  1  0  0  0
 63 65  1  0  0  0
 63143  1  0  0  0
 63144  1  0  0  0
 63145  1  0  0  0
 64146  1  0  0  0
 65147  1  0  0  0
 68 80  1  0  0  0
 71 73  2  0  0  0
 71 74  1  0  0  0
 71148  1  0  0  0
 72 75  2  0  0  0
 72 76  1  0  0  0
 72149  1  0  0  0
 73 75  1  0  0  0
 73 82  1  0  0  0
 74 76  2  0  0  0
 74 84  1  0  0  0
 75 85  1  0  0  0
 76 88  1  0  0  0
 77 78  1  0  0  0
 77 80  1  0  0  0
 77150  1  0  0  0
 77151  1  0  0  0
 78 81  1  0  0  0
 78152  1  0  0  0
 78153  1  0  0  0
 79 80  1  0  0  0
 79 87  1  0  0  0
 79154  1  0  0  0
 79155  1  0  0  0
 80156  1  0  0  0
 81 83  1  0  0  0
 81 87  1  0  0  0
 81157  1  0  0  0
 82158  1  0  0  0
 82159  1  0  0  0
 82160  1  0  0  0
 83161  1  0  0  0
 83162  1  0  0  0
 83163  1  0  0  0
 84 86  1  0  0  0
 84164  1  0  0  0
 84165  1  0  0  0
 85166  1  0  0  0
 85167  1  0  0  0
 85 87  1  0  0  0
 86168  1  0  0  0
 87169  1  0  0  0
M  CHG  1  87   1
M  ISO  4   1 100  68 101  80 101  86 100
M  END
> <chiral flag>
0

> <version>
0

> <s_m_source_file>
/data/baiqing/PycharmProjects/Reinvent-master-3.2/result/LINK_invent/BTK/process_docking_weight1_custom_product_contain_oxygen_bond_distance_aromatic_linkinvent_7_9_3/rearranged_h_0038.sdf

> <i_m_source_file_index>
33

> <r_mmod_Potential_Energy-OPLS-2005>
-17.0809574127197

> <r_mmod_Stretch_Energy-OPLS-2005>
44.2215042114258

> <r_mmod_Bend_Energy-OPLS-2005>
139.226669311523

> <r_mmod_Torsional_Energy-OPLS-2005>
302.956268310547

> <r_mmod_Improper_Torsional_Energy-OPLS-2005>
7.15809297561646

> <r_mmod_Van_der_Waal_Energy-OPLS-2005>
171.522018432617

> <r_mmod_Electrostatic_Energy-OPLS-2005>
-296.531127929688

> <r_mmod_Solvation_Energy-OPLS-2005>
-411.849304199219

> <b_mmod_Minimization_Converged-OPLS-2005>
0

> <r_mmod_RMS_Derivative-OPLS-2005>
3.12631678581238

$$$$
33
                    3D
 Structure written by MMmdl.
164173  0  0  1  0            999 V2000
  -30.6229  -14.6680   20.4882 C   0  0  0  0  0  0
  -30.4388  -12.4078   19.4584 C   0  0  0  0  0  0
  -29.5109  -12.5077   18.2273 C   0  0  0  0  0  0
  -28.0341  -12.3431   18.6381 C   0  0  0  0  0  0
  -27.6499  -13.2203   19.8592 C   0  0  2  0  0  0
  -28.6960  -13.0971   20.9906 C   0  0  0  0  0  0
  -25.2465  -13.8064   20.5590 C   0  0  0  0  0  0
  -24.1787  -13.0352   20.9215 C   0  0  0  0  0  0
  -24.6406  -11.6850   20.8781 C   0  0  0  0  0  0
  -23.9080  -10.4246   21.0433 C   0  0  0  0  0  0
  -24.3623   -9.4161   21.9210 C   0  0  0  0  0  0
  -23.6286   -8.2204   22.0765 C   0  0  0  0  0  0
  -22.4269   -8.0261   21.3546 C   0  0  0  0  0  0
  -21.9914   -9.0240   20.4648 C   0  0  0  0  0  0
  -22.7256  -10.2111   20.3068 C   0  0  0  0  0  0
  -21.6838   -6.0731   22.5280 C   0  0  0  0  0  0
  -21.4006   -6.5640   23.8218 C   0  0  0  0  0  0
  -21.3657   -5.6789   24.9182 C   0  0  0  0  0  0
  -21.6043   -4.3051   24.7231 C   0  0  0  0  0  0
  -21.8819   -3.8144   23.4350 C   0  0  0  0  0  0
  -21.9192   -4.6960   22.3404 C   0  0  0  0  0  0
  -22.7816  -13.5166   21.1861 C   0  0  0  0  0  0
  -22.1660   -4.2149   21.0977 F   0  0  0  0  0  0
  -21.5633   -3.4530   25.7745 F   0  0  0  0  0  0
  -30.0102  -13.4408   20.4243 N   0  0  0  0  0  0
  -26.2966  -12.9318   20.3291 N   0  0  0  0  0  0
  -25.9347  -11.6474   20.5798 N   0  0  0  0  0  0
  -22.0451  -12.8185   22.0427 N   0  0  0  0  0  0
  -25.3977  -15.1726   20.3758 N   0  0  0  0  0  0
  -31.7936  -14.8081   20.1232 O   0  0  0  0  0  0
  -21.6621   -6.8871   21.4241 O   0  0  0  0  0  0
  -22.3520  -14.5475   20.6695 O   0  0  0  0  0  0
  -24.6219  -31.8599   23.2015 C   0  0  0  0  0  0
  -25.9071  -32.4780   23.8349 C   0  0  1  0  0  0
  -27.2280  -27.3240   20.1342 C   0  0  0  0  0  0
  -25.5904  -33.8580   24.2279 N   0  0  0  0  0  0
  -23.4182  -30.4807   21.5422 C   0  0  2  0  0  0
  -24.8680  -28.9309   20.1170 C   0  0  0  0  0  0
  -22.7460  -29.4614   22.4921 C   0  0  0  0  0  0
  -18.0288  -28.1388   22.8506 C   0  0  0  0  0  0
  -24.1484  -36.7291   23.2637 C   0  0  0  0  0  0
  -25.9564  -30.7911   21.3732 C   0  0  0  0  0  0
  -26.0327  -29.4137   20.7280 C   0  0  0  0  0  0
  -27.2157  -28.6198   20.7322 C   0  0  0  0  0  0
  -26.0529  -26.8991   19.4793 C   0  0  0  0  0  0
  -24.8782  -27.6762   19.4852 C   0  0  0  0  0  0
  -23.6364  -29.8108   20.1588 C   0  0  0  0  0  0
  -25.4112  -36.3081   24.0327 C   0  0  1  0  0  0
  -20.5892  -28.3683   23.1293 C   0  0  2  0  0  0
  -20.6783  -26.9410   22.5414 C   0  0  0  0  0  0
  -19.5758  -26.6394   21.5215 C   0  0  0  0  0  0
  -18.1935  -26.7945   22.1623 C   0  0  0  0  0  0
  -19.1545  -28.8853   23.2902 C   0  0  0  0  0  0
  -18.9465  -30.1465   23.8904 C   0  0  0  0  0  0
  -17.6465  -30.6595   24.0578 C   0  0  0  0  0  0
  -25.9049  -34.9450   23.5109 C   0  0  0  0  0  0
  -16.5355  -29.9099   23.6336 C   0  0  0  0  0  0
  -16.7278  -28.6517   23.0357 C   0  0  0  0  0  0
  -26.4475  -31.6580   25.0699 C   0  0  0  0  0  0
  -25.3721  -31.3728   26.1432 C   0  0  0  0  0  0
  -27.0308  -30.3010   24.6124 C   0  0  0  0  0  0
  -27.6036  -32.4313   25.7479 C   0  0  0  0  0  0
  -27.5588  -37.1799   24.8460 C   0  0  0  0  0  0
  -21.4179  -29.3038   22.3684 N   0  0  0  0  0  0
  -26.4287  -37.3778   23.9419 N   0  0  0  0  0  0
  -24.6837  -31.0617   22.0961 N   0  0  0  0  0  0
  -23.4189  -28.8160   23.2993 O   0  0  0  0  0  0
  -28.3616  -26.5044   20.1038 O   0  0  0  0  0  0
  -26.5616  -34.8917   22.4675 O   0  0  0  0  0  0
  -23.5389  -32.1378   23.7356 O   0  0  0  0  0  0
  -28.8360  -19.4498   20.6167 C   0  0  0  0  0  0
  -31.1284  -17.8779   20.3187 C   0  0  0  0  0  0
  -30.0284  -20.1335   20.2843 C   0  0  0  0  0  0
  -28.7855  -18.0363   20.8160 C   0  0  0  0  0  0
  -31.1830  -19.2976   20.1403 C   0  0  0  0  0  0
  -29.9289  -17.1928   20.6473 C   0  0  0  0  0  0
  -29.1238  -24.0324   19.9864 C   0  0  0  0  0  0
  -27.2526  -23.2351   22.0659 C   0  0  0  0  0  0
  -27.0686  -24.6026   21.3550 C   0  0  0  0  0  0
  -28.6580  -22.5993   21.8953 C   0  0  0  0  0  0
  -28.3879  -25.1810   20.7871 C   0  0  2  0  0  0
  -27.4333  -17.4637   21.1879 C   0  0  0  0  0  0
  -32.5234  -19.8993   19.7460 C   0  0  0  0  0  0
  -30.0875  -21.6866   19.9568 C   0  0  0  0  0  0
  -29.1948  -22.7651   20.5372 N   0  0  0  0  0  0
  -29.8112  -15.7323   20.8063 N   0  0  0  0  0  0
  -29.6426  -24.3037   18.8980 O   0  0  0  0  0  0
  -31.4799  -12.5332   19.1556 H   0  0  0  0  0  0
  -30.3773  -11.4164   19.9100 H   0  0  0  0  0  0
  -29.7809  -11.7503   17.4902 H   0  0  0  0  0  0
  -29.6523  -13.4725   17.7381 H   0  0  0  0  0  0
  -27.8763  -11.2913   18.8773 H   0  0  0  0  0  0
  -27.3800  -12.5629   17.7936 H   0  0  0  0  0  0
  -27.6595  -14.2531   19.5098 H   0  0  0  0  0  0
  -28.7122  -12.0824   21.3915 H   0  0  0  0  0  0
  -28.4390  -13.7448   21.8303 H   0  0  0  0  0  0
  -25.2768   -9.5634   22.4790 H   0  0  0  0  0  0
  -23.9986   -7.4592   22.7485 H   0  0  0  0  0  0
  -21.0848   -8.8768   19.8952 H   0  0  0  0  0  0
  -22.3728  -10.9657   19.6176 H   0  0  0  0  0  0
  -21.1987   -7.6148   23.9724 H   0  0  0  0  0  0
  -21.1482   -6.0519   25.9087 H   0  0  0  0  0  0
  -22.0600   -2.7606   23.2847 H   0  0  0  0  0  0
  -22.4039  -11.9835   22.4811 H   0  0  0  0  0  0
  -21.1080  -13.1238   22.2631 H   0  0  0  0  0  0
  -24.6063  -15.8035   20.4447 H   0  0  0  0  0  0
  -26.2069  -15.5936   19.9415 H   0  0  0  0  0  0
  -26.7139  -32.5470   23.1101 H   0  0  0  0  0  0
  -25.0065  -33.9731   25.0437 H   0  0  0  0  0  0
  -22.7125  -31.3008   21.3974 H   0  0  0  0  0  0
  -23.3745  -35.9620   23.3280 H   0  0  0  0  0  0
  -24.3588  -36.8917   22.2054 H   0  0  0  0  0  0
  -23.7226  -37.6491   23.6660 H   0  0  0  0  0  0
  -26.0820  -31.5467   20.5963 H   0  0  0  0  0  0
  -26.8396  -30.8486   21.9980 H   0  0  0  0  0  0
  -28.1119  -28.9894   21.2133 H   0  0  0  0  0  0
  -26.0404  -25.9542   18.9559 H   0  0  0  0  0  0
  -23.9887  -27.3068   18.9919 H   0  0  0  0  0  0
  -23.7600  -30.5831   19.3984 H   0  0  0  0  0  0
  -22.7579  -29.2371   19.8577 H   0  0  0  0  0  0
  -25.1290  -36.1927   25.0817 H   0  0  0  0  0  0
  -21.0003  -28.3237   24.1404 H   0  0  0  0  0  0
  -20.5678  -26.2282   23.3602 H   0  0  0  0  0  0
  -21.6656  -26.7449   22.1207 H   0  0  0  0  0  0
  -19.6904  -25.6303   21.1238 H   0  0  0  0  0  0
  -19.6698  -27.3219   20.6758 H   0  0  0  0  0  0
  -17.4218  -26.6715   21.4008 H   0  0  0  0  0  0
  -18.0326  -26.0081   22.9016 H   0  0  0  0  0  0
  -19.7935  -30.7303   24.2248 H   0  0  0  0  0  0
  -17.5015  -31.6269   24.5197 H   0  0  0  0  0  0
  -15.5359  -30.3008   23.7649 H   0  0  0  0  0  0
  -15.8686  -28.0843   22.7048 H   0  0  0  0  0  0
  -24.5905  -30.7058   25.7783 H   0  0  0  0  0  0
  -24.8901  -32.2897   26.4831 H   0  0  0  0  0  0
  -25.8057  -30.8944   27.0221 H   0  0  0  0  0  0
  -26.2872  -29.6781   24.1135 H   0  0  0  0  0  0
  -27.4020  -29.7226   25.4594 H   0  0  0  0  0  0
  -27.8731  -30.4315   23.9331 H   0  0  0  0  0  0
  -27.2645  -33.3615   26.2054 H   0  0  0  0  0  0
  -28.3860  -32.6863   25.0320 H   0  0  0  0  0  0
  -28.0681  -31.8430   26.5402 H   0  0  0  0  0  0
  -28.2582  -38.0124   24.7559 H   0  0  0  0  0  0
  -28.1111  -36.2659   24.6220 H   0  0  0  0  0  0
  -27.2321  -37.1369   25.8866 H   0  0  0  0  0  0
  -20.9334  -29.8769   21.6925 H   0  0  0  0  0  0
  -26.0152  -38.2840   24.1459 H   0  0  0  0  0  0
  -27.9209  -20.0193   20.6992 H   0  0  0  0  0  0
  -32.0372  -17.3082   20.1874 H   0  0  0  0  0  0
  -26.4998  -22.5417   21.6869 H   0  0  0  0  0  0
  -27.0385  -23.3412   23.1305 H   0  0  0  0  0  0
  -26.6105  -25.3144   22.0429 H   0  0  0  0  0  0
  -26.3561  -24.4559   20.5459 H   0  0  0  0  0  0
  -28.6314  -21.5570   22.2050 H   0  0  0  0  0  0
  -29.3550  -23.0824   22.5832 H   0  0  0  0  0  0
  -29.0269  -25.3695   21.6522 H   0  0  0  0  0  0
  -26.9243  -18.1171   21.8974 H   0  0  0  0  0  0
  -27.4955  -16.4788   21.6486 H   0  0  0  0  0  0
  -26.8152  -17.4066   20.2930 H   0  0  0  0  0  0
  -33.3037  -19.1399   19.6813 H   0  0  0  0  0  0
  -32.8551  -20.6374   20.4766 H   0  0  0  0  0  0
  -32.4550  -20.3812   18.7705 H   0  0  0  0  0  0
  -30.0069  -21.7453   18.8695 H   0  0  0  0  0  0
  -31.0940  -22.0361   20.1812 H   0  0  0  0  0  0
  -28.8920  -15.4272   21.0832 H   0  0  0  0  0  0
  1 25  1  0  0  0
  1 30  2  0  0  0
  1 86  1  0  0  0
  2  3  1  0  0  0
  2 25  1  0  0  0
  2 88  1  0  0  0
  2 89  1  0  0  0
  3  4  1  0  0  0
  3 90  1  0  0  0
  3 91  1  0  0  0
  4  5  1  0  0  0
  4 92  1  0  0  0
  4 93  1  0  0  0
  5  6  1  0  0  0
  5 26  1  0  0  0
  5 94  1  0  0  0
  6 25  1  0  0  0
  6 95  1  0  0  0
  6 96  1  0  0  0
  7  8  2  0  0  0
  7 26  1  0  0  0
  7 29  1  0  0  0
  8  9  1  0  0  0
  8 22  1  0  0  0
  9 10  1  0  0  0
  9 27  2  0  0  0
 10 11  2  0  0  0
 10 15  1  0  0  0
 11 12  1  0  0  0
 11 97  1  0  0  0
 12 13  2  0  0  0
 12 98  1  0  0  0
 13 14  1  0  0  0
 13 31  1  0  0  0
 14 15  2  0  0  0
 14 99  1  0  0  0
 15100  1  0  0  0
 16 17  2  0  0  0
 16 21  1  0  0  0
 16 31  1  0  0  0
 17 18  1  0  0  0
 17101  1  0  0  0
 18 19  2  0  0  0
 18102  1  0  0  0
 19 20  1  0  0  0
 19 24  1  0  0  0
 20 21  2  0  0  0
 20103  1  0  0  0
 21 23  1  0  0  0
 22 28  1  0  0  0
 22 32  2  0  0  0
 26 27  1  0  0  0
 28104  1  0  0  0
 28105  1  0  0  0
 29106  1  0  0  0
 29107  1  0  0  0
 33 34  1  0  0  0
 33 66  1  0  0  0
 33 70  2  0  0  0
 34 36  1  0  0  0
 34 59  1  0  0  0
 34108  1  0  0  0
 35 44  2  0  0  0
 35 45  1  0  0  0
 35 68  1  0  0  0
 36 56  1  0  0  0
 36109  1  0  0  0
 37 39  1  0  0  0
 37 47  1  0  0  0
 37 66  1  0  0  0
 37110  1  0  0  0
 38 43  2  0  0  0
 38 46  1  0  0  0
 38 47  1  0  0  0
 39 64  1  0  0  0
 39 67  2  0  0  0
 40 52  1  0  0  0
 40 53  2  0  0  0
 40 58  1  0  0  0
 41111  1  0  0  0
 41112  1  0  0  0
 41113  1  0  0  0
 41 48  1  0  0  0
 42 43  1  0  0  0
 42 66  1  0  0  0
 42114  1  0  0  0
 42115  1  0  0  0
 43 44  1  0  0  0
 44116  1  0  0  0
 45 46  2  0  0  0
 45117  1  0  0  0
 46118  1  0  0  0
 47119  1  0  0  0
 47120  1  0  0  0
 48 56  1  0  0  0
 48 65  1  0  0  0
 48121  1  0  0  0
 49 50  1  0  0  0
 49 53  1  0  0  0
 49 64  1  0  0  0
 49122  1  0  0  0
 50 51  1  0  0  0
 50123  1  0  0  0
 50124  1  0  0  0
 51 52  1  0  0  0
 51125  1  0  0  0
 51126  1  0  0  0
 52127  1  0  0  0
 52128  1  0  0  0
 53 54  1  0  0  0
 54 55  2  0  0  0
 54129  1  0  0  0
 55 57  1  0  0  0
 55130  1  0  0  0
 56 69  2  0  0  0
 57 58  2  0  0  0
 57131  1  0  0  0
 58132  1  0  0  0
 59 60  1  0  0  0
 59 61  1  0  0  0
 59 62  1  0  0  0
 60133  1  0  0  0
 60134  1  0  0  0
 60135  1  0  0  0
 61136  1  0  0  0
 61137  1  0  0  0
 61138  1  0  0  0
 62139  1  0  0  0
 62140  1  0  0  0
 62141  1  0  0  0
 63 65  1  0  0  0
 63142  1  0  0  0
 63143  1  0  0  0
 63144  1  0  0  0
 64145  1  0  0  0
 65146  1  0  0  0
 68 81  1  0  0  0
 71 73  2  0  0  0
 71 74  1  0  0  0
 71147  1  0  0  0
 72 75  2  0  0  0
 72 76  1  0  0  0
 72148  1  0  0  0
 73 75  1  0  0  0
 73 84  1  0  0  0
 74 76  2  0  0  0
 74 82  1  0  0  0
 75 83  1  0  0  0
 76 86  1  0  0  0
 77 81  1  0  0  0
 77 85  1  0  0  0
 77 87  2  0  0  0
 78 79  1  0  0  0
 78 80  1  0  0  0
 78149  1  0  0  0
 78150  1  0  0  0
 79 81  1  0  0  0
 79151  1  0  0  0
 79152  1  0  0  0
 80 85  1  0  0  0
 80153  1  0  0  0
 80154  1  0  0  0
 81155  1  0  0  0
 82156  1  0  0  0
 82157  1  0  0  0
 82158  1  0  0  0
 83159  1  0  0  0
 83160  1  0  0  0
 83161  1  0  0  0
 84 85  1  0  0  0
 84162  1  0  0  0
 84163  1  0  0  0
 86164  1  0  0  0
M  ISO  4   1 100  68 101  81 101  86 100
M  END
> <chiral flag>
0

> <version>
0

> <s_m_source_file>
/data/baiqing/PycharmProjects/Reinvent-master-3.2/result/LINK_invent/BTK/process_docking_weight1_custom_product_contain_oxygen_bond_distance_aromatic_linkinvent_7_9_3/rearranged_h_0038.sdf

> <i_m_source_file_index>
34

> <r_mmod_Potential_Energy-OPLS-2005>
151.832641601562

> <r_mmod_Stretch_Energy-OPLS-2005>
90.8957901000977

> <r_mmod_Bend_Energy-OPLS-2005>
164.626556396484

> <r_mmod_Torsional_Energy-OPLS-2005>
268.000061035156

> <r_mmod_Improper_Torsional_Energy-OPLS-2005>
5.95022201538086

> <r_mmod_Van_der_Waal_Energy-OPLS-2005>
158.429351806641

> <r_mmod_Electrostatic_Energy-OPLS-2005>
-357.691772460938

> <r_mmod_Solvation_Energy-OPLS-2005>
-228.165954589844

> <b_mmod_Minimization_Converged-OPLS-2005>
0

> <r_mmod_RMS_Derivative-OPLS-2005>
1.87905216217041

$$$$
34
                    3D
 Structure written by MMmdl.
172181  0  0  1  0            999 V2000
  -30.6629  -14.4467   20.5522 C   0  0  0  0  0  0
  -30.4351  -12.2782   19.4286 C   0  0  0  0  0  0
  -29.5048  -12.4963   18.2139 C   0  0  0  0  0  0
  -28.0221  -12.3572   18.6176 C   0  0  0  0  0  0
  -27.6688  -13.1866   19.8810 C   0  0  2  0  0  0
  -28.7060  -12.9325   21.0036 C   0  0  0  0  0  0
  -25.2613  -13.8099   20.5640 C   0  0  0  0  0  0
  -24.1841  -13.0419   20.9128 C   0  0  0  0  0  0
  -24.6369  -11.6874   20.8703 C   0  0  0  0  0  0
  -23.9029  -10.4278   21.0394 C   0  0  0  0  0  0
  -24.3590   -9.4200   21.9171 C   0  0  0  0  0  0
  -23.6271   -8.2236   22.0747 C   0  0  0  0  0  0
  -22.4254   -8.0275   21.3545 C   0  0  0  0  0  0
  -21.9883   -9.0239   20.4655 C   0  0  0  0  0  0
  -22.7198  -10.2118   20.3052 C   0  0  0  0  0  0
  -21.6850   -6.0727   22.5271 C   0  0  0  0  0  0
  -21.4017   -6.5631   23.8206 C   0  0  0  0  0  0
  -21.3661   -5.6778   24.9163 C   0  0  0  0  0  0
  -21.6049   -4.3041   24.7220 C   0  0  0  0  0  0
  -21.8820   -3.8140   23.4336 C   0  0  0  0  0  0
  -21.9187   -4.6956   22.3395 C   0  0  0  0  0  0
  -22.7866  -13.5259   21.1801 C   0  0  0  0  0  0
  -22.1659   -4.2139   21.0972 F   0  0  0  0  0  0
  -21.5630   -3.4531   25.7736 F   0  0  0  0  0  0
  -30.0467  -13.2386   20.4698 N   0  0  0  0  0  0
  -26.3048  -12.9238   20.3345 N   0  0  0  0  0  0
  -25.9296  -11.6421   20.5741 N   0  0  0  0  0  0
  -22.0497  -12.8279   22.0381 N   0  0  0  0  0  0
  -25.4339  -15.1814   20.4050 N   0  0  0  0  0  0
  -31.7680  -14.6889   20.0561 O   0  0  0  0  0  0
  -21.6632   -6.8863   21.4237 O   0  0  0  0  0  0
  -22.3566  -14.5563   20.6629 O   0  0  0  0  0  0
  -24.6150  -31.8706   23.2077 C   0  0  0  0  0  0
  -25.9047  -32.4832   23.8390 C   0  0  1  0  0  0
  -27.2559  -27.4675   20.0883 C   0  0  0  0  0  0
  -25.5904  -33.8623   24.2344 N   0  0  0  0  0  0
  -23.4037  -30.4946   21.5456 C   0  0  2  0  0  0
  -24.8601  -28.9598   20.1151 C   0  0  0  0  0  0
  -22.7402  -29.4712   22.4950 C   0  0  0  0  0  0
  -18.0293  -28.1353   22.8505 C   0  0  0  0  0  0
  -24.1481  -36.7329   23.2631 C   0  0  0  0  0  0
  -25.9313  -30.8470   21.3562 C   0  0  0  0  0  0
  -26.0186  -29.4826   20.7061 C   0  0  0  0  0  0
  -27.2241  -28.7441   20.6916 C   0  0  0  0  0  0
  -26.0831  -26.9489   19.5057 C   0  0  0  0  0  0
  -24.8862  -27.6900   19.5105 C   0  0  0  0  0  0
  -23.6166  -29.8198   20.1634 C   0  0  0  0  0  0
  -25.4098  -36.3118   24.0336 C   0  0  1  0  0  0
  -20.5877  -28.3675   23.1288 C   0  0  2  0  0  0
  -20.6763  -26.9404   22.5405 C   0  0  0  0  0  0
  -19.5740  -26.6381   21.5195 C   0  0  0  0  0  0
  -18.1928  -26.7910   22.1615 C   0  0  0  0  0  0
  -19.1540  -28.8817   23.2908 C   0  0  0  0  0  0
  -18.9458  -30.1424   23.8926 C   0  0  0  0  0  0
  -17.6459  -30.6565   24.0559 C   0  0  0  0  0  0
  -25.9025  -34.9485   23.5139 C   0  0  0  0  0  0
  -16.5354  -29.9075   23.6299 C   0  0  0  0  0  0
  -16.7282  -28.6477   23.0349 C   0  0  0  0  0  0
  -26.4471  -31.6565   25.0705 C   0  0  0  0  0  0
  -25.3736  -31.3669   26.1455 C   0  0  0  0  0  0
  -27.0279  -30.3010   24.6026 C   0  0  0  0  0  0
  -27.6056  -32.4237   25.7487 C   0  0  0  0  0  0
  -27.5582  -37.1809   24.8456 C   0  0  0  0  0  0
  -21.4126  -29.3066   22.3676 N   0  0  0  0  0  0
  -26.4299  -37.3794   23.9396 N   0  0  0  0  0  0
  -24.6680  -31.0835   22.0961 N   0  0  0  0  0  0
  -23.4171  -28.8256   23.2994 O   0  0  0  0  0  0
  -28.3655  -26.6605   20.1199 O   0  0  0  0  0  0
  -26.5582  -34.8935   22.4694 O   0  0  0  0  0  0
  -23.5340  -32.1452   23.7477 O   0  0  0  0  0  0
  -29.4368  -20.3265   20.5196 C   0  0  0  0  0  0
  -29.0324  -19.0104   20.2308 C   0  0  0  0  0  0
  -31.1550  -18.1726   21.0628 C   0  0  0  0  0  0
  -30.7035  -20.5902   21.0874 C   0  0  0  0  0  0
  -29.8884  -17.9250   20.5019 C   0  0  0  0  0  0
  -31.5680  -19.4926   21.3562 C   0  0  0  0  0  0
  -31.2774  -22.8930   20.1197 C   0  0  0  0  0  0
  -30.0630  -22.7366   22.3125 C   0  0  0  0  0  0
  -31.6324  -24.3573   20.4583 C   0  0  0  0  0  0
  -30.4318  -24.2066   22.5868 C   0  0  0  0  0  0
  -31.0910  -22.0458   21.3951 C   0  0  1  0  0  0
  -32.9502  -19.6888   21.9514 C   0  0  0  0  0  0
  -29.4489  -16.5229   20.1129 C   0  0  0  0  0  0
  -30.7046  -27.3463   20.3388 C   0  0  0  0  0  0
  -30.8023  -26.4311   21.5861 C   0  0  0  0  0  0
  -29.5156  -27.0750   19.3981 C   0  0  0  0  0  0
  -29.8584  -15.4232   20.9913 N   0  0  0  0  0  0
  -30.5951  -24.9780   21.3253 N   0  3  1  0  0  0
  -31.4806  -12.3897   19.1350 H   0  0  0  0  0  0
  -30.3453  -11.2600   19.8094 H   0  0  0  0  0  0
  -29.7487  -11.7854   17.4242 H   0  0  0  0  0  0
  -29.6747  -13.4871   17.7896 H   0  0  0  0  0  0
  -27.8255  -11.3002   18.8005 H   0  0  0  0  0  0
  -27.3770  -12.6458   17.7862 H   0  0  0  0  0  0
  -27.7221  -14.2344   19.5906 H   0  0  0  0  0  0
  -28.6717  -11.8881   21.3172 H   0  0  0  0  0  0
  -28.4721  -13.5071   21.9006 H   0  0  0  0  0  0
  -25.2736   -9.5688   22.4726 H   0  0  0  0  0  0
  -23.9985   -7.4645   22.7477 H   0  0  0  0  0  0
  -21.0801   -8.8760   19.8979 H   0  0  0  0  0  0
  -22.3650  -10.9650   19.6158 H   0  0  0  0  0  0
  -21.2022   -7.6139   23.9709 H   0  0  0  0  0  0
  -21.1477   -6.0505   25.9061 H   0  0  0  0  0  0
  -22.0601   -2.7604   23.2830 H   0  0  0  0  0  0
  -22.4086  -11.9959   22.4814 H   0  0  0  0  0  0
  -21.1118  -13.1340   22.2580 H   0  0  0  0  0  0
  -24.6623  -15.8311   20.5109 H   0  0  0  0  0  0
  -26.2841  -15.6223   20.0816 H   0  0  0  0  0  0
  -26.7140  -32.5565   23.1176 H   0  0  0  0  0  0
  -25.0041  -33.9751   25.0479 H   0  0  0  0  0  0
  -22.6936  -31.3107   21.4012 H   0  0  0  0  0  0
  -23.3726  -35.9684   23.3322 H   0  0  0  0  0  0
  -24.3566  -36.8926   22.2035 H   0  0  0  0  0  0
  -23.7272  -37.6561   23.6627 H   0  0  0  0  0  0
  -26.0325  -31.6078   20.5811 H   0  0  0  0  0  0
  -26.8204  -30.9106   21.9711 H   0  0  0  0  0  0
  -28.1146  -29.1411   21.1585 H   0  0  0  0  0  0
  -26.1009  -25.9671   19.0547 H   0  0  0  0  0  0
  -23.9959  -27.2749   19.0572 H   0  0  0  0  0  0
  -23.7196  -30.5879   19.3962 H   0  0  0  0  0  0
  -22.7424  -29.2349   19.8706 H   0  0  0  0  0  0
  -25.1269  -36.2006   25.0830 H   0  0  0  0  0  0
  -21.0021  -28.3262   24.1386 H   0  0  0  0  0  0
  -20.5612  -26.2304   23.3614 H   0  0  0  0  0  0
  -21.6639  -26.7413   22.1233 H   0  0  0  0  0  0
  -19.6888  -25.6290   21.1223 H   0  0  0  0  0  0
  -19.6649  -27.3177   20.6710 H   0  0  0  0  0  0
  -17.4198  -26.6691   21.4014 H   0  0  0  0  0  0
  -18.0330  -26.0019   22.8965 H   0  0  0  0  0  0
  -19.7926  -30.7231   24.2320 H   0  0  0  0  0  0
  -17.5008  -31.6241   24.5152 H   0  0  0  0  0  0
  -15.5351  -30.2981   23.7565 H   0  0  0  0  0  0
  -15.8699  -28.0781   22.7062 H   0  0  0  0  0  0
  -24.5894  -30.7024   25.7819 H   0  0  0  0  0  0
  -24.8926  -32.2827   26.4904 H   0  0  0  0  0  0
  -25.8103  -30.8854   27.0208 H   0  0  0  0  0  0
  -26.2812  -29.6792   24.1081 H   0  0  0  0  0  0
  -27.4071  -29.7219   25.4450 H   0  0  0  0  0  0
  -27.8627  -30.4346   23.9148 H   0  0  0  0  0  0
  -27.2699  -33.3511   26.2120 H   0  0  0  0  0  0
  -28.3875  -32.6823   25.0334 H   0  0  0  0  0  0
  -28.0708  -31.8311   26.5376 H   0  0  0  0  0  0
  -28.2620  -38.0083   24.7492 H   0  0  0  0  0  0
  -28.1065  -36.2625   24.6294 H   0  0  0  0  0  0
  -27.2306  -37.1484   25.8865 H   0  0  0  0  0  0
  -20.9275  -29.8818   21.6923 H   0  0  0  0  0  0
  -26.0198  -38.2879   24.1397 H   0  0  0  0  0  0
  -28.7593  -21.1370   20.2920 H   0  0  0  0  0  0
  -28.0580  -18.8443   19.7899 H   0  0  0  0  0  0
  -31.8181  -17.3398   21.2518 H   0  0  0  0  0  0
  -32.0642  -22.4618   19.5002 H   0  0  0  0  0  0
  -30.3716  -22.8747   19.5123 H   0  0  0  0  0  0
  -29.0670  -22.7047   21.8736 H   0  0  0  0  0  0
  -29.9962  -22.1904   23.2548 H   0  0  0  0  0  0
  -31.7462  -24.9194   19.5310 H   0  0  0  0  0  0
  -32.5983  -24.4030   20.9631 H   0  0  0  0  0  0
  -31.3545  -24.2519   23.1684 H   0  0  0  0  0  0
  -29.6534  -24.6605   23.2020 H   0  0  0  0  0  0
  -32.0416  -22.0623   21.9242 H   0  0  0  0  0  0
  -33.4568  -18.7356   22.1085 H   0  0  0  0  0  0
  -32.8864  -20.1869   22.9186 H   0  0  0  0  0  0
  -33.5686  -20.2909   21.2845 H   0  0  0  0  0  0
  -29.7679  -16.3396   19.0848 H   0  0  0  0  0  0
  -28.3593  -16.5079   20.0777 H   0  0  0  0  0  0
  -31.6293  -27.2894   19.7620 H   0  0  0  0  0  0
  -30.6468  -28.3793   20.6832 H   0  0  0  0  0  0
  -30.0460  -26.7672   22.2970 H   0  0  0  0  0  0
  -31.7650  -26.5823   22.0778 H   0  0  0  0  0  0
  -29.7728  -26.2472   18.7350 H   0  0  0  0  0  0
  -29.3245  -27.9289   18.7466 H   0  0  0  0  0  0
  -29.1082  -15.0827   21.5747 H   0  0  0  0  0  0
  -29.7113  -24.9146   20.8393 H   0  0  0  0  0  0
  1 25  1  0  0  0
  1 30  2  0  0  0
  1 87  1  0  0  0
  2  3  1  0  0  0
  2 25  1  0  0  0
  2 89  1  0  0  0
  2 90  1  0  0  0
  3  4  1  0  0  0
  3 91  1  0  0  0
  3 92  1  0  0  0
  4  5  1  0  0  0
  4 93  1  0  0  0
  4 94  1  0  0  0
  5  6  1  0  0  0
  5 26  1  0  0  0
  5 95  1  0  0  0
  6 25  1  0  0  0
  6 96  1  0  0  0
  6 97  1  0  0  0
  7  8  2  0  0  0
  7 26  1  0  0  0
  7 29  1  0  0  0
  8  9  1  0  0  0
  8 22  1  0  0  0
  9 10  1  0  0  0
  9 27  2  0  0  0
 10 11  2  0  0  0
 10 15  1  0  0  0
 11 12  1  0  0  0
 11 98  1  0  0  0
 12 13  2  0  0  0
 12 99  1  0  0  0
 13 14  1  0  0  0
 13 31  1  0  0  0
 14 15  2  0  0  0
 14100  1  0  0  0
 15101  1  0  0  0
 16 17  2  0  0  0
 16 21  1  0  0  0
 16 31  1  0  0  0
 17 18  1  0  0  0
 17102  1  0  0  0
 18 19  2  0  0  0
 18103  1  0  0  0
 19 20  1  0  0  0
 19 24  1  0  0  0
 20 21  2  0  0  0
 20104  1  0  0  0
 21 23  1  0  0  0
 22 28  1  0  0  0
 22 32  2  0  0  0
 26 27  1  0  0  0
 28105  1  0  0  0
 28106  1  0  0  0
 29107  1  0  0  0
 29108  1  0  0  0
 33 34  1  0  0  0
 33 66  1  0  0  0
 33 70  2  0  0  0
 34 36  1  0  0  0
 34 59  1  0  0  0
 34109  1  0  0  0
 35 44  2  0  0  0
 35 45  1  0  0  0
 35 68  1  0  0  0
 36 56  1  0  0  0
 36110  1  0  0  0
 37 39  1  0  0  0
 37 47  1  0  0  0
 37 66  1  0  0  0
 37111  1  0  0  0
 38 43  2  0  0  0
 38 46  1  0  0  0
 38 47  1  0  0  0
 39 64  1  0  0  0
 39 67  2  0  0  0
 40 52  1  0  0  0
 40 53  2  0  0  0
 40 58  1  0  0  0
 41112  1  0  0  0
 41113  1  0  0  0
 41114  1  0  0  0
 41 48  1  0  0  0
 42 43  1  0  0  0
 42 66  1  0  0  0
 42115  1  0  0  0
 42116  1  0  0  0
 43 44  1  0  0  0
 44117  1  0  0  0
 45 46  2  0  0  0
 45118  1  0  0  0
 46119  1  0  0  0
 47120  1  0  0  0
 47121  1  0  0  0
 48 56  1  0  0  0
 48 65  1  0  0  0
 48122  1  0  0  0
 49 50  1  0  0  0
 49 53  1  0  0  0
 49 64  1  0  0  0
 49123  1  0  0  0
 50 51  1  0  0  0
 50124  1  0  0  0
 50125  1  0  0  0
 51 52  1  0  0  0
 51126  1  0  0  0
 51127  1  0  0  0
 52128  1  0  0  0
 52129  1  0  0  0
 53 54  1  0  0  0
 54 55  2  0  0  0
 54130  1  0  0  0
 55 57  1  0  0  0
 55131  1  0  0  0
 56 69  2  0  0  0
 57 58  2  0  0  0
 57132  1  0  0  0
 58133  1  0  0  0
 59 60  1  0  0  0
 59 61  1  0  0  0
 59 62  1  0  0  0
 60134  1  0  0  0
 60135  1  0  0  0
 60136  1  0  0  0
 61137  1  0  0  0
 61138  1  0  0  0
 61139  1  0  0  0
 62140  1  0  0  0
 62141  1  0  0  0
 62142  1  0  0  0
 63 65  1  0  0  0
 63143  1  0  0  0
 63144  1  0  0  0
 63145  1  0  0  0
 64146  1  0  0  0
 65147  1  0  0  0
 68 86  1  0  0  0
 71 72  2  0  0  0
 71 74  1  0  0  0
 71148  1  0  0  0
 72 75  1  0  0  0
 72149  1  0  0  0
 73 75  2  0  0  0
 73 76  1  0  0  0
 73150  1  0  0  0
 74 76  2  0  0  0
 74 81  1  0  0  0
 75 83  1  0  0  0
 76 82  1  0  0  0
 77 79  1  0  0  0
 77 81  1  0  0  0
 77151  1  0  0  0
 77152  1  0  0  0
 78 80  1  0  0  0
 78 81  1  0  0  0
 78153  1  0  0  0
 78154  1  0  0  0
 79 88  1  0  0  0
 79155  1  0  0  0
 79156  1  0  0  0
 80 88  1  0  0  0
 80157  1  0  0  0
 80158  1  0  0  0
 81159  1  0  0  0
 82160  1  0  0  0
 82161  1  0  0  0
 82162  1  0  0  0
 83 87  1  0  0  0
 83163  1  0  0  0
 83164  1  0  0  0
 84 85  1  0  0  0
 84 86  1  0  0  0
 84165  1  0  0  0
 84166  1  0  0  0
 85167  1  0  0  0
 85168  1  0  0  0
 85 88  1  0  0  0
 86169  1  0  0  0
 86170  1  0  0  0
 87171  1  0  0  0
 88172  1  0  0  0
M  CHG  1  88   1
M  ISO  4   1 100  68 101  86 101  87 100
M  END
> <chiral flag>
0

> <version>
0

> <s_m_source_file>
/data/baiqing/PycharmProjects/Reinvent-master-3.2/result/LINK_invent/BTK/process_docking_weight1_custom_product_contain_oxygen_bond_distance_aromatic_linkinvent_7_9_3/rearranged_h_0038.sdf

> <i_m_source_file_index>
35

> <r_mmod_Potential_Energy-OPLS-2005>
-151.91975402832

> <r_mmod_Stretch_Energy-OPLS-2005>
36.0540504455566

> <r_mmod_Bend_Energy-OPLS-2005>
101.939125061035

> <r_mmod_Torsional_Energy-OPLS-2005>
303.5068359375

> <r_mmod_Improper_Torsional_Energy-OPLS-2005>
10.1869649887085

> <r_mmod_Van_der_Waal_Energy-OPLS-2005>
152.697662353516

> <r_mmod_Electrostatic_Energy-OPLS-2005>
-344.768829345703

> <r_mmod_Solvation_Energy-OPLS-2005>
-423.414947509766

> <b_mmod_Minimization_Converged-OPLS-2005>
0

> <r_mmod_RMS_Derivative-OPLS-2005>
2.91157197952271

$$$$
35
                    3D
 Structure written by MMmdl.
170179  0  0  1  0            999 V2000
  -30.5880  -14.7324   20.4706 C   0  0  0  0  0  0
  -30.4421  -12.4517   19.4507 C   0  0  0  0  0  0
  -29.5079  -12.5057   18.2218 C   0  0  0  0  0  0
  -28.0339  -12.3273   18.6415 C   0  0  0  0  0  0
  -27.6413  -13.2227   19.8465 C   0  0  2  0  0  0
  -28.6908  -13.1380   20.9750 C   0  0  0  0  0  0
  -25.2514  -13.8165   20.5697 C   0  0  0  0  0  0
  -24.1803  -13.0421   20.9215 C   0  0  0  0  0  0
  -24.6387  -11.6901   20.8752 C   0  0  0  0  0  0
  -23.9062  -10.4283   21.0411 C   0  0  0  0  0  0
  -24.3616   -9.4200   21.9187 C   0  0  0  0  0  0
  -23.6293   -8.2236   22.0753 C   0  0  0  0  0  0
  -22.4274   -8.0276   21.3546 C   0  0  0  0  0  0
  -21.9910   -9.0248   20.4646 C   0  0  0  0  0  0
  -22.7238  -10.2127   20.3057 C   0  0  0  0  0  0
  -21.6849   -6.0734   22.5282 C   0  0  0  0  0  0
  -21.4008   -6.5638   23.8214 C   0  0  0  0  0  0
  -21.3660   -5.6791   24.9178 C   0  0  0  0  0  0
  -21.6046   -4.3054   24.7229 C   0  0  0  0  0  0
  -21.8819   -3.8145   23.4348 C   0  0  0  0  0  0
  -21.9190   -4.6962   22.3404 C   0  0  0  0  0  0
  -22.7827  -13.5214   21.1875 C   0  0  0  0  0  0
  -22.1662   -4.2148   21.0982 F   0  0  0  0  0  0
  -21.5631   -3.4537   25.7740 F   0  0  0  0  0  0
  -29.9875  -13.4993   20.3873 N   0  0  0  0  0  0
  -26.2934  -12.9359   20.3267 N   0  0  0  0  0  0
  -25.9311  -11.6510   20.5743 N   0  0  0  0  0  0
  -22.0467  -12.8209   22.0429 N   0  0  0  0  0  0
  -25.4171  -15.1892   20.4123 N   0  0  0  0  0  0
  -31.7888  -14.8623   20.2149 O   0  0  0  0  0  0
  -21.6637   -6.8876   21.4242 O   0  0  0  0  0  0
  -22.3519  -14.5523   20.6721 O   0  0  0  0  0  0
  -24.6295  -31.8556   23.1965 C   0  0  0  0  0  0
  -25.9124  -32.4756   23.8316 C   0  0  1  0  0  0
  -27.2284  -27.2759   20.1413 C   0  0  0  0  0  0
  -25.5927  -33.8557   24.2247 N   0  0  0  0  0  0
  -23.4262  -30.4748   21.5400 C   0  0  2  0  0  0
  -24.8743  -28.9099   20.1231 C   0  0  0  0  0  0
  -22.7490  -29.4604   22.4924 C   0  0  0  0  0  0
  -18.0290  -28.1388   22.8485 C   0  0  0  0  0  0
  -24.1490  -36.7282   23.2641 C   0  0  0  0  0  0
  -25.9689  -30.7734   21.3718 C   0  0  0  0  0  0
  -26.0445  -29.3919   20.7245 C   0  0  0  0  0  0
  -27.2276  -28.5892   20.7155 C   0  0  0  0  0  0
  -26.0345  -26.8420   19.5325 C   0  0  0  0  0  0
  -24.8720  -27.6410   19.5186 C   0  0  0  0  0  0
  -23.6456  -29.7986   20.1604 C   0  0  0  0  0  0
  -25.4117  -36.3070   24.0328 C   0  0  1  0  0  0
  -20.5892  -28.3696   23.1275 C   0  0  2  0  0  0
  -20.6777  -26.9415   22.5412 C   0  0  0  0  0  0
  -19.5756  -26.6384   21.5212 C   0  0  0  0  0  0
  -18.1935  -26.7931   22.1623 C   0  0  0  0  0  0
  -19.1544  -28.8858   23.2874 C   0  0  0  0  0  0
  -18.9467  -30.1460   23.8891 C   0  0  0  0  0  0
  -17.6467  -30.6590   24.0563 C   0  0  0  0  0  0
  -25.9056  -34.9441   23.5090 C   0  0  0  0  0  0
  -16.5357  -29.9090   23.6330 C   0  0  0  0  0  0
  -16.7277  -28.6507   23.0350 C   0  0  0  0  0  0
  -26.4498  -31.6580   25.0702 C   0  0  0  0  0  0
  -25.3723  -31.3737   26.1427 C   0  0  0  0  0  0
  -27.0347  -30.3000   24.6176 C   0  0  0  0  0  0
  -27.6049  -32.4323   25.7480 C   0  0  0  0  0  0
  -27.5579  -37.1799   24.8467 C   0  0  0  0  0  0
  -21.4200  -29.3044   22.3666 N   0  0  0  0  0  0
  -26.4291  -37.3769   23.9410 N   0  0  0  0  0  0
  -24.6939  -31.0532   22.0930 N   0  0  0  0  0  0
  -23.4194  -28.8150   23.3024 O   0  0  0  0  0  0
  -28.3595  -26.4437   20.0668 O   0  0  0  0  0  0
  -26.5629  -34.8919   22.4660 O   0  0  0  0  0  0
  -23.5449  -32.1371   23.7271 O   0  0  0  0  0  0
  -29.7259  -19.8302   22.2198 C   0  0  0  0  0  0
  -30.1172  -18.7023   22.9630 C   0  0  0  0  0  0
  -29.4523  -19.7574   20.8356 C   0  0  0  0  0  0
  -30.2019  -17.4169   22.3909 C   0  0  0  0  0  0
  -29.5153  -18.4100   20.2564 C   0  0  0  0  0  0
  -29.8876  -17.2180   21.0217 C   0  0  0  0  0  0
  -28.4849  -23.7796   19.9278 C   0  0  0  0  0  0
  -28.1544  -23.7140   18.6258 C   0  0  0  0  0  0
  -30.2547  -24.0062   22.2537 C   0  0  0  0  0  0
  -29.7203  -25.2985   21.6154 C   0  0  0  0  0  0
  -30.4137  -22.8911   21.2071 C   0  0  0  0  0  0
  -28.4323  -25.1294   20.7782 C   0  0  1  0  0  0
  -30.5607  -16.2577   23.3088 C   0  0  0  0  0  0
  -27.6465  -17.9759   18.5919 C   0  0  0  0  0  0
  -29.1474  -18.2210   18.7897 C   0  0  0  0  0  0
  -29.0634  -21.1051   20.0366 C   0  0  0  0  0  0
  -29.7363  -15.8243   20.5381 N   0  0  0  0  0  0
  -29.0801  -22.5194   20.6781 N   0  3  2  0  0  0
  -31.4783  -12.6007   19.1425 H   0  0  0  0  0  0
  -30.4050  -11.4705   19.9268 H   0  0  0  0  0  0
  -29.7873  -11.7357   17.5015 H   0  0  0  0  0  0
  -29.6296  -13.4617   17.7097 H   0  0  0  0  0  0
  -27.8925  -11.2780   18.9027 H   0  0  0  0  0  0
  -27.3732  -12.5202   17.7954 H   0  0  0  0  0  0
  -27.6356  -14.2454   19.4699 H   0  0  0  0  0  0
  -28.7291  -12.1327   21.3969 H   0  0  0  0  0  0
  -28.4309  -13.8050   21.7988 H   0  0  0  0  0  0
  -25.2760   -9.5676   22.4763 H   0  0  0  0  0  0
  -24.0003   -7.4624   22.7467 H   0  0  0  0  0  0
  -21.0842   -8.8764   19.8954 H   0  0  0  0  0  0
  -22.3695  -10.9665   19.6166 H   0  0  0  0  0  0
  -21.1997   -7.6146   23.9718 H   0  0  0  0  0  0
  -21.1485   -6.0522   25.9082 H   0  0  0  0  0  0
  -22.0598   -2.7607   23.2847 H   0  0  0  0  0  0
  -22.4078  -11.9870   22.4822 H   0  0  0  0  0  0
  -21.1082  -13.1233   22.2624 H   0  0  0  0  0  0
  -24.6422  -15.8337   20.5250 H   0  0  0  0  0  0
  -26.2553  -15.6380   20.0714 H   0  0  0  0  0  0
  -26.7189  -32.5413   23.1060 H   0  0  0  0  0  0
  -25.0075  -33.9694   25.0394 H   0  0  0  0  0  0
  -22.7224  -31.2958   21.3885 H   0  0  0  0  0  0
  -23.3753  -35.9613   23.3303 H   0  0  0  0  0  0
  -24.3577  -36.8904   22.2054 H   0  0  0  0  0  0
  -23.7244  -37.6484   23.6664 H   0  0  0  0  0  0
  -26.1020  -31.5292   20.5965 H   0  0  0  0  0  0
  -26.8489  -30.8291   22.0012 H   0  0  0  0  0  0
  -28.1345  -28.9643   21.1690 H   0  0  0  0  0  0
  -26.0005  -25.8711   19.0596 H   0  0  0  0  0  0
  -23.9751  -27.2647   19.0461 H   0  0  0  0  0  0
  -23.7735  -30.5690   19.3992 H   0  0  0  0  0  0
  -22.7643  -29.2310   19.8560 H   0  0  0  0  0  0
  -25.1302  -36.1915   25.0822 H   0  0  0  0  0  0
  -20.9986  -28.3272   24.1395 H   0  0  0  0  0  0
  -20.5676  -26.2305   23.3614 H   0  0  0  0  0  0
  -21.6645  -26.7445   22.1205 H   0  0  0  0  0  0
  -19.6920  -25.6295   21.1242 H   0  0  0  0  0  0
  -19.6695  -27.3191   20.6740 H   0  0  0  0  0  0
  -17.4207  -26.6676   21.4023 H   0  0  0  0  0  0
  -18.0339  -26.0076   22.9023 H   0  0  0  0  0  0
  -19.7945  -30.7277   24.2255 H   0  0  0  0  0  0
  -17.5025  -31.6269   24.5168 H   0  0  0  0  0  0
  -15.5358  -30.2992   23.7661 H   0  0  0  0  0  0
  -15.8675  -28.0829   22.7065 H   0  0  0  0  0  0
  -24.5892  -30.7092   25.7760 H   0  0  0  0  0  0
  -24.8919  -32.2911   26.4839 H   0  0  0  0  0  0
  -25.8037  -30.8924   27.0212 H   0  0  0  0  0  0
  -26.2928  -29.6743   24.1200 H   0  0  0  0  0  0
  -27.4041  -29.7267   25.4689 H   0  0  0  0  0  0
  -27.8797  -30.4284   23.9408 H   0  0  0  0  0  0
  -27.2653  -33.3628   26.2043 H   0  0  0  0  0  0
  -28.3867  -32.6877   25.0315 H   0  0  0  0  0  0
  -28.0706  -31.8457   26.5410 H   0  0  0  0  0  0
  -28.2600  -38.0092   24.7508 H   0  0  0  0  0  0
  -28.1072  -36.2624   24.6300 H   0  0  0  0  0  0
  -27.2296  -37.1455   25.8870 H   0  0  0  0  0  0
  -20.9384  -29.8763   21.6869 H   0  0  0  0  0  0
  -26.0169  -38.2845   24.1404 H   0  0  0  0  0  0
  -29.6417  -20.7598   22.7617 H   0  0  0  0  0  0
  -30.3252  -18.8325   24.0163 H   0  0  0  0  0  0
  -27.7976  -24.5922   18.1070 H   0  0  0  0  0  0
  -28.2365  -22.8070   18.0465 H   0  0  0  0  0  0
  -29.5954  -23.6807   23.0594 H   0  0  0  0  0  0
  -31.2213  -24.2086   22.7172 H   0  0  0  0  0  0
  -30.5032  -25.6948   20.9665 H   0  0  0  0  0  0
  -29.5632  -26.0565   22.3842 H   0  0  0  0  0  0
  -30.9450  -22.0517   21.6475 H   0  0  0  0  0  0
  -31.0477  -23.2255   20.3842 H   0  0  0  0  0  0
  -27.5798  -25.0425   21.4541 H   0  0  0  0  0  0
  -30.6753  -16.5840   24.3427 H   0  0  0  0  0  0
  -31.5037  -15.8033   23.0046 H   0  0  0  0  0  0
  -29.7815  -15.4954   23.2938 H   0  0  0  0  0  0
  -27.4102  -17.8484   17.5351 H   0  0  0  0  0  0
  -27.0501  -18.8077   18.9663 H   0  0  0  0  0  0
  -27.3234  -17.0755   19.1127 H   0  0  0  0  0  0
  -29.7109  -17.3823   18.3790 H   0  0  0  0  0  0
  -29.4648  -19.0827   18.2041 H   0  0  0  0  0  0
  -28.0555  -20.9491   19.6529 H   0  0  0  0  0  0
  -29.7093  -21.1551   19.1602 H   0  0  0  0  0  0
  -28.7744  -15.5522   20.4171 H   0  0  0  0  0  0
  -28.5059  -22.3854   21.4964 H   0  0  0  0  0  0
  1 25  1  0  0  0
  1 30  2  0  0  0
  1 87  1  0  0  0
  2  3  1  0  0  0
  2 25  1  0  0  0
  2 89  1  0  0  0
  2 90  1  0  0  0
  3  4  1  0  0  0
  3 91  1  0  0  0
  3 92  1  0  0  0
  4  5  1  0  0  0
  4 93  1  0  0  0
  4 94  1  0  0  0
  5  6  1  0  0  0
  5 26  1  0  0  0
  5 95  1  0  0  0
  6 25  1  0  0  0
  6 96  1  0  0  0
  6 97  1  0  0  0
  7  8  2  0  0  0
  7 26  1  0  0  0
  7 29  1  0  0  0
  8  9  1  0  0  0
  8 22  1  0  0  0
  9 10  1  0  0  0
  9 27  2  0  0  0
 10 11  2  0  0  0
 10 15  1  0  0  0
 11 12  1  0  0  0
 11 98  1  0  0  0
 12 13  2  0  0  0
 12 99  1  0  0  0
 13 14  1  0  0  0
 13 31  1  0  0  0
 14 15  2  0  0  0
 14100  1  0  0  0
 15101  1  0  0  0
 16 17  2  0  0  0
 16 21  1  0  0  0
 16 31  1  0  0  0
 17 18  1  0  0  0
 17102  1  0  0  0
 18 19  2  0  0  0
 18103  1  0  0  0
 19 20  1  0  0  0
 19 24  1  0  0  0
 20 21  2  0  0  0
 20104  1  0  0  0
 21 23  1  0  0  0
 22 28  1  0  0  0
 22 32  2  0  0  0
 26 27  1  0  0  0
 28105  1  0  0  0
 28106  1  0  0  0
 29107  1  0  0  0
 29108  1  0  0  0
 33 34  1  0  0  0
 33 66  1  0  0  0
 33 70  2  0  0  0
 34 36  1  0  0  0
 34 59  1  0  0  0
 34109  1  0  0  0
 35 44  2  0  0  0
 35 45  1  0  0  0
 35 68  1  0  0  0
 36 56  1  0  0  0
 36110  1  0  0  0
 37 39  1  0  0  0
 37 47  1  0  0  0
 37 66  1  0  0  0
 37111  1  0  0  0
 38 43  2  0  0  0
 38 46  1  0  0  0
 38 47  1  0  0  0
 39 64  1  0  0  0
 39 67  2  0  0  0
 40 52  1  0  0  0
 40 53  2  0  0  0
 40 58  1  0  0  0
 41112  1  0  0  0
 41113  1  0  0  0
 41114  1  0  0  0
 41 48  1  0  0  0
 42 43  1  0  0  0
 42 66  1  0  0  0
 42115  1  0  0  0
 42116  1  0  0  0
 43 44  1  0  0  0
 44117  1  0  0  0
 45 46  2  0  0  0
 45118  1  0  0  0
 46119  1  0  0  0
 47120  1  0  0  0
 47121  1  0  0  0
 48 56  1  0  0  0
 48 65  1  0  0  0
 48122  1  0  0  0
 49 50  1  0  0  0
 49 53  1  0  0  0
 49 64  1  0  0  0
 49123  1  0  0  0
 50 51  1  0  0  0
 50124  1  0  0  0
 50125  1  0  0  0
 51 52  1  0  0  0
 51126  1  0  0  0
 51127  1  0  0  0
 52128  1  0  0  0
 52129  1  0  0  0
 53 54  1  0  0  0
 54 55  2  0  0  0
 54130  1  0  0  0
 55 57  1  0  0  0
 55131  1  0  0  0
 56 69  2  0  0  0
 57 58  2  0  0  0
 57132  1  0  0  0
 58133  1  0  0  0
 59 60  1  0  0  0
 59 61  1  0  0  0
 59 62  1  0  0  0
 60134  1  0  0  0
 60135  1  0  0  0
 60136  1  0  0  0
 61137  1  0  0  0
 61138  1  0  0  0
 61139  1  0  0  0
 62140  1  0  0  0
 62141  1  0  0  0
 62142  1  0  0  0
 63 65  1  0  0  0
 63143  1  0  0  0
 63144  1  0  0  0
 63145  1  0  0  0
 64146  1  0  0  0
 65147  1  0  0  0
 68 82  1  0  0  0
 71 72  2  0  0  0
 71 73  1  0  0  0
 71148  1  0  0  0
 72 74  1  0  0  0
 72149  1  0  0  0
 73 75  2  0  0  0
 73 86  1  0  0  0
 74 76  2  0  0  0
 74 83  1  0  0  0
 75 76  1  0  0  0
 75 85  1  0  0  0
 76 87  1  0  0  0
 77 78  2  0  0  0
 77 82  1  0  0  0
 77 88  1  0  0  0
 78150  1  0  0  0
 78151  1  0  0  0
 79 80  1  0  0  0
 79 81  1  0  0  0
 79152  1  0  0  0
 79153  1  0  0  0
 80 82  1  0  0  0
 80154  1  0  0  0
 80155  1  0  0  0
 81 88  1  0  0  0
 81156  1  0  0  0
 81157  1  0  0  0
 82158  1  0  0  0
 83159  1  0  0  0
 83160  1  0  0  0
 83161  1  0  0  0
 84 85  1  0  0  0
 84162  1  0  0  0
 84163  1  0  0  0
 84164  1  0  0  0
 85165  1  0  0  0
 85166  1  0  0  0
 86167  1  0  0  0
 86168  1  0  0  0
 86 88  1  0  0  0
 87169  1  0  0  0
 88170  1  0  0  0
M  CHG  1  88   1
M  ISO  4   1 100  68 101  82 101  87 100
M  END
> <chiral flag>
0

> <version>
0

> <s_m_source_file>
/data/baiqing/PycharmProjects/Reinvent-master-3.2/result/LINK_invent/BTK/process_docking_weight1_custom_product_contain_oxygen_bond_distance_aromatic_linkinvent_7_9_3/rearranged_h_0038.sdf

> <i_m_source_file_index>
36

> <r_mmod_Potential_Energy-OPLS-2005>
73.5519485473633

> <r_mmod_Stretch_Energy-OPLS-2005>
132.695663452148

> <r_mmod_Bend_Energy-OPLS-2005>
176.731781005859

> <r_mmod_Torsional_Energy-OPLS-2005>
280.798614501953

> <r_mmod_Improper_Torsional_Energy-OPLS-2005>
9.76698780059814

> <r_mmod_Van_der_Waal_Energy-OPLS-2005>
131.446273803711

> <r_mmod_Electrostatic_Energy-OPLS-2005>
-303.891571044922

> <r_mmod_Solvation_Energy-OPLS-2005>
-429.286376953125

> <b_mmod_Minimization_Converged-OPLS-2005>
0

> <r_mmod_RMS_Derivative-OPLS-2005>
0.496954143047333

$$$$
36
                    3D
 Structure written by MMmdl.
159167  0  0  1  0            999 V2000
  -29.7214  -15.2899   21.0721 C   0  0  0  0  0  0
  -30.4492  -13.1380   19.6823 C   0  0  0  0  0  0
  -29.6157  -12.5903   18.4322 C   0  0  0  0  0  0
  -28.2111  -12.0915   18.8206 C   0  0  0  0  0  0
  -27.5881  -13.0809   19.8507 C   0  0  2  0  0  0
  -28.4360  -13.0560   21.0944 C   0  0  0  0  0  0
  -25.2005  -13.7611   20.4927 C   0  0  0  0  0  0
  -24.1217  -12.9919   20.9086 C   0  0  0  0  0  0
  -24.5847  -11.6573   20.8657 C   0  0  0  0  0  0
  -23.8491  -10.4081   21.0581 C   0  0  0  0  0  0
  -24.3329   -9.4091   21.9229 C   0  0  0  0  0  0
  -23.6079   -8.2101   22.0666 C   0  0  0  0  0  0
  -22.4143   -8.0168   21.3504 C   0  0  0  0  0  0
  -21.9725   -9.0003   20.4650 C   0  0  0  0  0  0
  -22.6784  -10.1860   20.3077 C   0  0  0  0  0  0
  -21.6822   -6.0584   22.5283 C   0  0  0  0  0  0
  -21.3931   -6.5551   23.8152 C   0  0  0  0  0  0
  -21.3666   -5.6799   24.9230 C   0  0  0  0  0  0
  -21.6027   -4.3001   24.7305 C   0  0  0  0  0  0
  -21.8884   -3.8026   23.4432 C   0  0  0  0  0  0
  -21.9129   -4.6839   22.3460 C   0  0  0  0  0  0
  -22.7538  -13.5183   21.1916 C   0  0  0  0  0  0
  -22.1651   -4.2074   21.0998 F   0  0  0  0  0  0
  -21.5669   -3.4497   25.7756 F   0  0  0  0  0  0
  -29.5856  -13.8691   20.7666 N   0  0  0  0  0  0
  -26.2367  -12.8474   20.2731 N   0  0  0  0  0  0
  -25.8611  -11.5837   20.5297 N   0  0  0  0  0  0
  -22.0164  -12.8228   22.0634 N   0  0  0  0  0  0
  -25.3637  -15.1219   20.3144 N   0  0  0  0  0  0
  -30.8503  -15.6691   20.6855 O   0  0  0  0  0  0
  -21.6523   -6.8664   21.4234 O   0  0  0  0  0  0
  -22.3365  -14.5469   20.6767 O   0  0  0  0  0  0
  -24.5676  -31.8460   23.2547 C   0  0  0  0  0  0
  -25.9098  -32.4701   23.8426 C   0  0  1  0  0  0
  -26.9875  -27.2903   20.3436 C   0  0  0  0  0  0
  -25.6243  -33.8484   24.2457 N   0  0  0  0  0  0
  -23.2792  -30.4061   21.6404 C   0  0  2  0  0  0
  -24.8240  -28.9979   20.0860 C   0  0  0  0  0  0
  -22.5441  -29.4056   22.4829 C   0  0  0  0  0  0
  -17.8300  -28.3040   23.1057 C   0  0  0  0  0  0
  -24.1525  -36.7382   23.2622 C   0  0  0  0  0  0
  -25.8521  -30.7742   21.4353 C   0  0  0  0  0  0
  -25.9533  -29.4377   20.7594 C   0  0  0  0  0  0
  -27.0696  -28.5774   20.8958 C   0  0  0  0  0  0
  -25.9265  -26.9448   19.4765 C   0  0  0  0  0  0
  -24.8267  -27.7753   19.4183 C   0  0  0  0  0  0
  -23.5633  -29.8506   20.2106 C   0  0  0  0  0  0
  -25.4174  -36.3063   24.0309 C   0  0  1  0  0  0
  -20.3603  -28.2857   23.1489 C   0  0  2  0  0  0
  -20.1357  -27.2869   21.8682 C   0  0  0  0  0  0
  -18.9140  -26.5556   21.5434 C   0  0  0  0  0  0
  -17.8534  -26.8674   22.6635 C   0  0  0  0  0  0
  -19.0532  -28.9764   23.5003 C   0  0  0  0  0  0
  -18.8708  -30.2643   24.0964 C   0  0  0  0  0  0
  -17.5806  -30.9244   24.2734 C   0  0  0  0  0  0
  -25.9130  -34.9433   23.5239 C   0  0  0  0  0  0
  -16.4407  -30.3637   23.7026 C   0  0  0  0  0  0
  -16.5241  -28.9761   23.2778 C   0  0  0  0  0  0
  -26.4607  -31.6596   25.0843 C   0  0  0  0  0  0
  -25.3797  -31.3767   26.1442 C   0  0  0  0  0  0
  -27.0402  -30.3073   24.6236 C   0  0  0  0  0  0
  -27.6164  -32.4217   25.7818 C   0  0  0  0  0  0
  -27.5603  -37.1896   24.8456 C   0  0  0  0  0  0
  -21.1720  -29.3537   22.5630 N   0  0  0  0  0  0
  -26.4316  -37.3868   23.9348 N   0  0  0  0  0  0
  -24.5657  -31.0184   22.1813 N   0  0  0  0  0  0
  -23.2350  -28.6368   23.1561 O   0  0  0  0  0  0
  -27.5710  -26.2641   21.0252 O   0  0  0  0  0  0
  -26.5369  -34.8916   22.4581 O   0  0  0  0  0  0
  -23.4951  -32.0929   23.8155 O   0  0  0  0  0  0
  -24.8139  -18.4373   22.8738 C   0  0  0  0  0  0
  -24.3259  -20.6064   23.8505 C   0  0  0  0  0  0
  -23.8817  -19.4371   23.5103 C   0  0  0  0  0  0
  -26.3208  -18.6548   22.6185 C   0  0  0  0  0  0
  -25.5143  -21.2143   23.3381 C   0  0  0  0  0  0
  -26.4466  -20.1543   22.9021 C   0  0  0  0  0  0
  -22.2960  -19.5224   23.5173 C   0  0  0  0  0  0
  -27.5113  -17.2995   22.3849 C   0  0  0  0  0  0
  -25.5173  -22.8542   23.8195 C   0  0  0  0  0  0
  -25.8098  -25.3202   23.1791 C   0  0  0  0  0  0
  -26.5500  -25.3640   21.7261 C   0  0  0  0  0  0
  -28.5256  -16.2414   21.3197 N   0  0  0  0  0  0
  -24.9042  -24.1176   23.2872 N   0  3  0  0  0  0
  -27.9680  -21.0046   22.9872 Cl  0  0  0  0  0  0
  -30.8497  -13.9892   19.0912 H   0  0  0  0  0  0
  -31.4538  -12.7465   19.8966 H   0  0  0  0  0  0
  -30.1559  -11.8127   17.8861 H   0  0  0  0  0  0
  -29.4507  -13.3828   17.6809 H   0  0  0  0  0  0
  -28.3529  -11.1193   19.3030 H   0  0  0  0  0  0
  -27.5780  -11.8174   17.9672 H   0  0  0  0  0  0
  -27.5939  -14.0906   19.4270 H   0  0  0  0  0  0
  -28.5916  -12.0168   21.3637 H   0  0  0  0  0  0
  -27.9139  -13.4419   21.9719 H   0  0  0  0  0  0
  -25.2486   -9.5694   22.4828 H   0  0  0  0  0  0
  -23.9877   -7.4502   22.7463 H   0  0  0  0  0  0
  -21.0613   -8.8491   19.8940 H   0  0  0  0  0  0
  -22.3302  -10.9473   19.6255 H   0  0  0  0  0  0
  -21.1915   -7.6070   23.9703 H   0  0  0  0  0  0
  -21.1438   -6.0460   25.9094 H   0  0  0  0  0  0
  -22.0624   -2.7526   23.2941 H   0  0  0  0  0  0
  -22.3501  -11.9735   22.4843 H   0  0  0  0  0  0
  -21.0800  -13.1282   22.2804 H   0  0  0  0  0  0
  -24.5244  -15.7029   20.3896 H   0  0  0  0  0  0
  -26.0857  -15.5442   19.7472 H   0  0  0  0  0  0
  -26.7126  -32.4973   23.0968 H   0  0  0  0  0  0
  -25.0870  -33.9709   25.0936 H   0  0  0  0  0  0
  -22.6194  -31.2473   21.4933 H   0  0  0  0  0  0
  -23.3797  -35.9695   23.3207 H   0  0  0  0  0  0
  -24.3643  -36.8997   22.2030 H   0  0  0  0  0  0
  -23.7235  -37.6655   23.6585 H   0  0  0  0  0  0
  -25.9430  -31.5492   20.6524 H   0  0  0  0  0  0
  -26.7807  -30.8180   22.0214 H   0  0  0  0  0  0
  -27.8189  -28.7957   21.6384 H   0  0  0  0  0  0
  -25.7174  -25.9162   19.1861 H   0  0  0  0  0  0
  -23.9377  -27.4595   18.9239 H   0  0  0  0  0  0
  -23.7140  -30.7182   19.5635 H   0  0  0  0  0  0
  -22.7264  -29.3827   19.7197 H   0  0  0  0  0  0
  -25.1265  -36.1967   25.0787 H   0  0  0  0  0  0
  -20.4244  -27.9536   24.1623 H   0  0  0  0  0  0
  -20.9813  -27.1439   21.1161 H   0  0  0  0  0  0
  -19.6380  -28.0673   21.2916 H   0  0  0  0  0  0
  -18.8926  -25.3969   21.5146 H   0  0  0  0  0  0
  -18.2798  -27.0469   20.7259 H   0  0  0  0  0  0
  -16.7969  -26.9768   22.5296 H   0  0  0  0  0  0
  -17.8756  -26.2014   23.5324 H   0  0  0  0  0  0
  -19.7367  -30.7549   24.4336 H   0  0  0  0  0  0
  -17.4356  -31.8342   24.8476 H   0  0  0  0  0  0
  -15.4777  -30.8620   23.7212 H   0  0  0  0  0  0
  -15.5284  -28.4215   23.2476 H   0  0  0  0  0  0
  -24.5900  -30.7338   25.7643 H   0  0  0  0  0  0
  -24.9066  -32.2929   26.4861 H   0  0  0  0  0  0
  -25.7841  -30.8697   27.0152 H   0  0  0  0  0  0
  -26.3032  -29.6938   24.1073 H   0  0  0  0  0  0
  -27.3887  -29.7112   25.4675 H   0  0  0  0  0  0
  -27.8843  -30.4382   23.9461 H   0  0  0  0  0  0
  -27.2882  -33.3407   26.2676 H   0  0  0  0  0  0
  -28.4212  -32.6765   25.0975 H   0  0  0  0  0  0
  -28.0679  -31.8046   26.5567 H   0  0  0  0  0  0
  -28.2553  -38.0315   24.7607 H   0  0  0  0  0  0
  -28.1176  -36.2767   24.6114 H   0  0  0  0  0  0
  -27.2346  -37.1468   25.8927 H   0  0  0  0  0  0
  -20.4035  -30.1017   22.4820 H   0  0  0  0  0  0
  -26.0160  -38.2899   24.1549 H   0  0  0  0  0  0
  -24.2865  -17.5722   22.6579 H   0  0  0  0  0  0
  -23.7347  -21.3339   24.4626 H   0  0  0  0  0  0
  -22.1085  -20.5805   23.0889 H   0  0  0  0  0  0
  -21.9704  -19.7690   24.5271 H   0  0  0  0  0  0
  -21.3779  -18.8639   23.3686 H   0  0  0  0  0  0
  -26.6566  -17.0349   21.7309 H   0  0  0  0  0  0
  -28.2122  -18.0847   22.1236 H   0  0  0  0  0  0
  -25.5262  -22.9579   24.9503 H   0  0  0  0  0  0
  -24.4304  -22.7823   23.8110 H   0  0  0  0  0  0
  -25.4009  -26.2769   23.3947 H   0  0  0  0  0  0
  -26.4612  -25.2917   24.0707 H   0  0  0  0  0  0
  -25.6427  -25.4002   21.1286 H   0  0  0  0  0  0
  -26.8324  -24.3175   21.7344 H   0  0  0  0  0  0
  -28.3780  -16.7896   20.4651 H   0  0  0  0  0  0
  -24.2574  -24.3908   24.0342 H   0  0  0  0  0  0
  -24.2218  -24.0215   22.5348 H   0  0  0  0  0  0
  1 25  1  0  0  0
  1 30  2  0  0  0
  1 82  1  0  0  0
  2  3  1  0  0  0
  2 25  1  0  0  0
  2 85  1  0  0  0
  2 86  1  0  0  0
  3  4  1  0  0  0
  3 87  1  0  0  0
  3 88  1  0  0  0
  4  5  1  0  0  0
  4 89  1  0  0  0
  4 90  1  0  0  0
  5  6  1  0  0  0
  5 26  1  0  0  0
  5 91  1  0  0  0
  6 25  1  0  0  0
  6 92  1  0  0  0
  6 93  1  0  0  0
  7  8  2  0  0  0
  7 26  1  0  0  0
  7 29  1  0  0  0
  8  9  1  0  0  0
  8 22  1  0  0  0
  9 10  1  0  0  0
  9 27  2  0  0  0
 10 11  2  0  0  0
 10 15  1  0  0  0
 11 12  1  0  0  0
 11 94  1  0  0  0
 12 13  2  0  0  0
 12 95  1  0  0  0
 13 14  1  0  0  0
 13 31  1  0  0  0
 14 15  2  0  0  0
 14 96  1  0  0  0
 15 97  1  0  0  0
 16 17  2  0  0  0
 16 21  1  0  0  0
 16 31  1  0  0  0
 17 18  1  0  0  0
 17 98  1  0  0  0
 18 19  2  0  0  0
 18 99  1  0  0  0
 19 20  1  0  0  0
 19 24  1  0  0  0
 20 21  2  0  0  0
 20100  1  0  0  0
 21 23  1  0  0  0
 22 28  1  0  0  0
 22 32  2  0  0  0
 26 27  1  0  0  0
 28101  1  0  0  0
 28102  1  0  0  0
 29103  1  0  0  0
 29104  1  0  0  0
 33 34  1  0  0  0
 33 66  1  0  0  0
 33 70  2  0  0  0
 34 36  1  0  0  0
 34 59  1  0  0  0
 34105  1  0  0  0
 35 44  2  0  0  0
 35 45  1  0  0  0
 35 68  1  0  0  0
 36 56  1  0  0  0
 36106  1  0  0  0
 37 39  1  0  0  0
 37 47  1  0  0  0
 37 66  1  0  0  0
 37107  1  0  0  0
 38 43  2  0  0  0
 38 46  1  0  0  0
 38 47  1  0  0  0
 39 64  1  0  0  0
 39 67  2  0  0  0
 40 52  1  0  0  0
 40 53  2  0  0  0
 40 58  1  0  0  0
 41108  1  0  0  0
 41109  1  0  0  0
 41110  1  0  0  0
 41 48  1  0  0  0
 42 43  1  0  0  0
 42 66  1  0  0  0
 42111  1  0  0  0
 42112  1  0  0  0
 43 44  1  0  0  0
 44113  1  0  0  0
 45 46  2  0  0  0
 45114  1  0  0  0
 46115  1  0  0  0
 47116  1  0  0  0
 47117  1  0  0  0
 48 56  1  0  0  0
 48 65  1  0  0  0
 48118  1  0  0  0
 49 50  1  0  0  0
 49 53  1  0  0  0
 49 64  1  0  0  0
 49119  1  0  0  0
 50 51  1  0  0  0
 50120  1  0  0  0
 50121  1  0  0  0
 51 52  1  0  0  0
 51122  1  0  0  0
 51123  1  0  0  0
 52124  1  0  0  0
 52125  1  0  0  0
 53 54  1  0  0  0
 54 55  2  0  0  0
 54126  1  0  0  0
 55 57  1  0  0  0
 55127  1  0  0  0
 56 69  2  0  0  0
 57 58  2  0  0  0
 57128  1  0  0  0
 58129  1  0  0  0
 59 60  1  0  0  0
 59 61  1  0  0  0
 59 62  1  0  0  0
 60130  1  0  0  0
 60131  1  0  0  0
 60132  1  0  0  0
 61133  1  0  0  0
 61134  1  0  0  0
 61135  1  0  0  0
 62136  1  0  0  0
 62137  1  0  0  0
 62138  1  0  0  0
 63 65  1  0  0  0
 63139  1  0  0  0
 63140  1  0  0  0
 63141  1  0  0  0
 64142  1  0  0  0
 65143  1  0  0  0
 68 81  1  0  0  0
 71 73  2  0  0  0
 71 74  1  0  0  0
 71144  1  0  0  0
 72 73  1  0  0  0
 72 75  2  0  0  0
 72145  1  0  0  0
 73 77  1  0  0  0
 74 76  2  0  0  0
 74 78  1  0  0  0
 75 76  1  0  0  0
 75 79  1  0  0  0
 76 84  1  0  0  0
 77146  1  0  0  0
 77147  1  0  0  0
 77148  1  0  0  0
 78 82  1  0  0  0
 78149  1  0  0  0
 78150  1  0  0  0
 79 83  1  0  0  0
 79151  1  0  0  0
 79152  1  0  0  0
 80 81  1  0  0  0
 80 83  1  0  0  0
 80153  1  0  0  0
 80154  1  0  0  0
 81155  1  0  0  0
 81156  1  0  0  0
 82157  1  0  0  0
 83158  1  0  0  0
 83159  1  0  0  0
M  CHG  1  83   1
M  ISO  4   1 100  68 101  81 101  82 100
M  END
> <chiral flag>
0

> <version>
0

> <s_m_source_file>
/data/baiqing/PycharmProjects/Reinvent-master-3.2/result/LINK_invent/BTK/process_docking_weight1_custom_product_contain_oxygen_bond_distance_aromatic_linkinvent_7_9_3/rearranged_h_0038.sdf

> <i_m_source_file_index>
37

> <r_mmod_Potential_Energy-OPLS-2005>
3326.41943359375

> <r_mmod_Stretch_Energy-OPLS-2005>
841.910705566406

> <r_mmod_Bend_Energy-OPLS-2005>
1352.12927246094

> <r_mmod_Torsional_Energy-OPLS-2005>
465.759216308594

> <r_mmod_Improper_Torsional_Energy-OPLS-2005>
43.3172302246094

> <r_mmod_Van_der_Waal_Energy-OPLS-2005>
241.762771606445

> <r_mmod_Electrostatic_Energy-OPLS-2005>
-322.489135742188

> <r_mmod_Solvation_Energy-OPLS-2005>
-451.024017333984

> <b_mmod_Minimization_Converged-OPLS-2005>
0

> <r_mmod_RMS_Derivative-OPLS-2005>
99.9990005493164

$$$$
37
                    3D
 Structure written by MMmdl.
163171  0  0  1  0            999 V2000
  -30.7236  -14.5015   20.4923 C   0  0  0  0  0  0
  -30.4062  -12.3039   19.4415 C   0  0  0  0  0  0
  -29.4907  -12.4780   18.2131 C   0  0  0  0  0  0
  -28.0124  -12.3488   18.6263 C   0  0  0  0  0  0
  -27.6514  -13.2193   19.8609 C   0  0  2  0  0  0
  -28.6963  -13.0670   20.9899 C   0  0  0  0  0  0
  -25.2547  -13.8188   20.5696 C   0  0  0  0  0  0
  -24.1818  -13.0447   20.9202 C   0  0  0  0  0  0
  -24.6387  -11.6920   20.8749 C   0  0  0  0  0  0
  -23.9059  -10.4296   21.0408 C   0  0  0  0  0  0
  -24.3612   -9.4213   21.9182 C   0  0  0  0  0  0
  -23.6290   -8.2243   22.0751 C   0  0  0  0  0  0
  -22.4279   -8.0278   21.3540 C   0  0  0  0  0  0
  -21.9910   -9.0253   20.4643 C   0  0  0  0  0  0
  -22.7232  -10.2131   20.3054 C   0  0  0  0  0  0
  -21.6850   -6.0731   22.5277 C   0  0  0  0  0  0
  -21.4012   -6.5637   23.8212 C   0  0  0  0  0  0
  -21.3661   -5.6789   24.9171 C   0  0  0  0  0  0
  -21.6046   -4.3050   24.7222 C   0  0  0  0  0  0
  -21.8819   -3.8144   23.4343 C   0  0  0  0  0  0
  -21.9194   -4.6960   22.3399 C   0  0  0  0  0  0
  -22.7839  -13.5230   21.1861 C   0  0  0  0  0  0
  -22.1662   -4.2148   21.0976 F   0  0  0  0  0  0
  -21.5631   -3.4537   25.7732 F   0  0  0  0  0  0
  -30.0223  -13.3372   20.4188 N   0  0  0  0  0  0
  -26.2976  -12.9379   20.3327 N   0  0  0  0  0  0
  -25.9316  -11.6527   20.5773 N   0  0  0  0  0  0
  -22.0477  -12.8212   22.0405 N   0  0  0  0  0  0
  -25.4254  -15.1904   20.4091 N   0  0  0  0  0  0
  -31.9132  -14.5386   20.1830 O   0  0  0  0  0  0
  -21.6640   -6.8881   21.4239 O   0  0  0  0  0  0
  -22.3522  -14.5537   20.6711 O   0  0  0  0  0  0
  -24.6156  -31.8678   23.2090 C   0  0  0  0  0  0
  -25.9034  -32.4829   23.8388 C   0  0  1  0  0  0
  -27.2246  -27.4294   20.0995 C   0  0  0  0  0  0
  -25.5886  -33.8629   24.2335 N   0  0  0  0  0  0
  -23.4038  -30.4915   21.5508 C   0  0  2  0  0  0
  -24.8496  -28.9605   20.1094 C   0  0  0  0  0  0
  -22.7418  -29.4659   22.4989 C   0  0  0  0  0  0
  -18.0276  -28.1380   22.8498 C   0  0  0  0  0  0
  -24.1484  -36.7310   23.2639 C   0  0  0  0  0  0
  -25.9329  -30.8331   21.3604 C   0  0  0  0  0  0
  -26.0109  -29.4682   20.7059 C   0  0  0  0  0  0
  -27.2067  -28.7115   20.6957 C   0  0  0  0  0  0
  -26.0521  -26.9408   19.4869 C   0  0  0  0  0  0
  -24.8646  -27.6968   19.4937 C   0  0  0  0  0  0
  -23.6105  -29.8256   20.1640 C   0  0  0  0  0  0
  -25.4107  -36.3122   24.0345 C   0  0  1  0  0  0
  -20.5870  -28.3659   23.1322 C   0  0  2  0  0  0
  -20.6778  -26.9398   22.5417 C   0  0  0  0  0  0
  -19.5754  -26.6391   21.5216 C   0  0  0  0  0  0
  -18.1929  -26.7934   22.1615 C   0  0  0  0  0  0
  -19.1531  -28.8836   23.2911 C   0  0  0  0  0  0
  -18.9455  -30.1449   23.8911 C   0  0  0  0  0  0
  -17.6459  -30.6585   24.0573 C   0  0  0  0  0  0
  -25.9028  -34.9487   23.5135 C   0  0  0  0  0  0
  -16.5348  -29.9091   23.6332 C   0  0  0  0  0  0
  -16.7270  -28.6509   23.0341 C   0  0  0  0  0  0
  -26.4463  -31.6597   25.0707 C   0  0  0  0  0  0
  -25.3735  -31.3696   26.1451 C   0  0  0  0  0  0
  -27.0274  -30.3049   24.6033 C   0  0  0  0  0  0
  -27.6042  -32.4305   25.7471 C   0  0  0  0  0  0
  -27.5584  -37.1810   24.8468 C   0  0  0  0  0  0
  -21.4146  -29.3028   22.3723 N   0  0  0  0  0  0
  -26.4300  -37.3797   23.9414 N   0  0  0  0  0  0
  -24.6695  -31.0775   22.0990 N   0  0  0  0  0  0
  -23.4194  -28.8199   23.3026 O   0  0  0  0  0  0
  -28.3498  -26.6345   20.1326 O   0  0  0  0  0  0
  -26.5588  -34.8936   22.4699 O   0  0  0  0  0  0
  -23.5348  -32.1415   23.7494 O   0  0  0  0  0  0
  -31.4681  -17.3398   19.6165 C   0  0  0  0  0  0
  -29.6263  -19.4072   20.1824 C   0  0  0  0  0  0
  -31.7205  -18.6379   19.1523 C   0  0  0  0  0  0
  -30.7798  -19.6674   19.3764 C   0  0  0  0  0  0
  -29.3988  -18.0666   20.6661 C   0  0  0  0  0  0
  -30.3044  -17.0046   20.3499 C   0  0  0  0  0  0
  -28.6374  -20.5325   20.4683 C   0  0  0  0  0  0
  -33.0162  -18.8809   18.3887 C   0  0  0  0  0  0
  -31.0297  -21.0253   18.7072 C   0  0  0  0  0  0
  -28.1762  -17.7545   21.5329 C   0  0  0  0  0  0
  -28.7755  -24.1576   20.3886 C   0  0  0  0  0  0
  -28.4460  -22.9248   21.2783 C   0  0  0  0  0  0
  -28.1975  -25.4723   20.9743 C   0  0  0  0  0  0
  -30.0108  -15.6325   20.7349 N   0  0  0  0  0  0
  -29.1626  -21.6949   20.9018 N   0  0  0  0  0  0
  -27.4252  -20.3724   20.3140 O   0  0  0  0  0  0
  -31.4535  -12.3675   19.1402 H   0  0  0  0  0  0
  -30.2826  -11.3105   19.8766 H   0  0  0  0  0  0
  -29.7313  -11.7312   17.4550 H   0  0  0  0  0  0
  -29.6646  -13.4512   17.7514 H   0  0  0  0  0  0
  -27.8274  -11.2977   18.8494 H   0  0  0  0  0  0
  -27.3620  -12.5973   17.7867 H   0  0  0  0  0  0
  -27.6760  -14.2560   19.5245 H   0  0  0  0  0  0
  -28.6712  -12.0563   21.4005 H   0  0  0  0  0  0
  -28.4730  -13.7368   21.8213 H   0  0  0  0  0  0
  -25.2759   -9.5685   22.4755 H   0  0  0  0  0  0
  -24.0004   -7.4632   22.7465 H   0  0  0  0  0  0
  -21.0846   -8.8767   19.8944 H   0  0  0  0  0  0
  -22.3698  -10.9667   19.6159 H   0  0  0  0  0  0
  -21.2000   -7.6146   23.9713 H   0  0  0  0  0  0
  -21.1483   -6.0518   25.9075 H   0  0  0  0  0  0
  -22.0597   -2.7608   23.2840 H   0  0  0  0  0  0
  -22.4087  -11.9868   22.4786 H   0  0  0  0  0  0
  -21.1089  -13.1224   22.2595 H   0  0  0  0  0  0
  -24.6556  -15.8426   20.5133 H   0  0  0  0  0  0
  -26.2642  -15.6238   20.0460 H   0  0  0  0  0  0
  -26.7106  -32.5528   23.1154 H   0  0  0  0  0  0
  -25.0074  -33.9809   25.0500 H   0  0  0  0  0  0
  -22.6940  -31.3096   21.4139 H   0  0  0  0  0  0
  -23.3758  -35.9628   23.3313 H   0  0  0  0  0  0
  -24.3592  -36.8895   22.2052 H   0  0  0  0  0  0
  -23.7223  -37.6519   23.6629 H   0  0  0  0  0  0
  -26.0413  -31.5986   20.5910 H   0  0  0  0  0  0
  -26.8253  -30.8903   21.9730 H   0  0  0  0  0  0
  -28.1014  -29.0950   21.1665 H   0  0  0  0  0  0
  -26.0542  -25.9664   19.0188 H   0  0  0  0  0  0
  -23.9710  -27.3026   19.0293 H   0  0  0  0  0  0
  -23.7163  -30.6021   19.4057 H   0  0  0  0  0  0
  -22.7349  -29.2439   19.8684 H   0  0  0  0  0  0
  -25.1286  -36.1994   25.0839 H   0  0  0  0  0  0
  -20.9965  -28.3202   24.1437 H   0  0  0  0  0  0
  -20.5696  -26.2245   23.3589 H   0  0  0  0  0  0
  -21.6640  -26.7450   22.1186 H   0  0  0  0  0  0
  -19.6914  -25.6310   21.1217 H   0  0  0  0  0  0
  -19.6708  -27.3231   20.6777 H   0  0  0  0  0  0
  -17.4208  -26.6697   21.4011 H   0  0  0  0  0  0
  -18.0317  -26.0082   22.9006 H   0  0  0  0  0  0
  -19.7936  -30.7270   24.2265 H   0  0  0  0  0  0
  -17.5018  -31.6269   24.5172 H   0  0  0  0  0  0
  -15.5350  -30.2995   23.7669 H   0  0  0  0  0  0
  -15.8665  -28.0856   22.7018 H   0  0  0  0  0  0
  -24.5929  -30.7012   25.7792 H   0  0  0  0  0  0
  -24.8906  -32.2853   26.4874 H   0  0  0  0  0  0
  -25.8107  -30.8895   27.0213 H   0  0  0  0  0  0
  -26.2794  -29.6835   24.1095 H   0  0  0  0  0  0
  -27.4088  -29.7245   25.4439 H   0  0  0  0  0  0
  -27.8605  -30.4400   23.9137 H   0  0  0  0  0  0
  -27.2668  -33.3604   26.2064 H   0  0  0  0  0  0
  -28.3850  -32.6856   25.0292 H   0  0  0  0  0  0
  -28.0702  -31.8408   26.5376 H   0  0  0  0  0  0
  -28.2600  -38.0107   24.7515 H   0  0  0  0  0  0
  -28.1083  -36.2641   24.6293 H   0  0  0  0  0  0
  -27.2308  -37.1445   25.8870 H   0  0  0  0  0  0
  -20.9291  -29.8736   21.6947 H   0  0  0  0  0  0
  -26.0195  -38.2875   24.1409 H   0  0  0  0  0  0
  -32.2104  -16.6086   19.3483 H   0  0  0  0  0  0
  -33.7385  -18.0821   18.5639 H   0  0  0  0  0  0
  -33.4930  -19.8100   18.7029 H   0  0  0  0  0  0
  -32.8266  -18.9279   17.3164 H   0  0  0  0  0  0
  -30.1067  -21.5295   18.4217 H   0  0  0  0  0  0
  -31.5877  -20.9281   17.7772 H   0  0  0  0  0  0
  -31.5982  -21.6816   19.3665 H   0  0  0  0  0  0
  -28.0142  -18.5340   22.2780 H   0  0  0  0  0  0
  -28.2675  -16.8269   22.0964 H   0  0  0  0  0  0
  -27.2831  -17.6817   20.9114 H   0  0  0  0  0  0
  -28.3719  -23.9952   19.3882 H   0  0  0  0  0  0
  -29.8549  -24.2634   20.2754 H   0  0  0  0  0  0
  -27.3670  -22.7578   21.2828 H   0  0  0  0  0  0
  -28.7154  -23.1446   22.3116 H   0  0  0  0  0  0
  -28.7035  -25.6886   21.9163 H   0  0  0  0  0  0
  -27.1523  -25.2987   21.2412 H   0  0  0  0  0  0
  -29.0742  -15.4675   21.0678 H   0  0  0  0  0  0
  -30.1679  -21.7020   21.0111 H   0  0  0  0  0  0
  1 25  1  0  0  0
  1 30  2  0  0  0
  1 84  1  0  0  0
  2  3  1  0  0  0
  2 25  1  0  0  0
  2 87  1  0  0  0
  2 88  1  0  0  0
  3  4  1  0  0  0
  3 89  1  0  0  0
  3 90  1  0  0  0
  4  5  1  0  0  0
  4 91  1  0  0  0
  4 92  1  0  0  0
  5  6  1  0  0  0
  5 26  1  0  0  0
  5 93  1  0  0  0
  6 25  1  0  0  0
  6 94  1  0  0  0
  6 95  1  0  0  0
  7  8  2  0  0  0
  7 26  1  0  0  0
  7 29  1  0  0  0
  8  9  1  0  0  0
  8 22  1  0  0  0
  9 10  1  0  0  0
  9 27  2  0  0  0
 10 11  2  0  0  0
 10 15  1  0  0  0
 11 12  1  0  0  0
 11 96  1  0  0  0
 12 13  2  0  0  0
 12 97  1  0  0  0
 13 14  1  0  0  0
 13 31  1  0  0  0
 14 15  2  0  0  0
 14 98  1  0  0  0
 15 99  1  0  0  0
 16 17  2  0  0  0
 16 21  1  0  0  0
 16 31  1  0  0  0
 17 18  1  0  0  0
 17100  1  0  0  0
 18 19  2  0  0  0
 18101  1  0  0  0
 19 20  1  0  0  0
 19 24  1  0  0  0
 20 21  2  0  0  0
 20102  1  0  0  0
 21 23  1  0  0  0
 22 28  1  0  0  0
 22 32  2  0  0  0
 26 27  1  0  0  0
 28103  1  0  0  0
 28104  1  0  0  0
 29105  1  0  0  0
 29106  1  0  0  0
 33 34  1  0  0  0
 33 66  1  0  0  0
 33 70  2  0  0  0
 34 36  1  0  0  0
 34 59  1  0  0  0
 34107  1  0  0  0
 35 44  2  0  0  0
 35 45  1  0  0  0
 35 68  1  0  0  0
 36 56  1  0  0  0
 36108  1  0  0  0
 37 39  1  0  0  0
 37 47  1  0  0  0
 37 66  1  0  0  0
 37109  1  0  0  0
 38 43  2  0  0  0
 38 46  1  0  0  0
 38 47  1  0  0  0
 39 64  1  0  0  0
 39 67  2  0  0  0
 40 52  1  0  0  0
 40 53  2  0  0  0
 40 58  1  0  0  0
 41110  1  0  0  0
 41111  1  0  0  0
 41112  1  0  0  0
 41 48  1  0  0  0
 42 43  1  0  0  0
 42 66  1  0  0  0
 42113  1  0  0  0
 42114  1  0  0  0
 43 44  1  0  0  0
 44115  1  0  0  0
 45 46  2  0  0  0
 45116  1  0  0  0
 46117  1  0  0  0
 47118  1  0  0  0
 47119  1  0  0  0
 48 56  1  0  0  0
 48 65  1  0  0  0
 48120  1  0  0  0
 49 50  1  0  0  0
 49 53  1  0  0  0
 49 64  1  0  0  0
 49121  1  0  0  0
 50 51  1  0  0  0
 50122  1  0  0  0
 50123  1  0  0  0
 51 52  1  0  0  0
 51124  1  0  0  0
 51125  1  0  0  0
 52126  1  0  0  0
 52127  1  0  0  0
 53 54  1  0  0  0
 54 55  2  0  0  0
 54128  1  0  0  0
 55 57  1  0  0  0
 55129  1  0  0  0
 56 69  2  0  0  0
 57 58  2  0  0  0
 57130  1  0  0  0
 58131  1  0  0  0
 59 60  1  0  0  0
 59 61  1  0  0  0
 59 62  1  0  0  0
 60132  1  0  0  0
 60133  1  0  0  0
 60134  1  0  0  0
 61135  1  0  0  0
 61136  1  0  0  0
 61137  1  0  0  0
 62138  1  0  0  0
 62139  1  0  0  0
 62140  1  0  0  0
 63 65  1  0  0  0
 63141  1  0  0  0
 63142  1  0  0  0
 63143  1  0  0  0
 64144  1  0  0  0
 65145  1  0  0  0
 68 83  1  0  0  0
 71 73  2  0  0  0
 71 76  1  0  0  0
 71146  1  0  0  0
 72 74  2  0  0  0
 72 75  1  0  0  0
 72 77  1  0  0  0
 73 74  1  0  0  0
 73 78  1  0  0  0
 74 79  1  0  0  0
 75 76  2  0  0  0
 75 80  1  0  0  0
 76 84  1  0  0  0
 77 85  1  0  0  0
 77 86  2  0  0  0
 78147  1  0  0  0
 78148  1  0  0  0
 78149  1  0  0  0
 79150  1  0  0  0
 79151  1  0  0  0
 79152  1  0  0  0
 80153  1  0  0  0
 80154  1  0  0  0
 80155  1  0  0  0
 81 82  1  0  0  0
 81 83  1  0  0  0
 81156  1  0  0  0
 81157  1  0  0  0
 82 85  1  0  0  0
 82158  1  0  0  0
 82159  1  0  0  0
 83160  1  0  0  0
 83161  1  0  0  0
 84162  1  0  0  0
 85163  1  0  0  0
M  ISO  4   1 100  68 101  83 101  84 100
M  END
> <chiral flag>
0

> <version>
0

> <s_m_source_file>
/data/baiqing/PycharmProjects/Reinvent-master-3.2/result/LINK_invent/BTK/process_docking_weight1_custom_product_contain_oxygen_bond_distance_aromatic_linkinvent_7_9_3/rearranged_h_0038.sdf

> <i_m_source_file_index>
38

> <r_mmod_Potential_Energy-OPLS-2005>
-30.334602355957

> <r_mmod_Stretch_Energy-OPLS-2005>
50.2401695251465

> <r_mmod_Bend_Energy-OPLS-2005>
102.952590942383

> <r_mmod_Torsional_Energy-OPLS-2005>
256.695373535156

> <r_mmod_Improper_Torsional_Energy-OPLS-2005>
4.7496337890625

> <r_mmod_Van_der_Waal_Energy-OPLS-2005>
177.234085083008

> <r_mmod_Electrostatic_Energy-OPLS-2005>
-426.599334716797

> <r_mmod_Solvation_Energy-OPLS-2005>
-220.326446533203

> <b_mmod_Minimization_Converged-OPLS-2005>
0

> <r_mmod_RMS_Derivative-OPLS-2005>
1.55673563480377

$$$$
38
                    3D
 Structure written by MMmdl.
169178  0  0  1  0            999 V2000
  -30.5485  -14.6918   20.4650 C   0  0  0  0  0  0
  -30.4404  -12.4170   19.4497 C   0  0  0  0  0  0
  -29.5134  -12.5220   18.2192 C   0  0  0  0  0  0
  -28.0364  -12.3415   18.6344 C   0  0  0  0  0  0
  -27.6476  -13.2121   19.8583 C   0  0  2  0  0  0
  -28.6891  -13.0535   20.9865 C   0  0  0  0  0  0
  -25.2554  -13.8154   20.5673 C   0  0  0  0  0  0
  -24.1837  -13.0452   20.9232 C   0  0  0  0  0  0
  -24.6386  -11.6906   20.8749 C   0  0  0  0  0  0
  -23.9061  -10.4284   21.0379 C   0  0  0  0  0  0
  -24.3609   -9.4199   21.9187 C   0  0  0  0  0  0
  -23.6273   -8.2245   22.0743 C   0  0  0  0  0  0
  -22.4266   -8.0270   21.3559 C   0  0  0  0  0  0
  -21.9878   -9.0244   20.4673 C   0  0  0  0  0  0
  -22.7204  -10.2124   20.3067 C   0  0  0  0  0  0
  -21.6857   -6.0732   22.5296 C   0  0  0  0  0  0
  -21.3980   -6.5615   23.8210 C   0  0  0  0  0  0
  -21.3688   -5.6780   24.9187 C   0  0  0  0  0  0
  -21.6079   -4.3053   24.7264 C   0  0  0  0  0  0
  -21.8809   -3.8141   23.4366 C   0  0  0  0  0  0
  -21.9171   -4.6950   22.3425 C   0  0  0  0  0  0
  -22.7841  -13.5221   21.1871 C   0  0  0  0  0  0
  -22.1639   -4.2143   21.0998 F   0  0  0  0  0  0
  -21.5675   -3.4520   25.7767 F   0  0  0  0  0  0
  -29.9999  -13.4299   20.4321 N   0  0  0  0  0  0
  -26.2949  -12.9321   20.3244 N   0  0  0  0  0  0
  -25.9294  -11.6503   20.5720 N   0  0  0  0  0  0
  -22.0445  -12.8272   22.0470 N   0  0  0  0  0  0
  -25.4385  -15.1850   20.4027 N   0  0  0  0  0  0
  -31.6974  -14.8994   20.0623 O   0  0  0  0  0  0
  -21.6649   -6.8865   21.4251 O   0  0  0  0  0  0
  -22.3545  -14.5523   20.6701 O   0  0  0  0  0  0
  -24.6222  -31.8609   23.1989 C   0  0  0  0  0  0
  -25.9071  -32.4789   23.8310 C   0  0  1  0  0  0
  -27.2122  -27.3217   20.1313 C   0  0  0  0  0  0
  -25.5876  -33.8603   24.2215 N   0  0  0  0  0  0
  -23.4133  -30.4824   21.5446 C   0  0  2  0  0  0
  -24.8579  -28.9330   20.1120 C   0  0  0  0  0  0
  -22.7425  -29.4645   22.4964 C   0  0  0  0  0  0
  -18.0271  -28.1404   22.8491 C   0  0  0  0  0  0
  -24.1484  -36.7330   23.2623 C   0  0  0  0  0  0
  -25.9517  -30.7951   21.3650 C   0  0  0  0  0  0
  -26.0265  -29.4207   20.7116 C   0  0  0  0  0  0
  -27.2092  -28.6281   20.7082 C   0  0  0  0  0  0
  -26.0252  -26.8810   19.5079 C   0  0  0  0  0  0
  -24.8584  -27.6670   19.5042 C   0  0  0  0  0  0
  -23.6219  -29.8061   20.1632 C   0  0  0  0  0  0
  -25.4110  -36.3099   24.0305 C   0  0  1  0  0  0
  -20.5858  -28.3698   23.1318 C   0  0  2  0  0  0
  -20.6755  -26.9425   22.5453 C   0  0  0  0  0  0
  -19.5738  -26.6380   21.5243 C   0  0  0  0  0  0
  -18.1911  -26.7954   22.1629 C   0  0  0  0  0  0
  -19.1524  -28.8862   23.2902 C   0  0  0  0  0  0
  -18.9456  -30.1465   23.8927 C   0  0  0  0  0  0
  -17.6458  -30.6604   24.0591 C   0  0  0  0  0  0
  -25.9049  -34.9475   23.5061 C   0  0  0  0  0  0
  -16.5348  -29.9120   23.6323 C   0  0  0  0  0  0
  -16.7264  -28.6534   23.0345 C   0  0  0  0  0  0
  -26.4428  -31.6653   25.0729 C   0  0  0  0  0  0
  -25.3627  -31.3994   26.1473 C   0  0  0  0  0  0
  -27.0180  -30.3006   24.6278 C   0  0  0  0  0  0
  -27.6030  -32.4381   25.7450 C   0  0  0  0  0  0
  -27.5615  -37.1758   24.8411 C   0  0  0  0  0  0
  -21.4152  -29.3045   22.3705 N   0  0  0  0  0  0
  -26.4273  -37.3811   23.9437 N   0  0  0  0  0  0
  -24.6816  -31.0632   22.0927 N   0  0  0  0  0  0
  -23.4180  -28.8192   23.3035 O   0  0  0  0  0  0
  -28.3282  -26.4826   20.1625 O   0  0  0  0  0  0
  -26.5660  -34.8952   22.4656 O   0  0  0  0  0  0
  -23.5387  -32.1433   23.7298 O   0  0  0  0  0  0
  -29.8339  -17.8706   19.4522 C   0  0  0  0  0  0
  -28.9356  -17.9014   21.6605 C   0  0  0  0  0  0
  -29.4548  -19.2496   19.2801 C   0  0  0  0  0  0
  -28.5962  -19.2798   21.5321 C   0  0  0  0  0  0
  -28.8346  -20.0158   20.3265 C   0  0  0  0  0  0
  -29.5661  -17.1424   20.6481 C   0  0  0  0  0  0
  -28.9506  -24.7529   21.8024 C   0  0  0  0  0  0
  -30.3480  -24.2371   21.4459 C   0  0  0  0  0  0
  -28.4576  -23.9919   19.4075 C   0  0  0  0  0  0
  -28.1332  -25.0587   20.5353 C   0  0  2  0  0  0
  -30.3497  -22.8804   20.6818 C   0  0  2  0  0  0
  -29.6649  -19.8568   17.9003 C   0  0  0  0  0  0
  -27.8857  -19.9017   22.7254 C   0  0  0  0  0  0
  -31.6541  -22.7959   19.8500 C   0  0  0  0  0  0
  -28.2525  -21.4915   20.1233 C   0  0  0  0  0  0
  -29.6964  -15.6924   20.8725 N   0  0  0  0  0  0
  -29.1501  -22.6854   19.8062 N   0  3  1  0  0  0
  -31.4825  -12.5520   19.1609 H   0  0  0  0  0  0
  -30.3830  -11.4164   19.8795 H   0  0  0  0  0  0
  -29.7931  -11.7735   17.4788 H   0  0  0  0  0  0
  -29.6565  -13.4895   17.7367 H   0  0  0  0  0  0
  -27.8992  -11.2859   18.8782 H   0  0  0  0  0  0
  -27.3744  -12.5468   17.7922 H   0  0  0  0  0  0
  -27.6645  -14.2496   19.5243 H   0  0  0  0  0  0
  -28.7107  -12.0196   21.3317 H   0  0  0  0  0  0
  -28.4221  -13.6540   21.8547 H   0  0  0  0  0  0
  -25.2750   -9.5687   22.4775 H   0  0  0  0  0  0
  -24.0029   -7.4613   22.7391 H   0  0  0  0  0  0
  -21.0846   -8.8723   19.8948 H   0  0  0  0  0  0
  -22.3635  -10.9670   19.6181 H   0  0  0  0  0  0
  -21.1930   -7.6109   23.9729 H   0  0  0  0  0  0
  -21.1534   -6.0504   25.9097 H   0  0  0  0  0  0
  -22.0567   -2.7605   23.2873 H   0  0  0  0  0  0
  -22.3949  -11.9962   22.5003 H   0  0  0  0  0  0
  -21.1045  -13.1317   22.2596 H   0  0  0  0  0  0
  -24.6812  -15.8528   20.4815 H   0  0  0  0  0  0
  -26.2952  -15.6052   20.0681 H   0  0  0  0  0  0
  -26.7154  -32.5455   23.1073 H   0  0  0  0  0  0
  -24.9923  -33.9753   25.0281 H   0  0  0  0  0  0
  -22.7065  -31.3013   21.3972 H   0  0  0  0  0  0
  -23.3805  -35.9584   23.3087 H   0  0  0  0  0  0
  -24.3629  -36.9186   22.2084 H   0  0  0  0  0  0
  -23.7133  -37.6413   23.6809 H   0  0  0  0  0  0
  -26.0706  -31.5585   20.5940 H   0  0  0  0  0  0
  -26.8364  -30.8525   21.9886 H   0  0  0  0  0  0
  -28.1065  -28.9958   21.1855 H   0  0  0  0  0  0
  -25.9808  -25.9103   19.0332 H   0  0  0  0  0  0
  -23.9584  -27.2885   19.0416 H   0  0  0  0  0  0
  -23.7201  -30.5737   19.3954 H   0  0  0  0  0  0
  -22.7453  -29.2192   19.8793 H   0  0  0  0  0  0
  -25.1279  -36.1912   25.0790 H   0  0  0  0  0  0
  -20.9954  -28.3283   24.1433 H   0  0  0  0  0  0
  -20.5642  -26.2315   23.3657 H   0  0  0  0  0  0
  -21.6631  -26.7449   22.1250 H   0  0  0  0  0  0
  -19.6898  -25.6275   21.1300 H   0  0  0  0  0  0
  -19.6703  -27.3171   20.6757 H   0  0  0  0  0  0
  -17.4197  -26.6727   21.4018 H   0  0  0  0  0  0
  -18.0288  -26.0102   22.9018 H   0  0  0  0  0  0
  -19.7942  -30.7271   24.2311 H   0  0  0  0  0  0
  -17.5027  -31.6292   24.5184 H   0  0  0  0  0  0
  -15.5359  -30.3042   23.7633 H   0  0  0  0  0  0
  -15.8660  -28.0874   22.7037 H   0  0  0  0  0  0
  -24.5629  -30.7539   25.7826 H   0  0  0  0  0  0
  -24.9026  -32.3285   26.4872 H   0  0  0  0  0  0
  -25.7833  -30.9124   27.0274 H   0  0  0  0  0  0
  -26.2743  -29.6830   24.1223 H   0  0  0  0  0  0
  -27.3670  -29.7254   25.4866 H   0  0  0  0  0  0
  -27.8727  -30.4176   23.9610 H   0  0  0  0  0  0
  -27.2692  -33.3749   26.1930 H   0  0  0  0  0  0
  -28.3860  -32.6837   25.0264 H   0  0  0  0  0  0
  -28.0653  -31.8563   26.5430 H   0  0  0  0  0  0
  -28.2521  -38.0163   24.7632 H   0  0  0  0  0  0
  -28.1219  -36.2722   24.5974 H   0  0  0  0  0  0
  -27.2395  -37.1091   25.8815 H   0  0  0  0  0  0
  -20.9307  -29.8774   21.6932 H   0  0  0  0  0  0
  -26.0149  -38.2849   24.1579 H   0  0  0  0  0  0
  -30.2581  -17.3384   18.6121 H   0  0  0  0  0  0
  -28.6681  -17.3827   22.5706 H   0  0  0  0  0  0
  -29.0108  -25.6381   22.4395 H   0  0  0  0  0  0
  -28.4468  -23.9835   22.3919 H   0  0  0  0  0  0
  -30.9278  -24.1335   22.3629 H   0  0  0  0  0  0
  -30.8553  -25.0045   20.8579 H   0  0  0  0  0  0
  -29.1237  -24.4857   18.6976 H   0  0  0  0  0  0
  -27.5529  -23.7772   18.8370 H   0  0  0  0  0  0
  -27.0983  -24.9056   20.8493 H   0  0  0  0  0  0
  -30.3611  -22.0753   21.4182 H   0  0  0  0  0  0
  -29.4145  -19.1278   17.1283 H   0  0  0  0  0  0
  -30.7089  -20.1359   17.7654 H   0  0  0  0  0  0
  -29.0531  -20.7371   17.7031 H   0  0  0  0  0  0
  -28.1376  -19.3618   23.6415 H   0  0  0  0  0  0
  -26.8038  -19.8458   22.5914 H   0  0  0  0  0  0
  -28.1699  -20.9400   22.8837 H   0  0  0  0  0  0
  -31.6465  -23.5083   19.0211 H   0  0  0  0  0  0
  -31.8483  -21.8009   19.4454 H   0  0  0  0  0  0
  -32.5201  -23.0562   20.4629 H   0  0  0  0  0  0
  -27.6091  -21.7758   20.9562 H   0  0  0  0  0  0
  -27.5418  -21.4125   19.2985 H   0  0  0  0  0  0
  -28.9060  -15.3020   21.3638 H   0  0  0  0  0  0
  -29.5496  -22.3756   18.9342 H   0  0  0  0  0  0
  1 25  1  0  0  0
  1 30  2  0  0  0
  1 86  1  0  0  0
  2  3  1  0  0  0
  2 25  1  0  0  0
  2 88  1  0  0  0
  2 89  1  0  0  0
  3  4  1  0  0  0
  3 90  1  0  0  0
  3 91  1  0  0  0
  4  5  1  0  0  0
  4 92  1  0  0  0
  4 93  1  0  0  0
  5  6  1  0  0  0
  5 26  1  0  0  0
  5 94  1  0  0  0
  6 25  1  0  0  0
  6 95  1  0  0  0
  6 96  1  0  0  0
  7  8  2  0  0  0
  7 26  1  0  0  0
  7 29  1  0  0  0
  8  9  1  0  0  0
  8 22  1  0  0  0
  9 10  1  0  0  0
  9 27  2  0  0  0
 10 11  2  0  0  0
 10 15  1  0  0  0
 11 12  1  0  0  0
 11 97  1  0  0  0
 12 13  2  0  0  0
 12 98  1  0  0  0
 13 14  1  0  0  0
 13 31  1  0  0  0
 14 15  2  0  0  0
 14 99  1  0  0  0
 15100  1  0  0  0
 16 17  2  0  0  0
 16 21  1  0  0  0
 16 31  1  0  0  0
 17 18  1  0  0  0
 17101  1  0  0  0
 18 19  2  0  0  0
 18102  1  0  0  0
 19 20  1  0  0  0
 19 24  1  0  0  0
 20 21  2  0  0  0
 20103  1  0  0  0
 21 23  1  0  0  0
 22 28  1  0  0  0
 22 32  2  0  0  0
 26 27  1  0  0  0
 28104  1  0  0  0
 28105  1  0  0  0
 29106  1  0  0  0
 29107  1  0  0  0
 33 34  1  0  0  0
 33 66  1  0  0  0
 33 70  2  0  0  0
 34 36  1  0  0  0
 34 59  1  0  0  0
 34108  1  0  0  0
 35 44  2  0  0  0
 35 45  1  0  0  0
 35 68  1  0  0  0
 36 56  1  0  0  0
 36109  1  0  0  0
 37 39  1  0  0  0
 37 47  1  0  0  0
 37 66  1  0  0  0
 37110  1  0  0  0
 38 43  2  0  0  0
 38 46  1  0  0  0
 38 47  1  0  0  0
 39 64  1  0  0  0
 39 67  2  0  0  0
 40 52  1  0  0  0
 40 53  2  0  0  0
 40 58  1  0  0  0
 41111  1  0  0  0
 41112  1  0  0  0
 41113  1  0  0  0
 41 48  1  0  0  0
 42 43  1  0  0  0
 42 66  1  0  0  0
 42114  1  0  0  0
 42115  1  0  0  0
 43 44  1  0  0  0
 44116  1  0  0  0
 45 46  2  0  0  0
 45117  1  0  0  0
 46118  1  0  0  0
 47119  1  0  0  0
 47120  1  0  0  0
 48 56  1  0  0  0
 48 65  1  0  0  0
 48121  1  0  0  0
 49 50  1  0  0  0
 49 53  1  0  0  0
 49 64  1  0  0  0
 49122  1  0  0  0
 50 51  1  0  0  0
 50123  1  0  0  0
 50124  1  0  0  0
 51 52  1  0  0  0
 51125  1  0  0  0
 51126  1  0  0  0
 52127  1  0  0  0
 52128  1  0  0  0
 53 54  1  0  0  0
 54 55  2  0  0  0
 54129  1  0  0  0
 55 57  1  0  0  0
 55130  1  0  0  0
 56 69  2  0  0  0
 57 58  2  0  0  0
 57131  1  0  0  0
 58132  1  0  0  0
 59 60  1  0  0  0
 59 61  1  0  0  0
 59 62  1  0  0  0
 60133  1  0  0  0
 60134  1  0  0  0
 60135  1  0  0  0
 61136  1  0  0  0
 61137  1  0  0  0
 61138  1  0  0  0
 62139  1  0  0  0
 62140  1  0  0  0
 62141  1  0  0  0
 63 65  1  0  0  0
 63142  1  0  0  0
 63143  1  0  0  0
 63144  1  0  0  0
 64145  1  0  0  0
 65146  1  0  0  0
 68 80  1  0  0  0
 71 73  2  0  0  0
 71 76  1  0  0  0
 71147  1  0  0  0
 72 74  1  0  0  0
 72 76  2  0  0  0
 72148  1  0  0  0
 73 75  1  0  0  0
 73 82  1  0  0  0
 74 75  2  0  0  0
 74 83  1  0  0  0
 75 85  1  0  0  0
 76 86  1  0  0  0
 77 78  1  0  0  0
 77 80  1  0  0  0
 77149  1  0  0  0
 77150  1  0  0  0
 78 81  1  0  0  0
 78151  1  0  0  0
 78152  1  0  0  0
 79 80  1  0  0  0
 79 87  1  0  0  0
 79153  1  0  0  0
 79154  1  0  0  0
 80155  1  0  0  0
 81 84  1  0  0  0
 81 87  1  0  0  0
 81156  1  0  0  0
 82157  1  0  0  0
 82158  1  0  0  0
 82159  1  0  0  0
 83160  1  0  0  0
 83161  1  0  0  0
 83162  1  0  0  0
 84163  1  0  0  0
 84164  1  0  0  0
 84165  1  0  0  0
 85166  1  0  0  0
 85167  1  0  0  0
 85 87  1  0  0  0
 86168  1  0  0  0
 87169  1  0  0  0
M  CHG  1  87   1
M  ISO  4   1 100  68 101  80 101  86 100
M  END
> <chiral flag>
0

> <version>
0

> <s_m_source_file>
/data/baiqing/PycharmProjects/Reinvent-master-3.2/result/LINK_invent/BTK/process_docking_weight1_custom_product_contain_oxygen_bond_distance_aromatic_linkinvent_7_9_3/rearranged_h_0038.sdf

> <i_m_source_file_index>
39

> <r_mmod_Potential_Energy-OPLS-2005>
109.077262878418

> <r_mmod_Stretch_Energy-OPLS-2005>
93.0207901000977

> <r_mmod_Bend_Energy-OPLS-2005>
174.633941650391

> <r_mmod_Torsional_Energy-OPLS-2005>
300.834991455078

> <r_mmod_Improper_Torsional_Energy-OPLS-2005>
5.60090017318726

> <r_mmod_Van_der_Waal_Energy-OPLS-2005>
140.395294189453

> <r_mmod_Electrostatic_Energy-OPLS-2005>
-253.152099609375

> <r_mmod_Solvation_Energy-OPLS-2005>
-413.016174316406

> <b_mmod_Minimization_Converged-OPLS-2005>
0

> <r_mmod_RMS_Derivative-OPLS-2005>
5.67593860626221

$$$$
39
                    3D
 Structure written by MMmdl.
157165  0  0  1  0            999 V2000
  -30.6988  -14.4705   20.5121 C   0  0  0  0  0  0
  -30.4231  -12.2853   19.4381 C   0  0  0  0  0  0
  -29.5038  -12.4904   18.2144 C   0  0  0  0  0  0
  -28.0222  -12.3576   18.6207 C   0  0  0  0  0  0
  -27.6630  -13.2045   19.8721 C   0  0  2  0  0  0
  -28.7052  -13.0050   21.0000 C   0  0  0  0  0  0
  -25.2577  -13.8157   20.5657 C   0  0  0  0  0  0
  -24.1822  -13.0441   20.9155 C   0  0  0  0  0  0
  -24.6390  -11.6907   20.8723 C   0  0  0  0  0  0
  -23.9064  -10.4289   21.0404 C   0  0  0  0  0  0
  -24.3621   -9.4207   21.9187 C   0  0  0  0  0  0
  -23.6279   -8.2253   22.0769 C   0  0  0  0  0  0
  -22.4254   -8.0301   21.3570 C   0  0  0  0  0  0
  -21.9897   -9.0273   20.4672 C   0  0  0  0  0  0
  -22.7237  -10.2143   20.3060 C   0  0  0  0  0  0
  -21.6845   -6.0742   22.5287 C   0  0  0  0  0  0
  -21.4021   -6.5635   23.8218 C   0  0  0  0  0  0
  -21.3656   -5.6786   24.9177 C   0  0  0  0  0  0
  -21.6039   -4.3051   24.7219 C   0  0  0  0  0  0
  -21.8814   -3.8145   23.4332 C   0  0  0  0  0  0
  -21.9182   -4.6967   22.3399 C   0  0  0  0  0  0
  -22.7846  -13.5248   21.1806 C   0  0  0  0  0  0
  -22.1652   -4.2169   21.0968 F   0  0  0  0  0  0
  -21.5623   -3.4530   25.7728 F   0  0  0  0  0  0
  -30.0429  -13.2825   20.4493 N   0  0  0  0  0  0
  -26.3029  -12.9330   20.3331 N   0  0  0  0  0  0
  -25.9313  -11.6498   20.5758 N   0  0  0  0  0  0
  -22.0476  -12.8277   22.0385 N   0  0  0  0  0  0
  -25.4273  -15.1879   20.4070 N   0  0  0  0  0  0
  -31.8511  -14.6267   20.0984 O   0  0  0  0  0  0
  -21.6637   -6.8891   21.4248 O   0  0  0  0  0  0
  -22.3536  -14.5549   20.6635 O   0  0  0  0  0  0
  -24.6149  -31.8670   23.2091 C   0  0  0  0  0  0
  -25.9051  -32.4815   23.8380 C   0  0  1  0  0  0
  -27.2317  -27.4345   20.1035 C   0  0  0  0  0  0
  -25.5904  -33.8611   24.2311 N   0  0  0  0  0  0
  -23.4022  -30.4922   21.5488 C   0  0  2  0  0  0
  -24.8495  -28.9574   20.1123 C   0  0  0  0  0  0
  -22.7412  -29.4663   22.4973 C   0  0  0  0  0  0
  -18.0282  -28.1382   22.8485 C   0  0  0  0  0  0
  -24.1485  -36.7315   23.2631 C   0  0  0  0  0  0
  -25.9307  -30.8358   21.3597 C   0  0  0  0  0  0
  -26.0100  -29.4703   20.7070 C   0  0  0  0  0  0
  -27.2078  -28.7181   20.6956 C   0  0  0  0  0  0
  -26.0588  -26.9376   19.4950 C   0  0  0  0  0  0
  -24.8689  -27.6908   19.5015 C   0  0  0  0  0  0
  -23.6110  -29.8248   20.1630 C   0  0  0  0  0  0
  -25.4101  -36.3103   24.0331 C   0  0  1  0  0  0
  -20.5869  -28.3668   23.1311 C   0  0  2  0  0  0
  -20.6771  -26.9402   22.5420 C   0  0  0  0  0  0
  -19.5752  -26.6382   21.5216 C   0  0  0  0  0  0
  -18.1928  -26.7938   22.1615 C   0  0  0  0  0  0
  -19.1535  -28.8842   23.2900 C   0  0  0  0  0  0
  -18.9467  -30.1447   23.8916 C   0  0  0  0  0  0
  -17.6467  -30.6573   24.0576 C   0  0  0  0  0  0
  -25.9037  -34.9471   23.5118 C   0  0  0  0  0  0
  -16.5359  -29.9083   23.6331 C   0  0  0  0  0  0
  -16.7268  -28.6506   23.0337 C   0  0  0  0  0  0
  -26.4478  -31.6594   25.0705 C   0  0  0  0  0  0
  -25.3747  -31.3733   26.1462 C   0  0  0  0  0  0
  -27.0284  -30.3023   24.6075 C   0  0  0  0  0  0
  -27.6056  -32.4309   25.7463 C   0  0  0  0  0  0
  -27.5591  -37.1789   24.8451 C   0  0  0  0  0  0
  -21.4142  -29.3031   22.3705 N   0  0  0  0  0  0
  -26.4278  -37.3797   23.9430 N   0  0  0  0  0  0
  -24.6673  -31.0789   22.0980 N   0  0  0  0  0  0
  -23.4187  -28.8210   23.3017 O   0  0  0  0  0  0
  -28.3765  -26.6686   20.1204 O   0  0  0  0  0  0
  -26.5599  -34.8931   22.4679 O   0  0  0  0  0  0
  -23.5348  -32.1418   23.7494 O   0  0  0  0  0  0
  -30.7005  -19.4775   22.5868 C   0  0  0  0  0  0
  -30.5921  -18.2101   21.9769 C   0  0  0  0  0  0
  -30.2701  -20.6400   21.9120 C   0  0  0  0  0  0
  -29.6220  -19.2693   20.0116 C   0  0  0  0  0  0
  -30.0534  -18.0979   20.6795 C   0  0  0  0  0  0
  -29.7078  -20.5454   20.6178 C   0  0  0  0  0  0
  -28.8608  -24.2235   20.0750 C   0  0  0  0  0  0
  -27.8289  -22.6837   21.7101 C   0  0  0  0  0  0
  -29.9701  -16.7570   19.9466 C   0  0  0  0  0  0
  -29.2364  -21.7809   19.8263 C   0  0  0  0  0  0
  -28.2552  -25.4242   20.8486 C   0  0  0  0  0  0
  -29.9108  -15.5298   20.7570 N   0  0  0  0  0  0
  -28.7053  -22.9582   20.5628 N   0  0  0  0  0  0
  -29.4788  -24.4505   19.0281 O   0  0  0  0  0  0
  -31.4721  -12.3598   19.1464 H   0  0  0  0  0  0
  -30.3003  -11.2803   19.8448 H   0  0  0  0  0  0
  -29.7435  -11.7636   17.4361 H   0  0  0  0  0  0
  -29.6811  -13.4724   17.7735 H   0  0  0  0  0  0
  -27.8278  -11.3032   18.8198 H   0  0  0  0  0  0
  -27.3769  -12.6303   17.7855 H   0  0  0  0  0  0
  -27.7005  -14.2466   19.5590 H   0  0  0  0  0  0
  -28.6687  -11.9820   21.3735 H   0  0  0  0  0  0
  -28.4789  -13.6429   21.8559 H   0  0  0  0  0  0
  -25.2782   -9.5649   22.4748 H   0  0  0  0  0  0
  -23.9991   -7.4616   22.7454 H   0  0  0  0  0  0
  -21.0846   -8.8792   19.8958 H   0  0  0  0  0  0
  -22.3723  -10.9678   19.6153 H   0  0  0  0  0  0
  -21.2045   -7.6151   23.9721 H   0  0  0  0  0  0
  -21.1477   -6.0524   25.9078 H   0  0  0  0  0  0
  -22.0596   -2.7609   23.2827 H   0  0  0  0  0  0
  -22.4080  -11.9993   22.4890 H   0  0  0  0  0  0
  -21.1084  -13.1324   22.2531 H   0  0  0  0  0  0
  -24.6562  -15.8379   20.5149 H   0  0  0  0  0  0
  -26.2779  -15.6321   20.0863 H   0  0  0  0  0  0
  -26.7123  -32.5530   23.1149 H   0  0  0  0  0  0
  -25.0074  -33.9763   25.0469 H   0  0  0  0  0  0
  -22.6909  -31.3093   21.4107 H   0  0  0  0  0  0
  -23.3745  -35.9646   23.3268 H   0  0  0  0  0  0
  -24.3602  -36.8957   22.2053 H   0  0  0  0  0  0
  -23.7229  -37.6507   23.6664 H   0  0  0  0  0  0
  -26.0410  -31.6009   20.5899 H   0  0  0  0  0  0
  -26.8194  -30.8910   21.9764 H   0  0  0  0  0  0
  -28.1044  -29.1084   21.1573 H   0  0  0  0  0  0
  -26.0636  -25.9655   19.0210 H   0  0  0  0  0  0
  -23.9780  -27.2914   19.0367 H   0  0  0  0  0  0
  -23.7219  -30.6009   19.4049 H   0  0  0  0  0  0
  -22.7332  -29.2484   19.8655 H   0  0  0  0  0  0
  -25.1267  -36.1954   25.0819 H   0  0  0  0  0  0
  -20.9970  -28.3252   24.1427 H   0  0  0  0  0  0
  -20.5676  -26.2277   23.3612 H   0  0  0  0  0  0
  -21.6643  -26.7458   22.1211 H   0  0  0  0  0  0
  -19.6916  -25.6292   21.1242 H   0  0  0  0  0  0
  -19.6691  -27.3201   20.6751 H   0  0  0  0  0  0
  -17.4195  -26.6688   21.4018 H   0  0  0  0  0  0
  -18.0336  -26.0079   22.9013 H   0  0  0  0  0  0
  -19.7930  -30.7277   24.2291 H   0  0  0  0  0  0
  -17.5012  -31.6252   24.5171 H   0  0  0  0  0  0
  -15.5366  -30.2995   23.7639 H   0  0  0  0  0  0
  -15.8664  -28.0844   22.7035 H   0  0  0  0  0  0
  -24.5897  -30.7097   25.7826 H   0  0  0  0  0  0
  -24.8969  -32.2906   26.4911 H   0  0  0  0  0  0
  -25.8098  -30.8905   27.0217 H   0  0  0  0  0  0
  -26.2806  -29.6800   24.1138 H   0  0  0  0  0  0
  -27.4059  -29.7256   25.4530 H   0  0  0  0  0  0
  -27.8653  -30.4331   23.9210 H   0  0  0  0  0  0
  -27.2665  -33.3587   26.2089 H   0  0  0  0  0  0
  -28.3839  -32.6902   25.0273 H   0  0  0  0  0  0
  -28.0753  -31.8405   26.5340 H   0  0  0  0  0  0
  -28.2562  -38.0131   24.7562 H   0  0  0  0  0  0
  -28.1128  -36.2670   24.6168 H   0  0  0  0  0  0
  -27.2336  -37.1314   25.8857 H   0  0  0  0  0  0
  -20.9304  -29.8743   21.6920 H   0  0  0  0  0  0
  -26.0162  -38.2859   24.1480 H   0  0  0  0  0  0
  -31.1264  -19.5580   23.5768 H   0  0  0  0  0  0
  -30.9410  -17.3318   22.5035 H   0  0  0  0  0  0
  -30.3702  -21.5997   22.3996 H   0  0  0  0  0  0
  -29.2239  -19.1860   19.0086 H   0  0  0  0  0  0
  -26.8088  -23.0156   21.5148 H   0  0  0  0  0  0
  -28.1941  -23.1880   22.6059 H   0  0  0  0  0  0
  -27.7563  -21.6241   21.9483 H   0  0  0  0  0  0
  -30.7937  -16.7244   19.2314 H   0  0  0  0  0  0
  -29.0650  -16.7594   19.3374 H   0  0  0  0  0  0
  -28.4621  -21.4659   19.1256 H   0  0  0  0  0  0
  -30.0869  -22.0695   19.2075 H   0  0  0  0  0  0
  -28.7947  -25.5275   21.7902 H   0  0  0  0  0  0
  -27.2194  -25.2068   21.1117 H   0  0  0  0  0  0
  -29.0084  -15.3096   21.1485 H   0  0  0  0  0  0
  1 25  1  0  0  0
  1 30  2  0  0  0
  1 82  1  0  0  0
  2  3  1  0  0  0
  2 25  1  0  0  0
  2 85  1  0  0  0
  2 86  1  0  0  0
  3  4  1  0  0  0
  3 87  1  0  0  0
  3 88  1  0  0  0
  4  5  1  0  0  0
  4 89  1  0  0  0
  4 90  1  0  0  0
  5  6  1  0  0  0
  5 26  1  0  0  0
  5 91  1  0  0  0
  6 25  1  0  0  0
  6 92  1  0  0  0
  6 93  1  0  0  0
  7  8  2  0  0  0
  7 26  1  0  0  0
  7 29  1  0  0  0
  8  9  1  0  0  0
  8 22  1  0  0  0
  9 10  1  0  0  0
  9 27  2  0  0  0
 10 11  2  0  0  0
 10 15  1  0  0  0
 11 12  1  0  0  0
 11 94  1  0  0  0
 12 13  2  0  0  0
 12 95  1  0  0  0
 13 14  1  0  0  0
 13 31  1  0  0  0
 14 15  2  0  0  0
 14 96  1  0  0  0
 15 97  1  0  0  0
 16 17  2  0  0  0
 16 21  1  0  0  0
 16 31  1  0  0  0
 17 18  1  0  0  0
 17 98  1  0  0  0
 18 19  2  0  0  0
 18 99  1  0  0  0
 19 20  1  0  0  0
 19 24  1  0  0  0
 20 21  2  0  0  0
 20100  1  0  0  0
 21 23  1  0  0  0
 22 28  1  0  0  0
 22 32  2  0  0  0
 26 27  1  0  0  0
 28101  1  0  0  0
 28102  1  0  0  0
 29103  1  0  0  0
 29104  1  0  0  0
 33 34  1  0  0  0
 33 66  1  0  0  0
 33 70  2  0  0  0
 34 36  1  0  0  0
 34 59  1  0  0  0
 34105  1  0  0  0
 35 44  2  0  0  0
 35 45  1  0  0  0
 35 68  1  0  0  0
 36 56  1  0  0  0
 36106  1  0  0  0
 37 39  1  0  0  0
 37 47  1  0  0  0
 37 66  1  0  0  0
 37107  1  0  0  0
 38 43  2  0  0  0
 38 46  1  0  0  0
 38 47  1  0  0  0
 39 64  1  0  0  0
 39 67  2  0  0  0
 40 52  1  0  0  0
 40 53  2  0  0  0
 40 58  1  0  0  0
 41108  1  0  0  0
 41109  1  0  0  0
 41110  1  0  0  0
 41 48  1  0  0  0
 42 43  1  0  0  0
 42 66  1  0  0  0
 42111  1  0  0  0
 42112  1  0  0  0
 43 44  1  0  0  0
 44113  1  0  0  0
 45 46  2  0  0  0
 45114  1  0  0  0
 46115  1  0  0  0
 47116  1  0  0  0
 47117  1  0  0  0
 48 56  1  0  0  0
 48 65  1  0  0  0
 48118  1  0  0  0
 49 50  1  0  0  0
 49 53  1  0  0  0
 49 64  1  0  0  0
 49119  1  0  0  0
 50 51  1  0  0  0
 50120  1  0  0  0
 50121  1  0  0  0
 51 52  1  0  0  0
 51122  1  0  0  0
 51123  1  0  0  0
 52124  1  0  0  0
 52125  1  0  0  0
 53 54  1  0  0  0
 54 55  2  0  0  0
 54126  1  0  0  0
 55 57  1  0  0  0
 55127  1  0  0  0
 56 69  2  0  0  0
 57 58  2  0  0  0
 57128  1  0  0  0
 58129  1  0  0  0
 59 60  1  0  0  0
 59 61  1  0  0  0
 59 62  1  0  0  0
 60130  1  0  0  0
 60131  1  0  0  0
 60132  1  0  0  0
 61133  1  0  0  0
 61134  1  0  0  0
 61135  1  0  0  0
 62136  1  0  0  0
 62137  1  0  0  0
 62138  1  0  0  0
 63 65  1  0  0  0
 63139  1  0  0  0
 63140  1  0  0  0
 63141  1  0  0  0
 64142  1  0  0  0
 65143  1  0  0  0
 68 81  1  0  0  0
 71 72  2  0  0  0
 71 73  1  0  0  0
 71144  1  0  0  0
 72 75  1  0  0  0
 72145  1  0  0  0
 73 76  2  0  0  0
 73146  1  0  0  0
 74 75  2  0  0  0
 74 76  1  0  0  0
 74147  1  0  0  0
 75 79  1  0  0  0
 76 80  1  0  0  0
 77 81  1  0  0  0
 77 83  1  0  0  0
 77 84  2  0  0  0
 78 83  1  0  0  0
 78148  1  0  0  0
 78149  1  0  0  0
 78150  1  0  0  0
 79 82  1  0  0  0
 79151  1  0  0  0
 79152  1  0  0  0
 80 83  1  0  0  0
 80153  1  0  0  0
 80154  1  0  0  0
 81155  1  0  0  0
 81156  1  0  0  0
 82157  1  0  0  0
M  ISO  4   1 100  68 101  81 101  82 100
M  END
> <chiral flag>
0

> <version>
0

> <s_m_source_file>
/data/baiqing/PycharmProjects/Reinvent-master-3.2/result/LINK_invent/BTK/process_docking_weight1_custom_product_contain_oxygen_bond_distance_aromatic_linkinvent_7_9_3/rearranged_h_0038.sdf

> <i_m_source_file_index>
40

> <r_mmod_Potential_Energy-OPLS-2005>
-50.4874992370605

> <r_mmod_Stretch_Energy-OPLS-2005>
41.7106285095215

> <r_mmod_Bend_Energy-OPLS-2005>
95.9486389160156

> <r_mmod_Torsional_Energy-OPLS-2005>
247.216125488281

> <r_mmod_Improper_Torsional_Energy-OPLS-2005>
10.4926977157593

> <r_mmod_Van_der_Waal_Energy-OPLS-2005>
163.264556884766

> <r_mmod_Electrostatic_Energy-OPLS-2005>
-382.54931640625

> <r_mmod_Solvation_Energy-OPLS-2005>
-241.812683105469

> <b_mmod_Minimization_Converged-OPLS-2005>
0

> <r_mmod_RMS_Derivative-OPLS-2005>
2.57291460037231

$$$$
40
                    3D
 Structure written by MMmdl.
167176  0  0  1  0            999 V2000
  -30.5782  -14.7780   20.4242 C   0  0  0  0  0  0
  -30.4409  -12.4607   19.4854 C   0  0  0  0  0  0
  -29.5205  -12.5062   18.2451 C   0  0  0  0  0  0
  -28.0454  -12.3162   18.6549 C   0  0  0  0  0  0
  -27.6449  -13.2259   19.8499 C   0  0  2  0  0  0
  -28.6882  -13.1693   20.9869 C   0  0  0  0  0  0
  -25.2535  -13.8192   20.5710 C   0  0  0  0  0  0
  -24.1819  -13.0454   20.9215 C   0  0  0  0  0  0
  -24.6387  -11.6914   20.8735 C   0  0  0  0  0  0
  -23.9050  -10.4297   21.0418 C   0  0  0  0  0  0
  -24.3611   -9.4222   21.9207 C   0  0  0  0  0  0
  -23.6277   -8.2264   22.0790 C   0  0  0  0  0  0
  -22.4265   -8.0303   21.3572 C   0  0  0  0  0  0
  -21.9908   -9.0257   20.4663 C   0  0  0  0  0  0
  -22.7239  -10.2124   20.3060 C   0  0  0  0  0  0
  -21.6827   -6.0749   22.5281 C   0  0  0  0  0  0
  -21.4021   -6.5649   23.8224 C   0  0  0  0  0  0
  -21.3659   -5.6792   24.9180 C   0  0  0  0  0  0
  -21.6037   -4.3059   24.7223 C   0  0  0  0  0  0
  -21.8806   -3.8156   23.4347 C   0  0  0  0  0  0
  -21.9179   -4.6975   22.3405 C   0  0  0  0  0  0
  -22.7830  -13.5258   21.1806 C   0  0  0  0  0  0
  -22.1649   -4.2160   21.0979 F   0  0  0  0  0  0
  -21.5609   -3.4544   25.7736 F   0  0  0  0  0  0
  -29.9910  -13.5297   20.4142 N   0  0  0  0  0  0
  -26.2954  -12.9381   20.3289 N   0  0  0  0  0  0
  -25.9318  -11.6521   20.5762 N   0  0  0  0  0  0
  -22.0418  -12.8286   22.0359 N   0  0  0  0  0  0
  -25.4205  -15.1945   20.4220 N   0  0  0  0  0  0
  -31.7521  -14.8960   20.0517 O   0  0  0  0  0  0
  -21.6633   -6.8909   21.4255 O   0  0  0  0  0  0
  -22.3516  -14.5524   20.6577 O   0  0  0  0  0  0
  -24.6216  -31.8628   23.1960 C   0  0  0  0  0  0
  -25.9031  -32.4835   23.8320 C   0  0  1  0  0  0
  -27.2249  -27.2728   20.1628 C   0  0  0  0  0  0
  -25.5873  -33.8656   24.2240 N   0  0  0  0  0  0
  -23.4212  -30.4769   21.5508 C   0  0  2  0  0  0
  -24.8651  -28.9100   20.1239 C   0  0  0  0  0  0
  -22.7495  -29.4649   22.5037 C   0  0  0  0  0  0
  -18.0377  -28.1326   22.8523 C   0  0  0  0  0  0
  -24.1482  -36.7255   23.2633 C   0  0  0  0  0  0
  -25.9616  -30.7777   21.3745 C   0  0  0  0  0  0
  -26.0336  -29.3952   20.7245 C   0  0  0  0  0  0
  -27.2172  -28.5941   20.7194 C   0  0  0  0  0  0
  -26.0353  -26.8395   19.5393 C   0  0  0  0  0  0
  -24.8692  -27.6364   19.5196 C   0  0  0  0  0  0
  -23.6320  -29.8013   20.1705 C   0  0  0  0  0  0
  -25.4137  -36.3159   24.0328 C   0  0  1  0  0  0
  -20.5930  -28.3826   23.1397 C   0  0  2  0  0  0
  -20.6955  -26.9534   22.5566 C   0  0  0  0  0  0
  -19.5960  -26.6221   21.5400 C   0  0  0  0  0  0
  -18.2127  -26.7728   22.1880 C   0  0  0  0  0  0
  -19.1543  -28.8926   23.2832 C   0  0  0  0  0  0
  -18.9360  -30.1575   23.8743 C   0  0  0  0  0  0
  -17.6304  -30.6622   24.0325 C   0  0  0  0  0  0
  -25.9086  -34.9496   23.5121 C   0  0  0  0  0  0
  -16.5282  -29.8980   23.6182 C   0  0  0  0  0  0
  -16.7311  -28.6358   23.0361 C   0  0  0  0  0  0
  -26.4375  -31.6634   25.0720 C   0  0  0  0  0  0
  -25.3567  -31.3757   26.1439 C   0  0  0  0  0  0
  -27.0193  -30.3043   24.6211 C   0  0  0  0  0  0
  -27.5888  -32.4394   25.7497 C   0  0  0  0  0  0
  -27.5605  -37.1839   24.8492 C   0  0  0  0  0  0
  -21.4217  -29.3127   22.3804 N   0  0  0  0  0  0
  -26.4334  -37.3819   23.9407 N   0  0  0  0  0  0
  -24.6882  -31.0593   22.0950 N   0  0  0  0  0  0
  -23.4238  -28.8242   23.3126 O   0  0  0  0  0  0
  -28.3651  -26.4450   20.1675 O   0  0  0  0  0  0
  -26.5717  -34.8976   22.4710 O   0  0  0  0  0  0
  -23.5371  -32.1437   23.7231 O   0  0  0  0  0  0
  -29.5196  -18.5370   20.6123 C   0  0  0  0  0  0
  -29.5612  -17.1693   18.6220 C   0  0  0  0  0  0
  -29.3227  -19.7744   19.8535 C   0  0  0  0  0  0
  -29.3635  -18.3290   17.8404 C   0  0  0  0  0  0
  -29.3111  -19.6265   18.4299 C   0  0  0  0  0  0
  -29.6845  -17.2089   20.0197 C   0  0  0  0  0  0
  -26.8526  -22.3216   20.5108 C   0  0  0  0  0  0
  -26.0418  -21.3188   20.1435 C   0  0  0  0  0  0
  -26.3508  -23.5583   21.2807 C   0  0  0  0  0  0
  -27.3733  -24.6160   21.7416 C   0  0  0  0  0  0
  -28.7987  -23.7861   19.7399 C   0  0  0  0  0  0
  -28.4058  -25.0236   20.6831 C   0  0  2  0  0  0
  -29.2905  -20.8243   17.4804 C   0  0  0  0  0  0
  -29.2289  -21.2355   20.5484 C   0  0  0  0  0  0
  -29.2017  -18.1286   16.3347 C   0  0  0  0  0  0
  -29.7964  -15.8945   20.7238 N   0  0  0  0  0  0
  -28.2862  -22.3606   20.0426 N   0  3  1  0  0  0
  -28.6117  -16.9608   16.0722 F   0  0  0  0  0  0
  -30.3894  -18.1604   15.7329 F   0  0  0  0  0  0
  -31.4806  -12.5830   19.1759 H   0  0  0  0  0  0
  -30.3891  -11.4832   19.9694 H   0  0  0  0  0  0
  -29.8141  -11.7419   17.5233 H   0  0  0  0  0  0
  -29.6333  -13.4672   17.7399 H   0  0  0  0  0  0
  -27.9039  -11.2658   18.9146 H   0  0  0  0  0  0
  -27.3890  -12.5056   17.8022 H   0  0  0  0  0  0
  -27.6361  -14.2444   19.4579 H   0  0  0  0  0  0
  -28.7304  -12.1724   21.4238 H   0  0  0  0  0  0
  -28.4138  -13.8475   21.7956 H   0  0  0  0  0  0
  -25.2762   -9.5673   22.4797 H   0  0  0  0  0  0
  -23.9951   -7.4653   22.7524 H   0  0  0  0  0  0
  -21.0852   -8.8784   19.8964 H   0  0  0  0  0  0
  -22.3738  -10.9657   19.6151 H   0  0  0  0  0  0
  -21.2047   -7.6161   23.9734 H   0  0  0  0  0  0
  -21.1484   -6.0531   25.9079 H   0  0  0  0  0  0
  -22.0586   -2.7619   23.2835 H   0  0  0  0  0  0
  -22.4003  -11.9979   22.4840 H   0  0  0  0  0  0
  -21.1009  -13.1329   22.2440 H   0  0  0  0  0  0
  -24.6450  -15.8357   20.5551 H   0  0  0  0  0  0
  -26.2710  -15.6576   20.1259 H   0  0  0  0  0  0
  -26.7161  -32.5523   23.1161 H   0  0  0  0  0  0
  -25.0053  -33.9819   25.0396 H   0  0  0  0  0  0
  -22.7139  -31.2974   21.4074 H   0  0  0  0  0  0
  -23.3834  -35.9511   23.3331 H   0  0  0  0  0  0
  -24.3556  -36.8805   22.2043 H   0  0  0  0  0  0
  -23.7122  -37.6418   23.6602 H   0  0  0  0  0  0
  -26.0996  -31.5417   20.6102 H   0  0  0  0  0  0
  -26.8382  -30.8239   22.0148 H   0  0  0  0  0  0
  -28.1215  -28.9795   21.1715 H   0  0  0  0  0  0
  -26.0018  -25.8626   19.0749 H   0  0  0  0  0  0
  -23.9745  -27.2501   19.0472 H   0  0  0  0  0  0
  -22.7433  -29.2439   19.8696 H   0  0  0  0  0  0
  -23.7423  -30.5820   19.4194 H   0  0  0  0  0  0
  -25.1273  -36.2076   25.0825 H   0  0  0  0  0  0
  -20.9888  -28.3509   24.1578 H   0  0  0  0  0  0
  -21.6907  -26.7585   22.1551 H   0  0  0  0  0  0
  -20.5848  -26.2547   23.3869 H   0  0  0  0  0  0
  -19.7222  -25.6011   21.1766 H   0  0  0  0  0  0
  -19.6719  -27.2761   20.6701 H   0  0  0  0  0  0
  -17.4294  -26.6100   21.4470 H   0  0  0  0  0  0
  -18.0788  -26.0043   22.9515 H   0  0  0  0  0  0
  -19.7741  -30.7570   24.2038 H   0  0  0  0  0  0
  -17.4714  -31.6363   24.4719 H   0  0  0  0  0  0
  -15.5220  -30.2735   23.7525 H   0  0  0  0  0  0
  -15.8779  -28.0488   22.7269 H   0  0  0  0  0  0
  -24.5734  -30.7118   25.7759 H   0  0  0  0  0  0
  -24.8828  -32.2919   26.4952 H   0  0  0  0  0  0
  -25.7898  -30.8878   27.0181 H   0  0  0  0  0  0
  -26.2744  -29.6800   24.1318 H   0  0  0  0  0  0
  -27.3888  -29.7301   25.4703 H   0  0  0  0  0  0
  -27.8618  -30.4279   23.9421 H   0  0  0  0  0  0
  -27.2422  -33.3629   26.2126 H   0  0  0  0  0  0
  -28.3694  -32.7027   25.0347 H   0  0  0  0  0  0
  -28.0588  -31.8540   26.5419 H   0  0  0  0  0  0
  -28.2631  -38.0123   24.7525 H   0  0  0  0  0  0
  -28.1087  -36.2653   24.6312 H   0  0  0  0  0  0
  -27.2342  -37.1450   25.8904 H   0  0  0  0  0  0
  -20.9478  -29.8728   21.6880 H   0  0  0  0  0  0
  -26.0266  -38.2928   24.1372 H   0  0  0  0  0  0
  -29.5665  -18.6092   21.6898 H   0  0  0  0  0  0
  -29.5890  -16.2082   18.1254 H   0  0  0  0  0  0
  -24.9939  -21.3346   20.4149 H   0  0  0  0  0  0
  -26.3836  -20.4854   19.5466 H   0  0  0  0  0  0
  -25.8248  -23.2030   22.1705 H   0  0  0  0  0  0
  -25.5871  -24.0431   20.6699 H   0  0  0  0  0  0
  -27.9060  -24.2102   22.6036 H   0  0  0  0  0  0
  -26.8572  -25.4971   22.1300 H   0  0  0  0  0  0
  -29.8741  -23.7783   19.5686 H   0  0  0  0  0  0
  -28.3726  -24.0247   18.7686 H   0  0  0  0  0  0
  -29.3087  -25.1276   21.2880 H   0  0  0  0  0  0
  -28.2929  -20.9901   17.0674 H   0  0  0  0  0  0
  -29.9648  -20.6331   16.6435 H   0  0  0  0  0  0
  -29.6518  -21.7536   17.9125 H   0  0  0  0  0  0
  -30.2459  -21.6291   20.5522 H   0  0  0  0  0  0
  -28.9988  -21.0739   21.6009 H   0  0  0  0  0  0
  -28.5675  -18.8819   15.8659 H   0  0  0  0  0  0
  -28.9648  -15.6419   21.2358 H   0  0  0  0  0  0
  -28.2401  -22.0267   19.0925 H   0  0  0  0  0  0
  1 25  1  0  0  0
  1 30  2  0  0  0
  1 86  1  0  0  0
  2  3  1  0  0  0
  2 25  1  0  0  0
  2 90  1  0  0  0
  2 91  1  0  0  0
  3  4  1  0  0  0
  3 92  1  0  0  0
  3 93  1  0  0  0
  4  5  1  0  0  0
  4 94  1  0  0  0
  4 95  1  0  0  0
  5  6  1  0  0  0
  5 26  1  0  0  0
  5 96  1  0  0  0
  6 25  1  0  0  0
  6 97  1  0  0  0
  6 98  1  0  0  0
  7  8  2  0  0  0
  7 26  1  0  0  0
  7 29  1  0  0  0
  8  9  1  0  0  0
  8 22  1  0  0  0
  9 10  1  0  0  0
  9 27  2  0  0  0
 10 11  2  0  0  0
 10 15  1  0  0  0
 11 12  1  0  0  0
 11 99  1  0  0  0
 12 13  2  0  0  0
 12100  1  0  0  0
 13 14  1  0  0  0
 13 31  1  0  0  0
 14 15  2  0  0  0
 14101  1  0  0  0
 15102  1  0  0  0
 16 17  2  0  0  0
 16 21  1  0  0  0
 16 31  1  0  0  0
 17 18  1  0  0  0
 17103  1  0  0  0
 18 19  2  0  0  0
 18104  1  0  0  0
 19 20  1  0  0  0
 19 24  1  0  0  0
 20 21  2  0  0  0
 20105  1  0  0  0
 21 23  1  0  0  0
 22 28  1  0  0  0
 22 32  2  0  0  0
 26 27  1  0  0  0
 28106  1  0  0  0
 28107  1  0  0  0
 29108  1  0  0  0
 29109  1  0  0  0
 33 34  1  0  0  0
 33 66  1  0  0  0
 33 70  2  0  0  0
 34 36  1  0  0  0
 34 59  1  0  0  0
 34110  1  0  0  0
 35 44  2  0  0  0
 35 45  1  0  0  0
 35 68  1  0  0  0
 36 56  1  0  0  0
 36111  1  0  0  0
 37 39  1  0  0  0
 37 47  1  0  0  0
 37 66  1  0  0  0
 37112  1  0  0  0
 38 43  2  0  0  0
 38 46  1  0  0  0
 38 47  1  0  0  0
 39 64  1  0  0  0
 39 67  2  0  0  0
 40 52  1  0  0  0
 40 53  2  0  0  0
 40 58  1  0  0  0
 41113  1  0  0  0
 41114  1  0  0  0
 41115  1  0  0  0
 41 48  1  0  0  0
 42 43  1  0  0  0
 42 66  1  0  0  0
 42116  1  0  0  0
 42117  1  0  0  0
 43 44  1  0  0  0
 44118  1  0  0  0
 45 46  2  0  0  0
 45119  1  0  0  0
 46120  1  0  0  0
 47121  1  0  0  0
 47122  1  0  0  0
 48 56  1  0  0  0
 48 65  1  0  0  0
 48123  1  0  0  0
 49 50  1  0  0  0
 49 53  1  0  0  0
 49 64  1  0  0  0
 49124  1  0  0  0
 50 51  1  0  0  0
 50125  1  0  0  0
 50126  1  0  0  0
 51 52  1  0  0  0
 51127  1  0  0  0
 51128  1  0  0  0
 52129  1  0  0  0
 52130  1  0  0  0
 53 54  1  0  0  0
 54 55  2  0  0  0
 54131  1  0  0  0
 55 57  1  0  0  0
 55132  1  0  0  0
 56 69  2  0  0  0
 57 58  2  0  0  0
 57133  1  0  0  0
 58134  1  0  0  0
 59 60  1  0  0  0
 59 61  1  0  0  0
 59 62  1  0  0  0
 60135  1  0  0  0
 60136  1  0  0  0
 60137  1  0  0  0
 61138  1  0  0  0
 61139  1  0  0  0
 61140  1  0  0  0
 62141  1  0  0  0
 62142  1  0  0  0
 62143  1  0  0  0
 63 65  1  0  0  0
 63144  1  0  0  0
 63145  1  0  0  0
 63146  1  0  0  0
 64147  1  0  0  0
 65148  1  0  0  0
 68 82  1  0  0  0
 71 73  2  0  0  0
 71 76  1  0  0  0
 71149  1  0  0  0
 72 74  1  0  0  0
 72 76  2  0  0  0
 72150  1  0  0  0
 73 75  1  0  0  0
 73 84  1  0  0  0
 74 75  2  0  0  0
 74 85  1  0  0  0
 75 83  1  0  0  0
 76 86  1  0  0  0
 77 78  2  0  0  0
 77 79  1  0  0  0
 77 87  1  0  0  0
 78151  1  0  0  0
 78152  1  0  0  0
 79 80  1  0  0  0
 79153  1  0  0  0
 79154  1  0  0  0
 80 82  1  0  0  0
 80155  1  0  0  0
 80156  1  0  0  0
 81 82  1  0  0  0
 81 87  1  0  0  0
 81157  1  0  0  0
 81158  1  0  0  0
 82159  1  0  0  0
 83160  1  0  0  0
 83161  1  0  0  0
 83162  1  0  0  0
 84163  1  0  0  0
 84164  1  0  0  0
 84 87  1  0  0  0
 85 88  1  0  0  0
 85 89  1  0  0  0
 85165  1  0  0  0
 86166  1  0  0  0
 87167  1  0  0  0
M  CHG  1  87   1
M  ISO  4   1 100  68 101  82 101  86 100
M  END
> <chiral flag>
0

> <version>
0

> <s_m_source_file>
/data/baiqing/PycharmProjects/Reinvent-master-3.2/result/LINK_invent/BTK/process_docking_weight1_custom_product_contain_oxygen_bond_distance_aromatic_linkinvent_7_9_3/rearranged_h_0038.sdf

> <i_m_source_file_index>
41

> <r_mmod_Potential_Energy-OPLS-2005>
208.985534667969

> <r_mmod_Stretch_Energy-OPLS-2005>
140.761871337891

> <r_mmod_Bend_Energy-OPLS-2005>
239.077926635742

> <r_mmod_Torsional_Energy-OPLS-2005>
304.593872070312

> <r_mmod_Improper_Torsional_Energy-OPLS-2005>
5.83397197723389

> <r_mmod_Van_der_Waal_Energy-OPLS-2005>
128.475692749023

> <r_mmod_Electrostatic_Energy-OPLS-2005>
-262.248016357422

> <r_mmod_Solvation_Energy-OPLS-2005>
-434.405120849609

> <b_mmod_Minimization_Converged-OPLS-2005>
0

> <r_mmod_RMS_Derivative-OPLS-2005>
7.80942392349243

$$$$
41
                    3D
 Structure written by MMmdl.
173182  0  0  1  0            999 V2000
  -30.6108  -14.6071   20.5213 C   0  0  0  0  0  0
  -30.4425  -12.3784   19.4440 C   0  0  0  0  0  0
  -29.5072  -12.5240   18.2220 C   0  0  0  0  0  0
  -28.0308  -12.3621   18.6358 C   0  0  0  0  0  0
  -27.6607  -13.2102   19.8826 C   0  0  2  0  0  0
  -28.7076  -13.0228   21.0058 C   0  0  0  0  0  0
  -25.2617  -13.8126   20.5827 C   0  0  0  0  0  0
  -24.1850  -13.0394   20.9198 C   0  0  0  0  0  0
  -24.6409  -11.6857   20.8741 C   0  0  0  0  0  0
  -23.9069  -10.4248   21.0427 C   0  0  0  0  0  0
  -24.3607   -9.4165   21.9207 C   0  0  0  0  0  0
  -23.6280   -8.2209   22.0772 C   0  0  0  0  0  0
  -22.4264   -8.0269   21.3552 C   0  0  0  0  0  0
  -21.9901   -9.0230   20.4646 C   0  0  0  0  0  0
  -22.7240  -10.2108   20.3071 C   0  0  0  0  0  0
  -21.6827   -6.0734   22.5297 C   0  0  0  0  0  0
  -21.3987   -6.5637   23.8231 C   0  0  0  0  0  0
  -21.3666   -5.6811   24.9203 C   0  0  0  0  0  0
  -21.6055   -4.3066   24.7253 C   0  0  0  0  0  0
  -21.8815   -3.8138   23.4373 C   0  0  0  0  0  0
  -21.9168   -4.6955   22.3430 C   0  0  0  0  0  0
  -22.7871  -13.5203   21.1839 C   0  0  0  0  0  0
  -22.1654   -4.2136   21.1008 F   0  0  0  0  0  0
  -21.5631   -3.4553   25.7759 F   0  0  0  0  0  0
  -30.0233  -13.3736   20.4487 N   0  0  0  0  0  0
  -26.3043  -12.9307   20.3445 N   0  0  0  0  0  0
  -25.9335  -11.6451   20.5757 N   0  0  0  0  0  0
  -22.0502  -12.8192   22.0388 N   0  0  0  0  0  0
  -25.4408  -15.1859   20.4449 N   0  0  0  0  0  0
  -31.7707  -14.7878   20.1373 O   0  0  0  0  0  0
  -21.6610   -6.8875   21.4260 O   0  0  0  0  0  0
  -22.3569  -14.5528   20.6718 O   0  0  0  0  0  0
  -24.6224  -31.8618   23.2030 C   0  0  0  0  0  0
  -25.9084  -32.4788   23.8344 C   0  0  1  0  0  0
  -27.2189  -27.3392   20.1442 C   0  0  0  0  0  0
  -25.5909  -33.8590   24.2287 N   0  0  0  0  0  0
  -23.4148  -30.4845   21.5423 C   0  0  2  0  0  0
  -24.8631  -28.9348   20.1143 C   0  0  0  0  0  0
  -22.7452  -29.4624   22.4907 C   0  0  0  0  0  0
  -18.0291  -28.1384   22.8482 C   0  0  0  0  0  0
  -24.1493  -36.7302   23.2643 C   0  0  0  0  0  0
  -25.9492  -30.8062   21.3630 C   0  0  0  0  0  0
  -26.0281  -29.4313   20.7124 C   0  0  0  0  0  0
  -27.2150  -28.6475   20.7085 C   0  0  0  0  0  0
  -26.0363  -26.8747   19.5344 C   0  0  0  0  0  0
  -24.8684  -27.6636   19.5134 C   0  0  0  0  0  0
  -23.6307  -29.8147   20.1578 C   0  0  0  0  0  0
  -25.4116  -36.3096   24.0339 C   0  0  1  0  0  0
  -20.5885  -28.3683   23.1291 C   0  0  2  0  0  0
  -20.6773  -26.9401   22.5425 C   0  0  0  0  0  0
  -19.5758  -26.6376   21.5216 C   0  0  0  0  0  0
  -18.1930  -26.7929   22.1613 C   0  0  0  0  0  0
  -19.1538  -28.8845   23.2885 C   0  0  0  0  0  0
  -18.9457  -30.1456   23.8892 C   0  0  0  0  0  0
  -17.6458  -30.6594   24.0557 C   0  0  0  0  0  0
  -25.9044  -34.9466   23.5119 C   0  0  0  0  0  0
  -16.5353  -29.9093   23.6323 C   0  0  0  0  0  0
  -16.7275  -28.6510   23.0338 C   0  0  0  0  0  0
  -26.4483  -31.6571   25.0694 C   0  0  0  0  0  0
  -25.3724  -31.3669   26.1412 C   0  0  0  0  0  0
  -27.0340  -30.3020   24.6100 C   0  0  0  0  0  0
  -27.6007  -32.4314   25.7506 C   0  0  0  0  0  0
  -27.5588  -37.1818   24.8464 C   0  0  0  0  0  0
  -21.4157  -29.3049   22.3670 N   0  0  0  0  0  0
  -26.4294  -37.3790   23.9413 N   0  0  0  0  0  0
  -24.6809  -31.0662   22.0955 N   0  0  0  0  0  0
  -23.4192  -28.8158   23.2966 O   0  0  0  0  0  0
  -28.3576  -26.5366   20.1437 O   0  0  0  0  0  0
  -26.5608  -34.8931   22.4685 O   0  0  0  0  0  0
  -23.5408  -32.1375   23.7395 O   0  0  0  0  0  0
  -28.9000  -17.8214   21.5576 C   0  0  0  0  0  0
  -28.5487  -19.1864   21.3397 C   0  0  0  0  0  0
  -29.8809  -19.1613   19.3177 C   0  0  0  0  0  0
  -29.0026  -19.8885   20.1874 C   0  0  0  0  0  0
  -30.1394  -17.7529   19.4890 C   0  0  0  0  0  0
  -29.6683  -17.0540   20.6446 C   0  0  0  0  0  0
  -28.3980  -23.9920   19.7048 C   0  0  0  0  0  0
  -28.3434  -24.2318   18.3738 C   0  0  0  0  0  0
  -29.8237  -23.7581   22.2743 C   0  0  0  0  0  0
  -29.5175  -25.1472   21.6784 C   0  0  0  0  0  0
  -29.9548  -22.6735   21.1866 C   0  0  0  0  0  0
  -28.3027  -25.1780   20.7223 C   0  0  1  0  0  0
  -27.6630  -19.8647   22.3741 C   0  0  0  0  0  0
  -30.5305  -19.8896   18.1433 C   0  0  0  0  0  0
  -30.8451  -16.9948   18.3654 C   0  0  0  0  0  0
  -28.5484  -23.3122   17.1912 C   0  0  0  0  0  0
  -28.3804  -21.2851   19.7477 C   0  0  0  0  0  0
  -29.7827  -15.6187   20.9290 N   0  0  0  0  0  0
  -28.6996  -22.6246   20.4083 N   0  3  2  0  0  0
  -31.4810  -12.5099   19.1378 H   0  0  0  0  0  0
  -30.3804  -11.3726   19.8611 H   0  0  0  0  0  0
  -29.7627  -11.7904   17.4570 H   0  0  0  0  0  0
  -29.6520  -13.5047   17.7644 H   0  0  0  0  0  0
  -27.8608  -11.3043   18.8431 H   0  0  0  0  0  0
  -27.3768  -12.6202   17.8008 H   0  0  0  0  0  0
  -27.6891  -14.2551   19.5708 H   0  0  0  0  0  0
  -28.7173  -11.9890   21.3560 H   0  0  0  0  0  0
  -28.4569  -13.6227   21.8821 H   0  0  0  0  0  0
  -25.2761   -9.5600   22.4765 H   0  0  0  0  0  0
  -23.9964   -7.4587   22.7496 H   0  0  0  0  0  0
  -21.0829   -8.8744   19.8942 H   0  0  0  0  0  0
  -22.3715  -10.9647   19.6159 H   0  0  0  0  0  0
  -21.1998   -7.6150   23.9724 H   0  0  0  0  0  0
  -21.1508   -6.0550   25.9112 H   0  0  0  0  0  0
  -22.0594   -2.7588   23.2882 H   0  0  0  0  0  0
  -22.4103  -11.9849   22.4785 H   0  0  0  0  0  0
  -21.1132  -13.1226   22.2599 H   0  0  0  0  0  0
  -24.6964  -15.8475   20.6359 H   0  0  0  0  0  0
  -26.3226  -15.6318   20.2307 H   0  0  0  0  0  0
  -26.7130  -32.5502   23.1076 H   0  0  0  0  0  0
  -25.0049  -33.9728   25.0427 H   0  0  0  0  0  0
  -22.7068  -31.3044   21.3991 H   0  0  0  0  0  0
  -23.3760  -35.9627   23.3294 H   0  0  0  0  0  0
  -24.3562  -36.8951   22.2058 H   0  0  0  0  0  0
  -23.7245  -37.6502   23.6671 H   0  0  0  0  0  0
  -26.0651  -31.5698   20.5908 H   0  0  0  0  0  0
  -26.8367  -30.8641   21.9823 H   0  0  0  0  0  0
  -28.1174  -29.0303   21.1662 H   0  0  0  0  0  0
  -26.0086  -25.8969   19.0744 H   0  0  0  0  0  0
  -23.9726  -27.2775   19.0472 H   0  0  0  0  0  0
  -23.7501  -30.5916   19.4006 H   0  0  0  0  0  0
  -22.7506  -29.2433   19.8564 H   0  0  0  0  0  0
  -25.1290  -36.1946   25.0829 H   0  0  0  0  0  0
  -20.9983  -28.3276   24.1411 H   0  0  0  0  0  0
  -20.5651  -26.2291   23.3622 H   0  0  0  0  0  0
  -21.6647  -26.7422   22.1243 H   0  0  0  0  0  0
  -19.6907  -25.6283   21.1258 H   0  0  0  0  0  0
  -19.6714  -27.3165   20.6730 H   0  0  0  0  0  0
  -17.4212  -26.6715   21.3996 H   0  0  0  0  0  0
  -18.0285  -26.0060   22.8990 H   0  0  0  0  0  0
  -19.7933  -30.7276   24.2245 H   0  0  0  0  0  0
  -17.5024  -31.6271   24.5165 H   0  0  0  0  0  0
  -15.5352  -30.3000   23.7646 H   0  0  0  0  0  0
  -15.8679  -28.0850   22.7019 H   0  0  0  0  0  0
  -24.5944  -30.6962   25.7745 H   0  0  0  0  0  0
  -24.8843  -32.2811   26.4795 H   0  0  0  0  0  0
  -25.8076  -30.8904   27.0204 H   0  0  0  0  0  0
  -26.2915  -29.6774   24.1117 H   0  0  0  0  0  0
  -27.4062  -29.7262   25.4581 H   0  0  0  0  0  0
  -27.8756  -30.4335   23.9294 H   0  0  0  0  0  0
  -27.2538  -33.3545   26.2161 H   0  0  0  0  0  0
  -28.3788  -32.7002   25.0347 H   0  0  0  0  0  0
  -28.0699  -31.8400   26.5377 H   0  0  0  0  0  0
  -28.2603  -38.0125   24.7519 H   0  0  0  0  0  0
  -28.1098  -36.2652   24.6279 H   0  0  0  0  0  0
  -27.2300  -37.1466   25.8869 H   0  0  0  0  0  0
  -20.9293  -29.8795   21.6924 H   0  0  0  0  0  0
  -26.0185  -38.2873   24.1412 H   0  0  0  0  0  0
  -28.5158  -17.3323   22.4433 H   0  0  0  0  0  0
  -28.1234  -25.2469   18.0742 H   0  0  0  0  0  0
  -29.0462  -23.4826   22.9893 H   0  0  0  0  0  0
  -30.7488  -23.8039   22.8509 H   0  0  0  0  0  0
  -30.3983  -25.4823   21.1295 H   0  0  0  0  0  0
  -29.3714  -25.8696   22.4821 H   0  0  0  0  0  0
  -30.1549  -21.7214   21.6788 H   0  0  0  0  0  0
  -30.7969  -22.8759   20.5232 H   0  0  0  0  0  0
  -27.3853  -25.0542   21.3033 H   0  0  0  0  0  0
  -27.1309  -19.1278   22.9757 H   0  0  0  0  0  0
  -26.9083  -20.5092   21.9260 H   0  0  0  0  0  0
  -28.2731  -20.4658   23.0499 H   0  0  0  0  0  0
  -29.9110  -19.8098   17.2491 H   0  0  0  0  0  0
  -31.5198  -19.4923   17.9167 H   0  0  0  0  0  0
  -30.6987  -20.9430   18.3618 H   0  0  0  0  0  0
  -31.9117  -16.9170   18.5705 H   0  0  0  0  0  0
  -30.7160  -17.4601   17.3887 H   0  0  0  0  0  0
  -30.4323  -15.9958   18.2353 H   0  0  0  0  0  0
  -29.4305  -22.6863   17.3204 H   0  0  0  0  0  0
  -28.7323  -23.9142   16.3001 H   0  0  0  0  0  0
  -27.6610  -22.7060   17.0017 H   0  0  0  0  0  0
  -27.2995  -21.1734   19.8198 H   0  0  0  0  0  0
  -28.5066  -21.3492   18.6803 H   0  0  0  0  0  0
  -28.9903  -15.2542   21.4353 H   0  0  0  0  0  0
  -28.0270  -22.5804   21.1580 H   0  0  0  0  0  0
  1 25  1  0  0  0
  1 30  2  0  0  0
  1 88  1  0  0  0
  2  3  1  0  0  0
  2 25  1  0  0  0
  2 90  1  0  0  0
  2 91  1  0  0  0
  3  4  1  0  0  0
  3 92  1  0  0  0
  3 93  1  0  0  0
  4  5  1  0  0  0
  4 94  1  0  0  0
  4 95  1  0  0  0
  5  6  1  0  0  0
  5 26  1  0  0  0
  5 96  1  0  0  0
  6 25  1  0  0  0
  6 97  1  0  0  0
  6 98  1  0  0  0
  7  8  2  0  0  0
  7 26  1  0  0  0
  7 29  1  0  0  0
  8  9  1  0  0  0
  8 22  1  0  0  0
  9 10  1  0  0  0
  9 27  2  0  0  0
 10 11  2  0  0  0
 10 15  1  0  0  0
 11 12  1  0  0  0
 11 99  1  0  0  0
 12 13  2  0  0  0
 12100  1  0  0  0
 13 14  1  0  0  0
 13 31  1  0  0  0
 14 15  2  0  0  0
 14101  1  0  0  0
 15102  1  0  0  0
 16 17  2  0  0  0
 16 21  1  0  0  0
 16 31  1  0  0  0
 17 18  1  0  0  0
 17103  1  0  0  0
 18 19  2  0  0  0
 18104  1  0  0  0
 19 20  1  0  0  0
 19 24  1  0  0  0
 20 21  2  0  0  0
 20105  1  0  0  0
 21 23  1  0  0  0
 22 28  1  0  0  0
 22 32  2  0  0  0
 26 27  1  0  0  0
 28106  1  0  0  0
 28107  1  0  0  0
 29108  1  0  0  0
 29109  1  0  0  0
 33 34  1  0  0  0
 33 66  1  0  0  0
 33 70  2  0  0  0
 34 36  1  0  0  0
 34 59  1  0  0  0
 34110  1  0  0  0
 35 44  2  0  0  0
 35 45  1  0  0  0
 35 68  1  0  0  0
 36 56  1  0  0  0
 36111  1  0  0  0
 37 39  1  0  0  0
 37 47  1  0  0  0
 37 66  1  0  0  0
 37112  1  0  0  0
 38 43  2  0  0  0
 38 46  1  0  0  0
 38 47  1  0  0  0
 39 64  1  0  0  0
 39 67  2  0  0  0
 40 52  1  0  0  0
 40 53  2  0  0  0
 40 58  1  0  0  0
 41113  1  0  0  0
 41114  1  0  0  0
 41115  1  0  0  0
 41 48  1  0  0  0
 42 43  1  0  0  0
 42 66  1  0  0  0
 42116  1  0  0  0
 42117  1  0  0  0
 43 44  1  0  0  0
 44118  1  0  0  0
 45 46  2  0  0  0
 45119  1  0  0  0
 46120  1  0  0  0
 47121  1  0  0  0
 47122  1  0  0  0
 48 56  1  0  0  0
 48 65  1  0  0  0
 48123  1  0  0  0
 49 50  1  0  0  0
 49 53  1  0  0  0
 49 64  1  0  0  0
 49124  1  0  0  0
 50 51  1  0  0  0
 50125  1  0  0  0
 50126  1  0  0  0
 51 52  1  0  0  0
 51127  1  0  0  0
 51128  1  0  0  0
 52129  1  0  0  0
 52130  1  0  0  0
 53 54  1  0  0  0
 54 55  2  0  0  0
 54131  1  0  0  0
 55 57  1  0  0  0
 55132  1  0  0  0
 56 69  2  0  0  0
 57 58  2  0  0  0
 57133  1  0  0  0
 58134  1  0  0  0
 59 60  1  0  0  0
 59 61  1  0  0  0
 59 62  1  0  0  0
 60135  1  0  0  0
 60136  1  0  0  0
 60137  1  0  0  0
 61138  1  0  0  0
 61139  1  0  0  0
 61140  1  0  0  0
 62141  1  0  0  0
 62142  1  0  0  0
 62143  1  0  0  0
 63 65  1  0  0  0
 63144  1  0  0  0
 63145  1  0  0  0
 63146  1  0  0  0
 64147  1  0  0  0
 65148  1  0  0  0
 68 82  1  0  0  0
 71 72  2  0  0  0
 71 76  1  0  0  0
 71149  1  0  0  0
 72 74  1  0  0  0
 72 83  1  0  0  0
 73 74  2  0  0  0
 73 75  1  0  0  0
 73 84  1  0  0  0
 74 87  1  0  0  0
 75 76  2  0  0  0
 75 85  1  0  0  0
 76 88  1  0  0  0
 77 78  2  0  0  0
 77 82  1  0  0  0
 77 89  1  0  0  0
 78 86  1  0  0  0
 78150  1  0  0  0
 79 80  1  0  0  0
 79 81  1  0  0  0
 79151  1  0  0  0
 79152  1  0  0  0
 80 82  1  0  0  0
 80153  1  0  0  0
 80154  1  0  0  0
 81 89  1  0  0  0
 81155  1  0  0  0
 81156  1  0  0  0
 82157  1  0  0  0
 83158  1  0  0  0
 83159  1  0  0  0
 83160  1  0  0  0
 84161  1  0  0  0
 84162  1  0  0  0
 84163  1  0  0  0
 85164  1  0  0  0
 85165  1  0  0  0
 85166  1  0  0  0
 86167  1  0  0  0
 86168  1  0  0  0
 86169  1  0  0  0
 87170  1  0  0  0
 87171  1  0  0  0
 87 89  1  0  0  0
 88172  1  0  0  0
 89173  1  0  0  0
M  CHG  1  89   1
M  ISO  4   1 100  68 101  82 101  88 100
M  END
> <chiral flag>
0

> <version>
0

> <s_m_source_file>
/data/baiqing/PycharmProjects/Reinvent-master-3.2/result/LINK_invent/BTK/process_docking_weight1_custom_product_contain_oxygen_bond_distance_aromatic_linkinvent_7_9_3/rearranged_h_0038.sdf

> <i_m_source_file_index>
42

> <r_mmod_Potential_Energy-OPLS-2005>
24.6104583740234

> <r_mmod_Stretch_Energy-OPLS-2005>
90.3060150146484

> <r_mmod_Bend_Energy-OPLS-2005>
186.367172241211

> <r_mmod_Torsional_Energy-OPLS-2005>
272.403686523438

> <r_mmod_Improper_Torsional_Energy-OPLS-2005>
5.31436443328857

> <r_mmod_Van_der_Waal_Energy-OPLS-2005>
154.586532592773

> <r_mmod_Electrostatic_Energy-OPLS-2005>
-302.163360595703

> <r_mmod_Solvation_Energy-OPLS-2005>
-419.558532714844

> <b_mmod_Minimization_Converged-OPLS-2005>
0

> <r_mmod_RMS_Derivative-OPLS-2005>
3.23684358596802

$$$$
42
                    3D
 Structure written by MMmdl.
172181  0  0  1  0            999 V2000
  -30.6122  -14.7355   20.4155 C   0  0  0  0  0  0
  -30.4361  -12.4314   19.4776 C   0  0  0  0  0  0
  -29.5014  -12.4040   18.2446 C   0  0  0  0  0  0
  -28.0225  -12.2964   18.6596 C   0  0  0  0  0  0
  -27.6398  -13.2260   19.8431 C   0  0  2  0  0  0
  -28.6860  -13.1609   20.9766 C   0  0  0  0  0  0
  -25.2484  -13.8189   20.5702 C   0  0  0  0  0  0
  -24.1757  -13.0437   20.9210 C   0  0  0  0  0  0
  -24.6351  -11.6905   20.8752 C   0  0  0  0  0  0
  -23.9020  -10.4283   21.0393 C   0  0  0  0  0  0
  -24.3597   -9.4201   21.9150 C   0  0  0  0  0  0
  -23.6298   -8.2227   22.0718 C   0  0  0  0  0  0
  -22.4273   -8.0253   21.3517 C   0  0  0  0  0  0
  -21.9893   -9.0226   20.4623 C   0  0  0  0  0  0
  -22.7211  -10.2109   20.3035 C   0  0  0  0  0  0
  -21.6853   -6.0727   22.5267 C   0  0  0  0  0  0
  -21.4038   -6.5629   23.8206 C   0  0  0  0  0  0
  -21.3670   -5.6767   24.9151 C   0  0  0  0  0  0
  -21.6053   -4.3037   24.7191 C   0  0  0  0  0  0
  -21.8831   -3.8139   23.4312 C   0  0  0  0  0  0
  -21.9190   -4.6959   22.3371 C   0  0  0  0  0  0
  -22.7784  -13.5220   21.1859 C   0  0  0  0  0  0
  -22.1649   -4.2151   21.0945 F   0  0  0  0  0  0
  -21.5610   -3.4514   25.7705 F   0  0  0  0  0  0
  -29.9855  -13.5091   20.3898 N   0  0  0  0  0  0
  -26.2905  -12.9396   20.3276 N   0  0  0  0  0  0
  -25.9287  -11.6553   20.5823 N   0  0  0  0  0  0
  -22.0431  -12.8227   22.0421 N   0  0  0  0  0  0
  -25.4165  -15.1917   20.4146 N   0  0  0  0  0  0
  -31.8146  -14.8143   20.1612 O   0  0  0  0  0  0
  -21.6643   -6.8860   21.4225 O   0  0  0  0  0  0
  -22.3447  -14.5516   20.6685 O   0  0  0  0  0  0
  -24.6243  -31.8559   23.1959 C   0  0  0  0  0  0
  -25.9052  -32.4771   23.8328 C   0  0  1  0  0  0
  -27.2379  -27.2837   20.1576 C   0  0  0  0  0  0
  -25.5846  -33.8573   24.2219 N   0  0  0  0  0  0
  -23.4246  -30.4699   21.5369 C   0  0  2  0  0  0
  -24.8773  -28.9110   20.1046 C   0  0  0  0  0  0
  -22.7478  -29.4575   22.4912 C   0  0  0  0  0  0
  -18.0281  -28.1396   22.8493 C   0  0  0  0  0  0
  -24.1485  -36.7303   23.2656 C   0  0  0  0  0  0
  -25.9618  -30.7744   21.3733 C   0  0  0  0  0  0
  -26.0352  -29.3976   20.7188 C   0  0  0  0  0  0
  -27.2091  -28.5914   20.7369 C   0  0  0  0  0  0
  -26.0672  -26.8475   19.5012 C   0  0  0  0  0  0
  -24.8968  -27.6464   19.4820 C   0  0  0  0  0  0
  -23.6435  -29.7940   20.1543 C   0  0  0  0  0  0
  -25.4119  -36.3080   24.0326 C   0  0  1  0  0  0
  -20.5878  -28.3689   23.1296 C   0  0  2  0  0  0
  -20.6762  -26.9401   22.5443 C   0  0  0  0  0  0
  -19.5748  -26.6375   21.5233 C   0  0  0  0  0  0
  -18.1919  -26.7948   22.1619 C   0  0  0  0  0  0
  -19.1536  -28.8863   23.2892 C   0  0  0  0  0  0
  -18.9459  -30.1462   23.8912 C   0  0  0  0  0  0
  -17.6461  -30.6593   24.0577 C   0  0  0  0  0  0
  -25.9042  -34.9452   23.5088 C   0  0  0  0  0  0
  -16.5348  -29.9098   23.6332 C   0  0  0  0  0  0
  -16.7271  -28.6516   23.0351 C   0  0  0  0  0  0
  -26.4424  -31.6626   25.0736 C   0  0  0  0  0  0
  -25.3641  -31.3800   26.1467 C   0  0  0  0  0  0
  -27.0273  -30.3055   24.6210 C   0  0  0  0  0  0
  -27.5953  -32.4417   25.7490 C   0  0  0  0  0  0
  -27.5579  -37.1809   24.8454 C   0  0  0  0  0  0
  -21.4193  -29.3017   22.3662 N   0  0  0  0  0  0
  -26.4292  -37.3780   23.9398 N   0  0  0  0  0  0
  -24.6882  -31.0533   22.0921 N   0  0  0  0  0  0
  -23.4179  -28.8139   23.3039 O   0  0  0  0  0  0
  -28.3710  -26.4772   20.3471 O   0  0  0  0  0  0
  -26.5657  -34.8922   22.4683 O   0  0  0  0  0  0
  -23.5395  -32.1362   23.7253 O   0  0  0  0  0  0
  -29.4065  -18.4382   20.4158 C   0  0  0  0  0  0
  -29.2031  -19.7009   19.7135 C   0  0  0  0  0  0
  -29.4005  -19.6481   18.3068 C   0  0  0  0  0  0
  -29.9994  -18.5178   17.6926 C   0  0  0  0  0  0
  -30.2051  -17.3036   18.4093 C   0  0  0  0  0  0
  -29.8628  -17.1996   19.7954 C   0  0  0  0  0  0
  -30.9922  -24.7924   18.4885 C   0  0  0  0  0  0
  -30.5853  -23.3336   18.3107 C   0  0  0  0  0  0
  -30.2468  -25.4903   19.6232 C   0  0  0  0  0  0
  -30.6032  -22.5322   19.6242 C   0  0  0  0  0  0
  -28.4360  -23.7513   20.4850 C   0  0  0  0  0  0
  -28.7367  -25.1763   19.7227 C   0  0  1  0  0  0
  -28.8794  -20.7570   17.3962 C   0  0  0  0  0  0
  -30.3781  -18.5854   16.2073 C   0  0  0  0  0  0
  -30.7170  -16.1011   17.6209 C   0  0  0  0  0  0
  -28.6160  -21.0401   20.3932 C   0  0  0  0  0  0
  -29.8185  -15.8777   20.5004 N   0  0  0  0  0  0
  -29.2859  -22.4456   20.3160 N   0  3  1  0  0  0
  -31.4726  -12.5552   19.1576 H   0  0  0  0  0  0
  -30.4070  -11.4742   19.9999 H   0  0  0  0  0  0
  -29.7626  -11.5509   17.6164 H   0  0  0  0  0  0
  -29.6410  -13.2733   17.6118 H   0  0  0  0  0  0
  -27.8532  -11.2597   18.9523 H   0  0  0  0  0  0
  -27.3683  -12.4709   17.8040 H   0  0  0  0  0  0
  -27.6377  -14.2424   19.4432 H   0  0  0  0  0  0
  -28.7143  -12.1607   21.4168 H   0  0  0  0  0  0
  -28.4299  -13.8405   21.7910 H   0  0  0  0  0  0
  -25.2738   -9.5707   22.4696 H   0  0  0  0  0  0
  -24.0020   -7.4644   22.7463 H   0  0  0  0  0  0
  -21.0802   -8.8753   19.8954 H   0  0  0  0  0  0
  -22.3658  -10.9631   19.6143 H   0  0  0  0  0  0
  -21.2059   -7.6144   23.9725 H   0  0  0  0  0  0
  -21.1476   -6.0470   25.9057 H   0  0  0  0  0  0
  -22.0613   -2.7602   23.2778 H   0  0  0  0  0  0
  -22.4060  -11.9939   22.4892 H   0  0  0  0  0  0
  -21.1053  -13.1253   22.2610 H   0  0  0  0  0  0
  -24.6563  -15.8479   20.5541 H   0  0  0  0  0  0
  -26.2619  -15.6334   20.0763 H   0  0  0  0  0  0
  -26.7106  -32.5428   23.1065 H   0  0  0  0  0  0
  -24.9910  -33.9706   25.0303 H   0  0  0  0  0  0
  -22.7202  -31.2894   21.3875 H   0  0  0  0  0  0
  -23.3743  -35.9637   23.3319 H   0  0  0  0  0  0
  -24.3574  -36.8941   22.2067 H   0  0  0  0  0  0
  -23.7217  -37.6496   23.6694 H   0  0  0  0  0  0
  -26.0979  -31.5351   20.6036 H   0  0  0  0  0  0
  -26.8391  -30.8267   22.0078 H   0  0  0  0  0  0
  -28.0919  -28.9545   21.2431 H   0  0  0  0  0  0
  -26.0313  -25.8677   19.0464 H   0  0  0  0  0  0
  -24.0046  -27.2701   18.9998 H   0  0  0  0  0  0
  -23.7612  -30.5656   19.3934 H   0  0  0  0  0  0
  -22.7653  -29.2192   19.8570 H   0  0  0  0  0  0
  -25.1298  -36.1943   25.0819 H   0  0  0  0  0  0
  -20.9977  -28.3275   24.1418 H   0  0  0  0  0  0
  -20.5678  -26.2286   23.3647 H   0  0  0  0  0  0
  -21.6627  -26.7446   22.1231 H   0  0  0  0  0  0
  -19.6914  -25.6277   21.1279 H   0  0  0  0  0  0
  -19.6705  -27.3178   20.6758 H   0  0  0  0  0  0
  -17.4200  -26.6722   21.3998 H   0  0  0  0  0  0
  -18.0296  -26.0085   22.9007 H   0  0  0  0  0  0
  -19.7928  -30.7282   24.2295 H   0  0  0  0  0  0
  -17.5006  -31.6279   24.5171 H   0  0  0  0  0  0
  -15.5348  -30.3007   23.7660 H   0  0  0  0  0  0
  -15.8662  -28.0853   22.7063 H   0  0  0  0  0  0
  -24.5732  -30.7262   25.7780 H   0  0  0  0  0  0
  -24.8932  -32.3000   26.4955 H   0  0  0  0  0  0
  -25.7924  -30.8893   27.0216 H   0  0  0  0  0  0
  -26.2872  -29.6840   24.1171 H   0  0  0  0  0  0
  -27.3893  -29.7286   25.4725 H   0  0  0  0  0  0
  -27.8764  -30.4354   23.9497 H   0  0  0  0  0  0
  -27.2502  -33.3691   26.2085 H   0  0  0  0  0  0
  -28.3715  -32.7066   25.0295 H   0  0  0  0  0  0
  -28.0695  -31.8590   26.5395 H   0  0  0  0  0  0
  -28.2593  -38.0111   24.7499 H   0  0  0  0  0  0
  -28.1069  -36.2635   24.6271 H   0  0  0  0  0  0
  -27.2313  -37.1467   25.8864 H   0  0  0  0  0  0
  -20.9379  -29.8689   21.6824 H   0  0  0  0  0  0
  -26.0177  -38.2862   24.1396 H   0  0  0  0  0  0
  -29.1504  -18.4040   21.4658 H   0  0  0  0  0  0
  -30.8083  -25.3332   17.5585 H   0  0  0  0  0  0
  -32.0661  -24.8639   18.6736 H   0  0  0  0  0  0
  -31.2817  -22.8770   17.6070 H   0  0  0  0  0  0
  -29.6087  -23.2976   17.8342 H   0  0  0  0  0  0
  -30.4047  -26.5578   19.4481 H   0  0  0  0  0  0
  -30.7187  -25.2952   20.5874 H   0  0  0  0  0  0
  -31.3195  -22.9727   20.3187 H   0  0  0  0  0  0
  -31.0086  -21.5395   19.4371 H   0  0  0  0  0  0
  -27.3927  -23.5000   20.2950 H   0  0  0  0  0  0
  -28.4666  -23.9620   21.5544 H   0  0  0  0  0  0
  -28.3147  -25.1498   18.7177 H   0  0  0  0  0  0
  -28.2458  -21.4842   17.8988 H   0  0  0  0  0  0
  -28.2560  -20.3260   16.6118 H   0  0  0  0  0  0
  -29.6966  -21.2796   16.9009 H   0  0  0  0  0  0
  -30.4582  -19.5892   15.7975 H   0  0  0  0  0  0
  -29.6509  -18.0447   15.6010 H   0  0  0  0  0  0
  -31.3626  -18.1471   16.0397 H   0  0  0  0  0  0
  -30.5267  -16.1328   16.5506 H   0  0  0  0  0  0
  -30.2015  -15.2095   17.9317 H   0  0  0  0  0  0
  -31.7884  -15.9750   17.7715 H   0  0  0  0  0  0
  -28.5089  -20.8190   21.4550 H   0  0  0  0  0  0
  -27.5876  -21.1416   20.0467 H   0  0  0  0  0  0
  -28.9277  -15.6900   20.9319 H   0  0  0  0  0  0
  -29.6647  -22.4085   21.2541 H   0  0  0  0  0  0
  1 25  1  0  0  0
  1 30  2  0  0  0
  1 87  1  0  0  0
  2  3  1  0  0  0
  2 25  1  0  0  0
  2 89  1  0  0  0
  2 90  1  0  0  0
  3  4  1  0  0  0
  3 91  1  0  0  0
  3 92  1  0  0  0
  4  5  1  0  0  0
  4 93  1  0  0  0
  4 94  1  0  0  0
  5  6  1  0  0  0
  5 26  1  0  0  0
  5 95  1  0  0  0
  6 25  1  0  0  0
  6 96  1  0  0  0
  6 97  1  0  0  0
  7  8  2  0  0  0
  7 26  1  0  0  0
  7 29  1  0  0  0
  8  9  1  0  0  0
  8 22  1  0  0  0
  9 10  1  0  0  0
  9 27  2  0  0  0
 10 11  2  0  0  0
 10 15  1  0  0  0
 11 12  1  0  0  0
 11 98  1  0  0  0
 12 13  2  0  0  0
 12 99  1  0  0  0
 13 14  1  0  0  0
 13 31  1  0  0  0
 14 15  2  0  0  0
 14100  1  0  0  0
 15101  1  0  0  0
 16 17  2  0  0  0
 16 21  1  0  0  0
 16 31  1  0  0  0
 17 18  1  0  0  0
 17102  1  0  0  0
 18 19  2  0  0  0
 18103  1  0  0  0
 19 20  1  0  0  0
 19 24  1  0  0  0
 20 21  2  0  0  0
 20104  1  0  0  0
 21 23  1  0  0  0
 22 28  1  0  0  0
 22 32  2  0  0  0
 26 27  1  0  0  0
 28105  1  0  0  0
 28106  1  0  0  0
 29107  1  0  0  0
 29108  1  0  0  0
 33 34  1  0  0  0
 33 66  1  0  0  0
 33 70  2  0  0  0
 34 36  1  0  0  0
 34 59  1  0  0  0
 34109  1  0  0  0
 35 44  2  0  0  0
 35 45  1  0  0  0
 35 68  1  0  0  0
 36 56  1  0  0  0
 36110  1  0  0  0
 37 39  1  0  0  0
 37 47  1  0  0  0
 37 66  1  0  0  0
 37111  1  0  0  0
 38 43  2  0  0  0
 38 46  1  0  0  0
 38 47  1  0  0  0
 39 64  1  0  0  0
 39 67  2  0  0  0
 40 52  1  0  0  0
 40 53  2  0  0  0
 40 58  1  0  0  0
 41112  1  0  0  0
 41113  1  0  0  0
 41114  1  0  0  0
 41 48  1  0  0  0
 42 43  1  0  0  0
 42 66  1  0  0  0
 42115  1  0  0  0
 42116  1  0  0  0
 43 44  1  0  0  0
 44117  1  0  0  0
 45 46  2  0  0  0
 45118  1  0  0  0
 46119  1  0  0  0
 47120  1  0  0  0
 47121  1  0  0  0
 48 56  1  0  0  0
 48 65  1  0  0  0
 48122  1  0  0  0
 49 50  1  0  0  0
 49 53  1  0  0  0
 49 64  1  0  0  0
 49123  1  0  0  0
 50 51  1  0  0  0
 50124  1  0  0  0
 50125  1  0  0  0
 51 52  1  0  0  0
 51126  1  0  0  0
 51127  1  0  0  0
 52128  1  0  0  0
 52129  1  0  0  0
 53 54  1  0  0  0
 54 55  2  0  0  0
 54130  1  0  0  0
 55 57  1  0  0  0
 55131  1  0  0  0
 56 69  2  0  0  0
 57 58  2  0  0  0
 57132  1  0  0  0
 58133  1  0  0  0
 59 60  1  0  0  0
 59 61  1  0  0  0
 59 62  1  0  0  0
 60134  1  0  0  0
 60135  1  0  0  0
 60136  1  0  0  0
 61137  1  0  0  0
 61138  1  0  0  0
 61139  1  0  0  0
 62140  1  0  0  0
 62141  1  0  0  0
 62142  1  0  0  0
 63 65  1  0  0  0
 63143  1  0  0  0
 63144  1  0  0  0
 63145  1  0  0  0
 64146  1  0  0  0
 65147  1  0  0  0
 68 82  1  0  0  0
 71 72  2  0  0  0
 71 76  1  0  0  0
 71148  1  0  0  0
 72 73  1  0  0  0
 72 86  1  0  0  0
 73 74  2  0  0  0
 73 83  1  0  0  0
 74 75  1  0  0  0
 74 84  1  0  0  0
 75 76  2  0  0  0
 75 85  1  0  0  0
 76 87  1  0  0  0
 77 78  1  0  0  0
 77 79  1  0  0  0
 77149  1  0  0  0
 77150  1  0  0  0
 78 80  1  0  0  0
 78151  1  0  0  0
 78152  1  0  0  0
 79 82  1  0  0  0
 79153  1  0  0  0
 79154  1  0  0  0
 80 88  1  0  0  0
 80155  1  0  0  0
 80156  1  0  0  0
 81 82  1  0  0  0
 81 88  1  0  0  0
 81157  1  0  0  0
 81158  1  0  0  0
 82159  1  0  0  0
 83160  1  0  0  0
 83161  1  0  0  0
 83162  1  0  0  0
 84163  1  0  0  0
 84164  1  0  0  0
 84165  1  0  0  0
 85166  1  0  0  0
 85167  1  0  0  0
 85168  1  0  0  0
 86169  1  0  0  0
 86170  1  0  0  0
 86 88  1  0  0  0
 87171  1  0  0  0
 88172  1  0  0  0
M  CHG  1  88   1
M  ISO  4   1 100  68 101  82 101  87 100
M  END
> <chiral flag>
0

> <version>
0

> <s_m_source_file>
/data/baiqing/PycharmProjects/Reinvent-master-3.2/result/LINK_invent/BTK/process_docking_weight1_custom_product_contain_oxygen_bond_distance_aromatic_linkinvent_7_9_3/rearranged_h_0038.sdf

> <i_m_source_file_index>
43

> <r_mmod_Potential_Energy-OPLS-2005>
267.247985839844

> <r_mmod_Stretch_Energy-OPLS-2005>
144.171676635742

> <r_mmod_Bend_Energy-OPLS-2005>
259.198883056641

> <r_mmod_Torsional_Energy-OPLS-2005>
314.083251953125

> <r_mmod_Improper_Torsional_Energy-OPLS-2005>
7.76072835922241

> <r_mmod_Van_der_Waal_Energy-OPLS-2005>
169.554321289062

> <r_mmod_Electrostatic_Energy-OPLS-2005>
-291.580505371094

> <r_mmod_Solvation_Energy-OPLS-2005>
-421.801849365234

> <b_mmod_Minimization_Converged-OPLS-2005>
0

> <r_mmod_RMS_Derivative-OPLS-2005>
3.92666125297546

$$$$
43
                    3D
 Structure written by MMmdl.
156164  0  0  1  0            999 V2000
  -30.6284  -14.6262   20.5053 C   0  0  0  0  0  0
  -30.4405  -12.3873   19.4444 C   0  0  0  0  0  0
  -29.5063  -12.5098   18.2199 C   0  0  0  0  0  0
  -28.0293  -12.3465   18.6320 C   0  0  0  0  0  0
  -27.6542  -13.2123   19.8636 C   0  0  2  0  0  0
  -28.7011  -13.0605   20.9907 C   0  0  0  0  0  0
  -25.2559  -13.8153   20.5683 C   0  0  0  0  0  0
  -24.1823  -13.0418   20.9175 C   0  0  0  0  0  0
  -24.6396  -11.6889   20.8725 C   0  0  0  0  0  0
  -23.9064  -10.4276   21.0402 C   0  0  0  0  0  0
  -24.3616   -9.4188   21.9183 C   0  0  0  0  0  0
  -23.6280   -8.2232   22.0756 C   0  0  0  0  0  0
  -22.4265   -8.0276   21.3548 C   0  0  0  0  0  0
  -21.9900   -9.0249   20.4650 C   0  0  0  0  0  0
  -22.7236  -10.2123   20.3055 C   0  0  0  0  0  0
  -21.6848   -6.0723   22.5279 C   0  0  0  0  0  0
  -21.4011   -6.5627   23.8214 C   0  0  0  0  0  0
  -21.3660   -5.6782   24.9176 C   0  0  0  0  0  0
  -21.6050   -4.3045   24.7227 C   0  0  0  0  0  0
  -21.8818   -3.8136   23.4350 C   0  0  0  0  0  0
  -21.9186   -4.6951   22.3403 C   0  0  0  0  0  0
  -22.7848  -13.5221   21.1839 C   0  0  0  0  0  0
  -22.1657   -4.2134   21.0980 F   0  0  0  0  0  0
  -21.5629   -3.4530   25.7743 F   0  0  0  0  0  0
  -30.0177  -13.4023   20.4281 N   0  0  0  0  0  0
  -26.2992  -12.9336   20.3321 N   0  0  0  0  0  0
  -25.9324  -11.6492   20.5744 N   0  0  0  0  0  0
  -22.0487  -12.8228   22.0403 N   0  0  0  0  0  0
  -25.4244  -15.1879   20.4138 N   0  0  0  0  0  0
  -31.7909  -14.7957   20.1267 O   0  0  0  0  0  0
  -21.6629   -6.8872   21.4245 O   0  0  0  0  0  0
  -22.3536  -14.5524   20.6678 O   0  0  0  0  0  0
  -24.6264  -31.8606   23.2027 C   0  0  0  0  0  0
  -25.9115  -32.4779   23.8355 C   0  0  1  0  0  0
  -27.2242  -27.3263   20.1105 C   0  0  0  0  0  0
  -25.5931  -33.8578   24.2282 N   0  0  0  0  0  0
  -23.4191  -30.4855   21.5458 C   0  0  2  0  0  0
  -24.8643  -28.9448   20.1094 C   0  0  0  0  0  0
  -22.7476  -29.4632   22.4935 C   0  0  0  0  0  0
  -18.0284  -28.1388   22.8481 C   0  0  0  0  0  0
  -24.1488  -36.7298   23.2639 C   0  0  0  0  0  0
  -25.9603  -30.7943   21.3721 C   0  0  0  0  0  0
  -26.0340  -29.4231   20.7127 C   0  0  0  0  0  0
  -27.2174  -28.6270   20.7013 C   0  0  0  0  0  0
  -26.0277  -26.9009   19.4846 C   0  0  0  0  0  0
  -24.8637  -27.6900   19.4847 C   0  0  0  0  0  0
  -23.6319  -29.8234   20.1600 C   0  0  0  0  0  0
  -25.4111  -36.3083   24.0329 C   0  0  1  0  0  0
  -20.5886  -28.3690   23.1283 C   0  0  2  0  0  0
  -20.6772  -26.9413   22.5408 C   0  0  0  0  0  0
  -19.5751  -26.6388   21.5206 C   0  0  0  0  0  0
  -18.1930  -26.7932   22.1619 C   0  0  0  0  0  0
  -19.1536  -28.8856   23.2878 C   0  0  0  0  0  0
  -18.9460  -30.1455   23.8898 C   0  0  0  0  0  0
  -17.6459  -30.6587   24.0565 C   0  0  0  0  0  0
  -25.9048  -34.9450   23.5105 C   0  0  0  0  0  0
  -16.5351  -29.9087   23.6326 C   0  0  0  0  0  0
  -16.7271  -28.6506   23.0345 C   0  0  0  0  0  0
  -26.4503  -31.6586   25.0722 C   0  0  0  0  0  0
  -25.3746  -31.3718   26.1456 C   0  0  0  0  0  0
  -27.0344  -30.3012   24.6169 C   0  0  0  0  0  0
  -27.6065  -32.4321   25.7492 C   0  0  0  0  0  0
  -27.5579  -37.1802   24.8463 C   0  0  0  0  0  0
  -21.4188  -29.3045   22.3679 N   0  0  0  0  0  0
  -26.4291  -37.3775   23.9408 N   0  0  0  0  0  0
  -24.6877  -31.0631   22.0969 N   0  0  0  0  0  0
  -23.4201  -28.8164   23.3007 O   0  0  0  0  0  0
  -28.3479  -26.4850   20.1544 O   0  0  0  0  0  0
  -26.5612  -34.8920   22.4668 O   0  0  0  0  0  0
  -23.5433  -32.1402   23.7359 O   0  0  0  0  0  0
  -29.3031  -19.2165   19.5140 C   0  0  0  0  0  0
  -30.6383  -17.9226   21.5997 C   0  0  0  0  0  0
  -29.2741  -17.7916   19.6160 C   0  0  0  0  0  0
  -29.9931  -20.0375   20.4441 C   0  0  0  0  0  0
  -29.9600  -17.1061   20.6595 C   0  0  0  0  0  0
  -30.6580  -19.3461   21.5011 C   0  0  0  0  0  0
  -28.4942  -17.0077   18.5754 C   0  0  0  0  0  0
  -30.1624  -21.5879   20.2020 C   0  0  0  0  0  0
  -29.3361  -24.0319   20.3161 C   0  0  0  0  0  0
  -28.1176  -25.0228   20.0979 C   0  0  0  0  0  0
  -29.8146  -15.6675   20.8563 N   0  0  0  0  0  0
  -29.0064  -22.5428   20.3976 N   0  3  0  0  0  0
  -31.5379  -20.2186   22.7067 Cl  0  0  0  0  0  0
  -31.4808  -12.5153   19.1400 H   0  0  0  0  0  0
  -30.3779  -11.3891   19.8797 H   0  0  0  0  0  0
  -29.7677  -11.7642   17.4677 H   0  0  0  0  0  0
  -29.6468  -13.4826   17.7460 H   0  0  0  0  0  0
  -27.8644  -11.2921   18.8568 H   0  0  0  0  0  0
  -27.3763  -12.5830   17.7912 H   0  0  0  0  0  0
  -27.6715  -14.2474   19.5252 H   0  0  0  0  0  0
  -28.7100  -12.0363   21.3667 H   0  0  0  0  0  0
  -28.4493  -13.6872   21.8473 H   0  0  0  0  0  0
  -25.2768   -9.5642   22.4745 H   0  0  0  0  0  0
  -23.9978   -7.4617   22.7476 H   0  0  0  0  0  0
  -21.0828   -8.8781   19.8955 H   0  0  0  0  0  0
  -22.3715  -10.9660   19.6153 H   0  0  0  0  0  0
  -21.2009   -7.6137   23.9716 H   0  0  0  0  0  0
  -21.1486   -6.0512   25.9080 H   0  0  0  0  0  0
  -22.0597   -2.7595   23.2861 H   0  0  0  0  0  0
  -22.4097  -11.9892   22.4804 H   0  0  0  0  0  0
  -21.1110  -13.1268   22.2610 H   0  0  0  0  0  0
  -24.6557  -15.8388   20.5335 H   0  0  0  0  0  0
  -26.2747  -15.6348   20.1000 H   0  0  0  0  0  0
  -26.7185  -32.5453   23.1108 H   0  0  0  0  0  0
  -25.0080  -33.9723   25.0428 H   0  0  0  0  0  0
  -22.7128  -31.3060   21.4049 H   0  0  0  0  0  0
  -23.3743  -35.9638   23.3303 H   0  0  0  0  0  0
  -24.3580  -36.8916   22.2053 H   0  0  0  0  0  0
  -23.7249  -37.6505   23.6658 H   0  0  0  0  0  0
  -26.0924  -31.5590   20.6052 H   0  0  0  0  0  0
  -26.8411  -30.8413   22.0012 H   0  0  0  0  0  0
  -28.1156  -28.9920   21.1791 H   0  0  0  0  0  0
  -25.9533  -25.9474   18.9858 H   0  0  0  0  0  0
  -23.9692  -27.3219   19.0005 H   0  0  0  0  0  0
  -23.7482  -30.6015   19.4047 H   0  0  0  0  0  0
  -22.7523  -29.2524   19.8577 H   0  0  0  0  0  0
  -25.1290  -36.1936   25.0821 H   0  0  0  0  0  0
  -20.9974  -28.3260   24.1406 H   0  0  0  0  0  0
  -20.5662  -26.2298   23.3604 H   0  0  0  0  0  0
  -21.6643  -26.7437   22.1210 H   0  0  0  0  0  0
  -19.6913  -25.6298   21.1235 H   0  0  0  0  0  0
  -19.6693  -27.3197   20.6735 H   0  0  0  0  0  0
  -17.4196  -26.6669   21.4025 H   0  0  0  0  0  0
  -18.0338  -26.0077   22.9020 H   0  0  0  0  0  0
  -19.7933  -30.7271   24.2272 H   0  0  0  0  0  0
  -17.5012  -31.6265   24.5169 H   0  0  0  0  0  0
  -15.5351  -30.2990   23.7653 H   0  0  0  0  0  0
  -15.8669  -28.0829   22.7059 H   0  0  0  0  0  0
  -24.5919  -30.7067   25.7790 H   0  0  0  0  0  0
  -24.8944  -32.2881   26.4897 H   0  0  0  0  0  0
  -25.8086  -30.8889   27.0220 H   0  0  0  0  0  0
  -26.2911  -29.6758   24.1210 H   0  0  0  0  0  0
  -27.4064  -29.7272   25.4667 H   0  0  0  0  0  0
  -27.8772  -30.4300   23.9375 H   0  0  0  0  0  0
  -27.2672  -33.3613   26.2081 H   0  0  0  0  0  0
  -28.3867  -32.6893   25.0316 H   0  0  0  0  0  0
  -28.0742  -31.8440   26.5399 H   0  0  0  0  0  0
  -28.2596  -38.0099   24.7501 H   0  0  0  0  0  0
  -28.1075  -36.2629   24.6294 H   0  0  0  0  0  0
  -27.2299  -37.1455   25.8868 H   0  0  0  0  0  0
  -20.9360  -29.8785   21.6910 H   0  0  0  0  0  0
  -26.0172  -38.2853   24.1403 H   0  0  0  0  0  0
  -28.8004  -19.6916   18.6831 H   0  0  0  0  0  0
  -31.1466  -17.4557   22.4310 H   0  0  0  0  0  0
  -28.2974  -17.6136   17.6905 H   0  0  0  0  0  0
  -27.5349  -16.6899   18.9816 H   0  0  0  0  0  0
  -29.0455  -16.1244   18.2521 H   0  0  0  0  0  0
  -30.5001  -21.7040   19.1716 H   0  0  0  0  0  0
  -30.9934  -21.9564   20.8007 H   0  0  0  0  0  0
  -29.8604  -24.3111   21.2306 H   0  0  0  0  0  0
  -30.0438  -24.1908   19.5019 H   0  0  0  0  0  0
  -27.3492  -24.7783   20.8330 H   0  0  0  0  0  0
  -27.7061  -24.7759   19.1195 H   0  0  0  0  0  0
  -28.8828  -15.3659   21.0946 H   0  0  0  0  0  0
  -28.5912  -22.3536   21.2963 H   0  0  0  0  0  0
  -28.3157  -22.3158   19.6999 H   0  0  0  0  0  0
  1 25  1  0  0  0
  1 30  2  0  0  0
  1 81  1  0  0  0
  2  3  1  0  0  0
  2 25  1  0  0  0
  2 84  1  0  0  0
  2 85  1  0  0  0
  3  4  1  0  0  0
  3 86  1  0  0  0
  3 87  1  0  0  0
  4  5  1  0  0  0
  4 88  1  0  0  0
  4 89  1  0  0  0
  5  6  1  0  0  0
  5 26  1  0  0  0
  5 90  1  0  0  0
  6 25  1  0  0  0
  6 91  1  0  0  0
  6 92  1  0  0  0
  7  8  2  0  0  0
  7 26  1  0  0  0
  7 29  1  0  0  0
  8  9  1  0  0  0
  8 22  1  0  0  0
  9 10  1  0  0  0
  9 27  2  0  0  0
 10 11  2  0  0  0
 10 15  1  0  0  0
 11 12  1  0  0  0
 11 93  1  0  0  0
 12 13  2  0  0  0
 12 94  1  0  0  0
 13 14  1  0  0  0
 13 31  1  0  0  0
 14 15  2  0  0  0
 14 95  1  0  0  0
 15 96  1  0  0  0
 16 17  2  0  0  0
 16 21  1  0  0  0
 16 31  1  0  0  0
 17 18  1  0  0  0
 17 97  1  0  0  0
 18 19  2  0  0  0
 18 98  1  0  0  0
 19 20  1  0  0  0
 19 24  1  0  0  0
 20 21  2  0  0  0
 20 99  1  0  0  0
 21 23  1  0  0  0
 22 28  1  0  0  0
 22 32  2  0  0  0
 26 27  1  0  0  0
 28100  1  0  0  0
 28101  1  0  0  0
 29102  1  0  0  0
 29103  1  0  0  0
 33 34  1  0  0  0
 33 66  1  0  0  0
 33 70  2  0  0  0
 34 36  1  0  0  0
 34 59  1  0  0  0
 34104  1  0  0  0
 35 44  2  0  0  0
 35 45  1  0  0  0
 35 68  1  0  0  0
 36 56  1  0  0  0
 36105  1  0  0  0
 37 39  1  0  0  0
 37 47  1  0  0  0
 37 66  1  0  0  0
 37106  1  0  0  0
 38 43  2  0  0  0
 38 46  1  0  0  0
 38 47  1  0  0  0
 39 64  1  0  0  0
 39 67  2  0  0  0
 40 52  1  0  0  0
 40 53  2  0  0  0
 40 58  1  0  0  0
 41107  1  0  0  0
 41108  1  0  0  0
 41109  1  0  0  0
 41 48  1  0  0  0
 42 43  1  0  0  0
 42 66  1  0  0  0
 42110  1  0  0  0
 42111  1  0  0  0
 43 44  1  0  0  0
 44112  1  0  0  0
 45 46  2  0  0  0
 45113  1  0  0  0
 46114  1  0  0  0
 47115  1  0  0  0
 47116  1  0  0  0
 48 56  1  0  0  0
 48 65  1  0  0  0
 48117  1  0  0  0
 49 50  1  0  0  0
 49 53  1  0  0  0
 49 64  1  0  0  0
 49118  1  0  0  0
 50 51  1  0  0  0
 50119  1  0  0  0
 50120  1  0  0  0
 51 52  1  0  0  0
 51121  1  0  0  0
 51122  1  0  0  0
 52123  1  0  0  0
 52124  1  0  0  0
 53 54  1  0  0  0
 54 55  2  0  0  0
 54125  1  0  0  0
 55 57  1  0  0  0
 55126  1  0  0  0
 56 69  2  0  0  0
 57 58  2  0  0  0
 57127  1  0  0  0
 58128  1  0  0  0
 59 60  1  0  0  0
 59 61  1  0  0  0
 59 62  1  0  0  0
 60129  1  0  0  0
 60130  1  0  0  0
 60131  1  0  0  0
 61132  1  0  0  0
 61133  1  0  0  0
 61134  1  0  0  0
 62135  1  0  0  0
 62136  1  0  0  0
 62137  1  0  0  0
 63 65  1  0  0  0
 63138  1  0  0  0
 63139  1  0  0  0
 63140  1  0  0  0
 64141  1  0  0  0
 65142  1  0  0  0
 68 80  1  0  0  0
 71 73  2  0  0  0
 71 74  1  0  0  0
 71143  1  0  0  0
 72 75  2  0  0  0
 72 76  1  0  0  0
 72144  1  0  0  0
 73 75  1  0  0  0
 73 77  1  0  0  0
 74 76  2  0  0  0
 74 78  1  0  0  0
 75 81  1  0  0  0
 76 83  1  0  0  0
 77145  1  0  0  0
 77146  1  0  0  0
 77147  1  0  0  0
 78 82  1  0  0  0
 78148  1  0  0  0
 78149  1  0  0  0
 79 80  1  0  0  0
 79 82  1  0  0  0
 79150  1  0  0  0
 79151  1  0  0  0
 80152  1  0  0  0
 80153  1  0  0  0
 81154  1  0  0  0
 82155  1  0  0  0
 82156  1  0  0  0
M  CHG  1  82   1
M  ISO  4   1 100  68 101  80 101  81 100
M  END
> <chiral flag>
0

> <version>
0

> <s_m_source_file>
/data/baiqing/PycharmProjects/Reinvent-master-3.2/result/LINK_invent/BTK/process_docking_weight1_custom_product_contain_oxygen_bond_distance_aromatic_linkinvent_7_9_3/rearranged_h_0038.sdf

> <i_m_source_file_index>
44

> <r_mmod_Potential_Energy-OPLS-2005>
-135.164184570312

> <r_mmod_Stretch_Energy-OPLS-2005>
75.1016235351562

> <r_mmod_Bend_Energy-OPLS-2005>
126.764350891113

> <r_mmod_Torsional_Energy-OPLS-2005>
233.653747558594

> <r_mmod_Improper_Torsional_Energy-OPLS-2005>
5.93656492233276

> <r_mmod_Van_der_Waal_Energy-OPLS-2005>
139.219604492188

> <r_mmod_Electrostatic_Energy-OPLS-2005>
-290.225952148438

> <r_mmod_Solvation_Energy-OPLS-2005>
-470.257629394531

> <b_mmod_Minimization_Converged-OPLS-2005>
0

> <r_mmod_RMS_Derivative-OPLS-2005>
1.03966426849365

$$$$
44
                    3D
 Structure written by MMmdl.
173182  0  0  1  0            999 V2000
  -30.6228  -14.6144   20.5145 C   0  0  0  0  0  0
  -30.4407  -12.3773   19.4529 C   0  0  0  0  0  0
  -29.5103  -12.5060   18.2252 C   0  0  0  0  0  0
  -28.0301  -12.3555   18.6318 C   0  0  0  0  0  0
  -27.6576  -13.2145   19.8689 C   0  0  2  0  0  0
  -28.7005  -13.0446   20.9970 C   0  0  0  0  0  0
  -25.2563  -13.8159   20.5665 C   0  0  0  0  0  0
  -24.1819  -13.0431   20.9163 C   0  0  0  0  0  0
  -24.6386  -11.6902   20.8720 C   0  0  0  0  0  0
  -23.9048  -10.4289   21.0395 C   0  0  0  0  0  0
  -24.3602   -9.4212   21.9180 C   0  0  0  0  0  0
  -23.6284   -8.2242   22.0754 C   0  0  0  0  0  0
  -22.4267   -8.0275   21.3543 C   0  0  0  0  0  0
  -21.9894   -9.0247   20.4646 C   0  0  0  0  0  0
  -22.7217  -10.2128   20.3049 C   0  0  0  0  0  0
  -21.6853   -6.0726   22.5278 C   0  0  0  0  0  0
  -21.4016   -6.5633   23.8209 C   0  0  0  0  0  0
  -21.3660   -5.6787   24.9175 C   0  0  0  0  0  0
  -21.6047   -4.3050   24.7223 C   0  0  0  0  0  0
  -21.8822   -3.8138   23.4341 C   0  0  0  0  0  0
  -21.9190   -4.6953   22.3399 C   0  0  0  0  0  0
  -22.7841  -13.5237   21.1825 C   0  0  0  0  0  0
  -22.1661   -4.2138   21.0977 F   0  0  0  0  0  0
  -21.5627   -3.4533   25.7736 F   0  0  0  0  0  0
  -30.0216  -13.3863   20.4443 N   0  0  0  0  0  0
  -26.3005  -12.9343   20.3331 N   0  0  0  0  0  0
  -25.9321  -11.6499   20.5750 N   0  0  0  0  0  0
  -22.0471  -12.8255   22.0391 N   0  0  0  0  0  0
  -25.4273  -15.1882   20.4099 N   0  0  0  0  0  0
  -31.7701  -14.7987   20.0963 O   0  0  0  0  0  0
  -21.6638   -6.8870   21.4241 O   0  0  0  0  0  0
  -22.3539  -14.5545   20.6668 O   0  0  0  0  0  0
  -24.6261  -31.8610   23.2035 C   0  0  0  0  0  0
  -25.9114  -32.4781   23.8358 C   0  0  1  0  0  0
  -27.2292  -27.3310   20.0916 C   0  0  0  0  0  0
  -25.5935  -33.8581   24.2286 N   0  0  0  0  0  0
  -23.4179  -30.4861   21.5465 C   0  0  2  0  0  0
  -24.8616  -28.9439   20.1108 C   0  0  0  0  0  0
  -22.7472  -29.4634   22.4945 C   0  0  0  0  0  0
  -18.0286  -28.1389   22.8486 C   0  0  0  0  0  0
  -24.1491  -36.7292   23.2638 C   0  0  0  0  0  0
  -25.9594  -30.7930   21.3735 C   0  0  0  0  0  0
  -26.0306  -29.4223   20.7125 C   0  0  0  0  0  0
  -27.2116  -28.6251   20.6981 C   0  0  0  0  0  0
  -26.0223  -26.8941   19.4919 C   0  0  0  0  0  0
  -24.8587  -27.6837   19.4971 C   0  0  0  0  0  0
  -23.6302  -29.8229   20.1612 C   0  0  0  0  0  0
  -25.4114  -36.3083   24.0330 C   0  0  1  0  0  0
  -20.5886  -28.3693   23.1288 C   0  0  2  0  0  0
  -20.6773  -26.9418   22.5410 C   0  0  0  0  0  0
  -19.5751  -26.6389   21.5210 C   0  0  0  0  0  0
  -18.1930  -26.7936   22.1621 C   0  0  0  0  0  0
  -19.1537  -28.8856   23.2884 C   0  0  0  0  0  0
  -18.9459  -30.1458   23.8904 C   0  0  0  0  0  0
  -17.6459  -30.6592   24.0560 C   0  0  0  0  0  0
  -25.9054  -34.9452   23.5105 C   0  0  0  0  0  0
  -16.5350  -29.9089   23.6330 C   0  0  0  0  0  0
  -16.7273  -28.6504   23.0354 C   0  0  0  0  0  0
  -26.4501  -31.6595   25.0728 C   0  0  0  0  0  0
  -25.3734  -31.3730   26.1454 C   0  0  0  0  0  0
  -27.0336  -30.3019   24.6178 C   0  0  0  0  0  0
  -27.6062  -32.4330   25.7498 C   0  0  0  0  0  0
  -27.5583  -37.1800   24.8465 C   0  0  0  0  0  0
  -21.4189  -29.3048   22.3684 N   0  0  0  0  0  0
  -26.4292  -37.3777   23.9411 N   0  0  0  0  0  0
  -24.6866  -31.0632   22.0976 N   0  0  0  0  0  0
  -23.4202  -28.8170   23.3015 O   0  0  0  0  0  0
  -28.3814  -26.5285   20.1574 O   0  0  0  0  0  0
  -26.5614  -34.8918   22.4669 O   0  0  0  0  0  0
  -23.5428  -32.1404   23.7371 O   0  0  0  0  0  0
  -29.4981  -17.9441   21.7446 C   0  0  0  0  0  0
  -29.2024  -19.3259   21.5665 C   0  0  0  0  0  0
  -29.6575  -19.0908   19.2036 C   0  0  0  0  0  0
  -29.2031  -19.9453   20.2741 C   0  0  0  0  0  0
  -29.8627  -17.6724   19.3841 C   0  0  0  0  0  0
  -29.7940  -17.0716   20.6750 C   0  0  0  0  0  0
  -28.9076  -23.9883   20.2293 C   0  0  0  0  0  0
  -29.1360  -24.0437   21.5547 C   0  0  0  0  0  0
  -29.5729  -24.9007   17.0341 C   0  0  0  0  0  0
  -29.7499  -23.3840   17.1448 C   0  0  0  0  0  0
  -29.6690  -25.6357   18.3778 C   0  0  0  0  0  0
  -28.6812  -22.7087   18.0226 C   0  0  0  0  0  0
  -28.5562  -25.2789   19.3857 C   0  0  2  0  0  0
  -28.8279  -20.0996   22.8230 C   0  0  0  0  0  0
  -29.9439  -19.6637   17.8236 C   0  0  0  0  0  0
  -30.0670  -16.7706   18.1663 C   0  0  0  0  0  0
  -28.4645  -21.3617   20.0835 C   0  0  0  0  0  0
  -29.8266  -15.6357   20.9527 N   0  0  0  0  0  0
  -29.0741  -22.6238   19.4618 N   0  3  2  0  0  0
  -31.4821  -12.5031   19.1523 H   0  0  0  0  0  0
  -30.3744  -11.3775   19.8838 H   0  0  0  0  0  0
  -29.7693  -11.7547   17.4784 H   0  0  0  0  0  0
  -29.6624  -13.4735   17.7453 H   0  0  0  0  0  0
  -27.8541  -11.3017   18.8485 H   0  0  0  0  0  0
  -27.3810  -12.6038   17.7910 H   0  0  0  0  0  0
  -27.6844  -14.2544   19.5432 H   0  0  0  0  0  0
  -28.7045  -12.0156   21.3594 H   0  0  0  0  0  0
  -28.4451  -13.6585   21.8618 H   0  0  0  0  0  0
  -25.2745   -9.5695   22.4756 H   0  0  0  0  0  0
  -23.9991   -7.4637   22.7482 H   0  0  0  0  0  0
  -21.0814   -8.8758   19.8970 H   0  0  0  0  0  0
  -22.3665  -10.9658   19.6151 H   0  0  0  0  0  0
  -21.2018   -7.6145   23.9710 H   0  0  0  0  0  0
  -21.1480   -6.0518   25.9078 H   0  0  0  0  0  0
  -22.0602   -2.7598   23.2841 H   0  0  0  0  0  0
  -22.4071  -11.9927   22.4813 H   0  0  0  0  0  0
  -21.1090  -13.1303   22.2573 H   0  0  0  0  0  0
  -24.6593  -15.8409   20.5210 H   0  0  0  0  0  0
  -26.2838  -15.6334   20.1044 H   0  0  0  0  0  0
  -26.7178  -32.5448   23.1104 H   0  0  0  0  0  0
  -25.0099  -33.9724   25.0441 H   0  0  0  0  0  0
  -22.7109  -31.3064   21.4055 H   0  0  0  0  0  0
  -23.3754  -35.9626   23.3301 H   0  0  0  0  0  0
  -24.3585  -36.8911   22.2054 H   0  0  0  0  0  0
  -23.7240  -37.6493   23.6658 H   0  0  0  0  0  0
  -26.0925  -31.5579   20.6073 H   0  0  0  0  0  0
  -26.8396  -30.8380   22.0033 H   0  0  0  0  0  0
  -28.1101  -28.9907   21.1751 H   0  0  0  0  0  0
  -25.9055  -25.9262   19.0357 H   0  0  0  0  0  0
  -23.9562  -27.3046   19.0371 H   0  0  0  0  0  0
  -23.7481  -30.5993   19.4046 H   0  0  0  0  0  0
  -22.7504  -29.2515   19.8600 H   0  0  0  0  0  0
  -25.1293  -36.1936   25.0822 H   0  0  0  0  0  0
  -20.9977  -28.3263   24.1409 H   0  0  0  0  0  0
  -20.5678  -26.2302   23.3606 H   0  0  0  0  0  0
  -21.6643  -26.7453   22.1200 H   0  0  0  0  0  0
  -19.6911  -25.6297   21.1244 H   0  0  0  0  0  0
  -19.6693  -27.3193   20.6735 H   0  0  0  0  0  0
  -17.4204  -26.6690   21.4019 H   0  0  0  0  0  0
  -18.0329  -26.0077   22.9016 H   0  0  0  0  0  0
  -19.7932  -30.7268   24.2287 H   0  0  0  0  0  0
  -17.5012  -31.6275   24.5156 H   0  0  0  0  0  0
  -15.5350  -30.2990   23.7654 H   0  0  0  0  0  0
  -15.8673  -28.0819   22.7078 H   0  0  0  0  0  0
  -24.5918  -30.7070   25.7785 H   0  0  0  0  0  0
  -24.8911  -32.2891   26.4876 H   0  0  0  0  0  0
  -25.8058  -30.8916   27.0235 H   0  0  0  0  0  0
  -26.2900  -29.6778   24.1208 H   0  0  0  0  0  0
  -27.4039  -29.7273   25.4679 H   0  0  0  0  0  0
  -27.8773  -30.4308   23.9393 H   0  0  0  0  0  0
  -27.2678  -33.3635   26.2077 H   0  0  0  0  0  0
  -28.3873  -32.6891   25.0324 H   0  0  0  0  0  0
  -28.0738  -31.8458   26.5415 H   0  0  0  0  0  0
  -28.2597  -38.0101   24.7516 H   0  0  0  0  0  0
  -28.1080  -36.2630   24.6282 H   0  0  0  0  0  0
  -27.2305  -37.1443   25.8870 H   0  0  0  0  0  0
  -20.9369  -29.8774   21.6897 H   0  0  0  0  0  0
  -26.0176  -38.2856   24.1403 H   0  0  0  0  0  0
  -29.4303  -17.5246   22.7392 H   0  0  0  0  0  0
  -29.0538  -24.9796   22.0886 H   0  0  0  0  0  0
  -29.4212  -23.1798   22.1339 H   0  0  0  0  0  0
  -28.6154  -25.1260   16.5610 H   0  0  0  0  0  0
  -30.3336  -25.2959   16.3587 H   0  0  0  0  0  0
  -30.7564  -23.1370   17.4860 H   0  0  0  0  0  0
  -29.6762  -22.9724   16.1369 H   0  0  0  0  0  0
  -29.6019  -26.7007   18.1497 H   0  0  0  0  0  0
  -30.6522  -25.4968   18.8293 H   0  0  0  0  0  0
  -28.4995  -21.7237   17.6117 H   0  0  0  0  0  0
  -27.7005  -23.1654   17.8997 H   0  0  0  0  0  0
  -27.6643  -25.0596   18.8185 H   0  0  0  0  0  0
  -29.0579  -19.5344   23.7270 H   0  0  0  0  0  0
  -27.7607  -20.3212   22.8446 H   0  0  0  0  0  0
  -29.3870  -21.0322   22.8867 H   0  0  0  0  0  0
  -30.3678  -20.6602   17.8967 H   0  0  0  0  0  0
  -29.0511  -19.6592   17.1977 H   0  0  0  0  0  0
  -30.7182  -19.1024   17.3014 H   0  0  0  0  0  0
  -29.6235  -17.1752   17.2579 H   0  0  0  0  0  0
  -29.5728  -15.8108   18.2993 H   0  0  0  0  0  0
  -31.1278  -16.5933   17.9893 H   0  0  0  0  0  0
  -28.0540  -21.6702   21.0388 H   0  0  0  0  0  0
  -27.5490  -21.1271   19.5394 H   0  0  0  0  0  0
  -29.0239  -15.3013   21.4639 H   0  0  0  0  0  0
  -30.0612  -22.4171   19.4565 H   0  0  0  0  0  0
  1 25  1  0  0  0
  1 30  2  0  0  0
  1 88  1  0  0  0
  2  3  1  0  0  0
  2 25  1  0  0  0
  2 90  1  0  0  0
  2 91  1  0  0  0
  3  4  1  0  0  0
  3 92  1  0  0  0
  3 93  1  0  0  0
  4  5  1  0  0  0
  4 94  1  0  0  0
  4 95  1  0  0  0
  5  6  1  0  0  0
  5 26  1  0  0  0
  5 96  1  0  0  0
  6 25  1  0  0  0
  6 97  1  0  0  0
  6 98  1  0  0  0
  7  8  2  0  0  0
  7 26  1  0  0  0
  7 29  1  0  0  0
  8  9  1  0  0  0
  8 22  1  0  0  0
  9 10  1  0  0  0
  9 27  2  0  0  0
 10 11  2  0  0  0
 10 15  1  0  0  0
 11 12  1  0  0  0
 11 99  1  0  0  0
 12 13  2  0  0  0
 12100  1  0  0  0
 13 14  1  0  0  0
 13 31  1  0  0  0
 14 15  2  0  0  0
 14101  1  0  0  0
 15102  1  0  0  0
 16 17  2  0  0  0
 16 21  1  0  0  0
 16 31  1  0  0  0
 17 18  1  0  0  0
 17103  1  0  0  0
 18 19  2  0  0  0
 18104  1  0  0  0
 19 20  1  0  0  0
 19 24  1  0  0  0
 20 21  2  0  0  0
 20105  1  0  0  0
 21 23  1  0  0  0
 22 28  1  0  0  0
 22 32  2  0  0  0
 26 27  1  0  0  0
 28106  1  0  0  0
 28107  1  0  0  0
 29108  1  0  0  0
 29109  1  0  0  0
 33 34  1  0  0  0
 33 66  1  0  0  0
 33 70  2  0  0  0
 34 36  1  0  0  0
 34 59  1  0  0  0
 34110  1  0  0  0
 35 44  2  0  0  0
 35 45  1  0  0  0
 35 68  1  0  0  0
 36 56  1  0  0  0
 36111  1  0  0  0
 37 39  1  0  0  0
 37 47  1  0  0  0
 37 66  1  0  0  0
 37112  1  0  0  0
 38 43  2  0  0  0
 38 46  1  0  0  0
 38 47  1  0  0  0
 39 64  1  0  0  0
 39 67  2  0  0  0
 40 52  1  0  0  0
 40 53  2  0  0  0
 40 58  1  0  0  0
 41113  1  0  0  0
 41114  1  0  0  0
 41115  1  0  0  0
 41 48  1  0  0  0
 42 43  1  0  0  0
 42 66  1  0  0  0
 42116  1  0  0  0
 42117  1  0  0  0
 43 44  1  0  0  0
 44118  1  0  0  0
 45 46  2  0  0  0
 45119  1  0  0  0
 46120  1  0  0  0
 47121  1  0  0  0
 47122  1  0  0  0
 48 56  1  0  0  0
 48 65  1  0  0  0
 48123  1  0  0  0
 49 50  1  0  0  0
 49 53  1  0  0  0
 49 64  1  0  0  0
 49124  1  0  0  0
 50 51  1  0  0  0
 50125  1  0  0  0
 50126  1  0  0  0
 51 52  1  0  0  0
 51127  1  0  0  0
 51128  1  0  0  0
 52129  1  0  0  0
 52130  1  0  0  0
 53 54  1  0  0  0
 54 55  2  0  0  0
 54131  1  0  0  0
 55 57  1  0  0  0
 55132  1  0  0  0
 56 69  2  0  0  0
 57 58  2  0  0  0
 57133  1  0  0  0
 58134  1  0  0  0
 59 60  1  0  0  0
 59 61  1  0  0  0
 59 62  1  0  0  0
 60135  1  0  0  0
 60136  1  0  0  0
 60137  1  0  0  0
 61138  1  0  0  0
 61139  1  0  0  0
 61140  1  0  0  0
 62141  1  0  0  0
 62142  1  0  0  0
 62143  1  0  0  0
 63 65  1  0  0  0
 63144  1  0  0  0
 63145  1  0  0  0
 63146  1  0  0  0
 64147  1  0  0  0
 65148  1  0  0  0
 68 83  1  0  0  0
 71 72  2  0  0  0
 71 76  1  0  0  0
 71149  1  0  0  0
 72 74  1  0  0  0
 72 84  1  0  0  0
 73 74  2  0  0  0
 73 75  1  0  0  0
 73 85  1  0  0  0
 74 87  1  0  0  0
 75 76  2  0  0  0
 75 86  1  0  0  0
 76 88  1  0  0  0
 77 78  2  0  0  0
 77 83  1  0  0  0
 77 89  1  0  0  0
 78150  1  0  0  0
 78151  1  0  0  0
 79 80  1  0  0  0
 79 81  1  0  0  0
 79152  1  0  0  0
 79153  1  0  0  0
 80 82  1  0  0  0
 80154  1  0  0  0
 80155  1  0  0  0
 81 83  1  0  0  0
 81156  1  0  0  0
 81157  1  0  0  0
 82 89  1  0  0  0
 82158  1  0  0  0
 82159  1  0  0  0
 83160  1  0  0  0
 84161  1  0  0  0
 84162  1  0  0  0
 84163  1  0  0  0
 85164  1  0  0  0
 85165  1  0  0  0
 85166  1  0  0  0
 86167  1  0  0  0
 86168  1  0  0  0
 86169  1  0  0  0
 87170  1  0  0  0
 87171  1  0  0  0
 87 89  1  0  0  0
 88172  1  0  0  0
 89173  1  0  0  0
M  CHG  1  89   1
M  ISO  4   1 100  68 101  83 101  88 100
M  END
> <chiral flag>
0

> <version>
0

> <s_m_source_file>
/data/baiqing/PycharmProjects/Reinvent-master-3.2/result/LINK_invent/BTK/process_docking_weight1_custom_product_contain_oxygen_bond_distance_aromatic_linkinvent_7_9_3/rearranged_h_0038.sdf

> <i_m_source_file_index>
45

> <r_mmod_Potential_Energy-OPLS-2005>
77.9343032836914

> <r_mmod_Stretch_Energy-OPLS-2005>
103.615051269531

> <r_mmod_Bend_Energy-OPLS-2005>
185.883514404297

> <r_mmod_Torsional_Energy-OPLS-2005>
274.635894775391

> <r_mmod_Improper_Torsional_Energy-OPLS-2005>
6.17989206314087

> <r_mmod_Van_der_Waal_Energy-OPLS-2005>
172.187103271484

> <r_mmod_Electrostatic_Energy-OPLS-2005>
-280.785705566406

> <r_mmod_Solvation_Energy-OPLS-2005>
-424.135589599609

> <b_mmod_Minimization_Converged-OPLS-2005>
0

> <r_mmod_RMS_Derivative-OPLS-2005>
1.06684839725494

$$$$
45
                    3D
 Structure written by MMmdl.
170179  0  0  1  0            999 V2000
  -30.5897  -14.7378   20.4747 C   0  0  0  0  0  0
  -30.4431  -12.4564   19.4532 C   0  0  0  0  0  0
  -29.5095  -12.5051   18.2239 C   0  0  0  0  0  0
  -28.0369  -12.3208   18.6452 C   0  0  0  0  0  0
  -27.6421  -13.2209   19.8458 C   0  0  2  0  0  0
  -28.6902  -13.1440   20.9759 C   0  0  0  0  0  0
  -25.2527  -13.8168   20.5684 C   0  0  0  0  0  0
  -24.1808  -13.0430   20.9199 C   0  0  0  0  0  0
  -24.6383  -11.6905   20.8740 C   0  0  0  0  0  0
  -23.9058  -10.4289   21.0409 C   0  0  0  0  0  0
  -24.3611   -9.4204   21.9184 C   0  0  0  0  0  0
  -23.6284   -8.2243   22.0757 C   0  0  0  0  0  0
  -22.4265   -8.0284   21.3549 C   0  0  0  0  0  0
  -21.9897   -9.0258   20.4651 C   0  0  0  0  0  0
  -22.7229  -10.2133   20.3058 C   0  0  0  0  0  0
  -21.6855   -6.0732   22.5278 C   0  0  0  0  0  0
  -21.4014   -6.5635   23.8210 C   0  0  0  0  0  0
  -21.3659   -5.6788   24.9173 C   0  0  0  0  0  0
  -21.6045   -4.3052   24.7222 C   0  0  0  0  0  0
  -21.8821   -3.8142   23.4342 C   0  0  0  0  0  0
  -21.9191   -4.6959   22.3397 C   0  0  0  0  0  0
  -22.7835  -13.5233   21.1858 C   0  0  0  0  0  0
  -22.1662   -4.2147   21.0975 F   0  0  0  0  0  0
  -21.5625   -3.4536   25.7733 F   0  0  0  0  0  0
  -29.9869  -13.5058   20.3873 N   0  0  0  0  0  0
  -26.2940  -12.9352   20.3263 N   0  0  0  0  0  0
  -25.9306  -11.6507   20.5733 N   0  0  0  0  0  0
  -22.0468  -12.8241   22.0417 N   0  0  0  0  0  0
  -25.4204  -15.1893   20.4096 N   0  0  0  0  0  0
  -31.7917  -14.8646   20.2211 O   0  0  0  0  0  0
  -21.6635   -6.8877   21.4241 O   0  0  0  0  0  0
  -22.3531  -14.5542   20.6701 O   0  0  0  0  0  0
  -24.6303  -31.8556   23.1973 C   0  0  0  0  0  0
  -25.9131  -32.4757   23.8324 C   0  0  1  0  0  0
  -27.2275  -27.2720   20.1372 C   0  0  0  0  0  0
  -25.5926  -33.8557   24.2252 N   0  0  0  0  0  0
  -23.4265  -30.4757   21.5415 C   0  0  2  0  0  0
  -24.8739  -28.9103   20.1261 C   0  0  0  0  0  0
  -22.7490  -29.4607   22.4929 C   0  0  0  0  0  0
  -18.0287  -28.1394   22.8481 C   0  0  0  0  0  0
  -24.1485  -36.7281   23.2640 C   0  0  0  0  0  0
  -25.9704  -30.7722   21.3729 C   0  0  0  0  0  0
  -26.0455  -29.3903   20.7262 C   0  0  0  0  0  0
  -27.2288  -28.5862   20.7122 C   0  0  0  0  0  0
  -26.0287  -26.8403   19.5369 C   0  0  0  0  0  0
  -24.8681  -27.6411   19.5241 C   0  0  0  0  0  0
  -23.6462  -29.8007   20.1621 C   0  0  0  0  0  0
  -25.4112  -36.3068   24.0325 C   0  0  1  0  0  0
  -20.5887  -28.3701   23.1274 C   0  0  2  0  0  0
  -20.6772  -26.9418   22.5411 C   0  0  0  0  0  0
  -19.5750  -26.6389   21.5211 C   0  0  0  0  0  0
  -18.1930  -26.7937   22.1622 C   0  0  0  0  0  0
  -19.1540  -28.8863   23.2873 C   0  0  0  0  0  0
  -18.9464  -30.1462   23.8896 C   0  0  0  0  0  0
  -17.6464  -30.6591   24.0567 C   0  0  0  0  0  0
  -25.9053  -34.9440   23.5092 C   0  0  0  0  0  0
  -16.5356  -29.9091   23.6331 C   0  0  0  0  0  0
  -16.7274  -28.6510   23.0348 C   0  0  0  0  0  0
  -26.4504  -31.6582   25.0709 C   0  0  0  0  0  0
  -25.3733  -31.3742   26.1438 C   0  0  0  0  0  0
  -27.0343  -30.2996   24.6189 C   0  0  0  0  0  0
  -27.6058  -32.4325   25.7485 C   0  0  0  0  0  0
  -27.5574  -37.1792   24.8463 C   0  0  0  0  0  0
  -21.4198  -29.3047   22.3669 N   0  0  0  0  0  0
  -26.4285  -37.3768   23.9411 N   0  0  0  0  0  0
  -24.6951  -31.0528   22.0943 N   0  0  0  0  0  0
  -23.4189  -28.8150   23.3033 O   0  0  0  0  0  0
  -28.3656  -26.4527   20.0261 O   0  0  0  0  0  0
  -26.5630  -34.8916   22.4664 O   0  0  0  0  0  0
  -23.5456  -32.1373   23.7276 O   0  0  0  0  0  0
  -29.9913  -18.6123   23.0719 C   0  0  0  0  0  0
  -29.5016  -19.7539   22.4032 C   0  0  0  0  0  0
  -30.1775  -17.3689   22.4405 C   0  0  0  0  0  0
  -29.3026  -19.7434   20.9904 C   0  0  0  0  0  0
  -29.4532  -18.4259   20.3568 C   0  0  0  0  0  0
  -29.8640  -17.2130   21.0687 C   0  0  0  0  0  0
  -28.3927  -23.7680   19.9658 C   0  0  0  0  0  0
  -27.8838  -23.6511   18.7258 C   0  0  0  0  0  0
  -30.5517  -24.0276   21.9280 C   0  0  0  0  0  0
  -29.9660  -25.2987   21.2924 C   0  0  0  0  0  0
  -30.4625  -22.8168   20.9789 C   0  0  0  0  0  0
  -28.5266  -25.1525   20.7495 C   0  0  1  0  0  0
  -29.1538  -20.9303   23.3048 C   0  0  0  0  0  0
  -30.6223  -16.2004   23.3087 C   0  0  0  0  0  0
  -29.1262  -18.3072   18.8745 C   0  0  0  0  0  0
  -28.8288  -21.0678   20.1861 C   0  0  0  0  0  0
  -29.7402  -15.8322   20.5374 N   0  0  0  0  0  0
  -29.0422  -22.5199   20.6893 N   0  3  2  0  0  0
  -31.4798  -12.6058   19.1461 H   0  0  0  0  0  0
  -30.4056  -11.4770   19.9318 H   0  0  0  0  0  0
  -29.7919  -11.7354   17.5044 H   0  0  0  0  0  0
  -29.6269  -13.4604   17.7102 H   0  0  0  0  0  0
  -27.9033  -11.2722   18.9133 H   0  0  0  0  0  0
  -27.3753  -12.5045   17.7981 H   0  0  0  0  0  0
  -27.6354  -14.2414   19.4634 H   0  0  0  0  0  0
  -28.7299  -12.1411   21.4037 H   0  0  0  0  0  0
  -28.4268  -13.8163   21.7944 H   0  0  0  0  0  0
  -25.2754   -9.5679   22.4760 H   0  0  0  0  0  0
  -23.9991   -7.4632   22.7476 H   0  0  0  0  0  0
  -21.0829   -8.8778   19.8956 H   0  0  0  0  0  0
  -22.3691  -10.9672   19.6167 H   0  0  0  0  0  0
  -21.2011   -7.6144   23.9715 H   0  0  0  0  0  0
  -21.1478   -6.0516   25.9076 H   0  0  0  0  0  0
  -22.0597   -2.7605   23.2842 H   0  0  0  0  0  0
  -22.4073  -11.9906   22.4819 H   0  0  0  0  0  0
  -21.1088  -13.1281   22.2612 H   0  0  0  0  0  0
  -24.6476  -15.8359   20.5227 H   0  0  0  0  0  0
  -26.2610  -15.6379   20.0709 H   0  0  0  0  0  0
  -26.7197  -32.5418   23.1067 H   0  0  0  0  0  0
  -25.0065  -33.9694   25.0391 H   0  0  0  0  0  0
  -22.7223  -31.2966   21.3906 H   0  0  0  0  0  0
  -23.3748  -35.9613   23.3305 H   0  0  0  0  0  0
  -24.3571  -36.8904   22.2053 H   0  0  0  0  0  0
  -23.7239  -37.6481   23.6668 H   0  0  0  0  0  0
  -26.1018  -31.5282   20.5975 H   0  0  0  0  0  0
  -26.8506  -30.8292   22.0019 H   0  0  0  0  0  0
  -28.1396  -28.9641   21.1548 H   0  0  0  0  0  0
  -25.9852  -25.8718   19.0629 H   0  0  0  0  0  0
  -23.9697  -27.2661   19.0532 H   0  0  0  0  0  0
  -23.7760  -30.5719   19.4019 H   0  0  0  0  0  0
  -22.7646  -29.2343   19.8564 H   0  0  0  0  0  0
  -25.1294  -36.1912   25.0817 H   0  0  0  0  0  0
  -20.9976  -28.3283   24.1395 H   0  0  0  0  0  0
  -20.5664  -26.2312   23.3615 H   0  0  0  0  0  0
  -21.6642  -26.7437   22.1213 H   0  0  0  0  0  0
  -19.6910  -25.6300   21.1242 H   0  0  0  0  0  0
  -19.6688  -27.3198   20.6740 H   0  0  0  0  0  0
  -17.4196  -26.6678   21.4028 H   0  0  0  0  0  0
  -18.0331  -26.0083   22.9022 H   0  0  0  0  0  0
  -19.7942  -30.7277   24.2266 H   0  0  0  0  0  0
  -17.5021  -31.6269   24.5172 H   0  0  0  0  0  0
  -15.5357  -30.2994   23.7658 H   0  0  0  0  0  0
  -15.8672  -28.0830   22.7065 H   0  0  0  0  0  0
  -24.5909  -30.7083   25.7779 H   0  0  0  0  0  0
  -24.8925  -32.2917   26.4840 H   0  0  0  0  0  0
  -25.8057  -30.8944   27.0226 H   0  0  0  0  0  0
  -26.2918  -29.6745   24.1216 H   0  0  0  0  0  0
  -27.4024  -29.7258   25.4704 H   0  0  0  0  0  0
  -27.8797  -30.4261   23.9423 H   0  0  0  0  0  0
  -27.2661  -33.3626   26.2053 H   0  0  0  0  0  0
  -28.3876  -32.6885   25.0321 H   0  0  0  0  0  0
  -28.0721  -31.8460   26.5411 H   0  0  0  0  0  0
  -28.2596  -38.0084   24.7506 H   0  0  0  0  0  0
  -28.1066  -36.2616   24.6293 H   0  0  0  0  0  0
  -27.2294  -37.1447   25.8867 H   0  0  0  0  0  0
  -20.9386  -29.8767   21.6870 H   0  0  0  0  0  0
  -26.0162  -38.2839   24.1424 H   0  0  0  0  0  0
  -30.1699  -18.6767   24.1368 H   0  0  0  0  0  0
  -27.5002  -24.5144   18.2034 H   0  0  0  0  0  0
  -27.8500  -22.7108   18.1965 H   0  0  0  0  0  0
  -30.0380  -23.8215   22.8672 H   0  0  0  0  0  0
  -31.5957  -24.2055   22.1894 H   0  0  0  0  0  0
  -30.6199  -25.5913   20.4688 H   0  0  0  0  0  0
  -30.0058  -26.1212   22.0076 H   0  0  0  0  0  0
  -30.9660  -21.9597   21.4242 H   0  0  0  0  0  0
  -30.9897  -23.0177   20.0450 H   0  0  0  0  0  0
  -27.8267  -25.1242   21.5862 H   0  0  0  0  0  0
  -28.8553  -20.5715   24.2908 H   0  0  0  0  0  0
  -28.3067  -21.5083   22.9409 H   0  0  0  0  0  0
  -30.0174  -21.5733   23.4655 H   0  0  0  0  0  0
  -30.7486  -16.4956   24.3506 H   0  0  0  0  0  0
  -31.5807  -15.8114   22.9646 H   0  0  0  0  0  0
  -29.8870  -15.3960   23.2882 H   0  0  0  0  0  0
  -29.9035  -18.7884   18.2804 H   0  0  0  0  0  0
  -28.1726  -18.7839   18.6472 H   0  0  0  0  0  0
  -29.0524  -17.2743   18.5366 H   0  0  0  0  0  0
  -27.7577  -20.9481   20.0216 H   0  0  0  0  0  0
  -29.2834  -21.0222   19.1967 H   0  0  0  0  0  0
  -28.7818  -15.5579   20.3933 H   0  0  0  0  0  0
  -28.6115  -22.4755   21.5998 H   0  0  0  0  0  0
  1 25  1  0  0  0
  1 30  2  0  0  0
  1 87  1  0  0  0
  2  3  1  0  0  0
  2 25  1  0  0  0
  2 89  1  0  0  0
  2 90  1  0  0  0
  3  4  1  0  0  0
  3 91  1  0  0  0
  3 92  1  0  0  0
  4  5  1  0  0  0
  4 93  1  0  0  0
  4 94  1  0  0  0
  5  6  1  0  0  0
  5 26  1  0  0  0
  5 95  1  0  0  0
  6 25  1  0  0  0
  6 96  1  0  0  0
  6 97  1  0  0  0
  7  8  2  0  0  0
  7 26  1  0  0  0
  7 29  1  0  0  0
  8  9  1  0  0  0
  8 22  1  0  0  0
  9 10  1  0  0  0
  9 27  2  0  0  0
 10 11  2  0  0  0
 10 15  1  0  0  0
 11 12  1  0  0  0
 11 98  1  0  0  0
 12 13  2  0  0  0
 12 99  1  0  0  0
 13 14  1  0  0  0
 13 31  1  0  0  0
 14 15  2  0  0  0
 14100  1  0  0  0
 15101  1  0  0  0
 16 17  2  0  0  0
 16 21  1  0  0  0
 16 31  1  0  0  0
 17 18  1  0  0  0
 17102  1  0  0  0
 18 19  2  0  0  0
 18103  1  0  0  0
 19 20  1  0  0  0
 19 24  1  0  0  0
 20 21  2  0  0  0
 20104  1  0  0  0
 21 23  1  0  0  0
 22 28  1  0  0  0
 22 32  2  0  0  0
 26 27  1  0  0  0
 28105  1  0  0  0
 28106  1  0  0  0
 29107  1  0  0  0
 29108  1  0  0  0
 33 34  1  0  0  0
 33 66  1  0  0  0
 33 70  2  0  0  0
 34 36  1  0  0  0
 34 59  1  0  0  0
 34109  1  0  0  0
 35 44  2  0  0  0
 35 45  1  0  0  0
 35 68  1  0  0  0
 36 56  1  0  0  0
 36110  1  0  0  0
 37 39  1  0  0  0
 37 47  1  0  0  0
 37 66  1  0  0  0
 37111  1  0  0  0
 38 43  2  0  0  0
 38 46  1  0  0  0
 38 47  1  0  0  0
 39 64  1  0  0  0
 39 67  2  0  0  0
 40 52  1  0  0  0
 40 53  2  0  0  0
 40 58  1  0  0  0
 41112  1  0  0  0
 41113  1  0  0  0
 41114  1  0  0  0
 41 48  1  0  0  0
 42 43  1  0  0  0
 42 66  1  0  0  0
 42115  1  0  0  0
 42116  1  0  0  0
 43 44  1  0  0  0
 44117  1  0  0  0
 45 46  2  0  0  0
 45118  1  0  0  0
 46119  1  0  0  0
 47120  1  0  0  0
 47121  1  0  0  0
 48 56  1  0  0  0
 48 65  1  0  0  0
 48122  1  0  0  0
 49 50  1  0  0  0
 49 53  1  0  0  0
 49 64  1  0  0  0
 49123  1  0  0  0
 50 51  1  0  0  0
 50124  1  0  0  0
 50125  1  0  0  0
 51 52  1  0  0  0
 51126  1  0  0  0
 51127  1  0  0  0
 52128  1  0  0  0
 52129  1  0  0  0
 53 54  1  0  0  0
 54 55  2  0  0  0
 54130  1  0  0  0
 55 57  1  0  0  0
 55131  1  0  0  0
 56 69  2  0  0  0
 57 58  2  0  0  0
 57132  1  0  0  0
 58133  1  0  0  0
 59 60  1  0  0  0
 59 61  1  0  0  0
 59 62  1  0  0  0
 60134  1  0  0  0
 60135  1  0  0  0
 60136  1  0  0  0
 61137  1  0  0  0
 61138  1  0  0  0
 61139  1  0  0  0
 62140  1  0  0  0
 62141  1  0  0  0
 62142  1  0  0  0
 63 65  1  0  0  0
 63143  1  0  0  0
 63144  1  0  0  0
 63145  1  0  0  0
 64146  1  0  0  0
 65147  1  0  0  0
 68 82  1  0  0  0
 71 72  2  0  0  0
 71 73  1  0  0  0
 71148  1  0  0  0
 72 74  1  0  0  0
 72 83  1  0  0  0
 73 76  2  0  0  0
 73 84  1  0  0  0
 74 75  2  0  0  0
 74 86  1  0  0  0
 75 76  1  0  0  0
 75 85  1  0  0  0
 76 87  1  0  0  0
 77 78  2  0  0  0
 77 82  1  0  0  0
 77 88  1  0  0  0
 78149  1  0  0  0
 78150  1  0  0  0
 79 80  1  0  0  0
 79 81  1  0  0  0
 79151  1  0  0  0
 79152  1  0  0  0
 80 82  1  0  0  0
 80153  1  0  0  0
 80154  1  0  0  0
 81 88  1  0  0  0
 81155  1  0  0  0
 81156  1  0  0  0
 82157  1  0  0  0
 83158  1  0  0  0
 83159  1  0  0  0
 83160  1  0  0  0
 84161  1  0  0  0
 84162  1  0  0  0
 84163  1  0  0  0
 85164  1  0  0  0
 85165  1  0  0  0
 85166  1  0  0  0
 86167  1  0  0  0
 86168  1  0  0  0
 86 88  1  0  0  0
 87169  1  0  0  0
 88170  1  0  0  0
M  CHG  1  88   1
M  ISO  4   1 100  68 101  82 101  87 100
M  END
> <chiral flag>
0

> <version>
0

> <s_m_source_file>
/data/baiqing/PycharmProjects/Reinvent-master-3.2/result/LINK_invent/BTK/process_docking_weight1_custom_product_contain_oxygen_bond_distance_aromatic_linkinvent_7_9_3/rearranged_h_0038.sdf

> <i_m_source_file_index>
46

> <r_mmod_Potential_Energy-OPLS-2005>
99.5993499755859

> <r_mmod_Stretch_Energy-OPLS-2005>
136.575897216797

> <r_mmod_Bend_Energy-OPLS-2005>
191.009963989258

> <r_mmod_Torsional_Energy-OPLS-2005>
285.875152587891

> <r_mmod_Improper_Torsional_Energy-OPLS-2005>
10.89280128479

> <r_mmod_Van_der_Waal_Energy-OPLS-2005>
139.563995361328

> <r_mmod_Electrostatic_Energy-OPLS-2005>
-315.005493164062

> <r_mmod_Solvation_Energy-OPLS-2005>
-425.826049804688

> <b_mmod_Minimization_Converged-OPLS-2005>
0

> <r_mmod_RMS_Derivative-OPLS-2005>
0.851161181926727

$$$$
46
                    3D
 Structure written by MMmdl.
169178  0  0  1  0            999 V2000
  -30.6861  -14.5858   20.5539 C   0  0  0  0  0  0
  -30.4193  -12.3601   19.4757 C   0  0  0  0  0  0
  -29.4942  -12.4934   18.2471 C   0  0  0  0  0  0
  -28.0339  -12.2903   18.6854 C   0  0  0  0  0  0
  -27.6563  -13.1882   19.8885 C   0  0  2  0  0  0
  -28.7064  -13.0667   21.0208 C   0  0  0  0  0  0
  -25.2565  -13.8085   20.5709 C   0  0  0  0  0  0
  -24.1821  -13.0430   20.9218 C   0  0  0  0  0  0
  -24.6340  -11.6877   20.8869 C   0  0  0  0  0  0
  -23.9002  -10.4297   21.0491 C   0  0  0  0  0  0
  -24.3579   -9.4206   21.9240 C   0  0  0  0  0  0
  -23.6277   -8.2232   22.0787 C   0  0  0  0  0  0
  -22.4263   -8.0266   21.3572 C   0  0  0  0  0  0
  -21.9877   -9.0240   20.4683 C   0  0  0  0  0  0
  -22.7178  -10.2139   20.3108 C   0  0  0  0  0  0
  -21.6850   -6.0702   22.5293 C   0  0  0  0  0  0
  -21.3992   -6.5631   23.8213 C   0  0  0  0  0  0
  -21.3657   -5.6801   24.9190 C   0  0  0  0  0  0
  -21.6057   -4.3055   24.7249 C   0  0  0  0  0  0
  -21.8818   -3.8135   23.4369 C   0  0  0  0  0  0
  -21.9192   -4.6938   22.3426 C   0  0  0  0  0  0
  -22.7831  -13.5255   21.1875 C   0  0  0  0  0  0
  -22.1673   -4.2128   21.0993 F   0  0  0  0  0  0
  -21.5631   -3.4538   25.7760 F   0  0  0  0  0  0
  -30.0181  -13.3982   20.4446 N   0  0  0  0  0  0
  -26.3003  -12.9216   20.3526 N   0  0  0  0  0  0
  -25.9282  -11.6406   20.5991 N   0  0  0  0  0  0
  -22.0483  -12.8324   22.0479 N   0  0  0  0  0  0
  -25.4285  -15.1791   20.3927 N   0  0  0  0  0  0
  -31.8384  -14.7126   20.1315 O   0  0  0  0  0  0
  -21.6643   -6.8844   21.4261 O   0  0  0  0  0  0
  -22.3580  -14.5599   20.6737 O   0  0  0  0  0  0
  -24.6174  -31.8646   23.2075 C   0  0  0  0  0  0
  -25.9065  -32.4785   23.8283 C   0  0  1  0  0  0
  -27.2048  -27.3680   20.1347 C   0  0  0  0  0  0
  -25.5874  -33.8568   24.2191 N   0  0  0  0  0  0
  -23.3984  -30.4977   21.5490 C   0  0  2  0  0  0
  -24.8412  -28.9499   20.1257 C   0  0  0  0  0  0
  -22.7416  -29.4639   22.4946 C   0  0  0  0  0  0
  -18.0265  -28.1309   22.8397 C   0  0  0  0  0  0
  -24.1477  -36.7314   23.2637 C   0  0  0  0  0  0
  -25.9335  -30.8196   21.3629 C   0  0  0  0  0  0
  -26.0087  -29.4389   20.7298 C   0  0  0  0  0  0
  -27.2020  -28.6586   20.7343 C   0  0  0  0  0  0
  -26.0208  -26.9132   19.5222 C   0  0  0  0  0  0
  -24.8432  -27.6857   19.5173 C   0  0  0  0  0  0
  -23.6105  -29.8372   20.1609 C   0  0  0  0  0  0
  -25.4077  -36.3038   24.0302 C   0  0  1  0  0  0
  -20.5855  -28.3590   23.1254 C   0  0  2  0  0  0
  -20.6735  -26.9341   22.5343 C   0  0  0  0  0  0
  -19.5758  -26.6293   21.5107 C   0  0  0  0  0  0
  -18.1943  -26.7811   22.1548 C   0  0  0  0  0  0
  -19.1520  -28.8760   23.2816 C   0  0  0  0  0  0
  -18.9471  -30.1381   23.8779 C   0  0  0  0  0  0
  -17.6473  -30.6494   24.0521 C   0  0  0  0  0  0
  -25.9023  -34.9437   23.5040 C   0  0  0  0  0  0
  -16.5355  -29.9022   23.6275 C   0  0  0  0  0  0
  -16.7274  -28.6480   23.0201 C   0  0  0  0  0  0
  -26.4460  -31.6602   25.0624 C   0  0  0  0  0  0
  -25.3685  -31.3810   26.1358 C   0  0  0  0  0  0
  -27.0300  -30.2972   24.6138 C   0  0  0  0  0  0
  -27.5914  -32.4443   25.7453 C   0  0  0  0  0  0
  -27.5558  -37.1768   24.8456 C   0  0  0  0  0  0
  -21.4145  -29.2985   22.3695 N   0  0  0  0  0  0
  -26.4225  -37.3746   23.9465 N   0  0  0  0  0  0
  -24.6674  -31.0735   22.0981 N   0  0  0  0  0  0
  -23.4229  -28.8187   23.2984 O   0  0  0  0  0  0
  -28.3106  -26.5438   19.9731 O   0  0  0  0  0  0
  -26.5653  -34.8930   22.4649 O   0  0  0  0  0  0
  -23.5361  -32.1448   23.7448 O   0  0  0  0  0  0
  -29.5898  -19.5312   21.3703 C   0  0  0  0  0  0
  -27.9019  -19.3531   19.1579 C   0  0  0  0  0  0
  -29.5168  -18.2786   20.6641 C   0  0  0  0  0  0
  -28.8281  -20.6906   20.9938 C   0  0  0  0  0  0
  -28.6549  -18.2208   19.5343 C   0  0  0  0  0  0
  -27.9613  -20.5605   19.8799 C   0  0  0  0  0  0
  -30.5075  -25.9827   20.5643 C   0  0  0  0  0  0
  -30.6868  -24.7618   19.6533 C   0  0  0  0  0  0
  -28.6417  -24.5918   21.6684 C   0  0  0  0  0  0
  -29.0656  -26.0160   21.0868 C   0  0  2  0  0  0
  -30.5607  -23.4660   20.4729 C   0  0  2  0  0  0
  -28.5015  -16.9703   18.6894 C   0  0  0  0  0  0
  -31.0188  -22.2742   19.6049 C   0  0  0  0  0  0
  -30.4578  -17.0893   21.0693 C   0  0  0  0  0  0
  -28.9053  -22.0469   21.7764 C   0  0  0  0  0  0
  -29.9790  -15.6688   20.9923 N   0  0  0  0  0  0
  -29.1608  -23.3263   20.9873 N   0  3  1  0  0  0
  -26.9923  -21.8904   19.3439 Cl  0  0  0  0  0  0
  -31.4742  -12.4163   19.2025 H   0  0  0  0  0  0
  -30.2880  -11.3749   19.9286 H   0  0  0  0  0  0
  -29.7645  -11.7606   17.4871 H   0  0  0  0  0  0
  -29.6101  -13.4771   17.7883 H   0  0  0  0  0  0
  -27.9320  -11.2456   18.9811 H   0  0  0  0  0  0
  -27.3413  -12.4360   17.8583 H   0  0  0  0  0  0
  -27.6719  -14.2060   19.5180 H   0  0  0  0  0  0
  -28.7301  -12.0454   21.4051 H   0  0  0  0  0  0
  -28.4662  -13.6984   21.8770 H   0  0  0  0  0  0
  -25.2685   -9.5713   22.4842 H   0  0  0  0  0  0
  -23.9987   -7.4623   22.7496 H   0  0  0  0  0  0
  -21.0798   -8.8762   19.8984 H   0  0  0  0  0  0
  -22.3610  -10.9712   19.6256 H   0  0  0  0  0  0
  -21.1980   -7.6141   23.9717 H   0  0  0  0  0  0
  -21.1478   -6.0525   25.9092 H   0  0  0  0  0  0
  -22.0597   -2.7597   23.2892 H   0  0  0  0  0  0
  -22.4052  -11.9954   22.4846 H   0  0  0  0  0  0
  -21.1162  -13.1482   22.2852 H   0  0  0  0  0  0
  -24.6349  -15.8070   20.3944 H   0  0  0  0  0  0
  -26.2705  -15.6038   20.0316 H   0  0  0  0  0  0
  -26.7125  -32.5473   23.1046 H   0  0  0  0  0  0
  -24.9857  -33.9689   25.0213 H   0  0  0  0  0  0
  -22.6823  -31.3135   21.4222 H   0  0  0  0  0  0
  -23.3662  -35.9719   23.3265 H   0  0  0  0  0  0
  -24.3579  -36.9006   22.2058 H   0  0  0  0  0  0
  -23.7321  -37.6513   23.6743 H   0  0  0  0  0  0
  -26.0470  -31.5769   20.5842 H   0  0  0  0  0  0
  -26.8207  -30.8813   21.9817 H   0  0  0  0  0  0
  -28.1069  -29.0645   21.1649 H   0  0  0  0  0  0
  -26.0095  -25.9492   19.0323 H   0  0  0  0  0  0
  -23.9449  -27.3150   19.0400 H   0  0  0  0  0  0
  -23.7311  -30.6230   19.4144 H   0  0  0  0  0  0
  -22.7240  -29.2812   19.8494 H   0  0  0  0  0  0
  -25.1266  -36.1774   25.0769 H   0  0  0  0  0  0
  -20.9919  -28.3133   24.1375 H   0  0  0  0  0  0
  -20.5482  -26.2264   23.3566 H   0  0  0  0  0  0
  -21.6635  -26.7272   22.1252 H   0  0  0  0  0  0
  -19.6926  -25.6180   21.1190 H   0  0  0  0  0  0
  -19.6614  -27.3035   20.6588 H   0  0  0  0  0  0
  -17.4147  -26.6407   21.4004 H   0  0  0  0  0  0
  -18.0443  -25.9945   22.8963 H   0  0  0  0  0  0
  -19.7987  -30.7214   24.2023 H   0  0  0  0  0  0
  -17.5071  -31.6154   24.5180 H   0  0  0  0  0  0
  -15.5374  -30.2917   23.7627 H   0  0  0  0  0  0
  -15.8689  -28.0888   22.6770 H   0  0  0  0  0  0
  -24.5787  -30.7215   25.7757 H   0  0  0  0  0  0
  -24.8936  -32.3039   26.4696 H   0  0  0  0  0  0
  -25.7955  -30.9027   27.0193 H   0  0  0  0  0  0
  -26.2872  -29.6699   24.1176 H   0  0  0  0  0  0
  -27.3970  -29.7249   25.4670 H   0  0  0  0  0  0
  -27.8795  -30.4168   23.9401 H   0  0  0  0  0  0
  -27.2342  -33.3747   26.1883 H   0  0  0  0  0  0
  -28.3782  -32.7040   25.0351 H   0  0  0  0  0  0
  -28.0530  -31.8699   26.5489 H   0  0  0  0  0  0
  -28.2485  -38.0147   24.7509 H   0  0  0  0  0  0
  -28.1104  -36.2640   24.6210 H   0  0  0  0  0  0
  -27.2298  -37.1375   25.8864 H   0  0  0  0  0  0
  -20.9279  -29.8902   21.7088 H   0  0  0  0  0  0
  -26.0034  -38.2781   24.1508 H   0  0  0  0  0  0
  -30.2646  -19.6081   22.2155 H   0  0  0  0  0  0
  -27.2611  -19.3085   18.2869 H   0  0  0  0  0  0
  -30.7299  -26.9008   20.0168 H   0  0  0  0  0  0
  -31.2167  -25.9449   21.3964 H   0  0  0  0  0  0
  -31.6570  -24.8157   19.1612 H   0  0  0  0  0  0
  -29.9400  -24.7655   18.8545 H   0  0  0  0  0  0
  -27.5508  -24.5467   21.7255 H   0  0  0  0  0  0
  -28.9873  -24.5465   22.7061 H   0  0  0  0  0  0
  -28.9990  -26.7585   21.8886 H   0  0  0  0  0  0
  -31.2346  -23.5346   21.3311 H   0  0  0  0  0  0
  -27.9608  -17.1571   17.7598 H   0  0  0  0  0  0
  -27.9131  -16.2660   19.2686 H   0  0  0  0  0  0
  -29.4674  -16.5285   18.4432 H   0  0  0  0  0  0
  -30.2241  -21.9320   18.9424 H   0  0  0  0  0  0
  -31.3319  -21.4301   20.2216 H   0  0  0  0  0  0
  -31.8724  -22.5175   18.9715 H   0  0  0  0  0  0
  -30.8083  -17.2622   22.0870 H   0  0  0  0  0  0
  -31.3501  -17.1963   20.4484 H   0  0  0  0  0  0
  -29.6466  -21.9653   22.5746 H   0  0  0  0  0  0
  -27.9513  -22.1400   22.2982 H   0  0  0  0  0  0
  -29.0298  -15.4980   21.2922 H   0  0  0  0  0  0
  -28.5736  -23.2322   20.1723 H   0  0  0  0  0  0
  1 25  1  0  0  0
  1 30  2  0  0  0
  1 86  1  0  0  0
  2  3  1  0  0  0
  2 25  1  0  0  0
  2 89  1  0  0  0
  2 90  1  0  0  0
  3  4  1  0  0  0
  3 91  1  0  0  0
  3 92  1  0  0  0
  4  5  1  0  0  0
  4 93  1  0  0  0
  4 94  1  0  0  0
  5  6  1  0  0  0
  5 26  1  0  0  0
  5 95  1  0  0  0
  6 25  1  0  0  0
  6 96  1  0  0  0
  6 97  1  0  0  0
  7  8  2  0  0  0
  7 26  1  0  0  0
  7 29  1  0  0  0
  8  9  1  0  0  0
  8 22  1  0  0  0
  9 10  1  0  0  0
  9 27  2  0  0  0
 10 11  2  0  0  0
 10 15  1  0  0  0
 11 12  1  0  0  0
 11 98  1  0  0  0
 12 13  2  0  0  0
 12 99  1  0  0  0
 13 14  1  0  0  0
 13 31  1  0  0  0
 14 15  2  0  0  0
 14100  1  0  0  0
 15101  1  0  0  0
 16 17  2  0  0  0
 16 21  1  0  0  0
 16 31  1  0  0  0
 17 18  1  0  0  0
 17102  1  0  0  0
 18 19  2  0  0  0
 18103  1  0  0  0
 19 20  1  0  0  0
 19 24  1  0  0  0
 20 21  2  0  0  0
 20104  1  0  0  0
 21 23  1  0  0  0
 22 28  1  0  0  0
 22 32  2  0  0  0
 26 27  1  0  0  0
 28105  1  0  0  0
 28106  1  0  0  0
 29107  1  0  0  0
 29108  1  0  0  0
 33 34  1  0  0  0
 33 66  1  0  0  0
 33 70  2  0  0  0
 34 36  1  0  0  0
 34 59  1  0  0  0
 34109  1  0  0  0
 35 44  2  0  0  0
 35 45  1  0  0  0
 35 68  1  0  0  0
 36 56  1  0  0  0
 36110  1  0  0  0
 37 39  1  0  0  0
 37 47  1  0  0  0
 37 66  1  0  0  0
 37111  1  0  0  0
 38 43  2  0  0  0
 38 46  1  0  0  0
 38 47  1  0  0  0
 39 64  1  0  0  0
 39 67  2  0  0  0
 40 52  1  0  0  0
 40 53  2  0  0  0
 40 58  1  0  0  0
 41112  1  0  0  0
 41113  1  0  0  0
 41114  1  0  0  0
 41 48  1  0  0  0
 42 43  1  0  0  0
 42 66  1  0  0  0
 42115  1  0  0  0
 42116  1  0  0  0
 43 44  1  0  0  0
 44117  1  0  0  0
 45 46  2  0  0  0
 45118  1  0  0  0
 46119  1  0  0  0
 47120  1  0  0  0
 47121  1  0  0  0
 48 56  1  0  0  0
 48 65  1  0  0  0
 48122  1  0  0  0
 49 50  1  0  0  0
 49 53  1  0  0  0
 49 64  1  0  0  0
 49123  1  0  0  0
 50 51  1  0  0  0
 50124  1  0  0  0
 50125  1  0  0  0
 51 52  1  0  0  0
 51126  1  0  0  0
 51127  1  0  0  0
 52128  1  0  0  0
 52129  1  0  0  0
 53 54  1  0  0  0
 54 55  2  0  0  0
 54130  1  0  0  0
 55 57  1  0  0  0
 55131  1  0  0  0
 56 69  2  0  0  0
 57 58  2  0  0  0
 57132  1  0  0  0
 58133  1  0  0  0
 59 60  1  0  0  0
 59 61  1  0  0  0
 59 62  1  0  0  0
 60134  1  0  0  0
 60135  1  0  0  0
 60136  1  0  0  0
 61137  1  0  0  0
 61138  1  0  0  0
 61139  1  0  0  0
 62140  1  0  0  0
 62141  1  0  0  0
 62142  1  0  0  0
 63 65  1  0  0  0
 63143  1  0  0  0
 63144  1  0  0  0
 63145  1  0  0  0
 64146  1  0  0  0
 65147  1  0  0  0
 68 80  1  0  0  0
 71 73  2  0  0  0
 71 74  1  0  0  0
 71148  1  0  0  0
 72 75  2  0  0  0
 72 76  1  0  0  0
 72149  1  0  0  0
 73 75  1  0  0  0
 73 84  1  0  0  0
 74 76  2  0  0  0
 74 85  1  0  0  0
 75 82  1  0  0  0
 76 88  1  0  0  0
 77 78  1  0  0  0
 77 80  1  0  0  0
 77150  1  0  0  0
 77151  1  0  0  0
 78 81  1  0  0  0
 78152  1  0  0  0
 78153  1  0  0  0
 79 80  1  0  0  0
 79 87  1  0  0  0
 79154  1  0  0  0
 79155  1  0  0  0
 80156  1  0  0  0
 81 83  1  0  0  0
 81 87  1  0  0  0
 81157  1  0  0  0
 82158  1  0  0  0
 82159  1  0  0  0
 82160  1  0  0  0
 83161  1  0  0  0
 83162  1  0  0  0
 83163  1  0  0  0
 84 86  1  0  0  0
 84164  1  0  0  0
 84165  1  0  0  0
 85166  1  0  0  0
 85167  1  0  0  0
 85 87  1  0  0  0
 86168  1  0  0  0
 87169  1  0  0  0
M  CHG  1  87   1
M  ISO  4   1 100  68 101  80 101  86 100
M  END
> <chiral flag>
0

> <version>
0

> <s_m_source_file>
/data/baiqing/PycharmProjects/Reinvent-master-3.2/result/LINK_invent/BTK/process_docking_weight1_custom_product_contain_oxygen_bond_distance_aromatic_linkinvent_7_9_3/rearranged_h_0038.sdf

> <i_m_source_file_index>
47

> <r_mmod_Potential_Energy-OPLS-2005>
-67.9292755126953

> <r_mmod_Stretch_Energy-OPLS-2005>
72.8209381103516

> <r_mmod_Bend_Energy-OPLS-2005>
149.412872314453

> <r_mmod_Torsional_Energy-OPLS-2005>
256.931640625

> <r_mmod_Improper_Torsional_Energy-OPLS-2005>
4.83819150924683

> <r_mmod_Van_der_Waal_Energy-OPLS-2005>
145.835800170898

> <r_mmod_Electrostatic_Energy-OPLS-2005>
-334.463653564453

> <r_mmod_Solvation_Energy-OPLS-2005>
-396.935546875

> <b_mmod_Minimization_Converged-OPLS-2005>
0

> <r_mmod_RMS_Derivative-OPLS-2005>
7.81892204284668

$$$$
47
                    3D
 Structure written by MMmdl.
164173  0  0  1  0            999 V2000
  -30.6663  -14.6111   20.5206 C   0  0  0  0  0  0
  -30.4397  -12.3814   19.4431 C   0  0  0  0  0  0
  -29.5146  -12.5222   18.2177 C   0  0  0  0  0  0
  -28.0307  -12.3965   18.6158 C   0  0  0  0  0  0
  -27.6655  -13.2385   19.8705 C   0  0  2  0  0  0
  -28.7147  -13.0730   20.9955 C   0  0  0  0  0  0
  -25.2582  -13.8227   20.5617 C   0  0  0  0  0  0
  -24.1893  -13.0461   20.9133 C   0  0  0  0  0  0
  -24.6492  -11.6948   20.8709 C   0  0  0  0  0  0
  -23.9147  -10.4329   21.0395 C   0  0  0  0  0  0
  -24.3680   -9.4240   21.9169 C   0  0  0  0  0  0
  -23.6375   -8.2280   22.0712 C   0  0  0  0  0  0
  -22.4353   -8.0329   21.3528 C   0  0  0  0  0  0
  -21.9999   -9.0304   20.4622 C   0  0  0  0  0  0
  -22.7323  -10.2190   20.3051 C   0  0  0  0  0  0
  -21.6870   -6.0785   22.5283 C   0  0  0  0  0  0
  -21.4026   -6.5650   23.8225 C   0  0  0  0  0  0
  -21.3662   -5.6785   24.9172 C   0  0  0  0  0  0
  -21.6062   -4.3045   24.7205 C   0  0  0  0  0  0
  -21.8834   -3.8151   23.4309 C   0  0  0  0  0  0
  -21.9196   -4.7003   22.3379 C   0  0  0  0  0  0
  -22.7901  -13.5218   21.1797 C   0  0  0  0  0  0
  -22.1663   -4.2181   21.0946 F   0  0  0  0  0  0
  -21.5625   -3.4525   25.7696 F   0  0  0  0  0  0
  -30.0364  -13.3986   20.4366 N   0  0  0  0  0  0
  -26.3063  -12.9470   20.3331 N   0  0  0  0  0  0
  -25.9442  -11.6610   20.5783 N   0  0  0  0  0  0
  -22.0508  -12.8277   22.0387 N   0  0  0  0  0  0
  -25.4241  -15.1939   20.3913 N   0  0  0  0  0  0
  -31.7965  -14.7764   20.0595 O   0  0  0  0  0  0
  -21.6678   -6.8952   21.4261 O   0  0  0  0  0  0
  -22.3609  -14.5509   20.6594 O   0  0  0  0  0  0
  -24.6282  -31.8517   23.1999 C   0  0  0  0  0  0
  -25.9109  -32.4743   23.8345 C   0  0  1  0  0  0
  -27.2391  -27.3190   20.1132 C   0  0  0  0  0  0
  -25.5847  -33.8529   24.2224 N   0  0  0  0  0  0
  -23.4278  -30.4726   21.5449 C   0  0  2  0  0  0
  -24.8756  -28.9240   20.1130 C   0  0  0  0  0  0
  -22.7534  -29.4554   22.4963 C   0  0  0  0  0  0
  -18.0295  -28.1405   22.8507 C   0  0  0  0  0  0
  -24.1469  -36.7294   23.2648 C   0  0  0  0  0  0
  -25.9701  -30.7839   21.3719 C   0  0  0  0  0  0
  -26.0478  -29.4148   20.7062 C   0  0  0  0  0  0
  -27.2377  -28.6304   20.6764 C   0  0  0  0  0  0
  -26.0452  -26.8632   19.5108 C   0  0  0  0  0  0
  -24.8814  -27.6588   19.4995 C   0  0  0  0  0  0
  -23.6422  -29.8044   20.1634 C   0  0  0  0  0  0
  -25.4093  -36.3041   24.0328 C   0  0  1  0  0  0
  -20.5887  -28.3662   23.1342 C   0  0  2  0  0  0
  -20.6767  -26.9390   22.5433 C   0  0  0  0  0  0
  -19.5737  -26.6387   21.5241 C   0  0  0  0  0  0
  -18.1918  -26.7949   22.1649 C   0  0  0  0  0  0
  -19.1534  -28.8870   23.2913 C   0  0  0  0  0  0
  -18.9444  -30.1467   23.8945 C   0  0  0  0  0  0
  -17.6430  -30.6600   24.0568 C   0  0  0  0  0  0
  -25.9032  -34.9412   23.5076 C   0  0  0  0  0  0
  -16.5333  -29.9101   23.6314 C   0  0  0  0  0  0
  -16.7266  -28.6508   23.0354 C   0  0  0  0  0  0
  -26.4458  -31.6617   25.0759 C   0  0  0  0  0  0
  -25.3684  -31.3808   26.1506 C   0  0  0  0  0  0
  -27.0275  -30.3018   24.6255 C   0  0  0  0  0  0
  -27.6000  -32.4395   25.7517 C   0  0  0  0  0  0
  -27.5582  -37.1789   24.8444 C   0  0  0  0  0  0
  -21.4219  -29.2979   22.3720 N   0  0  0  0  0  0
  -26.4277  -37.3754   23.9406 N   0  0  0  0  0  0
  -24.6959  -31.0523   22.0970 N   0  0  0  0  0  0
  -23.4241  -28.8111   23.3056 O   0  0  0  0  0  0
  -28.3730  -26.4996   20.0791 O   0  0  0  0  0  0
  -26.5643  -34.8894   22.4690 O   0  0  0  0  0  0
  -23.5442  -32.1322   23.7317 O   0  0  0  0  0  0
  -28.6189  -19.1410   20.4245 C   0  0  0  0  0  0
  -28.7215  -17.7322   20.5629 C   0  0  0  0  0  0
  -29.7248  -20.0045   20.6177 C   0  0  0  0  0  0
  -30.9475  -19.3746   21.0285 C   0  0  0  0  0  0
  -29.9492  -17.0851   20.8717 C   0  0  0  0  0  0
  -31.0628  -17.9386   21.1357 C   0  0  0  0  0  0
  -28.9788  -22.7696   22.3351 C   0  0  0  0  0  0
  -28.6267  -21.8401   23.2417 C   0  0  0  0  0  0
  -29.5869  -24.1206   22.7409 C   0  0  0  0  0  0
  -29.6020  -25.2513   21.7046 C   0  0  0  0  0  0
  -28.5444  -23.8336   20.0159 C   0  0  0  0  0  0
  -28.3664  -25.2080   20.8046 C   0  0  2  0  0  0
  -32.1537  -20.2581   21.3522 C   0  0  0  0  0  0
  -29.6449  -21.5357   20.1932 C   0  0  0  0  0  0
  -29.9071  -15.6301   21.0228 N   0  0  0  0  0  0
  -28.7283  -22.5625   20.8554 N   0  3  1  0  0  0
  -32.5679  -17.2426   21.6486 Cl  0  0  0  0  0  0
  -31.4815  -12.4822   19.1343 H   0  0  0  0  0  0
  -30.3507  -11.3824   19.8806 H   0  0  0  0  0  0
  -29.7730  -11.7641   17.4764 H   0  0  0  0  0  0
  -29.6910  -13.4874   17.7410 H   0  0  0  0  0  0
  -27.8207  -11.3416   18.8020 H   0  0  0  0  0  0
  -27.3937  -12.6887   17.7788 H   0  0  0  0  0  0
  -27.6914  -14.2837   19.5582 H   0  0  0  0  0  0
  -28.7151  -12.0494   21.3736 H   0  0  0  0  0  0
  -28.4777  -13.7080   21.8492 H   0  0  0  0  0  0
  -25.2848   -9.5722   22.4745 H   0  0  0  0  0  0
  -24.0069   -7.4689   22.7469 H   0  0  0  0  0  0
  -21.0891   -8.8888   19.8982 H   0  0  0  0  0  0
  -22.3800  -10.9734   19.6172 H   0  0  0  0  0  0
  -21.2028   -7.6156   23.9755 H   0  0  0  0  0  0
  -21.1457   -6.0474   25.9080 H   0  0  0  0  0  0
  -22.0605   -2.7619   23.2774 H   0  0  0  0  0  0
  -22.4101  -11.9985   22.4871 H   0  0  0  0  0  0
  -21.1127  -13.1372   22.2497 H   0  0  0  0  0  0
  -24.6478  -15.8391   20.4710 H   0  0  0  0  0  0
  -26.2552  -15.6206   19.9983 H   0  0  0  0  0  0
  -26.7212  -32.5392   23.1117 H   0  0  0  0  0  0
  -24.9849  -33.9640   25.0268 H   0  0  0  0  0  0
  -22.7248  -31.2954   21.4028 H   0  0  0  0  0  0
  -23.3718  -35.9640   23.3254 H   0  0  0  0  0  0
  -24.3570  -36.8981   22.2074 H   0  0  0  0  0  0
  -23.7250  -37.6482   23.6731 H   0  0  0  0  0  0
  -26.1129  -31.5622   20.6197 H   0  0  0  0  0  0
  -26.8514  -30.8238   22.0045 H   0  0  0  0  0  0
  -28.1522  -29.0113   21.1094 H   0  0  0  0  0  0
  -26.0109  -25.8860   19.0454 H   0  0  0  0  0  0
  -23.9856  -27.2867   19.0188 H   0  0  0  0  0  0
  -23.7531  -30.5784   19.4030 H   0  0  0  0  0  0
  -22.7655  -29.2243   19.8684 H   0  0  0  0  0  0
  -25.1293  -36.1868   25.0824 H   0  0  0  0  0  0
  -20.9977  -28.3193   24.1468 H   0  0  0  0  0  0
  -20.5688  -26.2250   23.3607 H   0  0  0  0  0  0
  -21.6630  -26.7433   22.1201 H   0  0  0  0  0  0
  -19.6858  -25.6303   21.1251 H   0  0  0  0  0  0
  -19.6669  -27.3228   20.6800 H   0  0  0  0  0  0
  -17.4179  -26.6730   21.4034 H   0  0  0  0  0  0
  -18.0263  -26.0119   22.9060 H   0  0  0  0  0  0
  -19.7897  -30.7274   24.2351 H   0  0  0  0  0  0
  -17.4962  -31.6278   24.5158 H   0  0  0  0  0  0
  -15.5324  -30.3005   23.7603 H   0  0  0  0  0  0
  -15.8665  -28.0827   22.7066 H   0  0  0  0  0  0
  -24.5763  -30.7259   25.7854 H   0  0  0  0  0  0
  -24.8989  -32.3007   26.5006 H   0  0  0  0  0  0
  -25.7980  -30.8905   27.0253 H   0  0  0  0  0  0
  -26.2838  -29.6827   24.1215 H   0  0  0  0  0  0
  -27.3853  -29.7233   25.4788 H   0  0  0  0  0  0
  -27.8771  -30.4261   23.9534 H   0  0  0  0  0  0
  -27.2548  -33.3672   26.2111 H   0  0  0  0  0  0
  -28.3781  -32.7043   25.0335 H   0  0  0  0  0  0
  -28.0721  -31.8554   26.5427 H   0  0  0  0  0  0
  -28.2557  -38.0120   24.7526 H   0  0  0  0  0  0
  -28.1106  -36.2660   24.6204 H   0  0  0  0  0  0
  -27.2307  -37.1373   25.8843 H   0  0  0  0  0  0
  -20.9452  -29.8656   21.6871 H   0  0  0  0  0  0
  -26.0122  -38.2803   24.1462 H   0  0  0  0  0  0
  -27.6697  -19.5527   20.1163 H   0  0  0  0  0  0
  -27.8284  -17.1387   20.4100 H   0  0  0  0  0  0
  -28.7894  -22.0223   24.2951 H   0  0  0  0  0  0
  -28.1938  -20.8852   22.9848 H   0  0  0  0  0  0
  -30.5924  -23.9345   23.1214 H   0  0  0  0  0  0
  -29.0238  -24.4799   23.6069 H   0  0  0  0  0  0
  -30.5057  -25.1630   21.0960 H   0  0  0  0  0  0
  -29.6756  -26.2136   22.2123 H   0  0  0  0  0  0
  -29.4295  -23.9377   19.3827 H   0  0  0  0  0  0
  -27.7125  -23.6529   19.3320 H   0  0  0  0  0  0
  -27.4796  -25.1780   21.4367 H   0  0  0  0  0  0
  -31.8463  -21.0879   21.9893 H   0  0  0  0  0  0
  -32.6068  -20.6618   20.4444 H   0  0  0  0  0  0
  -32.9347  -19.7530   21.9129 H   0  0  0  0  0  0
  -29.3905  -21.5089   19.1329 H   0  0  0  0  0  0
  -30.6467  -21.9615   20.2181 H   0  0  0  0  0  0
  -29.0116  -15.2779   21.3154 H   0  0  0  0  0  0
  -27.8170  -22.1288   20.7930 H   0  0  0  0  0  0
  1 25  1  0  0  0
  1 30  2  0  0  0
  1 85  1  0  0  0
  2  3  1  0  0  0
  2 25  1  0  0  0
  2 88  1  0  0  0
  2 89  1  0  0  0
  3  4  1  0  0  0
  3 90  1  0  0  0
  3 91  1  0  0  0
  4  5  1  0  0  0
  4 92  1  0  0  0
  4 93  1  0  0  0
  5  6  1  0  0  0
  5 26  1  0  0  0
  5 94  1  0  0  0
  6 25  1  0  0  0
  6 95  1  0  0  0
  6 96  1  0  0  0
  7  8  2  0  0  0
  7 26  1  0  0  0
  7 29  1  0  0  0
  8  9  1  0  0  0
  8 22  1  0  0  0
  9 10  1  0  0  0
  9 27  2  0  0  0
 10 11  2  0  0  0
 10 15  1  0  0  0
 11 12  1  0  0  0
 11 97  1  0  0  0
 12 13  2  0  0  0
 12 98  1  0  0  0
 13 14  1  0  0  0
 13 31  1  0  0  0
 14 15  2  0  0  0
 14 99  1  0  0  0
 15100  1  0  0  0
 16 17  2  0  0  0
 16 21  1  0  0  0
 16 31  1  0  0  0
 17 18  1  0  0  0
 17101  1  0  0  0
 18 19  2  0  0  0
 18102  1  0  0  0
 19 20  1  0  0  0
 19 24  1  0  0  0
 20 21  2  0  0  0
 20103  1  0  0  0
 21 23  1  0  0  0
 22 28  1  0  0  0
 22 32  2  0  0  0
 26 27  1  0  0  0
 28104  1  0  0  0
 28105  1  0  0  0
 29106  1  0  0  0
 29107  1  0  0  0
 33 34  1  0  0  0
 33 66  1  0  0  0
 33 70  2  0  0  0
 34 36  1  0  0  0
 34 59  1  0  0  0
 34108  1  0  0  0
 35 44  2  0  0  0
 35 45  1  0  0  0
 35 68  1  0  0  0
 36 56  1  0  0  0
 36109  1  0  0  0
 37 39  1  0  0  0
 37 47  1  0  0  0
 37 66  1  0  0  0
 37110  1  0  0  0
 38 43  2  0  0  0
 38 46  1  0  0  0
 38 47  1  0  0  0
 39 64  1  0  0  0
 39 67  2  0  0  0
 40 52  1  0  0  0
 40 53  2  0  0  0
 40 58  1  0  0  0
 41111  1  0  0  0
 41112  1  0  0  0
 41113  1  0  0  0
 41 48  1  0  0  0
 42 43  1  0  0  0
 42 66  1  0  0  0
 42114  1  0  0  0
 42115  1  0  0  0
 43 44  1  0  0  0
 44116  1  0  0  0
 45 46  2  0  0  0
 45117  1  0  0  0
 46118  1  0  0  0
 47119  1  0  0  0
 47120  1  0  0  0
 48 56  1  0  0  0
 48 65  1  0  0  0
 48121  1  0  0  0
 49 50  1  0  0  0
 49 53  1  0  0  0
 49 64  1  0  0  0
 49122  1  0  0  0
 50 51  1  0  0  0
 50123  1  0  0  0
 50124  1  0  0  0
 51 52  1  0  0  0
 51125  1  0  0  0
 51126  1  0  0  0
 52127  1  0  0  0
 52128  1  0  0  0
 53 54  1  0  0  0
 54 55  2  0  0  0
 54129  1  0  0  0
 55 57  1  0  0  0
 55130  1  0  0  0
 56 69  2  0  0  0
 57 58  2  0  0  0
 57131  1  0  0  0
 58132  1  0  0  0
 59 60  1  0  0  0
 59 61  1  0  0  0
 59 62  1  0  0  0
 60133  1  0  0  0
 60134  1  0  0  0
 60135  1  0  0  0
 61136  1  0  0  0
 61137  1  0  0  0
 61138  1  0  0  0
 62139  1  0  0  0
 62140  1  0  0  0
 62141  1  0  0  0
 63 65  1  0  0  0
 63142  1  0  0  0
 63143  1  0  0  0
 63144  1  0  0  0
 64145  1  0  0  0
 65146  1  0  0  0
 68 82  1  0  0  0
 71 72  2  0  0  0
 71 73  1  0  0  0
 71147  1  0  0  0
 72 75  1  0  0  0
 72148  1  0  0  0
 73 74  2  0  0  0
 73 84  1  0  0  0
 74 76  1  0  0  0
 74 83  1  0  0  0
 75 76  2  0  0  0
 75 85  1  0  0  0
 76 87  1  0  0  0
 77 78  2  0  0  0
 77 79  1  0  0  0
 77 86  1  0  0  0
 78149  1  0  0  0
 78150  1  0  0  0
 79 80  1  0  0  0
 79151  1  0  0  0
 79152  1  0  0  0
 80 82  1  0  0  0
 80153  1  0  0  0
 80154  1  0  0  0
 81 82  1  0  0  0
 81 86  1  0  0  0
 81155  1  0  0  0
 81156  1  0  0  0
 82157  1  0  0  0
 83158  1  0  0  0
 83159  1  0  0  0
 83160  1  0  0  0
 84161  1  0  0  0
 84162  1  0  0  0
 84 86  1  0  0  0
 85163  1  0  0  0
 86164  1  0  0  0
M  CHG  1  86   1
M  ISO  4   1 100  68 101  82 101  85 100
M  END
> <chiral flag>
0

> <version>
0

> <s_m_source_file>
/data/baiqing/PycharmProjects/Reinvent-master-3.2/result/LINK_invent/BTK/process_docking_weight1_custom_product_contain_oxygen_bond_distance_aromatic_linkinvent_7_9_3/rearranged_h_0038.sdf

> <i_m_source_file_index>
48

> <r_mmod_Potential_Energy-OPLS-2005>
9.87040710449219

> <r_mmod_Stretch_Energy-OPLS-2005>
89.6560897827148

> <r_mmod_Bend_Energy-OPLS-2005>
175.263244628906

> <r_mmod_Torsional_Energy-OPLS-2005>
268.683319091797

> <r_mmod_Improper_Torsional_Energy-OPLS-2005>
5.97315502166748

> <r_mmod_Van_der_Waal_Energy-OPLS-2005>
143.842651367188

> <r_mmod_Electrostatic_Energy-OPLS-2005>
-269.793914794922

> <r_mmod_Solvation_Energy-OPLS-2005>
-444.687469482422

> <b_mmod_Minimization_Converged-OPLS-2005>
0

> <r_mmod_RMS_Derivative-OPLS-2005>
7.20186758041382

$$$$
48
                    3D
 Structure written by MMmdl.
167176  0  0  1  0            999 V2000
  -30.6345  -14.7413   20.4011 C   0  0  0  0  0  0
  -30.4160  -12.4434   19.4774 C   0  0  0  0  0  0
  -29.5005  -12.4956   18.2368 C   0  0  0  0  0  0
  -28.0285  -12.3185   18.6520 C   0  0  0  0  0  0
  -27.6300  -13.2386   19.8358 C   0  0  2  0  0  0
  -28.6745  -13.2116   20.9713 C   0  0  0  0  0  0
  -25.2439  -13.8208   20.5712 C   0  0  0  0  0  0
  -24.1751  -13.0442   20.9218 C   0  0  0  0  0  0
  -24.6370  -11.6937   20.8738 C   0  0  0  0  0  0
  -23.9056  -10.4299   21.0407 C   0  0  0  0  0  0
  -24.3621   -9.4215   21.9178 C   0  0  0  0  0  0
  -23.6299   -8.2243   22.0739 C   0  0  0  0  0  0
  -22.4289   -8.0287   21.3537 C   0  0  0  0  0  0
  -21.9923   -9.0249   20.4636 C   0  0  0  0  0  0
  -22.7241  -10.2128   20.3053 C   0  0  0  0  0  0
  -21.6854   -6.0747   22.5278 C   0  0  0  0  0  0
  -21.4034   -6.5649   23.8224 C   0  0  0  0  0  0
  -21.3672   -5.6791   24.9185 C   0  0  0  0  0  0
  -21.6040   -4.3054   24.7224 C   0  0  0  0  0  0
  -21.8810   -3.8155   23.4345 C   0  0  0  0  0  0
  -21.9185   -4.6978   22.3407 C   0  0  0  0  0  0
  -22.7776  -13.5206   21.1889 C   0  0  0  0  0  0
  -22.1653   -4.2163   21.0975 F   0  0  0  0  0  0
  -21.5616   -3.4538   25.7727 F   0  0  0  0  0  0
  -29.9792  -13.5328   20.3809 N   0  0  0  0  0  0
  -26.2877  -12.9438   20.3242 N   0  0  0  0  0  0
  -25.9290  -11.6577   20.5740 N   0  0  0  0  0  0
  -22.0450  -12.8180   22.0469 N   0  0  0  0  0  0
  -25.4083  -15.1945   20.4147 N   0  0  0  0  0  0
  -31.8474  -14.7597   20.1748 O   0  0  0  0  0  0
  -21.6642   -6.8894   21.4246 O   0  0  0  0  0  0
  -22.3460  -14.5518   20.6741 O   0  0  0  0  0  0
  -24.6329  -31.8557   23.1998 C   0  0  0  0  0  0
  -25.9156  -32.4764   23.8338 C   0  0  1  0  0  0
  -27.2200  -27.2644   20.0941 C   0  0  0  0  0  0
  -25.5937  -33.8568   24.2255 N   0  0  0  0  0  0
  -23.4291  -30.4822   21.5456 C   0  0  2  0  0  0
  -24.8739  -28.9327   20.1135 C   0  0  0  0  0  0
  -22.7508  -29.4618   22.4922 C   0  0  0  0  0  0
  -18.0293  -28.1391   22.8484 C   0  0  0  0  0  0
  -24.1494  -36.7290   23.2641 C   0  0  0  0  0  0
  -25.9782  -30.7696   21.3788 C   0  0  0  0  0  0
  -26.0498  -29.3931   20.7174 C   0  0  0  0  0  0
  -27.2258  -28.5722   20.7013 C   0  0  0  0  0  0
  -26.0148  -26.8880   19.4541 C   0  0  0  0  0  0
  -24.8611  -27.6870   19.4777 C   0  0  0  0  0  0
  -23.6464  -29.8216   20.1618 C   0  0  0  0  0  0
  -25.4119  -36.3073   24.0326 C   0  0  1  0  0  0
  -20.5896  -28.3703   23.1274 C   0  0  2  0  0  0
  -20.6774  -26.9420   22.5407 C   0  0  0  0  0  0
  -19.5748  -26.6387   21.5210 C   0  0  0  0  0  0
  -18.1936  -26.7930   22.1625 C   0  0  0  0  0  0
  -19.1540  -28.8854   23.2877 C   0  0  0  0  0  0
  -18.9471  -30.1455   23.8901 C   0  0  0  0  0  0
  -17.6460  -30.6585   24.0566 C   0  0  0  0  0  0
  -25.9057  -34.9449   23.5086 C   0  0  0  0  0  0
  -16.5357  -29.9095   23.6321 C   0  0  0  0  0  0
  -16.7275  -28.6514   23.0351 C   0  0  0  0  0  0
  -26.4498  -31.6594   25.0737 C   0  0  0  0  0  0
  -25.3713  -31.3768   26.1452 C   0  0  0  0  0  0
  -27.0334  -30.3007   24.6230 C   0  0  0  0  0  0
  -27.6031  -32.4346   25.7520 C   0  0  0  0  0  0
  -27.5575  -37.1804   24.8461 C   0  0  0  0  0  0
  -21.4206  -29.3049   22.3663 N   0  0  0  0  0  0
  -26.4288  -37.3770   23.9408 N   0  0  0  0  0  0
  -24.7001  -31.0521   22.0976 N   0  0  0  0  0  0
  -23.4211  -28.8145   23.3000 O   0  0  0  0  0  0
  -28.3127  -26.3630   20.1534 O   0  0  0  0  0  0
  -26.5630  -34.8918   22.4659 O   0  0  0  0  0  0
  -23.5480  -32.1379   23.7281 O   0  0  0  0  0  0
  -29.5553  -18.5176   20.4762 C   0  0  0  0  0  0
  -31.3963  -17.5510   19.2631 C   0  0  0  0  0  0
  -29.9969  -19.8749   20.1837 C   0  0  0  0  0  0
  -31.9035  -18.8472   18.9889 C   0  0  0  0  0  0
  -31.2691  -19.9982   19.5506 C   0  0  0  0  0  0
  -30.2818  -17.3201   20.0960 C   0  0  0  0  0  0
  -28.8817  -23.7527   20.4818 C   0  0  0  0  0  0
  -28.2012  -23.3877   17.6746 C   0  0  0  0  0  0
  -28.4282  -24.8258   18.1761 C   0  0  0  0  0  0
  -29.0950  -22.3829   18.4262 C   0  0  0  0  0  0
  -28.1496  -24.9347   19.6854 C   0  0  2  0  0  0
  -32.0007  -21.3413   19.5391 C   0  0  0  0  0  0
  -32.7308  -19.4547   16.6588 C   0  0  0  0  0  0
  -29.1822  -21.1669   20.6722 C   0  0  0  0  0  0
  -33.1219  -18.9435   18.0540 C   0  0  0  0  0  0
  -29.0500  -22.4944   19.8970 N   0  0  0  0  0  0
  -29.8957  -15.9219   20.4522 N   0  0  0  0  0  0
  -29.1658  -23.9426   21.6690 O   0  0  0  0  0  0
  -33.6754  -17.7441   17.8643 F   0  0  0  0  0  0
  -34.0876  -19.7209   18.5400 F   0  0  0  0  0  0
  -31.4608  -12.5395   19.1793 H   0  0  0  0  0  0
  -30.3308  -11.4804   19.9797 H   0  0  0  0  0  0
  -29.7838  -11.7200   17.5231 H   0  0  0  0  0  0
  -29.6239  -13.4509   17.7229 H   0  0  0  0  0  0
  -27.8883  -11.2736   18.9324 H   0  0  0  0  0  0
  -27.3700  -12.4902   17.8001 H   0  0  0  0  0  0
  -27.6154  -14.2526   19.4338 H   0  0  0  0  0  0
  -28.6989  -12.2341   21.4538 H   0  0  0  0  0  0
  -28.4093  -13.9357   21.7457 H   0  0  0  0  0  0
  -25.2767   -9.5694   22.4742 H   0  0  0  0  0  0
  -24.0011   -7.4649   22.7457 H   0  0  0  0  0  0
  -21.0846   -8.8766   19.8943 H   0  0  0  0  0  0
  -22.3699  -10.9660   19.6154 H   0  0  0  0  0  0
  -21.2056   -7.6163   23.9738 H   0  0  0  0  0  0
  -21.1498   -6.0520   25.9076 H   0  0  0  0  0  0
  -22.0580   -2.7613   23.2827 H   0  0  0  0  0  0
  -22.4105  -11.9859   22.4863 H   0  0  0  0  0  0
  -21.1075  -13.1174   22.2710 H   0  0  0  0  0  0
  -24.6344  -15.8393   20.5420 H   0  0  0  0  0  0
  -26.2443  -15.6445   20.0657 H   0  0  0  0  0  0
  -26.7224  -32.5408   23.1080 H   0  0  0  0  0  0
  -25.0054  -33.9709   25.0382 H   0  0  0  0  0  0
  -22.7272  -31.3060   21.4026 H   0  0  0  0  0  0
  -23.3742  -35.9629   23.3297 H   0  0  0  0  0  0
  -24.3574  -36.8919   22.2051 H   0  0  0  0  0  0
  -23.7258  -37.6498   23.6668 H   0  0  0  0  0  0
  -26.1160  -31.5325   20.6109 H   0  0  0  0  0  0
  -26.8570  -30.8185   22.0101 H   0  0  0  0  0  0
  -28.1283  -28.9202   21.1831 H   0  0  0  0  0  0
  -25.9062  -25.9546   18.9238 H   0  0  0  0  0  0
  -23.9623  -27.3280   18.9978 H   0  0  0  0  0  0
  -23.7762  -30.6022   19.4111 H   0  0  0  0  0  0
  -22.7620  -29.2624   19.8492 H   0  0  0  0  0  0
  -25.1300  -36.1910   25.0814 H   0  0  0  0  0  0
  -20.9998  -28.3275   24.1387 H   0  0  0  0  0  0
  -20.5673  -26.2306   23.3617 H   0  0  0  0  0  0
  -21.6651  -26.7433   22.1203 H   0  0  0  0  0  0
  -19.6909  -25.6300   21.1246 H   0  0  0  0  0  0
  -19.6687  -27.3191   20.6748 H   0  0  0  0  0  0
  -17.4200  -26.6671   21.4041 H   0  0  0  0  0  0
  -18.0341  -26.0082   22.9035 H   0  0  0  0  0  0
  -19.7954  -30.7268   24.2287 H   0  0  0  0  0  0
  -17.5030  -31.6269   24.5176 H   0  0  0  0  0  0
  -15.5370  -30.3001   23.7646 H   0  0  0  0  0  0
  -15.8684  -28.0842   22.7058 H   0  0  0  0  0  0
  -24.5882  -30.7115   25.7797 H   0  0  0  0  0  0
  -24.8910  -32.2950   26.4845 H   0  0  0  0  0  0
  -25.8024  -30.8977   27.0253 H   0  0  0  0  0  0
  -26.2923  -29.6769   24.1220 H   0  0  0  0  0  0
  -27.3963  -29.7257   25.4758 H   0  0  0  0  0  0
  -27.8822  -30.4262   23.9505 H   0  0  0  0  0  0
  -27.2607  -33.3642   26.2079 H   0  0  0  0  0  0
  -28.3853  -32.6922   25.0369 H   0  0  0  0  0  0
  -28.0682  -31.8494   26.5460 H   0  0  0  0  0  0
  -28.2594  -38.0104   24.7495 H   0  0  0  0  0  0
  -28.1075  -36.2628   24.6297 H   0  0  0  0  0  0
  -27.2292  -37.1468   25.8867 H   0  0  0  0  0  0
  -20.9396  -29.8790   21.6884 H   0  0  0  0  0  0
  -26.0160  -38.2842   24.1408 H   0  0  0  0  0  0
  -28.6384  -18.3911   21.0365 H   0  0  0  0  0  0
  -31.8962  -16.7070   18.8133 H   0  0  0  0  0  0
  -28.4218  -23.3348   16.6056 H   0  0  0  0  0  0
  -27.1521  -23.1074   17.7839 H   0  0  0  0  0  0
  -27.7876  -25.5072   17.6175 H   0  0  0  0  0  0
  -29.4519  -25.1419   17.9662 H   0  0  0  0  0  0
  -30.1170  -22.5898   18.1203 H   0  0  0  0  0  0
  -28.8760  -21.3647   18.1040 H   0  0  0  0  0  0
  -27.1204  -24.6265   19.8617 H   0  0  0  0  0  0
  -32.0705  -21.7590   18.5372 H   0  0  0  0  0  0
  -33.0089  -21.2233   19.9326 H   0  0  0  0  0  0
  -31.5560  -22.0878   20.1923 H   0  0  0  0  0  0
  -32.0062  -18.7852   16.1954 H   0  0  0  0  0  0
  -33.5941  -19.5163   15.9960 H   0  0  0  0  0  0
  -32.2826  -20.4455   16.7017 H   0  0  0  0  0  0
  -28.1649  -20.8368   20.8744 H   0  0  0  0  0  0
  -29.5910  -21.4048   21.6536 H   0  0  0  0  0  0
  -28.9281  -15.7937   20.7071 H   0  0  0  0  0  0
  1 25  1  0  0  0
  1 30  2  0  0  0
  1 87  1  0  0  0
  2  3  1  0  0  0
  2 25  1  0  0  0
  2 91  1  0  0  0
  2 92  1  0  0  0
  3  4  1  0  0  0
  3 93  1  0  0  0
  3 94  1  0  0  0
  4  5  1  0  0  0
  4 95  1  0  0  0
  4 96  1  0  0  0
  5  6  1  0  0  0
  5 26  1  0  0  0
  5 97  1  0  0  0
  6 25  1  0  0  0
  6 98  1  0  0  0
  6 99  1  0  0  0
  7  8  2  0  0  0
  7 26  1  0  0  0
  7 29  1  0  0  0
  8  9  1  0  0  0
  8 22  1  0  0  0
  9 10  1  0  0  0
  9 27  2  0  0  0
 10 11  2  0  0  0
 10 15  1  0  0  0
 11 12  1  0  0  0
 11100  1  0  0  0
 12 13  2  0  0  0
 12101  1  0  0  0
 13 14  1  0  0  0
 13 31  1  0  0  0
 14 15  2  0  0  0
 14102  1  0  0  0
 15103  1  0  0  0
 16 17  2  0  0  0
 16 21  1  0  0  0
 16 31  1  0  0  0
 17 18  1  0  0  0
 17104  1  0  0  0
 18 19  2  0  0  0
 18105  1  0  0  0
 19 20  1  0  0  0
 19 24  1  0  0  0
 20 21  2  0  0  0
 20106  1  0  0  0
 21 23  1  0  0  0
 22 28  1  0  0  0
 22 32  2  0  0  0
 26 27  1  0  0  0
 28107  1  0  0  0
 28108  1  0  0  0
 29109  1  0  0  0
 29110  1  0  0  0
 33 34  1  0  0  0
 33 66  1  0  0  0
 33 70  2  0  0  0
 34 36  1  0  0  0
 34 59  1  0  0  0
 34111  1  0  0  0
 35 44  2  0  0  0
 35 45  1  0  0  0
 35 68  1  0  0  0
 36 56  1  0  0  0
 36112  1  0  0  0
 37 39  1  0  0  0
 37 47  1  0  0  0
 37 66  1  0  0  0
 37113  1  0  0  0
 38 43  2  0  0  0
 38 46  1  0  0  0
 38 47  1  0  0  0
 39 64  1  0  0  0
 39 67  2  0  0  0
 40 52  1  0  0  0
 40 53  2  0  0  0
 40 58  1  0  0  0
 41114  1  0  0  0
 41115  1  0  0  0
 41116  1  0  0  0
 41 48  1  0  0  0
 42 43  1  0  0  0
 42 66  1  0  0  0
 42117  1  0  0  0
 42118  1  0  0  0
 43 44  1  0  0  0
 44119  1  0  0  0
 45 46  2  0  0  0
 45120  1  0  0  0
 46121  1  0  0  0
 47122  1  0  0  0
 47123  1  0  0  0
 48 56  1  0  0  0
 48 65  1  0  0  0
 48124  1  0  0  0
 49 50  1  0  0  0
 49 53  1  0  0  0
 49 64  1  0  0  0
 49125  1  0  0  0
 50 51  1  0  0  0
 50126  1  0  0  0
 50127  1  0  0  0
 51 52  1  0  0  0
 51128  1  0  0  0
 51129  1  0  0  0
 52130  1  0  0  0
 52131  1  0  0  0
 53 54  1  0  0  0
 54 55  2  0  0  0
 54132  1  0  0  0
 55 57  1  0  0  0
 55133  1  0  0  0
 56 69  2  0  0  0
 57 58  2  0  0  0
 57134  1  0  0  0
 58135  1  0  0  0
 59 60  1  0  0  0
 59 61  1  0  0  0
 59 62  1  0  0  0
 60136  1  0  0  0
 60137  1  0  0  0
 60138  1  0  0  0
 61139  1  0  0  0
 61140  1  0  0  0
 61141  1  0  0  0
 62142  1  0  0  0
 62143  1  0  0  0
 62144  1  0  0  0
 63 65  1  0  0  0
 63145  1  0  0  0
 63146  1  0  0  0
 63147  1  0  0  0
 64148  1  0  0  0
 65149  1  0  0  0
 68 81  1  0  0  0
 71 73  2  0  0  0
 71 76  1  0  0  0
 71150  1  0  0  0
 72 74  1  0  0  0
 72 76  2  0  0  0
 72151  1  0  0  0
 73 75  1  0  0  0
 73 84  1  0  0  0
 74 75  2  0  0  0
 74 85  1  0  0  0
 75 82  1  0  0  0
 76 87  1  0  0  0
 77 81  1  0  0  0
 77 86  1  0  0  0
 77 88  2  0  0  0
 78 79  1  0  0  0
 78 80  1  0  0  0
 78152  1  0  0  0
 78153  1  0  0  0
 79 81  1  0  0  0
 79154  1  0  0  0
 79155  1  0  0  0
 80 86  1  0  0  0
 80156  1  0  0  0
 80157  1  0  0  0
 81158  1  0  0  0
 82159  1  0  0  0
 82160  1  0  0  0
 82161  1  0  0  0
 83162  1  0  0  0
 83163  1  0  0  0
 83164  1  0  0  0
 83 85  1  0  0  0
 84 86  1  0  0  0
 84165  1  0  0  0
 84166  1  0  0  0
 85 89  1  0  0  0
 85 90  1  0  0  0
 87167  1  0  0  0
M  ISO  4   1 100  68 101  81 101  87 100
M  END
> <chiral flag>
0

> <version>
0

> <s_m_source_file>
/data/baiqing/PycharmProjects/Reinvent-master-3.2/result/LINK_invent/BTK/process_docking_weight1_custom_product_contain_oxygen_bond_distance_aromatic_linkinvent_7_9_3/rearranged_h_0038.sdf

> <i_m_source_file_index>
49

> <r_mmod_Potential_Energy-OPLS-2005>
243.467971801758

> <r_mmod_Stretch_Energy-OPLS-2005>
135.957702636719

> <r_mmod_Bend_Energy-OPLS-2005>
172.446929931641

> <r_mmod_Torsional_Energy-OPLS-2005>
259.704345703125

> <r_mmod_Improper_Torsional_Energy-OPLS-2005>
7.18820858001709

> <r_mmod_Van_der_Waal_Energy-OPLS-2005>
169.755859375

> <r_mmod_Electrostatic_Energy-OPLS-2005>
-356.93359375

> <r_mmod_Solvation_Energy-OPLS-2005>
-233.997955322266

> <b_mmod_Minimization_Converged-OPLS-2005>
0

> <r_mmod_RMS_Derivative-OPLS-2005>
5.26982593536377

$$$$
49
                    3D
 Structure written by MMmdl.
173182  0  0  1  0            999 V2000
  -30.5988  -14.6754   20.4891 C   0  0  0  0  0  0
  -30.4476  -12.4197   19.4394 C   0  0  0  0  0  0
  -29.5097  -12.5191   18.2157 C   0  0  0  0  0  0
  -28.0321  -12.3467   18.6263 C   0  0  0  0  0  0
  -27.6514  -13.2123   19.8573 C   0  0  2  0  0  0
  -28.7020  -13.0712   20.9815 C   0  0  0  0  0  0
  -25.2572  -13.8135   20.5703 C   0  0  0  0  0  0
  -24.1838  -13.0419   20.9201 C   0  0  0  0  0  0
  -24.6394  -11.6889   20.8736 C   0  0  0  0  0  0
  -23.9045  -10.4290   21.0401 C   0  0  0  0  0  0
  -24.3603   -9.4208   21.9178 C   0  0  0  0  0  0
  -23.6283   -8.2243   22.0761 C   0  0  0  0  0  0
  -22.4270   -8.0275   21.3546 C   0  0  0  0  0  0
  -21.9902   -9.0242   20.4627 C   0  0  0  0  0  0
  -22.7230  -10.2129   20.3030 C   0  0  0  0  0  0
  -21.6844   -6.0735   22.5284 C   0  0  0  0  0  0
  -21.4000   -6.5636   23.8219 C   0  0  0  0  0  0
  -21.3665   -5.6790   24.9183 C   0  0  0  0  0  0
  -21.6039   -4.3049   24.7235 C   0  0  0  0  0  0
  -21.8825   -3.8142   23.4360 C   0  0  0  0  0  0
  -21.9203   -4.6958   22.3414 C   0  0  0  0  0  0
  -22.7861  -13.5229   21.1843 C   0  0  0  0  0  0
  -22.1677   -4.2134   21.1002 F   0  0  0  0  0  0
  -21.5626   -3.4538   25.7754 F   0  0  0  0  0  0
  -30.0124  -13.4371   20.4188 N   0  0  0  0  0  0
  -26.2979  -12.9301   20.3277 N   0  0  0  0  0  0
  -25.9316  -11.6460   20.5728 N   0  0  0  0  0  0
  -22.0454  -12.8263   22.0381 N   0  0  0  0  0  0
  -25.4274  -15.1871   20.4175 N   0  0  0  0  0  0
  -31.7684  -14.8522   20.1323 O   0  0  0  0  0  0
  -21.6639   -6.8872   21.4238 O   0  0  0  0  0  0
  -22.3572  -14.5539   20.6663 O   0  0  0  0  0  0
  -24.6266  -31.8601   23.2039 C   0  0  0  0  0  0
  -25.9111  -32.4778   23.8369 C   0  0  1  0  0  0
  -27.2197  -27.2996   20.0929 C   0  0  0  0  0  0
  -25.5943  -33.8587   24.2305 N   0  0  0  0  0  0
  -23.4218  -30.4818   21.5474 C   0  0  2  0  0  0
  -24.8665  -28.9394   20.1052 C   0  0  0  0  0  0
  -22.7488  -29.4615   22.4959 C   0  0  0  0  0  0
  -18.0285  -28.1371   22.8503 C   0  0  0  0  0  0
  -24.1503  -36.7298   23.2622 C   0  0  0  0  0  0
  -25.9648  -30.7743   21.3860 C   0  0  0  0  0  0
  -26.0344  -29.4007   20.7269 C   0  0  0  0  0  0
  -27.2053  -28.5826   20.7307 C   0  0  0  0  0  0
  -26.0413  -26.9214   19.4195 C   0  0  0  0  0  0
  -24.8725  -27.7027   19.4471 C   0  0  0  0  0  0
  -23.6341  -29.8178   20.1617 C   0  0  0  0  0  0
  -25.4131  -36.3104   24.0315 C   0  0  1  0  0  0
  -20.5895  -28.3686   23.1293 C   0  0  2  0  0  0
  -20.6790  -26.9410   22.5419 C   0  0  0  0  0  0
  -19.5752  -26.6377   21.5232 C   0  0  0  0  0  0
  -18.1931  -26.7926   22.1632 C   0  0  0  0  0  0
  -19.1536  -28.8847   23.2903 C   0  0  0  0  0  0
  -18.9446  -30.1458   23.8908 C   0  0  0  0  0  0
  -17.6445  -30.6582   24.0561 C   0  0  0  0  0  0
  -25.9070  -34.9454   23.5125 C   0  0  0  0  0  0
  -16.5348  -29.9064   23.6328 C   0  0  0  0  0  0
  -16.7272  -28.6477   23.0359 C   0  0  0  0  0  0
  -26.4476  -31.6566   25.0739 C   0  0  0  0  0  0
  -25.3664  -31.3694   26.1423 C   0  0  0  0  0  0
  -27.0285  -30.2961   24.6207 C   0  0  0  0  0  0
  -27.6049  -32.4274   25.7518 C   0  0  0  0  0  0
  -27.5599  -37.1803   24.8453 C   0  0  0  0  0  0
  -21.4198  -29.3054   22.3710 N   0  0  0  0  0  0
  -26.4321  -37.3805   23.9385 N   0  0  0  0  0  0
  -24.6899  -31.0569   22.1020 N   0  0  0  0  0  0
  -23.4209  -28.8152   23.3042 O   0  0  0  0  0  0
  -28.3172  -26.4239   20.2023 O   0  0  0  0  0  0
  -26.5649  -34.8906   22.4699 O   0  0  0  0  0  0
  -23.5425  -32.1429   23.7331 O   0  0  0  0  0  0
  -28.8595  -19.2798   19.7356 C   0  0  0  0  0  0
  -30.5231  -17.9986   21.5630 C   0  0  0  0  0  0
  -29.4845  -20.1155   20.7000 C   0  0  0  0  0  0
  -29.0205  -17.8599   19.6969 C   0  0  0  0  0  0
  -30.3628  -19.4258   21.5993 C   0  0  0  0  0  0
  -29.8369  -17.1699   20.6387 C   0  0  0  0  0  0
  -28.1303  -23.7882   19.5616 C   0  0  0  0  0  0
  -26.8952  -23.3674   19.1816 C   0  0  0  0  0  0
  -30.9104  -24.5125   19.9640 C   0  0  0  0  0  0
  -30.1169  -25.4128   19.0220 C   0  0  0  0  0  0
  -30.6449  -23.0520   19.5893 C   0  0  0  0  0  0
  -28.6047  -25.2971   19.2737 C   0  0  2  0  0  0
  -28.2450  -17.0900   18.6428 C   0  0  0  0  0  0
  -31.1057  -20.1820   22.6880 C   0  0  0  0  0  0
  -25.0582  -21.8701   18.2214 C   0  0  0  0  0  0
  -29.0599  -21.6461   20.8839 C   0  0  0  0  0  0
  -26.3895  -21.9413   18.9866 C   0  0  0  0  0  0
  -29.7516  -15.7133   20.7983 N   0  0  0  0  0  0
  -29.2198  -22.6609   19.7556 N   0  3  1  0  0  0
  -31.4808  -12.5753   19.1235 H   0  0  0  0  0  0
  -30.4149  -11.4199   19.8779 H   0  0  0  0  0  0
  -29.7796  -11.7748   17.4654 H   0  0  0  0  0  0
  -29.6461  -13.4936   17.7420 H   0  0  0  0  0  0
  -27.8724  -11.2918   18.8494 H   0  0  0  0  0  0
  -27.3771  -12.5763   17.7843 H   0  0  0  0  0  0
  -27.6640  -14.2467   19.5157 H   0  0  0  0  0  0
  -28.7293  -12.0432   21.3505 H   0  0  0  0  0  0
  -28.4465  -13.6937   21.8403 H   0  0  0  0  0  0
  -25.2747   -9.5687   22.4759 H   0  0  0  0  0  0
  -23.9955   -7.4642   22.7517 H   0  0  0  0  0  0
  -21.0816   -8.8755   19.8954 H   0  0  0  0  0  0
  -22.3669  -10.9654   19.6125 H   0  0  0  0  0  0
  -21.1970   -7.6136   23.9735 H   0  0  0  0  0  0
  -21.1479   -6.0502   25.9087 H   0  0  0  0  0  0
  -22.0596   -2.7597   23.2868 H   0  0  0  0  0  0
  -22.3970  -11.9920   22.4846 H   0  0  0  0  0  0
  -21.1066  -13.1337   22.2503 H   0  0  0  0  0  0
  -24.6678  -15.8418   20.5666 H   0  0  0  0  0  0
  -26.2712  -15.6289   20.0826 H   0  0  0  0  0  0
  -26.7194  -32.5409   23.1123 H   0  0  0  0  0  0
  -25.0038  -33.9768   25.0403 H   0  0  0  0  0  0
  -22.7159  -31.3038   21.4067 H   0  0  0  0  0  0
  -23.3802  -35.9599   23.3286 H   0  0  0  0  0  0
  -24.3588  -36.8925   22.2038 H   0  0  0  0  0  0
  -23.7222  -37.6472   23.6661 H   0  0  0  0  0  0
  -26.1075  -31.5380   20.6212 H   0  0  0  0  0  0
  -26.8419  -30.8189   22.0202 H   0  0  0  0  0  0
  -28.0919  -28.9135   21.2529 H   0  0  0  0  0  0
  -25.9825  -26.0118   18.8623 H   0  0  0  0  0  0
  -23.9856  -27.3530   18.9365 H   0  0  0  0  0  0
  -23.7427  -30.5924   19.4017 H   0  0  0  0  0  0
  -22.7546  -29.2418   19.8699 H   0  0  0  0  0  0
  -25.1330  -36.1977   25.0829 H   0  0  0  0  0  0
  -20.9993  -28.3252   24.1402 H   0  0  0  0  0  0
  -20.5710  -26.2296   23.3622 H   0  0  0  0  0  0
  -21.6646  -26.7463   22.1181 H   0  0  0  0  0  0
  -19.6907  -25.6285   21.1257 H   0  0  0  0  0  0
  -19.6668  -27.3183   20.6774 H   0  0  0  0  0  0
  -17.4218  -26.6704   21.4028 H   0  0  0  0  0  0
  -18.0297  -26.0051   22.9010 H   0  0  0  0  0  0
  -19.7915  -30.7282   24.2274 H   0  0  0  0  0  0
  -17.4979  -31.6242   24.5183 H   0  0  0  0  0  0
  -15.5335  -30.2946   23.7655 H   0  0  0  0  0  0
  -15.8680  -28.0786   22.7070 H   0  0  0  0  0  0
  -24.5868  -30.7051   25.7690 H   0  0  0  0  0  0
  -24.8796  -32.2840   26.4825 H   0  0  0  0  0  0
  -25.7895  -30.8839   27.0223 H   0  0  0  0  0  0
  -26.2830  -29.6738   24.1242 H   0  0  0  0  0  0
  -27.3954  -29.7215   25.4722 H   0  0  0  0  0  0
  -27.8749  -30.4221   23.9450 H   0  0  0  0  0  0
  -27.2694  -33.3584   26.2121 H   0  0  0  0  0  0
  -28.3850  -32.6819   25.0327 H   0  0  0  0  0  0
  -28.0744  -31.8367   26.5402 H   0  0  0  0  0  0
  -28.2621  -38.0106   24.7570 H   0  0  0  0  0  0
  -28.1113  -36.2647   24.6253 H   0  0  0  0  0  0
  -27.2308  -37.1404   25.8853 H   0  0  0  0  0  0
  -20.9384  -29.8733   21.6875 H   0  0  0  0  0  0
  -26.0214  -38.2891   24.1376 H   0  0  0  0  0  0
  -28.1802  -19.7194   19.0262 H   0  0  0  0  0  0
  -31.1350  -17.5224   22.3159 H   0  0  0  0  0  0
  -26.1675  -24.0867   18.8646 H   0  0  0  0  0  0
  -30.6405  -24.7063   21.0045 H   0  0  0  0  0  0
  -31.9748  -24.7251   19.8688 H   0  0  0  0  0  0
  -30.3474  -25.1493   17.9877 H   0  0  0  0  0  0
  -30.4431  -26.4476   19.1345 H   0  0  0  0  0  0
  -31.3086  -22.3961   20.1563 H   0  0  0  0  0  0
  -30.9131  -22.8923   18.5446 H   0  0  0  0  0  0
  -28.1418  -25.5668   18.3238 H   0  0  0  0  0  0
  -28.1188  -17.6914   17.7433 H   0  0  0  0  0  0
  -27.2548  -16.8206   19.0101 H   0  0  0  0  0  0
  -28.7703  -16.1812   18.3484 H   0  0  0  0  0  0
  -31.7799  -19.5257   23.2418 H   0  0  0  0  0  0
  -30.4088  -20.6113   23.4082 H   0  0  0  0  0  0
  -31.7044  -20.9859   22.2594 H   0  0  0  0  0  0
  -24.7255  -20.8344   18.1237 H   0  0  0  0  0  0
  -25.1585  -22.2745   17.2141 H   0  0  0  0  0  0
  -24.2627  -22.4201   18.7262 H   0  0  0  0  0  0
  -29.5648  -22.0708   21.7513 H   0  0  0  0  0  0
  -28.0215  -21.6347   21.2048 H   0  0  0  0  0  0
  -26.2762  -21.4326   19.9421 H   0  0  0  0  0  0
  -27.1178  -21.3963   18.3935 H   0  0  0  0  0  0
  -28.8230  -15.3825   21.0102 H   0  0  0  0  0  0
  -29.0920  -22.0613   18.9551 H   0  0  0  0  0  0
  1 25  1  0  0  0
  1 30  2  0  0  0
  1 88  1  0  0  0
  2  3  1  0  0  0
  2 25  1  0  0  0
  2 90  1  0  0  0
  2 91  1  0  0  0
  3  4  1  0  0  0
  3 92  1  0  0  0
  3 93  1  0  0  0
  4  5  1  0  0  0
  4 94  1  0  0  0
  4 95  1  0  0  0
  5  6  1  0  0  0
  5 26  1  0  0  0
  5 96  1  0  0  0
  6 25  1  0  0  0
  6 97  1  0  0  0
  6 98  1  0  0  0
  7  8  2  0  0  0
  7 26  1  0  0  0
  7 29  1  0  0  0
  8  9  1  0  0  0
  8 22  1  0  0  0
  9 10  1  0  0  0
  9 27  2  0  0  0
 10 11  2  0  0  0
 10 15  1  0  0  0
 11 12  1  0  0  0
 11 99  1  0  0  0
 12 13  2  0  0  0
 12100  1  0  0  0
 13 14  1  0  0  0
 13 31  1  0  0  0
 14 15  2  0  0  0
 14101  1  0  0  0
 15102  1  0  0  0
 16 17  2  0  0  0
 16 21  1  0  0  0
 16 31  1  0  0  0
 17 18  1  0  0  0
 17103  1  0  0  0
 18 19  2  0  0  0
 18104  1  0  0  0
 19 20  1  0  0  0
 19 24  1  0  0  0
 20 21  2  0  0  0
 20105  1  0  0  0
 21 23  1  0  0  0
 22 28  1  0  0  0
 22 32  2  0  0  0
 26 27  1  0  0  0
 28106  1  0  0  0
 28107  1  0  0  0
 29108  1  0  0  0
 29109  1  0  0  0
 33 34  1  0  0  0
 33 66  1  0  0  0
 33 70  2  0  0  0
 34 36  1  0  0  0
 34 59  1  0  0  0
 34110  1  0  0  0
 35 44  2  0  0  0
 35 45  1  0  0  0
 35 68  1  0  0  0
 36 56  1  0  0  0
 36111  1  0  0  0
 37 39  1  0  0  0
 37 47  1  0  0  0
 37 66  1  0  0  0
 37112  1  0  0  0
 38 43  2  0  0  0
 38 46  1  0  0  0
 38 47  1  0  0  0
 39 64  1  0  0  0
 39 67  2  0  0  0
 40 52  1  0  0  0
 40 53  2  0  0  0
 40 58  1  0  0  0
 41113  1  0  0  0
 41114  1  0  0  0
 41115  1  0  0  0
 41 48  1  0  0  0
 42 43  1  0  0  0
 42 66  1  0  0  0
 42116  1  0  0  0
 42117  1  0  0  0
 43 44  1  0  0  0
 44118  1  0  0  0
 45 46  2  0  0  0
 45119  1  0  0  0
 46120  1  0  0  0
 47121  1  0  0  0
 47122  1  0  0  0
 48 56  1  0  0  0
 48 65  1  0  0  0
 48123  1  0  0  0
 49 50  1  0  0  0
 49 53  1  0  0  0
 49 64  1  0  0  0
 49124  1  0  0  0
 50 51  1  0  0  0
 50125  1  0  0  0
 50126  1  0  0  0
 51 52  1  0  0  0
 51127  1  0  0  0
 51128  1  0  0  0
 52129  1  0  0  0
 52130  1  0  0  0
 53 54  1  0  0  0
 54 55  2  0  0  0
 54131  1  0  0  0
 55 57  1  0  0  0
 55132  1  0  0  0
 56 69  2  0  0  0
 57 58  2  0  0  0
 57133  1  0  0  0
 58134  1  0  0  0
 59 60  1  0  0  0
 59 61  1  0  0  0
 59 62  1  0  0  0
 60135  1  0  0  0
 60136  1  0  0  0
 60137  1  0  0  0
 61138  1  0  0  0
 61139  1  0  0  0
 61140  1  0  0  0
 62141  1  0  0  0
 62142  1  0  0  0
 62143  1  0  0  0
 63 65  1  0  0  0
 63144  1  0  0  0
 63145  1  0  0  0
 63146  1  0  0  0
 64147  1  0  0  0
 65148  1  0  0  0
 68 82  1  0  0  0
 71 73  2  0  0  0
 71 74  1  0  0  0
 71149  1  0  0  0
 72 75  2  0  0  0
 72 76  1  0  0  0
 72150  1  0  0  0
 73 75  1  0  0  0
 73 86  1  0  0  0
 74 76  2  0  0  0
 74 83  1  0  0  0
 75 84  1  0  0  0
 76 88  1  0  0  0
 77 78  2  0  0  0
 77 82  1  0  0  0
 77 89  1  0  0  0
 78 87  1  0  0  0
 78151  1  0  0  0
 79 80  1  0  0  0
 79 81  1  0  0  0
 79152  1  0  0  0
 79153  1  0  0  0
 80 82  1  0  0  0
 80154  1  0  0  0
 80155  1  0  0  0
 81 89  1  0  0  0
 81156  1  0  0  0
 81157  1  0  0  0
 82158  1  0  0  0
 83159  1  0  0  0
 83160  1  0  0  0
 83161  1  0  0  0
 84162  1  0  0  0
 84163  1  0  0  0
 84164  1  0  0  0
 85 87  1  0  0  0
 85165  1  0  0  0
 85166  1  0  0  0
 85167  1  0  0  0
 86168  1  0  0  0
 86169  1  0  0  0
 86 89  1  0  0  0
 87170  1  0  0  0
 87171  1  0  0  0
 88172  1  0  0  0
 89173  1  0  0  0
M  CHG  1  89   1
M  ISO  4   1 100  68 101  82 101  88 100
M  END
> <chiral flag>
0

> <version>
0

> <s_m_source_file>
/data/baiqing/PycharmProjects/Reinvent-master-3.2/result/LINK_invent/BTK/process_docking_weight1_custom_product_contain_oxygen_bond_distance_aromatic_linkinvent_7_9_3/rearranged_h_0038.sdf

> <i_m_source_file_index>
50

> <r_mmod_Potential_Energy-OPLS-2005>
81.2221908569336

> <r_mmod_Stretch_Energy-OPLS-2005>
109.61434173584

> <r_mmod_Bend_Energy-OPLS-2005>
194.698150634766

> <r_mmod_Torsional_Energy-OPLS-2005>
279.431610107422

> <r_mmod_Improper_Torsional_Energy-OPLS-2005>
8.87398433685303

> <r_mmod_Van_der_Waal_Energy-OPLS-2005>
141.652420043945

> <r_mmod_Electrostatic_Energy-OPLS-2005>
-291.650726318359

> <r_mmod_Solvation_Energy-OPLS-2005>
-424.701354980469

> <b_mmod_Minimization_Converged-OPLS-2005>
0

> <r_mmod_RMS_Derivative-OPLS-2005>
3.50206303596497

$$$$
50
                    3D
 Structure written by MMmdl.
165173  0  0  1  0            999 V2000
  -31.2515  -14.2176   19.5028 C   0  0  0  0  0  0
  -29.5652  -14.2626   20.5212 C   0  0  0  0  0  0
  -28.5493  -14.4439   19.3054 C   0  0  0  0  0  0
  -27.8039  -13.3221   18.5859 C   0  0  0  0  0  0
  -27.7016  -12.6094   19.8059 C   0  0  2  0  0  0
  -29.2203  -12.2301   20.1928 C   0  0  0  0  0  0
  -25.3365  -13.6477   20.5615 C   0  0  0  0  0  0
  -24.2070  -12.9665   20.9188 C   0  0  0  0  0  0
  -24.5818  -11.5795   20.8239 C   0  0  0  0  0  0
  -23.8433  -10.3587   21.0563 C   0  0  0  0  0  0
  -24.2972   -9.3612   21.9612 C   0  0  0  0  0  0
  -23.5574   -8.1621   22.1027 C   0  0  0  0  0  0
  -22.3664   -7.9678   21.3640 C   0  0  0  0  0  0
  -21.9325   -8.9635   20.4907 C   0  0  0  0  0  0
  -22.6617  -10.1499   20.3219 C   0  0  0  0  0  0
  -21.6578   -6.0214   22.5274 C   0  0  0  0  0  0
  -21.3921   -6.5398   23.8195 C   0  0  0  0  0  0
  -21.3584   -5.6812   24.9280 C   0  0  0  0  0  0
  -21.5894   -4.2821   24.7526 C   0  0  0  0  0  0
  -21.8791   -3.7904   23.4720 C   0  0  0  0  0  0
  -21.9101   -4.6592   22.3610 C   0  0  0  0  0  0
  -22.8175  -13.5079   21.2166 C   0  0  0  0  0  0
  -22.1481   -4.1661   21.1256 F   0  0  0  0  0  0
  -21.5662   -3.4522   25.8133 F   0  0  0  0  0  0
  -30.3661  -13.3121   20.1049 N   0  0  0  0  0  0
  -26.3369  -12.6320   20.3542 N   0  0  0  0  0  0
  -25.8580  -11.4242   20.5812 N   0  0  0  0  0  0
  -22.0584  -12.7918   22.0551 N   0  0  0  0  0  0
  -25.6011  -15.0042   20.3415 N   0  0  0  0  0  0
  -32.2440  -14.4602   20.1825 O   0  0  0  0  0  0
  -21.6124   -6.8218   21.4096 O   0  0  0  0  0  0
  -22.3757  -14.5306   20.6761 O   0  0  0  0  0  0
  -24.6332  -31.8734   23.2005 C   0  0  0  0  0  0
  -25.9198  -32.4928   23.8369 C   0  0  1  0  0  0
  -27.1587  -27.2950   20.0329 C   0  0  0  0  0  0
  -25.5998  -33.8692   24.2376 N   0  0  0  0  0  0
  -23.4137  -30.5117   21.5576 C   0  0  2  0  0  0
  -24.8181  -28.9573   20.1179 C   0  0  0  0  0  0
  -22.7548  -29.4702   22.4864 C   0  0  0  0  0  0
  -18.0347  -28.1416   22.8491 C   0  0  0  0  0  0
  -24.1492  -36.7347   23.2632 C   0  0  0  0  0  0
  -25.9731  -30.7649   21.3776 C   0  0  0  0  0  0
  -26.0142  -29.4012   20.7077 C   0  0  0  0  0  0
  -27.1909  -28.5978   20.6505 C   0  0  0  0  0  0
  -25.9187  -26.9209   19.4486 C   0  0  0  0  0  0
  -24.7693  -27.7114   19.5042 C   0  0  0  0  0  0
  -23.6115  -29.8860   20.1714 C   0  0  0  0  0  0
  -25.4093  -36.3180   24.0355 C   0  0  1  0  0  0
  -20.6001  -28.3735   23.1241 C   0  0  2  0  0  0
  -20.6818  -26.9464   22.5333 C   0  0  0  0  0  0
  -19.5695  -26.6414   21.5217 C   0  0  0  0  0  0
  -18.1934  -26.7981   22.1696 C   0  0  0  0  0  0
  -19.1636  -28.8803   23.2902 C   0  0  0  0  0  0
  -18.9521  -30.1415   23.8871 C   0  0  0  0  0  0
  -17.6504  -30.6580   24.0575 C   0  0  0  0  0  0
  -25.9062  -34.9577   23.5199 C   0  0  0  0  0  0
  -16.5380  -29.9067   23.6375 C   0  0  0  0  0  0
  -16.7324  -28.6512   23.0330 C   0  0  0  0  0  0
  -26.4475  -31.6618   25.0691 C   0  0  0  0  0  0
  -25.3672  -31.3662   26.1382 C   0  0  0  0  0  0
  -27.0359  -30.3094   24.6101 C   0  0  0  0  0  0
  -27.6135  -32.4242   25.7433 C   0  0  0  0  0  0
  -27.5641  -37.1851   24.8495 C   0  0  0  0  0  0
  -21.4282  -29.3221   22.3690 N   0  0  0  0  0  0
  -26.4329  -37.3818   23.9457 N   0  0  0  0  0  0
  -24.7000  -31.0760   22.0970 N   0  0  0  0  0  0
  -23.4262  -28.8165   23.2947 O   0  0  0  0  0  0
  -28.2547  -26.4124   19.9686 O   0  0  0  0  0  0
  -26.5583  -34.9009   22.4787 O   0  0  0  0  0  0
  -23.5612  -32.1459   23.7367 O   0  0  0  0  0  0
  -26.8351  -18.4436   16.7514 C   0  0  0  0  0  0
  -28.9012  -17.6982   17.8167 C   0  0  0  0  0  0
  -27.9035  -18.7140   17.6633 C   0  0  0  0  0  0
  -26.7761  -17.2507   15.9992 C   0  0  0  0  0  0
  -28.9736  -16.5195   17.0112 C   0  0  0  0  0  0
  -27.8377  -16.3135   16.1338 C   0  0  0  0  0  0
  -25.5717  -17.0346   15.0307 C   0  0  0  0  0  0
  -27.6406  -14.9875   15.3897 C   0  0  0  0  0  0
  -30.1519  -15.4021   17.1838 C   0  0  0  0  0  0
  -27.8962  -20.0566   18.5237 C   0  0  0  0  0  0
  -28.8702  -23.8124   19.1128 C   0  0  0  0  0  0
  -27.9800  -22.6339   18.5057 C   0  0  0  0  0  0
  -27.9767  -25.1057   19.3101 C   0  0  0  0  0  0
  -31.0017  -15.2083   18.4584 N   0  0  0  0  0  0
  -28.5728  -21.3142   18.0062 N   0  3  0  0  0  0
  -29.2525  -14.0624   21.5517 H   0  0  0  0  0  0
  -29.9158  -15.2564   20.9088 H   0  0  0  0  0  0
  -28.5441  -15.4060   18.8973 H   0  0  0  0  0  0
  -27.8923  -14.9770   19.9777 H   0  0  0  0  0  0
  -28.4268  -12.8547   17.8314 H   0  0  0  0  0  0
  -26.8061  -13.5899   18.1650 H   0  0  0  0  0  0
  -27.7229  -13.0342   20.7828 H   0  0  0  0  0  0
  -29.4894  -11.4999   19.4367 H   0  0  0  0  0  0
  -29.2626  -11.7212   21.1329 H   0  0  0  0  0  0
  -25.2144   -9.4685   22.5439 H   0  0  0  0  0  0
  -23.9111   -7.3695   22.7588 H   0  0  0  0  0  0
  -21.0339   -8.8198   19.9085 H   0  0  0  0  0  0
  -22.3413  -10.9099   19.6198 H   0  0  0  0  0  0
  -21.1829   -7.5976   23.9567 H   0  0  0  0  0  0
  -21.1568   -6.0665   25.9197 H   0  0  0  0  0  0
  -22.0696   -2.7353   23.3580 H   0  0  0  0  0  0
  -22.4100  -11.9174   22.4263 H   0  0  0  0  0  0
  -21.1646  -13.1427   22.3761 H   0  0  0  0  0  0
  -24.9339  -15.7719   20.2809 H   0  0  0  0  0  0
  -26.5191  -15.1462   19.8891 H   0  0  0  0  0  0
  -26.7190  -32.5412   23.1042 H   0  0  0  0  0  0
  -25.0255  -33.9724   25.0562 H   0  0  0  0  0  0
  -22.7300  -31.3517   21.4546 H   0  0  0  0  0  0
  -23.3823  -35.9639   23.3301 H   0  0  0  0  0  0
  -24.3563  -36.8929   22.2062 H   0  0  0  0  0  0
  -23.7111  -37.6538   23.6554 H   0  0  0  0  0  0
  -26.1773  -31.5294   20.6321 H   0  0  0  0  0  0
  -26.8408  -30.7596   22.0259 H   0  0  0  0  0  0
  -28.1297  -28.9329   21.0865 H   0  0  0  0  0  0
  -25.7779  -26.0121   18.8955 H   0  0  0  0  0  0
  -23.8675  -27.3289   19.0546 H   0  0  0  0  0  0
  -23.7664  -30.6854   19.4589 H   0  0  0  0  0  0
  -22.7024  -29.3794   19.8449 H   0  0  0  0  0  0
  -25.1263  -36.2223   25.0849 H   0  0  0  0  0  0
  -21.0148  -28.3337   24.1333 H   0  0  0  0  0  0
  -20.5874  -26.2357   23.3540 H   0  0  0  0  0  0
  -21.6685  -26.7541   22.1060 H   0  0  0  0  0  0
  -19.6912  -25.6318   21.1213 H   0  0  0  0  0  0
  -19.6649  -27.3262   20.6780 H   0  0  0  0  0  0
  -17.4262  -26.6747   21.4110 H   0  0  0  0  0  0
  -18.0346  -26.0099   22.9056 H   0  0  0  0  0  0
  -19.7919  -30.7319   24.2300 H   0  0  0  0  0  0
  -17.4961  -31.6298   24.5203 H   0  0  0  0  0  0
  -15.5338  -30.2947   23.7575 H   0  0  0  0  0  0
  -15.8746  -28.0758   22.7025 H   0  0  0  0  0  0
  -24.5841  -30.7097   25.7598 H   0  0  0  0  0  0
  -24.8790  -32.2801   26.4934 H   0  0  0  0  0  0
  -25.7873  -30.8684   27.0179 H   0  0  0  0  0  0
  -26.2967  -29.6936   24.1017 H   0  0  0  0  0  0
  -27.4130  -29.7242   25.4540 H   0  0  0  0  0  0
  -27.8829  -30.4612   23.9357 H   0  0  0  0  0  0
  -27.2946  -33.3593   26.2124 H   0  0  0  0  0  0
  -28.3882  -32.6772   25.0139 H   0  0  0  0  0  0
  -28.0954  -31.8264   26.5259 H   0  0  0  0  0  0
  -28.2724  -38.0092   24.7617 H   0  0  0  0  0  0
  -28.1095  -36.2710   24.6305 H   0  0  0  0  0  0
  -27.2371  -37.1465   25.8869 H   0  0  0  0  0  0
  -20.9343  -29.8964   21.6920 H   0  0  0  0  0  0
  -26.0388  -38.3018   24.1280 H   0  0  0  0  0  0
  -25.9507  -19.0844   16.7003 H   0  0  0  0  0  0
  -29.6699  -17.8573   18.5698 H   0  0  0  0  0  0
  -25.3317  -17.9603   14.5199 H   0  0  0  0  0  0
  -24.6288  -16.6636   15.4630 H   0  0  0  0  0  0
  -25.8225  -16.4016   14.1818 H   0  0  0  0  0  0
  -27.6253  -15.0973   14.2981 H   0  0  0  0  0  0
  -26.6705  -14.5513   15.6451 H   0  0  0  0  0  0
  -28.3536  -14.1966   15.5975 H   0  0  0  0  0  0
  -30.7979  -15.6139   16.3164 H   0  0  0  0  0  0
  -29.7222  -14.3962   17.0222 H   0  0  0  0  0  0
  -28.3502  -19.8534   19.5175 H   0  0  0  0  0  0
  -26.8609  -20.2651   18.7770 H   0  0  0  0  0  0
  -29.7189  -24.0996   18.5286 H   0  0  0  0  0  0
  -29.2863  -23.5349   20.0847 H   0  0  0  0  0  0
  -27.3538  -23.0226   17.7068 H   0  0  0  0  0  0
  -27.2344  -22.4647   19.2781 H   0  0  0  0  0  0
  -27.1181  -24.7117   19.8621 H   0  0  0  0  0  0
  -27.6671  -25.3985   18.3020 H   0  0  0  0  0  0
  -31.6738  -15.9817   18.4989 H   0  0  0  0  0  0
  -28.4691  -21.3007   17.0082 H   0  0  0  0  0  0
  -29.5515  -21.3194   18.2400 H   0  0  0  0  0  0
  1 25  1  0  0  0
  1 30  2  0  0  0
  1 84  1  0  0  0
  2  3  1  0  0  0
  2 25  1  0  0  0
  2 86  1  0  0  0
  2 87  1  0  0  0
  3  4  1  0  0  0
  3 88  1  0  0  0
  3 89  1  0  0  0
  4  5  1  0  0  0
  4 90  1  0  0  0
  4 91  1  0  0  0
  5  6  1  0  0  0
  5 26  1  0  0  0
  5 92  1  0  0  0
  6 25  1  0  0  0
  6 93  1  0  0  0
  6 94  1  0  0  0
  7  8  2  0  0  0
  7 26  1  0  0  0
  7 29  1  0  0  0
  8  9  1  0  0  0
  8 22  1  0  0  0
  9 10  1  0  0  0
  9 27  2  0  0  0
 10 11  2  0  0  0
 10 15  1  0  0  0
 11 12  1  0  0  0
 11 95  1  0  0  0
 12 13  2  0  0  0
 12 96  1  0  0  0
 13 14  1  0  0  0
 13 31  1  0  0  0
 14 15  2  0  0  0
 14 97  1  0  0  0
 15 98  1  0  0  0
 16 17  2  0  0  0
 16 21  1  0  0  0
 16 31  1  0  0  0
 17 18  1  0  0  0
 17 99  1  0  0  0
 18 19  2  0  0  0
 18100  1  0  0  0
 19 20  1  0  0  0
 19 24  1  0  0  0
 20 21  2  0  0  0
 20101  1  0  0  0
 21 23  1  0  0  0
 22 28  1  0  0  0
 22 32  2  0  0  0
 26 27  1  0  0  0
 28102  1  0  0  0
 28103  1  0  0  0
 29104  1  0  0  0
 29105  1  0  0  0
 33 34  1  0  0  0
 33 66  1  0  0  0
 33 70  2  0  0  0
 34 36  1  0  0  0
 34 59  1  0  0  0
 34106  1  0  0  0
 35 44  2  0  0  0
 35 45  1  0  0  0
 35 68  1  0  0  0
 36 56  1  0  0  0
 36107  1  0  0  0
 37 39  1  0  0  0
 37 47  1  0  0  0
 37 66  1  0  0  0
 37108  1  0  0  0
 38 43  2  0  0  0
 38 46  1  0  0  0
 38 47  1  0  0  0
 39 64  1  0  0  0
 39 67  2  0  0  0
 40 52  1  0  0  0
 40 53  2  0  0  0
 40 58  1  0  0  0
 41109  1  0  0  0
 41110  1  0  0  0
 41111  1  0  0  0
 41 48  1  0  0  0
 42 43  1  0  0  0
 42 66  1  0  0  0
 42112  1  0  0  0
 42113  1  0  0  0
 43 44  1  0  0  0
 44114  1  0  0  0
 45 46  2  0  0  0
 45115  1  0  0  0
 46116  1  0  0  0
 47117  1  0  0  0
 47118  1  0  0  0
 48 56  1  0  0  0
 48 65  1  0  0  0
 48119  1  0  0  0
 49 50  1  0  0  0
 49 53  1  0  0  0
 49 64  1  0  0  0
 49120  1  0  0  0
 50 51  1  0  0  0
 50121  1  0  0  0
 50122  1  0  0  0
 51 52  1  0  0  0
 51123  1  0  0  0
 51124  1  0  0  0
 52125  1  0  0  0
 52126  1  0  0  0
 53 54  1  0  0  0
 54 55  2  0  0  0
 54127  1  0  0  0
 55 57  1  0  0  0
 55128  1  0  0  0
 56 69  2  0  0  0
 57 58  2  0  0  0
 57129  1  0  0  0
 58130  1  0  0  0
 59 60  1  0  0  0
 59 61  1  0  0  0
 59 62  1  0  0  0
 60131  1  0  0  0
 60132  1  0  0  0
 60133  1  0  0  0
 61134  1  0  0  0
 61135  1  0  0  0
 61136  1  0  0  0
 62137  1  0  0  0
 62138  1  0  0  0
 62139  1  0  0  0
 63 65  1  0  0  0
 63140  1  0  0  0
 63141  1  0  0  0
 63142  1  0  0  0
 64143  1  0  0  0
 65144  1  0  0  0
 68 83  1  0  0  0
 71 73  2  0  0  0
 71 74  1  0  0  0
 71145  1  0  0  0
 72 73  1  0  0  0
 72 75  2  0  0  0
 72146  1  0  0  0
 73 80  1  0  0  0
 74 76  2  0  0  0
 74 77  1  0  0  0
 75 76  1  0  0  0
 75 79  1  0  0  0
 76 78  1  0  0  0
 77147  1  0  0  0
 77148  1  0  0  0
 77149  1  0  0  0
 78150  1  0  0  0
 78151  1  0  0  0
 78152  1  0  0  0
 79 84  1  0  0  0
 79153  1  0  0  0
 79154  1  0  0  0
 80 85  1  0  0  0
 80155  1  0  0  0
 80156  1  0  0  0
 81 82  1  0  0  0
 81 83  1  0  0  0
 81157  1  0  0  0
 81158  1  0  0  0
 82 85  1  0  0  0
 82159  1  0  0  0
 82160  1  0  0  0
 83161  1  0  0  0
 83162  1  0  0  0
 84163  1  0  0  0
 85164  1  0  0  0
 85165  1  0  0  0
M  CHG  1  85   1
M  ISO  4   1 100  68 101  83 101  84 100
M  END
> <chiral flag>
0

> <version>
0

> <s_m_source_file>
/data/baiqing/PycharmProjects/Reinvent-master-3.2/result/LINK_invent/BTK/process_docking_weight1_custom_product_contain_oxygen_bond_distance_aromatic_linkinvent_7_9_3/rearranged_h_0038.sdf

> <i_m_source_file_index>
51

> <r_mmod_Potential_Energy-OPLS-2005>
2764.38940429688

> <r_mmod_Stretch_Energy-OPLS-2005>
264.123413085938

> <r_mmod_Bend_Energy-OPLS-2005>
884.865600585938

> <r_mmod_Torsional_Energy-OPLS-2005>
316.654479980469

> <r_mmod_Improper_Torsional_Energy-OPLS-2005>
24.7894840240479

> <r_mmod_Van_der_Waal_Energy-OPLS-2005>
377.229248046875

> <r_mmod_Electrostatic_Energy-OPLS-2005>
-355.034362792969

> <r_mmod_Solvation_Energy-OPLS-2005>
-495.981506347656

> <b_mmod_Minimization_Converged-OPLS-2005>
0

> <r_mmod_RMS_Derivative-OPLS-2005>
46.7294082641602

$$$$
51
                    3D
 Structure written by MMmdl.
162171  0  0  1  0            999 V2000
  -30.5631  -14.7958   20.4751 C   0  0  0  0  0  0
  -30.4443  -12.4861   19.4986 C   0  0  0  0  0  0
  -29.5247  -12.5357   18.2549 C   0  0  0  0  0  0
  -28.0484  -12.3482   18.6554 C   0  0  0  0  0  0
  -27.6488  -13.2361   19.8644 C   0  0  2  0  0  0
  -28.6865  -13.1534   21.0078 C   0  0  0  0  0  0
  -25.2518  -13.8196   20.5698 C   0  0  0  0  0  0
  -24.1799  -13.0443   20.9192 C   0  0  0  0  0  0
  -24.6385  -11.6920   20.8713 C   0  0  0  0  0  0
  -23.9055  -10.4294   21.0372 C   0  0  0  0  0  0
  -24.3607   -9.4221   21.9160 C   0  0  0  0  0  0
  -23.6289   -8.2255   22.0744 C   0  0  0  0  0  0
  -22.4267   -8.0278   21.3542 C   0  0  0  0  0  0
  -21.9892   -9.0244   20.4644 C   0  0  0  0  0  0
  -22.7216  -10.2121   20.3038 C   0  0  0  0  0  0
  -21.6851   -6.0729   22.5275 C   0  0  0  0  0  0
  -21.4020   -6.5632   23.8208 C   0  0  0  0  0  0
  -21.3662   -5.6790   24.9170 C   0  0  0  0  0  0
  -21.6040   -4.3049   24.7224 C   0  0  0  0  0  0
  -21.8817   -3.8142   23.4344 C   0  0  0  0  0  0
  -21.9189   -4.6959   22.3400 C   0  0  0  0  0  0
  -22.7816  -13.5221   21.1861 C   0  0  0  0  0  0
  -22.1662   -4.2148   21.0980 F   0  0  0  0  0  0
  -21.5630   -3.4531   25.7734 F   0  0  0  0  0  0
  -29.9954  -13.5335   20.4545 N   0  0  0  0  0  0
  -26.2964  -12.9415   20.3311 N   0  0  0  0  0  0
  -25.9327  -11.6554   20.5730 N   0  0  0  0  0  0
  -22.0456  -12.8213   22.0419 N   0  0  0  0  0  0
  -25.4220  -15.1913   20.4114 N   0  0  0  0  0  0
  -31.6825  -14.9626   19.9831 O   0  0  0  0  0  0
  -21.6650   -6.8864   21.4228 O   0  0  0  0  0  0
  -22.3490  -14.5523   20.6713 O   0  0  0  0  0  0
  -24.6328  -31.8489   23.1900 C   0  0  0  0  0  0
  -25.9139  -32.4712   23.8264 C   0  0  1  0  0  0
  -27.2384  -27.2335   20.1346 C   0  0  0  0  0  0
  -25.5916  -33.8513   24.2190 N   0  0  0  0  0  0
  -23.4316  -30.4654   21.5328 C   0  0  2  0  0  0
  -24.8833  -28.8994   20.1033 C   0  0  0  0  0  0
  -22.7501  -29.4564   22.4886 C   0  0  0  0  0  0
  -18.0290  -28.1390   22.8484 C   0  0  0  0  0  0
  -24.1489  -36.7269   23.2640 C   0  0  0  0  0  0
  -25.9758  -30.7534   21.3714 C   0  0  0  0  0  0
  -26.0494  -29.3710   20.7160 C   0  0  0  0  0  0
  -27.2213  -28.5484   20.7216 C   0  0  0  0  0  0
  -26.0511  -26.8273   19.4901 C   0  0  0  0  0  0
  -24.8910  -27.6375   19.4785 C   0  0  0  0  0  0
  -23.6501  -29.7852   20.1519 C   0  0  0  0  0  0
  -25.4117  -36.3037   24.0312 C   0  0  1  0  0  0
  -20.5892  -28.3700   23.1266 C   0  0  2  0  0  0
  -20.6768  -26.9410   22.5418 C   0  0  0  0  0  0
  -19.5748  -26.6383   21.5211 C   0  0  0  0  0  0
  -18.1928  -26.7931   22.1622 C   0  0  0  0  0  0
  -19.1542  -28.8860   23.2867 C   0  0  0  0  0  0
  -18.9466  -30.1460   23.8893 C   0  0  0  0  0  0
  -17.6467  -30.6591   24.0561 C   0  0  0  0  0  0
  -25.9059  -34.9415   23.5058 C   0  0  0  0  0  0
  -16.5359  -29.9089   23.6332 C   0  0  0  0  0  0
  -16.7276  -28.6503   23.0359 C   0  0  0  0  0  0
  -26.4497  -31.6561   25.0680 C   0  0  0  0  0  0
  -25.3715  -31.3738   26.1405 C   0  0  0  0  0  0
  -27.0351  -30.2969   24.6205 C   0  0  0  0  0  0
  -27.6033  -32.4322   25.7472 C   0  0  0  0  0  0
  -27.5566  -37.1788   24.8461 C   0  0  0  0  0  0
  -21.4206  -29.3031   22.3637 N   0  0  0  0  0  0
  -26.4283  -37.3745   23.9400 N   0  0  0  0  0  0
  -24.6991  -31.0425   22.0878 N   0  0  0  0  0  0
  -23.4185  -28.8134   23.3020 O   0  0  0  0  0  0
  -28.3524  -26.3648   20.2689 O   0  0  0  0  0  0
  -26.5657  -34.8907   22.4645 O   0  0  0  0  0  0
  -23.5473  -32.1325   23.7182 O   0  0  0  0  0  0
  -31.2921  -20.0506   18.9544 C   0  0  0  0  0  0
  -30.8688  -18.7813   19.3951 C   0  0  0  0  0  0
  -30.6194  -21.2310   19.3314 C   0  0  0  0  0  0
  -29.7417  -18.6337   20.2235 C   0  0  0  0  0  0
  -29.0786  -19.8869   20.6429 C   0  0  0  0  0  0
  -29.5066  -21.2263   20.2013 C   0  0  0  0  0  0
  -30.8113  -24.3088   20.7069 C   0  0  0  0  0  0
  -30.1020  -24.9053   19.4610 C   0  0  0  0  0  0
  -29.9948  -23.2587   21.5056 C   0  0  0  0  0  0
  -28.0538  -23.5339   20.0619 C   0  0  0  0  0  0
  -28.5738  -25.0236   19.6031 C   0  0  1  0  0  0
  -27.8978  -19.7876   21.5937 C   0  0  0  0  0  0
  -29.1798  -17.1295   20.3745 C   0  0  0  0  0  0
  -29.0370  -22.5369   20.6723 N   0  0  0  0  0  0
  -29.8227  -15.8616   20.9821 N   0  0  0  0  0  0
  -31.4855  -12.6201   19.1994 H   0  0  0  0  0  0
  -30.4017  -11.5030   19.9683 H   0  0  0  0  0  0
  -29.8217  -11.7729   17.5340 H   0  0  0  0  0  0
  -29.6459  -13.4946   17.7484 H   0  0  0  0  0  0
  -27.9011  -11.2957   18.9017 H   0  0  0  0  0  0
  -27.3963  -12.5541   17.8058 H   0  0  0  0  0  0
  -27.6499  -14.2630   19.4970 H   0  0  0  0  0  0
  -28.7228  -12.1450   21.4247 H   0  0  0  0  0  0
  -28.4004  -13.8075   21.8322 H   0  0  0  0  0  0
  -25.2750   -9.5721   22.4733 H   0  0  0  0  0  0
  -24.0011   -7.4645   22.7455 H   0  0  0  0  0  0
  -21.0831   -8.8736   19.8938 H   0  0  0  0  0  0
  -22.3656  -10.9648   19.6145 H   0  0  0  0  0  0
  -21.2026   -7.6143   23.9711 H   0  0  0  0  0  0
  -21.1488   -6.0521   25.9072 H   0  0  0  0  0  0
  -22.0597   -2.7606   23.2842 H   0  0  0  0  0  0
  -22.4092  -11.9893   22.4825 H   0  0  0  0  0  0
  -21.1063  -13.1214   22.2605 H   0  0  0  0  0  0
  -24.6531  -15.8444   20.5128 H   0  0  0  0  0  0
  -26.2696  -15.6244   20.0703 H   0  0  0  0  0  0
  -26.7204  -32.5349   23.0998 H   0  0  0  0  0  0
  -25.0013  -33.9632   25.0301 H   0  0  0  0  0  0
  -22.7294  -31.2875   21.3789 H   0  0  0  0  0  0
  -23.3738  -35.9614   23.3306 H   0  0  0  0  0  0
  -24.3572  -36.8902   22.2054 H   0  0  0  0  0  0
  -23.7267  -37.6474   23.6682 H   0  0  0  0  0  0
  -26.1146  -31.5106   20.5990 H   0  0  0  0  0  0
  -26.8528  -30.8072   22.0047 H   0  0  0  0  0  0
  -28.1123  -28.9011   21.2218 H   0  0  0  0  0  0
  -25.9943  -25.8502   19.0323 H   0  0  0  0  0  0
  -23.9956  -27.2687   18.9978 H   0  0  0  0  0  0
  -23.7640  -30.5540   19.3867 H   0  0  0  0  0  0
  -22.7710  -29.2098   19.8566 H   0  0  0  0  0  0
  -25.1305  -36.1860   25.0803 H   0  0  0  0  0  0
  -20.9989  -28.3294   24.1384 H   0  0  0  0  0  0
  -20.5653  -26.2309   23.3626 H   0  0  0  0  0  0
  -21.6638  -26.7420   22.1223 H   0  0  0  0  0  0
  -19.6907  -25.6290   21.1246 H   0  0  0  0  0  0
  -19.6689  -27.3187   20.6733 H   0  0  0  0  0  0
  -17.4193  -26.6673   21.4029 H   0  0  0  0  0  0
  -18.0335  -26.0078   22.9027 H   0  0  0  0  0  0
  -19.7943  -30.7269   24.2266 H   0  0  0  0  0  0
  -17.5026  -31.6273   24.5159 H   0  0  0  0  0  0
  -15.5359  -30.2992   23.7658 H   0  0  0  0  0  0
  -15.8674  -28.0818   22.7091 H   0  0  0  0  0  0
  -24.5884  -30.7089   25.7740 H   0  0  0  0  0  0
  -24.8918  -32.2924   26.4798 H   0  0  0  0  0  0
  -25.8033  -30.8937   27.0197 H   0  0  0  0  0  0
  -26.2941  -29.6707   24.1228 H   0  0  0  0  0  0
  -27.4005  -29.7247   25.4741 H   0  0  0  0  0  0
  -27.8826  -30.4212   23.9463 H   0  0  0  0  0  0
  -27.2614  -33.3632   26.2006 H   0  0  0  0  0  0
  -28.3876  -32.6870   25.0333 H   0  0  0  0  0  0
  -28.0664  -31.8479   26.5434 H   0  0  0  0  0  0
  -28.2584  -38.0081   24.7487 H   0  0  0  0  0  0
  -28.1063  -36.2610   24.6312 H   0  0  0  0  0  0
  -27.2285  -37.1465   25.8866 H   0  0  0  0  0  0
  -20.9396  -29.8725   21.6813 H   0  0  0  0  0  0
  -26.0148  -38.2812   24.1404 H   0  0  0  0  0  0
  -32.1453  -20.1257   18.2954 H   0  0  0  0  0  0
  -31.3816  -17.9002   19.0328 H   0  0  0  0  0  0
  -31.0093  -22.1647   18.9601 H   0  0  0  0  0  0
  -31.0943  -25.1113   21.3885 H   0  0  0  0  0  0
  -31.7539  -23.8637   20.3846 H   0  0  0  0  0  0
  -30.2998  -24.2570   18.6070 H   0  0  0  0  0  0
  -30.5449  -25.8653   19.1971 H   0  0  0  0  0  0
  -29.4277  -23.7724   22.2849 H   0  0  0  0  0  0
  -30.6592  -22.5730   22.0344 H   0  0  0  0  0  0
  -27.6420  -23.0473   19.1773 H   0  0  0  0  0  0
  -27.2080  -23.6499   20.7406 H   0  0  0  0  0  0
  -28.1873  -25.1714   18.5943 H   0  0  0  0  0  0
  -28.1856  -19.2423   22.4933 H   0  0  0  0  0  0
  -27.0667  -19.2632   21.1244 H   0  0  0  0  0  0
  -27.5359  -20.7672   21.9070 H   0  0  0  0  0  0
  -28.9025  -16.8404   19.3601 H   0  0  0  0  0  0
  -28.2210  -17.2097   20.8853 H   0  0  0  0  0  0
  -29.1978  -15.4990   21.6869 H   0  0  0  0  0  0
  1 25  1  0  0  0
  1 30  2  0  0  0
  1 85  1  0  0  0
  2  3  1  0  0  0
  2 25  1  0  0  0
  2 86  1  0  0  0
  2 87  1  0  0  0
  3  4  1  0  0  0
  3 88  1  0  0  0
  3 89  1  0  0  0
  4  5  1  0  0  0
  4 90  1  0  0  0
  4 91  1  0  0  0
  5  6  1  0  0  0
  5 26  1  0  0  0
  5 92  1  0  0  0
  6 25  1  0  0  0
  6 93  1  0  0  0
  6 94  1  0  0  0
  7  8  2  0  0  0
  7 26  1  0  0  0
  7 29  1  0  0  0
  8  9  1  0  0  0
  8 22  1  0  0  0
  9 10  1  0  0  0
  9 27  2  0  0  0
 10 11  2  0  0  0
 10 15  1  0  0  0
 11 12  1  0  0  0
 11 95  1  0  0  0
 12 13  2  0  0  0
 12 96  1  0  0  0
 13 14  1  0  0  0
 13 31  1  0  0  0
 14 15  2  0  0  0
 14 97  1  0  0  0
 15 98  1  0  0  0
 16 17  2  0  0  0
 16 21  1  0  0  0
 16 31  1  0  0  0
 17 18  1  0  0  0
 17 99  1  0  0  0
 18 19  2  0  0  0
 18100  1  0  0  0
 19 20  1  0  0  0
 19 24  1  0  0  0
 20 21  2  0  0  0
 20101  1  0  0  0
 21 23  1  0  0  0
 22 28  1  0  0  0
 22 32  2  0  0  0
 26 27  1  0  0  0
 28102  1  0  0  0
 28103  1  0  0  0
 29104  1  0  0  0
 29105  1  0  0  0
 33 34  1  0  0  0
 33 66  1  0  0  0
 33 70  2  0  0  0
 34 36  1  0  0  0
 34 59  1  0  0  0
 34106  1  0  0  0
 35 44  2  0  0  0
 35 45  1  0  0  0
 35 68  1  0  0  0
 36 56  1  0  0  0
 36107  1  0  0  0
 37 39  1  0  0  0
 37 47  1  0  0  0
 37 66  1  0  0  0
 37108  1  0  0  0
 38 43  2  0  0  0
 38 46  1  0  0  0
 38 47  1  0  0  0
 39 64  1  0  0  0
 39 67  2  0  0  0
 40 52  1  0  0  0
 40 53  2  0  0  0
 40 58  1  0  0  0
 41109  1  0  0  0
 41110  1  0  0  0
 41111  1  0  0  0
 41 48  1  0  0  0
 42 43  1  0  0  0
 42 66  1  0  0  0
 42112  1  0  0  0
 42113  1  0  0  0
 43 44  1  0  0  0
 44114  1  0  0  0
 45 46  2  0  0  0
 45115  1  0  0  0
 46116  1  0  0  0
 47117  1  0  0  0
 47118  1  0  0  0
 48 56  1  0  0  0
 48 65  1  0  0  0
 48119  1  0  0  0
 49 50  1  0  0  0
 49 53  1  0  0  0
 49 64  1  0  0  0
 49120  1  0  0  0
 50 51  1  0  0  0
 50121  1  0  0  0
 50122  1  0  0  0
 51 52  1  0  0  0
 51123  1  0  0  0
 51124  1  0  0  0
 52125  1  0  0  0
 52126  1  0  0  0
 53 54  1  0  0  0
 54 55  2  0  0  0
 54127  1  0  0  0
 55 57  1  0  0  0
 55128  1  0  0  0
 56 69  2  0  0  0
 57 58  2  0  0  0
 57129  1  0  0  0
 58130  1  0  0  0
 59 60  1  0  0  0
 59 61  1  0  0  0
 59 62  1  0  0  0
 60131  1  0  0  0
 60132  1  0  0  0
 60133  1  0  0  0
 61134  1  0  0  0
 61135  1  0  0  0
 61136  1  0  0  0
 62137  1  0  0  0
 62138  1  0  0  0
 62139  1  0  0  0
 63 65  1  0  0  0
 63140  1  0  0  0
 63141  1  0  0  0
 63142  1  0  0  0
 64143  1  0  0  0
 65144  1  0  0  0
 68 81  1  0  0  0
 71 72  2  0  0  0
 71 73  1  0  0  0
 71145  1  0  0  0
 72 74  1  0  0  0
 72146  1  0  0  0
 73 76  2  0  0  0
 73147  1  0  0  0
 74 75  2  0  0  0
 74 83  1  0  0  0
 75 76  1  0  0  0
 75 82  1  0  0  0
 76 84  1  0  0  0
 77 78  1  0  0  0
 77 79  1  0  0  0
 77148  1  0  0  0
 77149  1  0  0  0
 78 81  1  0  0  0
 78150  1  0  0  0
 78151  1  0  0  0
 79 84  1  0  0  0
 79152  1  0  0  0
 79153  1  0  0  0
 80 81  1  0  0  0
 80 84  1  0  0  0
 80154  1  0  0  0
 80155  1  0  0  0
 81156  1  0  0  0
 82157  1  0  0  0
 82158  1  0  0  0
 82159  1  0  0  0
 83 85  1  0  0  0
 83160  1  0  0  0
 83161  1  0  0  0
 85162  1  0  0  0
M  ISO  4   1 100  68 101  81 101  85 100
M  END
> <chiral flag>
0

> <version>
0

> <s_m_source_file>
/data/baiqing/PycharmProjects/Reinvent-master-3.2/result/LINK_invent/BTK/process_docking_weight1_custom_product_contain_oxygen_bond_distance_aromatic_linkinvent_7_9_3/rearranged_h_0038.sdf

> <i_m_source_file_index>
52

> <r_mmod_Potential_Energy-OPLS-2005>
360.449737548828

> <r_mmod_Stretch_Energy-OPLS-2005>
157.895401000977

> <r_mmod_Bend_Energy-OPLS-2005>
276.463165283203

> <r_mmod_Torsional_Energy-OPLS-2005>
328.259918212891

> <r_mmod_Improper_Torsional_Energy-OPLS-2005>
10.1988801956177

> <r_mmod_Van_der_Waal_Energy-OPLS-2005>
131.947418212891

> <r_mmod_Electrostatic_Energy-OPLS-2005>
-424.099945068359

> <r_mmod_Solvation_Energy-OPLS-2005>
-227.663146972656

> <b_mmod_Minimization_Converged-OPLS-2005>
0

> <r_mmod_RMS_Derivative-OPLS-2005>
1.84690415859222

$$$$
52
                    3D
 Structure written by MMmdl.
156164  0  0  1  0            999 V2000
  -30.6867  -14.4675   20.4848 C   0  0  0  0  0  0
  -30.4091  -12.2737   19.4288 C   0  0  0  0  0  0
  -29.4899  -12.4809   18.2067 C   0  0  0  0  0  0
  -28.0024  -12.3746   18.6075 C   0  0  0  0  0  0
  -27.6546  -13.2082   19.8695 C   0  0  2  0  0  0
  -28.6995  -12.9943   20.9879 C   0  0  0  0  0  0
  -25.2561  -13.8194   20.5664 C   0  0  0  0  0  0
  -24.1837  -13.0490   20.9173 C   0  0  0  0  0  0
  -24.6382  -11.6938   20.8722 C   0  0  0  0  0  0
  -23.9067  -10.4325   21.0394 C   0  0  0  0  0  0
  -24.3641   -9.4240   21.9169 C   0  0  0  0  0  0
  -23.6306   -8.2289   22.0757 C   0  0  0  0  0  0
  -22.4287   -8.0328   21.3549 C   0  0  0  0  0  0
  -21.9918   -9.0300   20.4657 C   0  0  0  0  0  0
  -22.7249  -10.2160   20.3038 C   0  0  0  0  0  0
  -21.6880   -6.0776   22.5263 C   0  0  0  0  0  0
  -21.4047   -6.5665   23.8202 C   0  0  0  0  0  0
  -21.3647   -5.6798   24.9149 C   0  0  0  0  0  0
  -21.6034   -4.3065   24.7183 C   0  0  0  0  0  0
  -21.8828   -3.8173   23.4300 C   0  0  0  0  0  0
  -21.9202   -4.7003   22.3368 C   0  0  0  0  0  0
  -22.7844  -13.5259   21.1844 C   0  0  0  0  0  0
  -22.1668   -4.2193   21.0947 F   0  0  0  0  0  0
  -21.5613   -3.4537   25.7692 F   0  0  0  0  0  0
  -30.0218  -13.2856   20.4209 N   0  0  0  0  0  0
  -26.2987  -12.9353   20.3353 N   0  0  0  0  0  0
  -25.9300  -11.6517   20.5770 N   0  0  0  0  0  0
  -22.0522  -12.8227   22.0392 N   0  0  0  0  0  0
  -25.4305  -15.1923   20.4043 N   0  0  0  0  0  0
  -31.8682  -14.5916   20.1620 O   0  0  0  0  0  0
  -21.6646   -6.8930   21.4236 O   0  0  0  0  0  0
  -22.3494  -14.5572   20.6702 O   0  0  0  0  0  0
  -24.6206  -31.8708   23.2089 C   0  0  0  0  0  0
  -25.9096  -32.4818   23.8411 C   0  0  1  0  0  0
  -27.2308  -27.4309   20.0613 C   0  0  0  0  0  0
  -25.5946  -33.8631   24.2335 N   0  0  0  0  0  0
  -23.4048  -30.4981   21.5499 C   0  0  2  0  0  0
  -24.8443  -28.9535   20.1242 C   0  0  0  0  0  0
  -22.7429  -29.4735   22.4998 C   0  0  0  0  0  0
  -18.0358  -28.1335   22.8350 C   0  0  0  0  0  0
  -24.1490  -36.7318   23.2633 C   0  0  0  0  0  0
  -25.9368  -30.8298   21.3636 C   0  0  0  0  0  0
  -26.0082  -29.4643   20.7093 C   0  0  0  0  0  0
  -27.2016  -28.7072   20.6768 C   0  0  0  0  0  0
  -26.0362  -26.9288   19.4920 C   0  0  0  0  0  0
  -24.8491  -27.6821   19.5268 C   0  0  0  0  0  0
  -23.6093  -29.8204   20.1696 C   0  0  0  0  0  0
  -25.4109  -36.3114   24.0326 C   0  0  1  0  0  0
  -20.5910  -28.3582   23.1175 C   0  0  2  0  0  0
  -20.6887  -26.9465   22.4918 C   0  0  0  0  0  0
  -19.5780  -26.6325   21.4845 C   0  0  0  0  0  0
  -18.1945  -26.7990   22.1179 C   0  0  0  0  0  0
  -19.1607  -28.8740   23.2822 C   0  0  0  0  0  0
  -18.9613  -30.1346   23.8866 C   0  0  0  0  0  0
  -17.6646  -30.6514   24.0607 C   0  0  0  0  0  0
  -25.9051  -34.9482   23.5131 C   0  0  0  0  0  0
  -16.5508  -29.9069   23.6357 C   0  0  0  0  0  0
  -16.7382  -28.6507   23.0298 C   0  0  0  0  0  0
  -26.4507  -31.6610   25.0754 C   0  0  0  0  0  0
  -25.3805  -31.3710   26.1526 C   0  0  0  0  0  0
  -27.0306  -30.3038   24.6121 C   0  0  0  0  0  0
  -27.6071  -32.4329   25.7535 C   0  0  0  0  0  0
  -27.5576  -37.1815   24.8466 C   0  0  0  0  0  0
  -21.4148  -29.3210   22.3874 N   0  0  0  0  0  0
  -26.4289  -37.3787   23.9417 N   0  0  0  0  0  0
  -24.6714  -31.0842   22.0962 N   0  0  0  0  0  0
  -23.4238  -28.8139   23.2878 O   0  0  0  0  0  0
  -28.4293  -26.7415   20.0367 O   0  0  0  0  0  0
  -26.5589  -34.8933   22.4686 O   0  0  0  0  0  0
  -23.5400  -32.1437   23.7500 O   0  0  0  0  0  0
  -29.4681  -18.7040   21.9942 C   0  0  0  0  0  0
  -28.2266  -18.1440   19.9869 C   0  0  0  0  0  0
  -28.9768  -17.7263   21.1095 C   0  0  0  0  0  0
  -28.3258  -20.4820   20.7430 C   0  0  0  0  0  0
  -29.1521  -20.0648   21.8188 C   0  0  0  0  0  0
  -27.8928  -19.5051   19.8078 C   0  0  0  0  0  0
  -29.1999  -16.2449   21.4103 C   0  0  0  0  0  0
  -27.7649  -21.9132   20.7128 C   0  0  0  0  0  0
  -28.0231  -24.3258   20.3260 C   0  0  0  0  0  0
  -28.5313  -25.4527   19.3997 C   0  0  0  0  0  0
  -29.9153  -15.5563   20.3439 N   0  0  0  0  0  0
  -28.5756  -22.9641   20.0496 N   0  3  0  0  0  0
  -29.7407  -21.1923   22.9879 Cl  0  0  0  0  0  0
  -26.8760  -19.9265   18.4735 Cl  0  0  0  0  0  0
  -31.4584  -12.3461   19.1376 H   0  0  0  0  0  0
  -30.2812  -11.2704   19.8421 H   0  0  0  0  0  0
  -29.7160  -11.7511   17.4285 H   0  0  0  0  0  0
  -29.6770  -13.4621   17.7663 H   0  0  0  0  0  0
  -27.7786  -11.3228   18.7845 H   0  0  0  0  0  0
  -27.3689  -12.6787   17.7739 H   0  0  0  0  0  0
  -27.6927  -14.2545   19.5654 H   0  0  0  0  0  0
  -28.6646  -11.9619   21.3397 H   0  0  0  0  0  0
  -28.4863  -13.6072   21.8624 H   0  0  0  0  0  0
  -25.2830   -9.5704   22.4682 H   0  0  0  0  0  0
  -24.0042   -7.4672   22.7458 H   0  0  0  0  0  0
  -21.0860   -8.8823   19.8943 H   0  0  0  0  0  0
  -22.3769  -10.9686   19.6108 H   0  0  0  0  0  0
  -21.2086   -7.6179   23.9714 H   0  0  0  0  0  0
  -21.1434   -6.0525   25.9047 H   0  0  0  0  0  0
  -22.0618   -2.7636   23.2765 H   0  0  0  0  0  0
  -22.4187  -11.9886   22.4735 H   0  0  0  0  0  0
  -21.1138  -13.1211   22.2658 H   0  0  0  0  0  0
  -24.6759  -15.8611   20.5092 H   0  0  0  0  0  0
  -26.2895  -15.6137   20.0809 H   0  0  0  0  0  0
  -26.7182  -32.5506   23.1196 H   0  0  0  0  0  0
  -25.0078  -33.9761   25.0468 H   0  0  0  0  0  0
  -22.6954  -31.3146   21.4018 H   0  0  0  0  0  0
  -23.3732  -35.9668   23.3303 H   0  0  0  0  0  0
  -24.3576  -36.8917   22.2040 H   0  0  0  0  0  0
  -23.7261  -37.6537   23.6641 H   0  0  0  0  0  0
  -26.0641  -31.5959   20.5989 H   0  0  0  0  0  0
  -26.8227  -30.8774   21.9837 H   0  0  0  0  0  0
  -28.1062  -29.1050   21.1155 H   0  0  0  0  0  0
  -25.9850  -25.9611   19.0186 H   0  0  0  0  0  0
  -23.9432  -27.2806   19.0930 H   0  0  0  0  0  0
  -23.7115  -30.5830   19.3962 H   0  0  0  0  0  0
  -22.7323  -29.2338   19.8865 H   0  0  0  0  0  0
  -25.1279  -36.1956   25.0801 H   0  0  0  0  0  0
  -20.9933  -28.2834   24.1300 H   0  0  0  0  0  0
  -20.6142  -26.2091   23.2920 H   0  0  0  0  0  0
  -21.6712  -26.7863   22.0438 H   0  0  0  0  0  0
  -19.6936  -25.6132   21.1051 H   0  0  0  0  0  0
  -19.6623  -27.2853   20.6176 H   0  0  0  0  0  0
  -17.4379  -26.7223   21.3347 H   0  0  0  0  0  0
  -18.0027  -25.9877   22.8176 H   0  0  0  0  0  0
  -19.8108  -30.7151   24.2188 H   0  0  0  0  0  0
  -17.5271  -31.6113   24.5384 H   0  0  0  0  0  0
  -15.5540  -30.3020   23.7735 H   0  0  0  0  0  0
  -15.8759  -28.0901   22.6966 H   0  0  0  0  0  0
  -24.5982  -30.7018   25.7915 H   0  0  0  0  0  0
  -24.9020  -32.2867   26.5021 H   0  0  0  0  0  0
  -25.8233  -30.8893   27.0261 H   0  0  0  0  0  0
  -26.2817  -29.6833   24.1165 H   0  0  0  0  0  0
  -27.4045  -29.7235   25.4577 H   0  0  0  0  0  0
  -27.8700  -30.4328   23.9274 H   0  0  0  0  0  0
  -27.2648  -33.3596   26.2167 H   0  0  0  0  0  0
  -28.3881  -32.6945   25.0382 H   0  0  0  0  0  0
  -28.0762  -31.8436   26.5427 H   0  0  0  0  0  0
  -28.2600  -38.0100   24.7504 H   0  0  0  0  0  0
  -28.1061  -36.2641   24.6303 H   0  0  0  0  0  0
  -27.2302  -37.1473   25.8866 H   0  0  0  0  0  0
  -20.9166  -29.9484   21.7714 H   0  0  0  0  0  0
  -26.0168  -38.2859   24.1426 H   0  0  0  0  0  0
  -30.0643  -18.4065   22.8454 H   0  0  0  0  0  0
  -27.8511  -17.4121   19.2823 H   0  0  0  0  0  0
  -29.7473  -16.1330   22.3459 H   0  0  0  0  0  0
  -28.2250  -15.7850   21.5636 H   0  0  0  0  0  0
  -27.5581  -22.2156   21.7410 H   0  0  0  0  0  0
  -26.7911  -21.9006   20.2318 H   0  0  0  0  0  0
  -26.9352  -24.2981   20.2804 H   0  0  0  0  0  0
  -28.2744  -24.5741   21.3544 H   0  0  0  0  0  0
  -28.0291  -25.4344   18.4299 H   0  0  0  0  0  0
  -29.5898  -25.3029   19.1877 H   0  0  0  0  0  0
  -30.3634  -16.2269   19.7410 H   0  0  0  0  0  0
  -28.6047  -22.7842   19.0555 H   0  0  0  0  0  0
  -29.5225  -22.9140   20.3937 H   0  0  0  0  0  0
  1 25  1  0  0  0
  1 30  2  0  0  0
  1 81  1  0  0  0
  2  3  1  0  0  0
  2 25  1  0  0  0
  2 85  1  0  0  0
  2 86  1  0  0  0
  3  4  1  0  0  0
  3 87  1  0  0  0
  3 88  1  0  0  0
  4  5  1  0  0  0
  4 89  1  0  0  0
  4 90  1  0  0  0
  5  6  1  0  0  0
  5 26  1  0  0  0
  5 91  1  0  0  0
  6 25  1  0  0  0
  6 92  1  0  0  0
  6 93  1  0  0  0
  7  8  2  0  0  0
  7 26  1  0  0  0
  7 29  1  0  0  0
  8  9  1  0  0  0
  8 22  1  0  0  0
  9 10  1  0  0  0
  9 27  2  0  0  0
 10 11  2  0  0  0
 10 15  1  0  0  0
 11 12  1  0  0  0
 11 94  1  0  0  0
 12 13  2  0  0  0
 12 95  1  0  0  0
 13 14  1  0  0  0
 13 31  1  0  0  0
 14 15  2  0  0  0
 14 96  1  0  0  0
 15 97  1  0  0  0
 16 17  2  0  0  0
 16 21  1  0  0  0
 16 31  1  0  0  0
 17 18  1  0  0  0
 17 98  1  0  0  0
 18 19  2  0  0  0
 18 99  1  0  0  0
 19 20  1  0  0  0
 19 24  1  0  0  0
 20 21  2  0  0  0
 20100  1  0  0  0
 21 23  1  0  0  0
 22 28  1  0  0  0
 22 32  2  0  0  0
 26 27  1  0  0  0
 28101  1  0  0  0
 28102  1  0  0  0
 29103  1  0  0  0
 29104  1  0  0  0
 33 34  1  0  0  0
 33 66  1  0  0  0
 33 70  2  0  0  0
 34 36  1  0  0  0
 34 59  1  0  0  0
 34105  1  0  0  0
 35 44  2  0  0  0
 35 45  1  0  0  0
 35 68  1  0  0  0
 36 56  1  0  0  0
 36106  1  0  0  0
 37 39  1  0  0  0
 37 47  1  0  0  0
 37 66  1  0  0  0
 37107  1  0  0  0
 38 43  2  0  0  0
 38 46  1  0  0  0
 38 47  1  0  0  0
 39 64  1  0  0  0
 39 67  2  0  0  0
 40 52  1  0  0  0
 40 53  2  0  0  0
 40 58  1  0  0  0
 41108  1  0  0  0
 41109  1  0  0  0
 41110  1  0  0  0
 41 48  1  0  0  0
 42 43  1  0  0  0
 42 66  1  0  0  0
 42111  1  0  0  0
 42112  1  0  0  0
 43 44  1  0  0  0
 44113  1  0  0  0
 45 46  2  0  0  0
 45114  1  0  0  0
 46115  1  0  0  0
 47116  1  0  0  0
 47117  1  0  0  0
 48 56  1  0  0  0
 48 65  1  0  0  0
 48118  1  0  0  0
 49 50  1  0  0  0
 49 53  1  0  0  0
 49 64  1  0  0  0
 49119  1  0  0  0
 50 51  1  0  0  0
 50120  1  0  0  0
 50121  1  0  0  0
 51 52  1  0  0  0
 51122  1  0  0  0
 51123  1  0  0  0
 52124  1  0  0  0
 52125  1  0  0  0
 53 54  1  0  0  0
 54 55  2  0  0  0
 54126  1  0  0  0
 55 57  1  0  0  0
 55127  1  0  0  0
 56 69  2  0  0  0
 57 58  2  0  0  0
 57128  1  0  0  0
 58129  1  0  0  0
 59 60  1  0  0  0
 59 61  1  0  0  0
 59 62  1  0  0  0
 60130  1  0  0  0
 60131  1  0  0  0
 60132  1  0  0  0
 61133  1  0  0  0
 61134  1  0  0  0
 61135  1  0  0  0
 62136  1  0  0  0
 62137  1  0  0  0
 62138  1  0  0  0
 63 65  1  0  0  0
 63139  1  0  0  0
 63140  1  0  0  0
 63141  1  0  0  0
 64142  1  0  0  0
 65143  1  0  0  0
 68 80  1  0  0  0
 71 73  2  0  0  0
 71 75  1  0  0  0
 71144  1  0  0  0
 72 73  1  0  0  0
 72 76  2  0  0  0
 72145  1  0  0  0
 73 77  1  0  0  0
 74 75  2  0  0  0
 74 76  1  0  0  0
 74 78  1  0  0  0
 75 83  1  0  0  0
 76 84  1  0  0  0
 77 81  1  0  0  0
 77146  1  0  0  0
 77147  1  0  0  0
 78 82  1  0  0  0
 78148  1  0  0  0
 78149  1  0  0  0
 79 80  1  0  0  0
 79 82  1  0  0  0
 79150  1  0  0  0
 79151  1  0  0  0
 80152  1  0  0  0
 80153  1  0  0  0
 81154  1  0  0  0
 82155  1  0  0  0
 82156  1  0  0  0
M  CHG  1  82   1
M  ISO  4   1 100  68 101  80 101  81 100
M  END
> <chiral flag>
0

> <version>
0

> <s_m_source_file>
/data/baiqing/PycharmProjects/Reinvent-master-3.2/result/LINK_invent/BTK/process_docking_weight1_custom_product_contain_oxygen_bond_distance_aromatic_linkinvent_7_9_3/rearranged_h_0038.sdf

> <i_m_source_file_index>
53

> <r_mmod_Potential_Energy-OPLS-2005>
-222.85075378418

> <r_mmod_Stretch_Energy-OPLS-2005>
36.0043449401855

> <r_mmod_Bend_Energy-OPLS-2005>
114.213851928711

> <r_mmod_Torsional_Energy-OPLS-2005>
253.505157470703

> <r_mmod_Improper_Torsional_Energy-OPLS-2005>
24.0968837738037

> <r_mmod_Van_der_Waal_Energy-OPLS-2005>
145.216598510742

> <r_mmod_Electrostatic_Energy-OPLS-2005>
-358.107055664062

> <r_mmod_Solvation_Energy-OPLS-2005>
-456.1572265625

> <b_mmod_Minimization_Converged-OPLS-2005>
0

> <r_mmod_RMS_Derivative-OPLS-2005>
5.69662284851074

$$$$
53
                    3D
 Structure written by MMmdl.
167176  0  0  1  0            999 V2000
  -30.5700  -14.6535   20.5197 C   0  0  0  0  0  0
  -30.4535  -12.4046   19.4411 C   0  0  0  0  0  0
  -29.5107  -12.5194   18.2198 C   0  0  0  0  0  0
  -28.0318  -12.3533   18.6309 C   0  0  0  0  0  0
  -27.6595  -13.2063   19.8726 C   0  0  2  0  0  0
  -28.7051  -13.0109   20.9927 C   0  0  0  0  0  0
  -25.2594  -13.8145   20.5657 C   0  0  0  0  0  0
  -24.1844  -13.0431   20.9173 C   0  0  0  0  0  0
  -24.6394  -11.6895   20.8738 C   0  0  0  0  0  0
  -23.9055  -10.4286   21.0409 C   0  0  0  0  0  0
  -24.3609   -9.4201   21.9186 C   0  0  0  0  0  0
  -23.6284   -8.2239   22.0758 C   0  0  0  0  0  0
  -22.4269   -8.0279   21.3549 C   0  0  0  0  0  0
  -21.9902   -9.0249   20.4648 C   0  0  0  0  0  0
  -22.7230  -10.2128   20.3056 C   0  0  0  0  0  0
  -21.6849   -6.0732   22.5278 C   0  0  0  0  0  0
  -21.4008   -6.5633   23.8211 C   0  0  0  0  0  0
  -21.3665   -5.6790   24.9174 C   0  0  0  0  0  0
  -21.6043   -4.3053   24.7223 C   0  0  0  0  0  0
  -21.8820   -3.8141   23.4346 C   0  0  0  0  0  0
  -21.9188   -4.6959   22.3403 C   0  0  0  0  0  0
  -22.7867  -13.5242   21.1841 C   0  0  0  0  0  0
  -22.1661   -4.2143   21.0986 F   0  0  0  0  0  0
  -21.5631   -3.4543   25.7738 F   0  0  0  0  0  0
  -30.0180  -13.3980   20.4438 N   0  0  0  0  0  0
  -26.3023  -12.9300   20.3353 N   0  0  0  0  0  0
  -25.9321  -11.6466   20.5761 N   0  0  0  0  0  0
  -22.0503  -12.8242   22.0398 N   0  0  0  0  0  0
  -25.4316  -15.1858   20.4036 N   0  0  0  0  0  0
  -31.7000  -14.8912   20.0787 O   0  0  0  0  0  0
  -21.6637   -6.8876   21.4241 O   0  0  0  0  0  0
  -22.3559  -14.5559   20.6700 O   0  0  0  0  0  0
  -24.6275  -31.8570   23.1995 C   0  0  0  0  0  0
  -25.9104  -32.4778   23.8334 C   0  0  1  0  0  0
  -27.2330  -27.3122   20.1182 C   0  0  0  0  0  0
  -25.5893  -33.8576   24.2255 N   0  0  0  0  0  0
  -23.4230  -30.4797   21.5420 C   0  0  2  0  0  0
  -24.8724  -28.9250   20.1181 C   0  0  0  0  0  0
  -22.7484  -29.4618   22.4917 C   0  0  0  0  0  0
  -18.0274  -28.1429   22.8484 C   0  0  0  0  0  0
  -24.1480  -36.7284   23.2647 C   0  0  0  0  0  0
  -25.9640  -30.7869   21.3716 C   0  0  0  0  0  0
  -26.0419  -29.4103   20.7184 C   0  0  0  0  0  0
  -27.2280  -28.6160   20.7059 C   0  0  0  0  0  0
  -26.0403  -26.8715   19.5103 C   0  0  0  0  0  0
  -24.8726  -27.6609   19.5073 C   0  0  0  0  0  0
  -23.6419  -29.8100   20.1602 C   0  0  0  0  0  0
  -25.4103  -36.3078   24.0335 C   0  0  1  0  0  0
  -20.5878  -28.3710   23.1291 C   0  0  2  0  0  0
  -20.6766  -26.9431   22.5423 C   0  0  0  0  0  0
  -19.5738  -26.6397   21.5234 C   0  0  0  0  0  0
  -18.1913  -26.7972   22.1633 C   0  0  0  0  0  0
  -19.1534  -28.8881   23.2887 C   0  0  0  0  0  0
  -18.9472  -30.1482   23.8905 C   0  0  0  0  0  0
  -17.6479  -30.6624   24.0582 C   0  0  0  0  0  0
  -25.9035  -34.9453   23.5100 C   0  0  0  0  0  0
  -16.5360  -29.9133   23.6353 C   0  0  0  0  0  0
  -16.7267  -28.6558   23.0354 C   0  0  0  0  0  0
  -26.4483  -31.6597   25.0713 C   0  0  0  0  0  0
  -25.3721  -31.3755   26.1448 C   0  0  0  0  0  0
  -27.0331  -30.3022   24.6166 C   0  0  0  0  0  0
  -27.6030  -32.4336   25.7492 C   0  0  0  0  0  0
  -27.5566  -37.1791   24.8468 C   0  0  0  0  0  0
  -21.4188  -29.3069   22.3681 N   0  0  0  0  0  0
  -26.4277  -37.3772   23.9420 N   0  0  0  0  0  0
  -24.6907  -31.0571   22.0961 N   0  0  0  0  0  0
  -23.4211  -28.8142   23.2979 O   0  0  0  0  0  0
  -28.3524  -26.4707   20.0768 O   0  0  0  0  0  0
  -26.5619  -34.8928   22.4678 O   0  0  0  0  0  0
  -23.5431  -32.1357   23.7317 O   0  0  0  0  0  0
  -29.8117  -19.3479   19.9907 C   0  0  0  0  0  0
  -30.1551  -17.9539   20.0474 C   0  0  0  0  0  0
  -28.8474  -19.9460   20.8577 C   0  0  0  0  0  0
  -28.2056  -19.0306   21.7598 C   0  0  0  0  0  0
  -28.5366  -17.6324   21.8066 C   0  0  0  0  0  0
  -29.5289  -17.0559   20.9572 C   0  0  0  0  0  0
  -28.3476  -23.8346   19.9406 C   0  0  0  0  0  0
  -30.7717  -25.0034   21.5647 C   0  0  0  0  0  0
  -31.1392  -23.5126   21.5168 C   0  0  0  0  0  0
  -29.3072  -25.2432   21.9612 C   0  0  0  0  0  0
  -30.5314  -22.7425   20.3366 C   0  0  0  0  0  0
  -28.2912  -25.1762   20.8037 C   0  0  1  0  0  0
  -27.0986  -19.5126   22.7067 C   0  0  0  0  0  0
  -27.8019  -16.7302   22.8115 C   0  0  0  0  0  0
  -28.3656  -21.4718   20.8341 C   0  0  0  0  0  0
  -29.0650  -22.7147   20.3321 N   0  0  0  0  0  0
  -29.7347  -15.6027   21.0478 N   0  0  0  0  0  0
  -27.5815  -23.7511   18.9756 O   0  0  0  0  0  0
  -31.4895  -12.5609   19.1351 H   0  0  0  0  0  0
  -30.4151  -11.3984   19.8613 H   0  0  0  0  0  0
  -29.7739  -11.7718   17.4707 H   0  0  0  0  0  0
  -29.6482  -13.4912   17.7416 H   0  0  0  0  0  0
  -27.8665  -11.2970   18.8465 H   0  0  0  0  0  0
  -27.3768  -12.5973   17.7941 H   0  0  0  0  0  0
  -27.6893  -14.2500   19.5590 H   0  0  0  0  0  0
  -28.7254  -11.9670   21.3098 H   0  0  0  0  0  0
  -28.4420  -13.5708   21.8890 H   0  0  0  0  0  0
  -25.2754   -9.5677   22.4764 H   0  0  0  0  0  0
  -23.9989   -7.4627   22.7477 H   0  0  0  0  0  0
  -21.0835   -8.8763   19.8954 H   0  0  0  0  0  0
  -22.3688  -10.9666   19.6165 H   0  0  0  0  0  0
  -21.2001   -7.6139   23.9712 H   0  0  0  0  0  0
  -21.1490   -6.0522   25.9078 H   0  0  0  0  0  0
  -22.0597   -2.7604   23.2848 H   0  0  0  0  0  0
  -22.4106  -11.9898   22.4784 H   0  0  0  0  0  0
  -21.1127  -13.1281   22.2621 H   0  0  0  0  0  0
  -24.6609  -15.8385   20.4926 H   0  0  0  0  0  0
  -26.2820  -15.6224   20.0706 H   0  0  0  0  0  0
  -26.7172  -32.5452   23.1086 H   0  0  0  0  0  0
  -25.0034  -33.9716   25.0397 H   0  0  0  0  0  0
  -22.7191  -31.3011   21.3938 H   0  0  0  0  0  0
  -23.3743  -35.9616   23.3319 H   0  0  0  0  0  0
  -24.3564  -36.8893   22.2058 H   0  0  0  0  0  0
  -23.7237  -37.6492   23.6666 H   0  0  0  0  0  0
  -26.0906  -31.5468   20.5994 H   0  0  0  0  0  0
  -26.8472  -30.8425   21.9964 H   0  0  0  0  0  0
  -28.1312  -28.9881   21.1691 H   0  0  0  0  0  0
  -26.0110  -25.9007   19.0376 H   0  0  0  0  0  0
  -23.9750  -27.2826   19.0385 H   0  0  0  0  0  0
  -23.7716  -30.5862   19.4048 H   0  0  0  0  0  0
  -22.7617  -29.2442   19.8484 H   0  0  0  0  0  0
  -25.1288  -36.1920   25.0826 H   0  0  0  0  0  0
  -20.9964  -28.3295   24.1412 H   0  0  0  0  0  0
  -20.5681  -26.2320   23.3628 H   0  0  0  0  0  0
  -21.6628  -26.7463   22.1201 H   0  0  0  0  0  0
  -19.6899  -25.6301   21.1271 H   0  0  0  0  0  0
  -19.6694  -27.3201   20.6766 H   0  0  0  0  0  0
  -17.4182  -26.6726   21.4034 H   0  0  0  0  0  0
  -18.0293  -26.0130   22.9040 H   0  0  0  0  0  0
  -19.7957  -30.7292   24.2270 H   0  0  0  0  0  0
  -17.5052  -31.6310   24.5177 H   0  0  0  0  0  0
  -15.5371  -30.3061   23.7686 H   0  0  0  0  0  0
  -15.8656  -28.0905   22.7061 H   0  0  0  0  0  0
  -24.5878  -30.7122   25.7779 H   0  0  0  0  0  0
  -24.8945  -32.2947   26.4855 H   0  0  0  0  0  0
  -25.8041  -30.8941   27.0232 H   0  0  0  0  0  0
  -26.2909  -29.6773   24.1184 H   0  0  0  0  0  0
  -27.4041  -29.7263   25.4656 H   0  0  0  0  0  0
  -27.8767  -30.4316   23.9382 H   0  0  0  0  0  0
  -27.2618  -33.3633   26.2056 H   0  0  0  0  0  0
  -28.3858  -32.6894   25.0339 H   0  0  0  0  0  0
  -28.0689  -31.8481   26.5432 H   0  0  0  0  0  0
  -28.2580  -38.0087   24.7491 H   0  0  0  0  0  0
  -28.1060  -36.2612   24.6315 H   0  0  0  0  0  0
  -27.2285  -37.1464   25.8873 H   0  0  0  0  0  0
  -20.9350  -29.8841   21.6940 H   0  0  0  0  0  0
  -26.0158  -38.2843   24.1440 H   0  0  0  0  0  0
  -30.2926  -19.9560   19.2385 H   0  0  0  0  0  0
  -30.8921  -17.5741   19.3532 H   0  0  0  0  0  0
  -31.0046  -25.4957   20.6189 H   0  0  0  0  0  0
  -31.4070  -25.4817   22.3104 H   0  0  0  0  0  0
  -30.8631  -23.0262   22.4540 H   0  0  0  0  0  0
  -32.2249  -23.4266   21.4510 H   0  0  0  0  0  0
  -29.2217  -26.2261   22.4256 H   0  0  0  0  0  0
  -29.0232  -24.5357   22.7417 H   0  0  0  0  0  0
  -30.9299  -21.7317   20.3638 H   0  0  0  0  0  0
  -30.8836  -23.1678   19.3951 H   0  0  0  0  0  0
  -27.3126  -25.1300   21.2850 H   0  0  0  0  0  0
  -26.8401  -20.5644   22.6709 H   0  0  0  0  0  0
  -27.3745  -19.2945   23.7389 H   0  0  0  0  0  0
  -26.1640  -18.9989   22.4828 H   0  0  0  0  0  0
  -26.7428  -16.9642   22.8937 H   0  0  0  0  0  0
  -28.2467  -16.8342   23.8011 H   0  0  0  0  0  0
  -27.8106  -15.6741   22.5571 H   0  0  0  0  0  0
  -28.2760  -21.7605   21.8786 H   0  0  0  0  0  0
  -27.3529  -21.4638   20.4269 H   0  0  0  0  0  0
  -28.9709  -15.1463   21.5210 H   0  0  0  0  0  0
  1 25  1  0  0  0
  1 30  2  0  0  0
  1 87  1  0  0  0
  2  3  1  0  0  0
  2 25  1  0  0  0
  2 89  1  0  0  0
  2 90  1  0  0  0
  3  4  1  0  0  0
  3 91  1  0  0  0
  3 92  1  0  0  0
  4  5  1  0  0  0
  4 93  1  0  0  0
  4 94  1  0  0  0
  5  6  1  0  0  0
  5 26  1  0  0  0
  5 95  1  0  0  0
  6 25  1  0  0  0
  6 96  1  0  0  0
  6 97  1  0  0  0
  7  8  2  0  0  0
  7 26  1  0  0  0
  7 29  1  0  0  0
  8  9  1  0  0  0
  8 22  1  0  0  0
  9 10  1  0  0  0
  9 27  2  0  0  0
 10 11  2  0  0  0
 10 15  1  0  0  0
 11 12  1  0  0  0
 11 98  1  0  0  0
 12 13  2  0  0  0
 12 99  1  0  0  0
 13 14  1  0  0  0
 13 31  1  0  0  0
 14 15  2  0  0  0
 14100  1  0  0  0
 15101  1  0  0  0
 16 17  2  0  0  0
 16 21  1  0  0  0
 16 31  1  0  0  0
 17 18  1  0  0  0
 17102  1  0  0  0
 18 19  2  0  0  0
 18103  1  0  0  0
 19 20  1  0  0  0
 19 24  1  0  0  0
 20 21  2  0  0  0
 20104  1  0  0  0
 21 23  1  0  0  0
 22 28  1  0  0  0
 22 32  2  0  0  0
 26 27  1  0  0  0
 28105  1  0  0  0
 28106  1  0  0  0
 29107  1  0  0  0
 29108  1  0  0  0
 33 34  1  0  0  0
 33 66  1  0  0  0
 33 70  2  0  0  0
 34 36  1  0  0  0
 34 59  1  0  0  0
 34109  1  0  0  0
 35 44  2  0  0  0
 35 45  1  0  0  0
 35 68  1  0  0  0
 36 56  1  0  0  0
 36110  1  0  0  0
 37 39  1  0  0  0
 37 47  1  0  0  0
 37 66  1  0  0  0
 37111  1  0  0  0
 38 43  2  0  0  0
 38 46  1  0  0  0
 38 47  1  0  0  0
 39 64  1  0  0  0
 39 67  2  0  0  0
 40 52  1  0  0  0
 40 53  2  0  0  0
 40 58  1  0  0  0
 41112  1  0  0  0
 41113  1  0  0  0
 41114  1  0  0  0
 41 48  1  0  0  0
 42 43  1  0  0  0
 42 66  1  0  0  0
 42115  1  0  0  0
 42116  1  0  0  0
 43 44  1  0  0  0
 44117  1  0  0  0
 45 46  2  0  0  0
 45118  1  0  0  0
 46119  1  0  0  0
 47120  1  0  0  0
 47121  1  0  0  0
 48 56  1  0  0  0
 48 65  1  0  0  0
 48122  1  0  0  0
 49 50  1  0  0  0
 49 53  1  0  0  0
 49 64  1  0  0  0
 49123  1  0  0  0
 50 51  1  0  0  0
 50124  1  0  0  0
 50125  1  0  0  0
 51 52  1  0  0  0
 51126  1  0  0  0
 51127  1  0  0  0
 52128  1  0  0  0
 52129  1  0  0  0
 53 54  1  0  0  0
 54 55  2  0  0  0
 54130  1  0  0  0
 55 57  1  0  0  0
 55131  1  0  0  0
 56 69  2  0  0  0
 57 58  2  0  0  0
 57132  1  0  0  0
 58133  1  0  0  0
 59 60  1  0  0  0
 59 61  1  0  0  0
 59 62  1  0  0  0
 60134  1  0  0  0
 60135  1  0  0  0
 60136  1  0  0  0
 61137  1  0  0  0
 61138  1  0  0  0
 61139  1  0  0  0
 62140  1  0  0  0
 62141  1  0  0  0
 62142  1  0  0  0
 63 65  1  0  0  0
 63143  1  0  0  0
 63144  1  0  0  0
 63145  1  0  0  0
 64146  1  0  0  0
 65147  1  0  0  0
 68 82  1  0  0  0
 71 72  2  0  0  0
 71 73  1  0  0  0
 71148  1  0  0  0
 72 76  1  0  0  0
 72149  1  0  0  0
 73 74  2  0  0  0
 73 85  1  0  0  0
 74 75  1  0  0  0
 74 83  1  0  0  0
 75 76  2  0  0  0
 75 84  1  0  0  0
 76 87  1  0  0  0
 77 82  1  0  0  0
 77 86  1  0  0  0
 77 88  2  0  0  0
 78 79  1  0  0  0
 78 80  1  0  0  0
 78150  1  0  0  0
 78151  1  0  0  0
 79 81  1  0  0  0
 79152  1  0  0  0
 79153  1  0  0  0
 80 82  1  0  0  0
 80154  1  0  0  0
 80155  1  0  0  0
 81 86  1  0  0  0
 81156  1  0  0  0
 81157  1  0  0  0
 82158  1  0  0  0
 83159  1  0  0  0
 83160  1  0  0  0
 83161  1  0  0  0
 84162  1  0  0  0
 84163  1  0  0  0
 84164  1  0  0  0
 85 86  1  0  0  0
 85165  1  0  0  0
 85166  1  0  0  0
 87167  1  0  0  0
M  ISO  4   1 100  68 101  82 101  87 100
M  END
> <chiral flag>
0

> <version>
0

> <s_m_source_file>
/data/baiqing/PycharmProjects/Reinvent-master-3.2/result/LINK_invent/BTK/process_docking_weight1_custom_product_contain_oxygen_bond_distance_aromatic_linkinvent_7_9_3/rearranged_h_0038.sdf

> <i_m_source_file_index>
54

> <r_mmod_Potential_Energy-OPLS-2005>
263.453063964844

> <r_mmod_Stretch_Energy-OPLS-2005>
98.817268371582

> <r_mmod_Bend_Energy-OPLS-2005>
203.178466796875

> <r_mmod_Torsional_Energy-OPLS-2005>
331.43359375

> <r_mmod_Improper_Torsional_Energy-OPLS-2005>
5.86045551300049

> <r_mmod_Van_der_Waal_Energy-OPLS-2005>
152.316635131836

> <r_mmod_Electrostatic_Energy-OPLS-2005>
-359.290069580078

> <r_mmod_Solvation_Energy-OPLS-2005>
-220.428726196289

> <b_mmod_Minimization_Converged-OPLS-2005>
0

> <r_mmod_RMS_Derivative-OPLS-2005>
1.79381263256073

$$$$
54
                    3D
 Structure written by MMmdl.
166175  0  0  1  0            999 V2000
  -30.5561  -14.7746   20.4456 C   0  0  0  0  0  0
  -30.4570  -12.4757   19.4377 C   0  0  0  0  0  0
  -29.5139  -12.5173   18.2152 C   0  0  0  0  0  0
  -28.0397  -12.3256   18.6354 C   0  0  0  0  0  0
  -27.6446  -13.2153   19.8417 C   0  0  2  0  0  0
  -28.7065  -13.0985   20.9524 C   0  0  0  0  0  0
  -25.2511  -13.8116   20.5579 C   0  0  0  0  0  0
  -24.1826  -13.0380   20.9197 C   0  0  0  0  0  0
  -24.6420  -11.6880   20.8744 C   0  0  0  0  0  0
  -23.9089  -10.4268   21.0393 C   0  0  0  0  0  0
  -24.3642   -9.4192   21.9182 C   0  0  0  0  0  0
  -23.6319   -8.2228   22.0753 C   0  0  0  0  0  0
  -22.4302   -8.0272   21.3547 C   0  0  0  0  0  0
  -21.9940   -9.0245   20.4651 C   0  0  0  0  0  0
  -22.7254  -10.2116   20.3033 C   0  0  0  0  0  0
  -21.6867   -6.0727   22.5285 C   0  0  0  0  0  0
  -21.4029   -6.5636   23.8215 C   0  0  0  0  0  0
  -21.3654   -5.6796   24.9182 C   0  0  0  0  0  0
  -21.6031   -4.3063   24.7234 C   0  0  0  0  0  0
  -21.8819   -3.8145   23.4366 C   0  0  0  0  0  0
  -21.9198   -4.6955   22.3423 C   0  0  0  0  0  0
  -22.7828  -13.5149   21.1884 C   0  0  0  0  0  0
  -22.1669   -4.2132   21.1007 F   0  0  0  0  0  0
  -21.5643   -3.4571   25.7769 F   0  0  0  0  0  0
  -29.9882  -13.5181   20.3723 N   0  0  0  0  0  0
  -26.2950  -12.9308   20.3229 N   0  0  0  0  0  0
  -25.9329  -11.6467   20.5723 N   0  0  0  0  0  0
  -22.0495  -12.8143   22.0465 N   0  0  0  0  0  0
  -25.4034  -15.1840   20.3823 N   0  0  0  0  0  0
  -31.7685  -14.9185   20.2588 O   0  0  0  0  0  0
  -21.6651   -6.8872   21.4242 O   0  0  0  0  0  0
  -22.3487  -14.5419   20.6694 O   0  0  0  0  0  0
  -24.6325  -31.8549   23.1992 C   0  0  0  0  0  0
  -25.9148  -32.4753   23.8339 C   0  0  1  0  0  0
  -27.2247  -27.2625   20.1085 C   0  0  0  0  0  0
  -25.5959  -33.8553   24.2271 N   0  0  0  0  0  0
  -23.4292  -30.4799   21.5440 C   0  0  2  0  0  0
  -24.8758  -28.9307   20.1139 C   0  0  0  0  0  0
  -22.7504  -29.4608   22.4907 C   0  0  0  0  0  0
  -18.0299  -28.1392   22.8485 C   0  0  0  0  0  0
  -24.1499  -36.7277   23.2639 C   0  0  0  0  0  0
  -25.9779  -30.7683   21.3804 C   0  0  0  0  0  0
  -26.0509  -29.3915   20.7208 C   0  0  0  0  0  0
  -27.2251  -28.5705   20.7086 C   0  0  0  0  0  0
  -26.0126  -26.8701   19.4880 C   0  0  0  0  0  0
  -24.8623  -27.6773   19.4913 C   0  0  0  0  0  0
  -23.6486  -29.8178   20.1590 C   0  0  0  0  0  0
  -25.4122  -36.3058   24.0322 C   0  0  1  0  0  0
  -20.5906  -28.3710   23.1263 C   0  0  2  0  0  0
  -20.6798  -26.9428   22.5405 C   0  0  0  0  0  0
  -19.5774  -26.6390   21.5213 C   0  0  0  0  0  0
  -18.1948  -26.7934   22.1623 C   0  0  0  0  0  0
  -19.1552  -28.8861   23.2872 C   0  0  0  0  0  0
  -18.9472  -30.1466   23.8888 C   0  0  0  0  0  0
  -17.6470  -30.6591   24.0563 C   0  0  0  0  0  0
  -25.9057  -34.9435   23.5086 C   0  0  0  0  0  0
  -16.5362  -29.9092   23.6334 C   0  0  0  0  0  0
  -16.7281  -28.6511   23.0344 C   0  0  0  0  0  0
  -26.4525  -31.6569   25.0723 C   0  0  0  0  0  0
  -25.3745  -31.3726   26.1438 C   0  0  0  0  0  0
  -27.0372  -30.2984   24.6219 C   0  0  0  0  0  0
  -27.6081  -32.4309   25.7500 C   0  0  0  0  0  0
  -27.5587  -37.1797   24.8469 C   0  0  0  0  0  0
  -21.4211  -29.3053   22.3646 N   0  0  0  0  0  0
  -26.4295  -37.3763   23.9410 N   0  0  0  0  0  0
  -24.6992  -31.0518   22.0969 N   0  0  0  0  0  0
  -23.4198  -28.8136   23.2996 O   0  0  0  0  0  0
  -28.3353  -26.3785   20.1494 O   0  0  0  0  0  0
  -26.5608  -34.8908   22.4650 O   0  0  0  0  0  0
  -23.5467  -32.1367   23.7281 O   0  0  0  0  0  0
  -28.3451  -18.5383   22.5965 C   0  0  0  0  0  0
  -29.8557  -18.4941   20.2663 C   0  0  0  0  0  0
  -28.6887  -19.7654   22.0076 C   0  0  0  0  0  0
  -28.7419  -17.2982   22.0633 C   0  0  0  0  0  0
  -29.4530  -19.7965   20.8138 C   0  0  0  0  0  0
  -29.5301  -17.2085   20.8877 C   0  0  0  0  0  0
  -27.9268  -23.3950   17.7728 C   0  0  0  0  0  0
  -28.2839  -24.8188   18.2353 C   0  0  0  0  0  0
  -28.8954  -22.3388   18.3430 C   0  0  0  0  0  0
  -29.1635  -23.7720   20.3626 C   0  0  0  0  0  0
  -28.1895  -24.9239   19.7687 C   0  0  1  0  0  0
  -28.2222  -21.0281   22.7222 C   0  0  0  0  0  0
  -28.2273  -16.0672   22.7766 C   0  0  0  0  0  0
  -29.9405  -21.2259   20.2908 C   0  0  0  0  0  0
  -29.6716  -15.8409   20.3057 N   0  0  0  0  0  0
  -28.9601  -22.3280   19.8315 N   0  3  2  0  0  0
  -31.4874  -12.6437   19.1242 H   0  0  0  0  0  0
  -30.4412  -11.4912   19.9071 H   0  0  0  0  0  0
  -29.8080  -11.7584   17.4896 H   0  0  0  0  0  0
  -29.6253  -13.4768   17.7070 H   0  0  0  0  0  0
  -27.9164  -11.2744   18.8996 H   0  0  0  0  0  0
  -27.3758  -12.5123   17.7908 H   0  0  0  0  0  0
  -27.6360  -14.2419   19.4761 H   0  0  0  0  0  0
  -28.7662  -12.0714   21.3150 H   0  0  0  0  0  0
  -28.4402  -13.6832   21.8226 H   0  0  0  0  0  0
  -25.2778   -9.5689   22.4782 H   0  0  0  0  0  0
  -24.0034   -7.4618   22.7494 H   0  0  0  0  0  0
  -21.0852   -8.8716   19.8981 H   0  0  0  0  0  0
  -22.3665  -10.9648   19.6168 H   0  0  0  0  0  0
  -21.2007   -7.6153   23.9711 H   0  0  0  0  0  0
  -21.1501   -6.0547   25.9081 H   0  0  0  0  0  0
  -22.0594   -2.7603   23.2867 H   0  0  0  0  0  0
  -22.4121  -11.9803   22.4861 H   0  0  0  0  0  0
  -21.1070  -13.1103   22.2562 H   0  0  0  0  0  0
  -24.6084  -15.8068   20.4601 H   0  0  0  0  0  0
  -26.2078  -15.6314   19.9640 H   0  0  0  0  0  0
  -26.7215  -32.5401   23.1084 H   0  0  0  0  0  0
  -25.0158  -33.9705   25.0448 H   0  0  0  0  0  0
  -22.7268  -31.3016   21.3966 H   0  0  0  0  0  0
  -23.3758  -35.9614   23.3285 H   0  0  0  0  0  0
  -24.3593  -36.8906   22.2057 H   0  0  0  0  0  0
  -23.7248  -37.6477   23.6662 H   0  0  0  0  0  0
  -26.1173  -31.5308   20.6122 H   0  0  0  0  0  0
  -26.8533  -30.8164   22.0147 H   0  0  0  0  0  0
  -28.1258  -28.9214   21.1948 H   0  0  0  0  0  0
  -25.8987  -25.9169   18.9965 H   0  0  0  0  0  0
  -23.9608  -27.3165   19.0140 H   0  0  0  0  0  0
  -23.7796  -30.5953   19.4051 H   0  0  0  0  0  0
  -22.7682  -29.2536   19.8474 H   0  0  0  0  0  0
  -25.1310  -36.1906   25.0812 H   0  0  0  0  0  0
  -21.0003  -28.3287   24.1379 H   0  0  0  0  0  0
  -20.5709  -26.2315   23.3606 H   0  0  0  0  0  0
  -21.6659  -26.7457   22.1178 H   0  0  0  0  0  0
  -19.6933  -25.6292   21.1256 H   0  0  0  0  0  0
  -19.6716  -27.3187   20.6727 H   0  0  0  0  0  0
  -17.4222  -26.6669   21.4029 H   0  0  0  0  0  0
  -18.0364  -26.0082   22.9021 H   0  0  0  0  0  0
  -19.7937  -30.7291   24.2256 H   0  0  0  0  0  0
  -17.5012  -31.6265   24.5170 H   0  0  0  0  0  0
  -15.5359  -30.2988   23.7654 H   0  0  0  0  0  0
  -15.8681  -28.0826   22.7065 H   0  0  0  0  0  0
  -24.5949  -30.7045   25.7777 H   0  0  0  0  0  0
  -24.8903  -32.2887   26.4824 H   0  0  0  0  0  0
  -25.8053  -30.8948   27.0239 H   0  0  0  0  0  0
  -26.2955  -29.6728   24.1248 H   0  0  0  0  0  0
  -27.4056  -29.7268   25.4745 H   0  0  0  0  0  0
  -27.8834  -30.4263   23.9465 H   0  0  0  0  0  0
  -27.2711  -33.3640   26.2035 H   0  0  0  0  0  0
  -28.3921  -32.6809   25.0337 H   0  0  0  0  0  0
  -28.0715  -31.8447   26.5453 H   0  0  0  0  0  0
  -28.2588  -38.0110   24.7504 H   0  0  0  0  0  0
  -28.1094  -36.2630   24.6299 H   0  0  0  0  0  0
  -27.2292  -37.1435   25.8869 H   0  0  0  0  0  0
  -20.9396  -29.8804   21.6878 H   0  0  0  0  0  0
  -26.0168  -38.2837   24.1405 H   0  0  0  0  0  0
  -27.7498  -18.5470   23.4994 H   0  0  0  0  0  0
  -30.4191  -18.4849   19.3450 H   0  0  0  0  0  0
  -27.9663  -23.3526   16.6843 H   0  0  0  0  0  0
  -26.8966  -23.1568   18.0438 H   0  0  0  0  0  0
  -27.6290  -25.5312   17.7373 H   0  0  0  0  0  0
  -29.2946  -25.0827   17.9156 H   0  0  0  0  0  0
  -29.8930  -22.5380   17.9460 H   0  0  0  0  0  0
  -28.6117  -21.3497   17.9811 H   0  0  0  0  0  0
  -29.0613  -23.7594   21.4464 H   0  0  0  0  0  0
  -30.1955  -24.0614   20.1658 H   0  0  0  0  0  0
  -27.1950  -24.6068   20.0829 H   0  0  0  0  0  0
  -27.7342  -20.7841   23.6679 H   0  0  0  0  0  0
  -27.4925  -21.5695   22.1235 H   0  0  0  0  0  0
  -29.0559  -21.6866   22.9614 H   0  0  0  0  0  0
  -29.0468  -15.3888   23.0168 H   0  0  0  0  0  0
  -27.4928  -15.5726   22.1427 H   0  0  0  0  0  0
  -27.7213  -16.3143   23.7097 H   0  0  0  0  0  0
  -30.6871  -21.0572   19.5143 H   0  0  0  0  0  0
  -30.5269  -21.6440   21.1102 H   0  0  0  0  0  0
  -28.7664  -15.4470   20.1121 H   0  0  0  0  0  0
  -28.0521  -22.0309   20.1554 H   0  0  0  0  0  0
  1 25  1  0  0  0
  1 30  2  0  0  0
  1 85  1  0  0  0
  2  3  1  0  0  0
  2 25  1  0  0  0
  2 87  1  0  0  0
  2 88  1  0  0  0
  3  4  1  0  0  0
  3 89  1  0  0  0
  3 90  1  0  0  0
  4  5  1  0  0  0
  4 91  1  0  0  0
  4 92  1  0  0  0
  5  6  1  0  0  0
  5 26  1  0  0  0
  5 93  1  0  0  0
  6 25  1  0  0  0
  6 94  1  0  0  0
  6 95  1  0  0  0
  7  8  2  0  0  0
  7 26  1  0  0  0
  7 29  1  0  0  0
  8  9  1  0  0  0
  8 22  1  0  0  0
  9 10  1  0  0  0
  9 27  2  0  0  0
 10 11  2  0  0  0
 10 15  1  0  0  0
 11 12  1  0  0  0
 11 96  1  0  0  0
 12 13  2  0  0  0
 12 97  1  0  0  0
 13 14  1  0  0  0
 13 31  1  0  0  0
 14 15  2  0  0  0
 14 98  1  0  0  0
 15 99  1  0  0  0
 16 17  2  0  0  0
 16 21  1  0  0  0
 16 31  1  0  0  0
 17 18  1  0  0  0
 17100  1  0  0  0
 18 19  2  0  0  0
 18101  1  0  0  0
 19 20  1  0  0  0
 19 24  1  0  0  0
 20 21  2  0  0  0
 20102  1  0  0  0
 21 23  1  0  0  0
 22 28  1  0  0  0
 22 32  2  0  0  0
 26 27  1  0  0  0
 28103  1  0  0  0
 28104  1  0  0  0
 29105  1  0  0  0
 29106  1  0  0  0
 33 34  1  0  0  0
 33 66  1  0  0  0
 33 70  2  0  0  0
 34 36  1  0  0  0
 34 59  1  0  0  0
 34107  1  0  0  0
 35 44  2  0  0  0
 35 45  1  0  0  0
 35 68  1  0  0  0
 36 56  1  0  0  0
 36108  1  0  0  0
 37 39  1  0  0  0
 37 47  1  0  0  0
 37 66  1  0  0  0
 37109  1  0  0  0
 38 43  2  0  0  0
 38 46  1  0  0  0
 38 47  1  0  0  0
 39 64  1  0  0  0
 39 67  2  0  0  0
 40 52  1  0  0  0
 40 53  2  0  0  0
 40 58  1  0  0  0
 41110  1  0  0  0
 41111  1  0  0  0
 41112  1  0  0  0
 41 48  1  0  0  0
 42 43  1  0  0  0
 42 66  1  0  0  0
 42113  1  0  0  0
 42114  1  0  0  0
 43 44  1  0  0  0
 44115  1  0  0  0
 45 46  2  0  0  0
 45116  1  0  0  0
 46117  1  0  0  0
 47118  1  0  0  0
 47119  1  0  0  0
 48 56  1  0  0  0
 48 65  1  0  0  0
 48120  1  0  0  0
 49 50  1  0  0  0
 49 53  1  0  0  0
 49 64  1  0  0  0
 49121  1  0  0  0
 50 51  1  0  0  0
 50122  1  0  0  0
 50123  1  0  0  0
 51 52  1  0  0  0
 51124  1  0  0  0
 51125  1  0  0  0
 52126  1  0  0  0
 52127  1  0  0  0
 53 54  1  0  0  0
 54 55  2  0  0  0
 54128  1  0  0  0
 55 57  1  0  0  0
 55129  1  0  0  0
 56 69  2  0  0  0
 57 58  2  0  0  0
 57130  1  0  0  0
 58131  1  0  0  0
 59 60  1  0  0  0
 59 61  1  0  0  0
 59 62  1  0  0  0
 60132  1  0  0  0
 60133  1  0  0  0
 60134  1  0  0  0
 61135  1  0  0  0
 61136  1  0  0  0
 61137  1  0  0  0
 62138  1  0  0  0
 62139  1  0  0  0
 62140  1  0  0  0
 63 65  1  0  0  0
 63141  1  0  0  0
 63142  1  0  0  0
 63143  1  0  0  0
 64144  1  0  0  0
 65145  1  0  0  0
 68 81  1  0  0  0
 71 73  2  0  0  0
 71 74  1  0  0  0
 71146  1  0  0  0
 72 75  2  0  0  0
 72 76  1  0  0  0
 72147  1  0  0  0
 73 75  1  0  0  0
 73 82  1  0  0  0
 74 76  2  0  0  0
 74 83  1  0  0  0
 75 84  1  0  0  0
 76 85  1  0  0  0
 77 78  1  0  0  0
 77 79  1  0  0  0
 77148  1  0  0  0
 77149  1  0  0  0
 78 81  1  0  0  0
 78150  1  0  0  0
 78151  1  0  0  0
 79 86  1  0  0  0
 79152  1  0  0  0
 79153  1  0  0  0
 80 81  1  0  0  0
 80 86  1  0  0  0
 80154  1  0  0  0
 80155  1  0  0  0
 81156  1  0  0  0
 82157  1  0  0  0
 82158  1  0  0  0
 82159  1  0  0  0
 83160  1  0  0  0
 83161  1  0  0  0
 83162  1  0  0  0
 84163  1  0  0  0
 84164  1  0  0  0
 84 86  1  0  0  0
 85165  1  0  0  0
 86166  1  0  0  0
M  CHG  1  86   1
M  ISO  4   1 100  68 101  81 101  85 100
M  END
> <chiral flag>
0

> <version>
0

> <s_m_source_file>
/data/baiqing/PycharmProjects/Reinvent-master-3.2/result/LINK_invent/BTK/process_docking_weight1_custom_product_contain_oxygen_bond_distance_aromatic_linkinvent_7_9_3/rearranged_h_0038.sdf

> <i_m_source_file_index>
55

> <r_mmod_Potential_Energy-OPLS-2005>
164.38166809082

> <r_mmod_Stretch_Energy-OPLS-2005>
135.39176940918

> <r_mmod_Bend_Energy-OPLS-2005>
192.719482421875

> <r_mmod_Torsional_Energy-OPLS-2005>
279.718353271484

> <r_mmod_Improper_Torsional_Energy-OPLS-2005>
17.603099822998

> <r_mmod_Van_der_Waal_Energy-OPLS-2005>
146.592529296875

> <r_mmod_Electrostatic_Energy-OPLS-2005>
-276.07373046875

> <r_mmod_Solvation_Energy-OPLS-2005>
-425.560516357422

> <b_mmod_Minimization_Converged-OPLS-2005>
0

> <r_mmod_RMS_Derivative-OPLS-2005>
3.99549102783203

$$$$
55
                    3D
 Structure written by MMmdl.
174183  0  0  1  0            999 V2000
  -30.5799  -14.6907   20.4790 C   0  0  0  0  0  0
  -30.4414  -12.4197   19.4514 C   0  0  0  0  0  0
  -29.5113  -12.5346   18.2207 C   0  0  0  0  0  0
  -28.0319  -12.3651   18.6265 C   0  0  0  0  0  0
  -27.6532  -13.2224   19.8640 C   0  0  2  0  0  0
  -28.6995  -13.0772   20.9923 C   0  0  0  0  0  0
  -25.2546  -13.8183   20.5647 C   0  0  0  0  0  0
  -24.1823  -13.0438   20.9159 C   0  0  0  0  0  0
  -24.6404  -11.6910   20.8699 C   0  0  0  0  0  0
  -23.9074  -10.4288   21.0364 C   0  0  0  0  0  0
  -24.3631   -9.4210   21.9148 C   0  0  0  0  0  0
  -23.6309   -8.2239   22.0722 C   0  0  0  0  0  0
  -22.4288   -8.0273   21.3521 C   0  0  0  0  0  0
  -21.9924   -9.0250   20.4619 C   0  0  0  0  0  0
  -22.7241  -10.2133   20.3021 C   0  0  0  0  0  0
  -21.6869   -6.0731   22.5275 C   0  0  0  0  0  0
  -21.4012   -6.5627   23.8206 C   0  0  0  0  0  0
  -21.3662   -5.6774   24.9167 C   0  0  0  0  0  0
  -21.6057   -4.3041   24.7208 C   0  0  0  0  0  0
  -21.8827   -3.8131   23.4325 C   0  0  0  0  0  0
  -21.9190   -4.6956   22.3382 C   0  0  0  0  0  0
  -22.7843  -13.5217   21.1845 C   0  0  0  0  0  0
  -22.1666   -4.2138   21.0961 F   0  0  0  0  0  0
  -21.5643   -3.4521   25.7722 F   0  0  0  0  0  0
  -30.0102  -13.4403   20.4311 N   0  0  0  0  0  0
  -26.2991  -12.9375   20.3309 N   0  0  0  0  0  0
  -25.9335  -11.6521   20.5713 N   0  0  0  0  0  0
  -22.0501  -12.8200   22.0407 N   0  0  0  0  0  0
  -25.4249  -15.1900   20.4044 N   0  0  0  0  0  0
  -31.7355  -14.8765   20.0799 O   0  0  0  0  0  0
  -21.6648   -6.8881   21.4234 O   0  0  0  0  0  0
  -22.3512  -14.5519   20.6685 O   0  0  0  0  0  0
  -24.6285  -31.8545   23.1972 C   0  0  0  0  0  0
  -25.9109  -32.4748   23.8325 C   0  0  1  0  0  0
  -27.2439  -27.3017   20.0960 C   0  0  0  0  0  0
  -25.5922  -33.8553   24.2252 N   0  0  0  0  0  0
  -23.4254  -30.4728   21.5399 C   0  0  2  0  0  0
  -24.8766  -28.9233   20.1018 C   0  0  0  0  0  0
  -22.7498  -29.4580   22.4919 C   0  0  0  0  0  0
  -18.0290  -28.1380   22.8482 C   0  0  0  0  0  0
  -24.1488  -36.7273   23.2644 C   0  0  0  0  0  0
  -25.9684  -30.7720   21.3769 C   0  0  0  0  0  0
  -26.0423  -29.4000   20.7135 C   0  0  0  0  0  0
  -27.2205  -28.5942   20.7114 C   0  0  0  0  0  0
  -26.0540  -26.8764   19.4697 C   0  0  0  0  0  0
  -24.8851  -27.6656   19.4753 C   0  0  0  0  0  0
  -23.6424  -29.8017   20.1561 C   0  0  0  0  0  0
  -25.4112  -36.3069   24.0337 C   0  0  1  0  0  0
  -20.5888  -28.3684   23.1283 C   0  0  2  0  0  0
  -20.6778  -26.9399   22.5430 C   0  0  0  0  0  0
  -19.5762  -26.6372   21.5222 C   0  0  0  0  0  0
  -18.1933  -26.7933   22.1608 C   0  0  0  0  0  0
  -19.1541  -28.8852   23.2878 C   0  0  0  0  0  0
  -18.9465  -30.1451   23.8896 C   0  0  0  0  0  0
  -17.6460  -30.6584   24.0551 C   0  0  0  0  0  0
  -25.9057  -34.9436   23.5104 C   0  0  0  0  0  0
  -16.5350  -29.9079   23.6321 C   0  0  0  0  0  0
  -16.7272  -28.6492   23.0352 C   0  0  0  0  0  0
  -26.4484  -31.6585   25.0726 C   0  0  0  0  0  0
  -25.3711  -31.3730   26.1453 C   0  0  0  0  0  0
  -27.0327  -30.2998   24.6215 C   0  0  0  0  0  0
  -27.6042  -32.4330   25.7492 C   0  0  0  0  0  0
  -27.5580  -37.1792   24.8457 C   0  0  0  0  0  0
  -21.4203  -29.3018   22.3671 N   0  0  0  0  0  0
  -26.4279  -37.3774   23.9419 N   0  0  0  0  0  0
  -24.6921  -31.0525   22.0945 N   0  0  0  0  0  0
  -23.4210  -28.8131   23.3006 O   0  0  0  0  0  0
  -28.3591  -26.4515   20.2171 O   0  0  0  0  0  0
  -26.5626  -34.8907   22.4666 O   0  0  0  0  0  0
  -23.5440  -32.1361   23.7286 O   0  0  0  0  0  0
  -29.1586  -19.3921   21.6817 C   0  0  0  0  0  0
  -29.4916  -18.0112   21.7934 C   0  0  0  0  0  0
  -29.0018  -20.0598   20.4363 C   0  0  0  0  0  0
  -29.3111  -19.2523   19.2883 C   0  0  0  0  0  0
  -29.6300  -17.8375   19.3980 C   0  0  0  0  0  0
  -29.7075  -17.1778   20.6677 C   0  0  0  0  0  0
  -28.1132  -23.9516   19.2162 C   0  0  0  0  0  0
  -27.2142  -23.6900   18.2317 C   0  0  0  0  0  0
  -26.6633  -22.4423   17.7313 C   0  0  0  0  0  0
  -25.6429  -22.4196   16.8573 C   0  0  0  0  0  0
  -30.8741  -24.2746   20.2086 C   0  0  0  0  0  0
  -30.2994  -25.3197   19.2405 C   0  0  0  0  0  0
  -30.3292  -22.8666   19.9126 C   0  0  0  0  0  0
  -28.7576  -25.4071   19.2454 C   0  0  2  0  0  0
  -29.2478  -19.8893   17.9077 C   0  0  0  0  0  0
  -29.8082  -16.9891   18.1392 C   0  0  0  0  0  0
  -25.0267  -21.1581   16.2917 C   0  0  0  0  0  0
  -28.2583  -21.4862   20.4181 C   0  0  0  0  0  0
  -29.7499  -15.7157   20.8775 N   0  0  0  0  0  0
  -28.8621  -22.8586   20.0735 N   0  3  2  0  0  0
  -31.4827  -12.5519   19.1524 H   0  0  0  0  0  0
  -30.3805  -11.4195   19.8845 H   0  0  0  0  0  0
  -29.7812  -11.7940   17.4654 H   0  0  0  0  0  0
  -29.6486  -13.5106   17.7501 H   0  0  0  0  0  0
  -27.8603  -11.3090   18.8365 H   0  0  0  0  0  0
  -27.3816  -12.6130   17.7860 H   0  0  0  0  0  0
  -27.6681  -14.2596   19.5270 H   0  0  0  0  0  0
  -28.7199  -12.0522   21.3671 H   0  0  0  0  0  0
  -28.4406  -13.7015   21.8482 H   0  0  0  0  0  0
  -25.2792   -9.5698   22.4696 H   0  0  0  0  0  0
  -24.0040   -7.4627   22.7426 H   0  0  0  0  0  0
  -21.0865   -8.8759   19.8921 H   0  0  0  0  0  0
  -22.3704  -10.9660   19.6110 H   0  0  0  0  0  0
  -21.2005   -7.6131   23.9718 H   0  0  0  0  0  0
  -21.1489   -6.0488   25.9080 H   0  0  0  0  0  0
  -22.0608   -2.7587   23.2813 H   0  0  0  0  0  0
  -22.4146  -11.9894   22.4837 H   0  0  0  0  0  0
  -21.1083  -13.1156   22.2556 H   0  0  0  0  0  0
  -24.6540  -15.8434   20.4978 H   0  0  0  0  0  0
  -26.2783  -15.6306   20.0844 H   0  0  0  0  0  0
  -26.7180  -32.5396   23.1070 H   0  0  0  0  0  0
  -25.0071  -33.9683   25.0404 H   0  0  0  0  0  0
  -22.7213  -31.2933   21.3914 H   0  0  0  0  0  0
  -23.3761  -35.9595   23.3287 H   0  0  0  0  0  0
  -24.3582  -36.8911   22.2063 H   0  0  0  0  0  0
  -23.7220  -37.6466   23.6665 H   0  0  0  0  0  0
  -26.1121  -31.5346   20.6100 H   0  0  0  0  0  0
  -26.8445  -30.8150   22.0130 H   0  0  0  0  0  0
  -28.1098  -28.9466   21.2156 H   0  0  0  0  0  0
  -25.9885  -25.9031   19.0171 H   0  0  0  0  0  0
  -23.9881  -27.2852   19.0063 H   0  0  0  0  0  0
  -23.7613  -30.5745   19.3962 H   0  0  0  0  0  0
  -22.7642  -29.2274   19.8547 H   0  0  0  0  0  0
  -25.1291  -36.1924   25.0834 H   0  0  0  0  0  0
  -20.9975  -28.3267   24.1401 H   0  0  0  0  0  0
  -20.5661  -26.2291   23.3634 H   0  0  0  0  0  0
  -21.6647  -26.7423   22.1223 H   0  0  0  0  0  0
  -19.6914  -25.6281   21.1247 H   0  0  0  0  0  0
  -19.6710  -27.3182   20.6753 H   0  0  0  0  0  0
  -17.4215  -26.6692   21.3995 H   0  0  0  0  0  0
  -18.0303  -26.0078   22.9001 H   0  0  0  0  0  0
  -19.7944  -30.7258   24.2277 H   0  0  0  0  0  0
  -17.5019  -31.6265   24.5152 H   0  0  0  0  0  0
  -15.5349  -30.2971   23.7668 H   0  0  0  0  0  0
  -15.8672  -28.0808   22.7068 H   0  0  0  0  0  0
  -24.5937  -30.7007   25.7797 H   0  0  0  0  0  0
  -24.8836  -32.2892   26.4803 H   0  0  0  0  0  0
  -25.8059  -30.8995   27.0268 H   0  0  0  0  0  0
  -26.2908  -29.6756   24.1225 H   0  0  0  0  0  0
  -27.3981  -29.7259   25.4738 H   0  0  0  0  0  0
  -27.8802  -30.4255   23.9474 H   0  0  0  0  0  0
  -27.2645  -33.3632   26.2048 H   0  0  0  0  0  0
  -28.3862  -32.6881   25.0331 H   0  0  0  0  0  0
  -28.0696  -31.8474   26.5427 H   0  0  0  0  0  0
  -28.2587  -38.0100   24.7527 H   0  0  0  0  0  0
  -28.1091  -36.2636   24.6252 H   0  0  0  0  0  0
  -27.2309  -37.1406   25.8862 H   0  0  0  0  0  0
  -20.9408  -29.8729   21.6860 H   0  0  0  0  0  0
  -26.0164  -38.2853   24.1424 H   0  0  0  0  0  0
  -28.9300  -19.9219   22.5972 H   0  0  0  0  0  0
  -29.5137  -17.5703   22.7813 H   0  0  0  0  0  0
  -26.9204  -24.5480   17.6437 H   0  0  0  0  0  0
  -27.0711  -21.4902   18.0115 H   0  0  0  0  0  0
  -25.2065  -23.3484   16.5126 H   0  0  0  0  0  0
  -30.6614  -24.5606   21.2391 H   0  0  0  0  0  0
  -31.9601  -24.2596   20.1190 H   0  0  0  0  0  0
  -30.6260  -25.0508   18.2349 H   0  0  0  0  0  0
  -30.7321  -26.3015   19.4375 H   0  0  0  0  0  0
  -30.7823  -22.1568   20.6057 H   0  0  0  0  0  0
  -30.6026  -22.5527   18.9056 H   0  0  0  0  0  0
  -28.5241  -25.8668   18.2833 H   0  0  0  0  0  0
  -29.2936  -20.9739   17.9456 H   0  0  0  0  0  0
  -28.3272  -19.6038   17.3979 H   0  0  0  0  0  0
  -30.0962  -19.5804   17.2965 H   0  0  0  0  0  0
  -30.8654  -16.7941   17.9609 H   0  0  0  0  0  0
  -29.3967  -17.4393   17.2391 H   0  0  0  0  0  0
  -29.2985  -16.0314   18.2403 H   0  0  0  0  0  0
  -25.4863  -20.2592   16.7057 H   0  0  0  0  0  0
  -25.1446  -21.1325   15.2084 H   0  0  0  0  0  0
  -23.9608  -21.1332   16.5193 H   0  0  0  0  0  0
  -27.9945  -21.6527   21.4619 H   0  0  0  0  0  0
  -27.2652  -21.3556   20.0072 H   0  0  0  0  0  0
  -28.9280  -15.3572   21.3402 H   0  0  0  0  0  0
  -28.8031  -23.2460   21.0032 H   0  0  0  0  0  0
  1 25  1  0  0  0
  1 30  2  0  0  0
  1 89  1  0  0  0
  2  3  1  0  0  0
  2 25  1  0  0  0
  2 91  1  0  0  0
  2 92  1  0  0  0
  3  4  1  0  0  0
  3 93  1  0  0  0
  3 94  1  0  0  0
  4  5  1  0  0  0
  4 95  1  0  0  0
  4 96  1  0  0  0
  5  6  1  0  0  0
  5 26  1  0  0  0
  5 97  1  0  0  0
  6 25  1  0  0  0
  6 98  1  0  0  0
  6 99  1  0  0  0
  7  8  2  0  0  0
  7 26  1  0  0  0
  7 29  1  0  0  0
  8  9  1  0  0  0
  8 22  1  0  0  0
  9 10  1  0  0  0
  9 27  2  0  0  0
 10 11  2  0  0  0
 10 15  1  0  0  0
 11 12  1  0  0  0
 11100  1  0  0  0
 12 13  2  0  0  0
 12101  1  0  0  0
 13 14  1  0  0  0
 13 31  1  0  0  0
 14 15  2  0  0  0
 14102  1  0  0  0
 15103  1  0  0  0
 16 17  2  0  0  0
 16 21  1  0  0  0
 16 31  1  0  0  0
 17 18  1  0  0  0
 17104  1  0  0  0
 18 19  2  0  0  0
 18105  1  0  0  0
 19 20  1  0  0  0
 19 24  1  0  0  0
 20 21  2  0  0  0
 20106  1  0  0  0
 21 23  1  0  0  0
 22 28  1  0  0  0
 22 32  2  0  0  0
 26 27  1  0  0  0
 28107  1  0  0  0
 28108  1  0  0  0
 29109  1  0  0  0
 29110  1  0  0  0
 33 34  1  0  0  0
 33 66  1  0  0  0
 33 70  2  0  0  0
 34 36  1  0  0  0
 34 59  1  0  0  0
 34111  1  0  0  0
 35 44  2  0  0  0
 35 45  1  0  0  0
 35 68  1  0  0  0
 36 56  1  0  0  0
 36112  1  0  0  0
 37 39  1  0  0  0
 37 47  1  0  0  0
 37 66  1  0  0  0
 37113  1  0  0  0
 38 43  2  0  0  0
 38 46  1  0  0  0
 38 47  1  0  0  0
 39 64  1  0  0  0
 39 67  2  0  0  0
 40 52  1  0  0  0
 40 53  2  0  0  0
 40 58  1  0  0  0
 41114  1  0  0  0
 41115  1  0  0  0
 41116  1  0  0  0
 41 48  1  0  0  0
 42 43  1  0  0  0
 42 66  1  0  0  0
 42117  1  0  0  0
 42118  1  0  0  0
 43 44  1  0  0  0
 44119  1  0  0  0
 45 46  2  0  0  0
 45120  1  0  0  0
 46121  1  0  0  0
 47122  1  0  0  0
 47123  1  0  0  0
 48 56  1  0  0  0
 48 65  1  0  0  0
 48124  1  0  0  0
 49 50  1  0  0  0
 49 53  1  0  0  0
 49 64  1  0  0  0
 49125  1  0  0  0
 50 51  1  0  0  0
 50126  1  0  0  0
 50127  1  0  0  0
 51 52  1  0  0  0
 51128  1  0  0  0
 51129  1  0  0  0
 52130  1  0  0  0
 52131  1  0  0  0
 53 54  1  0  0  0
 54 55  2  0  0  0
 54132  1  0  0  0
 55 57  1  0  0  0
 55133  1  0  0  0
 56 69  2  0  0  0
 57 58  2  0  0  0
 57134  1  0  0  0
 58135  1  0  0  0
 59 60  1  0  0  0
 59 61  1  0  0  0
 59 62  1  0  0  0
 60136  1  0  0  0
 60137  1  0  0  0
 60138  1  0  0  0
 61139  1  0  0  0
 61140  1  0  0  0
 61141  1  0  0  0
 62142  1  0  0  0
 62143  1  0  0  0
 62144  1  0  0  0
 63 65  1  0  0  0
 63145  1  0  0  0
 63146  1  0  0  0
 63147  1  0  0  0
 64148  1  0  0  0
 65149  1  0  0  0
 68 84  1  0  0  0
 71 72  2  0  0  0
 71 73  1  0  0  0
 71150  1  0  0  0
 72 76  1  0  0  0
 72151  1  0  0  0
 73 74  2  0  0  0
 73 88  1  0  0  0
 74 75  1  0  0  0
 74 85  1  0  0  0
 75 76  2  0  0  0
 75 86  1  0  0  0
 76 89  1  0  0  0
 77 78  2  0  0  0
 77 84  1  0  0  0
 77 90  1  0  0  0
 78 79  1  0  0  0
 78152  1  0  0  0
 79 80  2  0  0  0
 79153  1  0  0  0
 80 87  1  0  0  0
 80154  1  0  0  0
 81 82  1  0  0  0
 81 83  1  0  0  0
 81155  1  0  0  0
 81156  1  0  0  0
 82 84  1  0  0  0
 82157  1  0  0  0
 82158  1  0  0  0
 83 90  1  0  0  0
 83159  1  0  0  0
 83160  1  0  0  0
 84161  1  0  0  0
 85162  1  0  0  0
 85163  1  0  0  0
 85164  1  0  0  0
 86165  1  0  0  0
 86166  1  0  0  0
 86167  1  0  0  0
 87168  1  0  0  0
 87169  1  0  0  0
 87170  1  0  0  0
 88171  1  0  0  0
 88172  1  0  0  0
 88 90  1  0  0  0
 89173  1  0  0  0
 90174  1  0  0  0
M  CHG  1  90   1
M  ISO  4   1 100  68 101  84 101  89 100
M  END
> <chiral flag>
0

> <version>
0

> <s_m_source_file>
/data/baiqing/PycharmProjects/Reinvent-master-3.2/result/LINK_invent/BTK/process_docking_weight1_custom_product_contain_oxygen_bond_distance_aromatic_linkinvent_7_9_3/rearranged_h_0038.sdf

> <i_m_source_file_index>
56

> <r_mmod_Potential_Energy-OPLS-2005>
110.32145690918

> <r_mmod_Stretch_Energy-OPLS-2005>
116.16731262207

> <r_mmod_Bend_Energy-OPLS-2005>
247.363342285156

> <r_mmod_Torsional_Energy-OPLS-2005>
266.678955078125

> <r_mmod_Improper_Torsional_Energy-OPLS-2005>
8.00965690612793

> <r_mmod_Van_der_Waal_Energy-OPLS-2005>
141.912033081055

> <r_mmod_Electrostatic_Energy-OPLS-2005>
-306.857971191406

> <r_mmod_Solvation_Energy-OPLS-2005>
-427.205841064453

> <b_mmod_Minimization_Converged-OPLS-2005>
0

> <r_mmod_RMS_Derivative-OPLS-2005>
2.75025486946106

$$$$
56
                    3D
 Structure written by MMmdl.
167176  0  0  1  0            999 V2000
  -30.5890  -14.7253   20.4806 C   0  0  0  0  0  0
  -30.4418  -12.4493   19.4529 C   0  0  0  0  0  0
  -29.5069  -12.5133   18.2253 C   0  0  0  0  0  0
  -28.0334  -12.3355   18.6454 C   0  0  0  0  0  0
  -27.6433  -13.2241   19.8547 C   0  0  2  0  0  0
  -28.6935  -13.1246   20.9817 C   0  0  0  0  0  0
  -25.2514  -13.8152   20.5740 C   0  0  0  0  0  0
  -24.1797  -13.0403   20.9251 C   0  0  0  0  0  0
  -24.6382  -11.6883   20.8760 C   0  0  0  0  0  0
  -23.9057  -10.4263   21.0402 C   0  0  0  0  0  0
  -24.3607   -9.4173   21.9173 C   0  0  0  0  0  0
  -23.6289   -8.2206   22.0743 C   0  0  0  0  0  0
  -22.4267   -8.0254   21.3538 C   0  0  0  0  0  0
  -21.9901   -9.0223   20.4637 C   0  0  0  0  0  0
  -22.7233  -10.2104   20.3055 C   0  0  0  0  0  0
  -21.6844   -6.0734   22.5286 C   0  0  0  0  0  0
  -21.4008   -6.5642   23.8219 C   0  0  0  0  0  0
  -21.3667   -5.6798   24.9179 C   0  0  0  0  0  0
  -21.6049   -4.3059   24.7228 C   0  0  0  0  0  0
  -21.8823   -3.8149   23.4341 C   0  0  0  0  0  0
  -21.9186   -4.6963   22.3399 C   0  0  0  0  0  0
  -22.7818  -13.5179   21.1888 C   0  0  0  0  0  0
  -22.1651   -4.2159   21.0975 F   0  0  0  0  0  0
  -21.5630   -3.4538   25.7729 F   0  0  0  0  0  0
  -29.9890  -13.4925   20.3958 N   0  0  0  0  0  0
  -26.2946  -12.9364   20.3338 N   0  0  0  0  0  0
  -25.9316  -11.6507   20.5773 N   0  0  0  0  0  0
  -22.0476  -12.8162   22.0444 N   0  0  0  0  0  0
  -25.4144  -15.1878   20.4129 N   0  0  0  0  0  0
  -31.7850  -14.8539   20.1982 O   0  0  0  0  0  0
  -21.6627   -6.8862   21.4238 O   0  0  0  0  0  0
  -22.3508  -14.5478   20.6735 O   0  0  0  0  0  0
  -24.6247  -31.8569   23.1983 C   0  0  0  0  0  0
  -25.9067  -32.4767   23.8304 C   0  0  1  0  0  0
  -27.2221  -27.2686   20.1416 C   0  0  0  0  0  0
  -25.5867  -33.8566   24.2223 N   0  0  0  0  0  0
  -23.4242  -30.4762   21.5432 C   0  0  2  0  0  0
  -24.8766  -28.9210   20.1154 C   0  0  0  0  0  0
  -22.7470  -29.4583   22.4902 C   0  0  0  0  0  0
  -18.0280  -28.1367   22.8492 C   0  0  0  0  0  0
  -24.1487  -36.7301   23.2642 C   0  0  0  0  0  0
  -25.9695  -30.7683   21.3853 C   0  0  0  0  0  0
  -26.0464  -29.3915   20.7263 C   0  0  0  0  0  0
  -27.2245  -28.5798   20.7265 C   0  0  0  0  0  0
  -26.0378  -26.8644   19.4926 C   0  0  0  0  0  0
  -24.8777  -27.6635   19.4892 C   0  0  0  0  0  0
  -23.6455  -29.8064   20.1623 C   0  0  0  0  0  0
  -25.4110  -36.3072   24.0326 C   0  0  1  0  0  0
  -20.5877  -28.3685   23.1272 C   0  0  2  0  0  0
  -20.6761  -26.9390   22.5416 C   0  0  0  0  0  0
  -19.5742  -26.6370   21.5211 C   0  0  0  0  0  0
  -18.1916  -26.7917   22.1617 C   0  0  0  0  0  0
  -19.1526  -28.8837   23.2880 C   0  0  0  0  0  0
  -18.9464  -30.1442   23.8903 C   0  0  0  0  0  0
  -17.6458  -30.6575   24.0551 C   0  0  0  0  0  0
  -25.9045  -34.9448   23.5083 C   0  0  0  0  0  0
  -16.5348  -29.9058   23.6333 C   0  0  0  0  0  0
  -16.7270  -28.6475   23.0363 C   0  0  0  0  0  0
  -26.4458  -31.6586   25.0690 C   0  0  0  0  0  0
  -25.3662  -31.3708   26.1404 C   0  0  0  0  0  0
  -27.0318  -30.3006   24.6170 C   0  0  0  0  0  0
  -27.6018  -32.4329   25.7446 C   0  0  0  0  0  0
  -27.5575  -37.1773   24.8455 C   0  0  0  0  0  0
  -21.4176  -29.3042   22.3666 N   0  0  0  0  0  0
  -26.4290  -37.3762   23.9401 N   0  0  0  0  0  0
  -24.6906  -31.0521   22.0973 N   0  0  0  0  0  0
  -23.4172  -28.8111   23.2995 O   0  0  0  0  0  0
  -28.3269  -26.3910   20.1420 O   0  0  0  0  0  0
  -26.5637  -34.8925   22.4665 O   0  0  0  0  0  0
  -23.5409  -32.1390   23.7286 O   0  0  0  0  0  0
  -30.2706  -19.9023   22.0622 C   0  0  0  0  0  0
  -29.5068  -18.3875   20.3307 C   0  0  0  0  0  0
  -29.6304  -19.7560   20.8161 C   0  0  0  0  0  0
  -30.7250  -18.7913   22.8077 C   0  0  0  0  0  0
  -30.5525  -17.4586   22.3406 C   0  0  0  0  0  0
  -29.9827  -17.2172   21.0583 C   0  0  0  0  0  0
  -27.4096  -22.1874   21.5003 C   0  0  0  0  0  0
  -26.5726  -21.1381   21.3831 C   0  0  0  0  0  0
  -27.1506  -23.4053   22.3795 C   0  0  0  0  0  0
  -26.9915  -24.6941   21.5544 C   0  0  0  0  0  0
  -28.7115  -23.6744   19.9509 C   0  0  0  0  0  0
  -28.2744  -25.0089   20.7560 C   0  0  1  0  0  0
  -31.3974  -19.0676   24.1445 C   0  0  0  0  0  0
  -30.9414  -16.2955   23.2577 C   0  0  0  0  0  0
  -29.2047  -21.0758   20.0144 C   0  0  0  0  0  0
  -29.7496  -15.8223   20.6131 N   0  0  0  0  0  0
  -28.7049  -22.3455   20.7458 N   0  3  2  0  0  0
  -31.4793  -12.5957   19.1489 H   0  0  0  0  0  0
  -30.4003  -11.4649   19.9227 H   0  0  0  0  0  0
  -29.7804  -11.7460   17.5003 H   0  0  0  0  0  0
  -29.6329  -13.4729   17.7215 H   0  0  0  0  0  0
  -27.8934  -11.2852   18.9039 H   0  0  0  0  0  0
  -27.3745  -12.5353   17.8004 H   0  0  0  0  0  0
  -27.6381  -14.2496   19.4848 H   0  0  0  0  0  0
  -28.7311  -12.1116   21.3854 H   0  0  0  0  0  0
  -28.4374  -13.7760   21.8194 H   0  0  0  0  0  0
  -25.2747   -9.5647   22.4756 H   0  0  0  0  0  0
  -24.0011   -7.4594   22.7452 H   0  0  0  0  0  0
  -21.0851   -8.8738   19.8932 H   0  0  0  0  0  0
  -22.3690  -10.9648   19.6172 H   0  0  0  0  0  0
  -21.1996   -7.6155   23.9721 H   0  0  0  0  0  0
  -21.1498   -6.0531   25.9090 H   0  0  0  0  0  0
  -22.0593   -2.7615   23.2846 H   0  0  0  0  0  0
  -22.4118  -11.9854   22.4876 H   0  0  0  0  0  0
  -21.1085  -13.1159   22.2621 H   0  0  0  0  0  0
  -24.6283  -15.8251   20.5020 H   0  0  0  0  0  0
  -26.2429  -15.6357   20.0458 H   0  0  0  0  0  0
  -26.7084  -32.5439   23.0991 H   0  0  0  0  0  0
  -24.9937  -33.9731   25.0314 H   0  0  0  0  0  0
  -22.7187  -31.2977   21.3985 H   0  0  0  0  0  0
  -23.3757  -35.9627   23.3305 H   0  0  0  0  0  0
  -24.3561  -36.8960   22.2059 H   0  0  0  0  0  0
  -23.7255  -37.6496   23.6699 H   0  0  0  0  0  0
  -26.1206  -31.5315   20.6211 H   0  0  0  0  0  0
  -26.8401  -30.8092   22.0286 H   0  0  0  0  0  0
  -28.1240  -28.9415   21.2075 H   0  0  0  0  0  0
  -26.0043  -25.9019   19.0011 H   0  0  0  0  0  0
  -23.9833  -27.2948   19.0066 H   0  0  0  0  0  0
  -23.7683  -30.5818   19.4063 H   0  0  0  0  0  0
  -22.7650  -29.2382   19.8595 H   0  0  0  0  0  0
  -25.1272  -36.1938   25.0821 H   0  0  0  0  0  0
  -20.9977  -28.3289   24.1393 H   0  0  0  0  0  0
  -20.5648  -26.2269   23.3611 H   0  0  0  0  0  0
  -21.6629  -26.7414   22.1206 H   0  0  0  0  0  0
  -19.6903  -25.6281   21.1239 H   0  0  0  0  0  0
  -19.6710  -27.3188   20.6744 H   0  0  0  0  0  0
  -17.4181  -26.6672   21.4012 H   0  0  0  0  0  0
  -18.0314  -26.0061   22.9021 H   0  0  0  0  0  0
  -19.7948  -30.7225   24.2295 H   0  0  0  0  0  0
  -17.5029  -31.6283   24.5113 H   0  0  0  0  0  0
  -15.5336  -30.2940   23.7700 H   0  0  0  0  0  0
  -15.8670  -28.0782   22.7080 H   0  0  0  0  0  0
  -24.5860  -30.7043   25.7697 H   0  0  0  0  0  0
  -24.8789  -32.2853   26.4799 H   0  0  0  0  0  0
  -25.7941  -30.8886   27.0205 H   0  0  0  0  0  0
  -26.2893  -29.6715   24.1242 H   0  0  0  0  0  0
  -27.4070  -29.7301   25.4675 H   0  0  0  0  0  0
  -27.8748  -30.4272   23.9370 H   0  0  0  0  0  0
  -27.2660  -33.3692   26.1930 H   0  0  0  0  0  0
  -28.3865  -32.6791   25.0267 H   0  0  0  0  0  0
  -28.0638  -31.8494   26.5426 H   0  0  0  0  0  0
  -28.2553  -38.0100   24.7528 H   0  0  0  0  0  0
  -28.1099  -36.2619   24.6256 H   0  0  0  0  0  0
  -27.2288  -37.1425   25.8856 H   0  0  0  0  0  0
  -20.9327  -29.8789   21.6915 H   0  0  0  0  0  0
  -26.0188  -38.2838   24.1420 H   0  0  0  0  0  0
  -30.4192  -20.8922   22.4701 H   0  0  0  0  0  0
  -29.0453  -18.2319   19.3652 H   0  0  0  0  0  0
  -25.6474  -21.1135   21.9433 H   0  0  0  0  0  0
  -26.7637  -20.2905   20.7425 H   0  0  0  0  0  0
  -27.9641  -23.5190   23.0959 H   0  0  0  0  0  0
  -26.2504  -23.2405   22.9715 H   0  0  0  0  0  0
  -26.7559  -25.5169   22.2289 H   0  0  0  0  0  0
  -26.1377  -24.5786   20.8868 H   0  0  0  0  0  0
  -29.7136  -23.8298   19.5469 H   0  0  0  0  0  0
  -28.0551  -23.5521   19.0908 H   0  0  0  0  0  0
  -29.0460  -25.1129   21.5185 H   0  0  0  0  0  0
  -31.6635  -20.1193   24.2572 H   0  0  0  0  0  0
  -32.3154  -18.4869   24.2441 H   0  0  0  0  0  0
  -30.7279  -18.8065   24.9645 H   0  0  0  0  0  0
  -30.8673  -16.5536   24.3125 H   0  0  0  0  0  0
  -31.9639  -15.9766   23.0608 H   0  0  0  0  0  0
  -30.2808  -15.4381   23.1380 H   0  0  0  0  0  0
  -28.4652  -20.8026   19.2624 H   0  0  0  0  0  0
  -30.0855  -21.3666   19.4412 H   0  0  0  0  0  0
  -28.7746  -15.5798   20.5373 H   0  0  0  0  0  0
  -29.4213  -22.4864   21.4419 H   0  0  0  0  0  0
  1 25  1  0  0  0
  1 30  2  0  0  0
  1 86  1  0  0  0
  2  3  1  0  0  0
  2 25  1  0  0  0
  2 88  1  0  0  0
  2 89  1  0  0  0
  3  4  1  0  0  0
  3 90  1  0  0  0
  3 91  1  0  0  0
  4  5  1  0  0  0
  4 92  1  0  0  0
  4 93  1  0  0  0
  5  6  1  0  0  0
  5 26  1  0  0  0
  5 94  1  0  0  0
  6 25  1  0  0  0
  6 95  1  0  0  0
  6 96  1  0  0  0
  7  8  2  0  0  0
  7 26  1  0  0  0
  7 29  1  0  0  0
  8  9  1  0  0  0
  8 22  1  0  0  0
  9 10  1  0  0  0
  9 27  2  0  0  0
 10 11  2  0  0  0
 10 15  1  0  0  0
 11 12  1  0  0  0
 11 97  1  0  0  0
 12 13  2  0  0  0
 12 98  1  0  0  0
 13 14  1  0  0  0
 13 31  1  0  0  0
 14 15  2  0  0  0
 14 99  1  0  0  0
 15100  1  0  0  0
 16 17  2  0  0  0
 16 21  1  0  0  0
 16 31  1  0  0  0
 17 18  1  0  0  0
 17101  1  0  0  0
 18 19  2  0  0  0
 18102  1  0  0  0
 19 20  1  0  0  0
 19 24  1  0  0  0
 20 21  2  0  0  0
 20103  1  0  0  0
 21 23  1  0  0  0
 22 28  1  0  0  0
 22 32  2  0  0  0
 26 27  1  0  0  0
 28104  1  0  0  0
 28105  1  0  0  0
 29106  1  0  0  0
 29107  1  0  0  0
 33 34  1  0  0  0
 33 66  1  0  0  0
 33 70  2  0  0  0
 34 36  1  0  0  0
 34 59  1  0  0  0
 34108  1  0  0  0
 35 44  2  0  0  0
 35 45  1  0  0  0
 35 68  1  0  0  0
 36 56  1  0  0  0
 36109  1  0  0  0
 37 39  1  0  0  0
 37 47  1  0  0  0
 37 66  1  0  0  0
 37110  1  0  0  0
 38 43  2  0  0  0
 38 46  1  0  0  0
 38 47  1  0  0  0
 39 64  1  0  0  0
 39 67  2  0  0  0
 40 52  1  0  0  0
 40 53  2  0  0  0
 40 58  1  0  0  0
 41111  1  0  0  0
 41112  1  0  0  0
 41113  1  0  0  0
 41 48  1  0  0  0
 42 43  1  0  0  0
 42 66  1  0  0  0
 42114  1  0  0  0
 42115  1  0  0  0
 43 44  1  0  0  0
 44116  1  0  0  0
 45 46  2  0  0  0
 45117  1  0  0  0
 46118  1  0  0  0
 47119  1  0  0  0
 47120  1  0  0  0
 48 56  1  0  0  0
 48 65  1  0  0  0
 48121  1  0  0  0
 49 50  1  0  0  0
 49 53  1  0  0  0
 49 64  1  0  0  0
 49122  1  0  0  0
 50 51  1  0  0  0
 50123  1  0  0  0
 50124  1  0  0  0
 51 52  1  0  0  0
 51125  1  0  0  0
 51126  1  0  0  0
 52127  1  0  0  0
 52128  1  0  0  0
 53 54  1  0  0  0
 54 55  2  0  0  0
 54129  1  0  0  0
 55 57  1  0  0  0
 55130  1  0  0  0
 56 69  2  0  0  0
 57 58  2  0  0  0
 57131  1  0  0  0
 58132  1  0  0  0
 59 60  1  0  0  0
 59 61  1  0  0  0
 59 62  1  0  0  0
 60133  1  0  0  0
 60134  1  0  0  0
 60135  1  0  0  0
 61136  1  0  0  0
 61137  1  0  0  0
 61138  1  0  0  0
 62139  1  0  0  0
 62140  1  0  0  0
 62141  1  0  0  0
 63 65  1  0  0  0
 63142  1  0  0  0
 63143  1  0  0  0
 63144  1  0  0  0
 64145  1  0  0  0
 65146  1  0  0  0
 68 82  1  0  0  0
 71 73  2  0  0  0
 71 74  1  0  0  0
 71147  1  0  0  0
 72 73  1  0  0  0
 72 76  2  0  0  0
 72148  1  0  0  0
 73 85  1  0  0  0
 74 75  2  0  0  0
 74 83  1  0  0  0
 75 76  1  0  0  0
 75 84  1  0  0  0
 76 86  1  0  0  0
 77 78  2  0  0  0
 77 79  1  0  0  0
 77 87  1  0  0  0
 78149  1  0  0  0
 78150  1  0  0  0
 79 80  1  0  0  0
 79151  1  0  0  0
 79152  1  0  0  0
 80 82  1  0  0  0
 80153  1  0  0  0
 80154  1  0  0  0
 81 82  1  0  0  0
 81 87  1  0  0  0
 81155  1  0  0  0
 81156  1  0  0  0
 82157  1  0  0  0
 83158  1  0  0  0
 83159  1  0  0  0
 83160  1  0  0  0
 84161  1  0  0  0
 84162  1  0  0  0
 84163  1  0  0  0
 85164  1  0  0  0
 85165  1  0  0  0
 85 87  1  0  0  0
 86166  1  0  0  0
 87167  1  0  0  0
M  CHG  1  87   1
M  ISO  4   1 100  68 101  82 101  86 100
M  END
> <chiral flag>
0

> <version>
0

> <s_m_source_file>
/data/baiqing/PycharmProjects/Reinvent-master-3.2/result/LINK_invent/BTK/process_docking_weight1_custom_product_contain_oxygen_bond_distance_aromatic_linkinvent_7_9_3/rearranged_h_0038.sdf

> <i_m_source_file_index>
57

> <r_mmod_Potential_Energy-OPLS-2005>
87.7526931762695

> <r_mmod_Stretch_Energy-OPLS-2005>
126.370819091797

> <r_mmod_Bend_Energy-OPLS-2005>
175.838226318359

> <r_mmod_Torsional_Energy-OPLS-2005>
274.480438232422

> <r_mmod_Improper_Torsional_Energy-OPLS-2005>
7.98510551452637

> <r_mmod_Van_der_Waal_Energy-OPLS-2005>
146.661361694336

> <r_mmod_Electrostatic_Energy-OPLS-2005>
-296.274383544922

> <r_mmod_Solvation_Energy-OPLS-2005>
-424.677001953125

> <b_mmod_Minimization_Converged-OPLS-2005>
0

> <r_mmod_RMS_Derivative-OPLS-2005>
3.05863094329834

$$$$
57
                    3D
 Structure written by MMmdl.
170179  0  0  1  0            999 V2000
  -30.5228  -14.5876   20.5144 C   0  0  0  0  0  0
  -30.4044  -12.3823   19.3833 C   0  0  0  0  0  0
  -29.4362  -12.5253   18.1787 C   0  0  0  0  0  0
  -27.9579  -12.4061   18.6029 C   0  0  0  0  0  0
  -27.6159  -13.2095   19.8785 C   0  0  2  0  0  0
  -28.6674  -12.9895   20.9889 C   0  0  0  0  0  0
  -25.2469  -13.8160   20.5914 C   0  0  0  0  0  0
  -24.1723  -13.0404   20.9287 C   0  0  0  0  0  0
  -24.6263  -11.6889   20.8733 C   0  0  0  0  0  0
  -23.8946  -10.4274   21.0371 C   0  0  0  0  0  0
  -24.3529   -9.4210   21.9160 C   0  0  0  0  0  0
  -23.6274   -8.2216   22.0701 C   0  0  0  0  0  0
  -22.4275   -8.0214   21.3461 C   0  0  0  0  0  0
  -21.9809   -9.0202   20.4607 C   0  0  0  0  0  0
  -22.7091  -10.2110   20.3060 C   0  0  0  0  0  0
  -21.6850   -6.0665   22.5273 C   0  0  0  0  0  0
  -21.4012   -6.5592   23.8200 C   0  0  0  0  0  0
  -21.3665   -5.6760   24.9166 C   0  0  0  0  0  0
  -21.6057   -4.3026   24.7225 C   0  0  0  0  0  0
  -21.8843   -3.8091   23.4361 C   0  0  0  0  0  0
  -21.9191   -4.6884   22.3403 C   0  0  0  0  0  0
  -22.7759  -13.5249   21.1926 C   0  0  0  0  0  0
  -22.1664   -4.2056   21.0983 F   0  0  0  0  0  0
  -21.5626   -3.4539   25.7752 F   0  0  0  0  0  0
  -29.9732  -13.3471   20.4182 N   0  0  0  0  0  0
  -26.2763  -12.9303   20.3463 N   0  0  0  0  0  0
  -25.9169  -11.6467   20.5860 N   0  0  0  0  0  0
  -22.0454  -12.8183   22.0479 N   0  0  0  0  0  0
  -25.4140  -15.1855   20.4460 N   0  0  0  0  0  0
  -31.6656  -14.8325   20.1221 O   0  0  0  0  0  0
  -21.6635   -6.8800   21.4221 O   0  0  0  0  0  0
  -22.3351  -14.5490   20.6737 O   0  0  0  0  0  0
  -24.6351  -31.8610   23.2013 C   0  0  0  0  0  0
  -25.9246  -32.4825   23.8382 C   0  0  1  0  0  0
  -27.1848  -27.3314   20.0574 C   0  0  0  0  0  0
  -25.6117  -33.8609   24.2348 N   0  0  0  0  0  0
  -23.4398  -30.5027   21.5278 C   0  0  2  0  0  0
  -24.8917  -28.9906   20.0569 C   0  0  0  0  0  0
  -22.7626  -29.4839   22.4681 C   0  0  0  0  0  0
  -18.0672  -28.0834   22.8778 C   0  0  0  0  0  0
  -24.1480  -36.7306   23.2635 C   0  0  0  0  0  0
  -25.9810  -30.7804   21.3923 C   0  0  0  0  0  0
  -26.0438  -29.4228   20.7185 C   0  0  0  0  0  0
  -27.1945  -28.5853   20.7451 C   0  0  0  0  0  0
  -26.0869  -27.0746   19.1998 C   0  0  0  0  0  0
  -24.9017  -27.8193   19.2860 C   0  0  0  0  0  0
  -23.6648  -29.8758   20.1253 C   0  0  0  0  0  0
  -25.4092  -36.3100   24.0351 C   0  0  1  0  0  0
  -20.6276  -28.3673   23.1108 C   0  0  2  0  0  0
  -20.7725  -26.9981   22.4093 C   0  0  0  0  0  0
  -19.6026  -26.6815   21.4739 C   0  0  0  0  0  0
  -18.3041  -26.7038   22.2759 C   0  0  0  0  0  0
  -19.1761  -28.8557   23.2968 C   0  0  0  0  0  0
  -18.9534  -30.1179   23.8950 C   0  0  0  0  0  0
  -17.6345  -30.6098   24.0343 C   0  0  0  0  0  0
  -25.9091  -34.9472   23.5167 C   0  0  0  0  0  0
  -16.5340  -29.8497   23.5787 C   0  0  0  0  0  0
  -16.7588  -28.5804   23.0082 C   0  0  0  0  0  0
  -26.4660  -31.6715   25.0804 C   0  0  0  0  0  0
  -25.3859  -31.3903   26.1504 C   0  0  0  0  0  0
  -27.0435  -30.3118   24.6384 C   0  0  0  0  0  0
  -27.6207  -32.4402   25.7623 C   0  0  0  0  0  0
  -27.5563  -37.1832   24.8483 C   0  0  0  0  0  0
  -21.4285  -29.3492   22.3816 N   0  0  0  0  0  0
  -26.4264  -37.3828   23.9472 N   0  0  0  0  0  0
  -24.6953  -31.0717   22.0921 N   0  0  0  0  0  0
  -23.4475  -28.8315   23.2579 O   0  0  0  0  0  0
  -28.0066  -26.2492   20.3958 O   0  0  0  0  0  0
  -26.5540  -34.8910   22.4672 O   0  0  0  0  0  0
  -23.5568  -32.1428   23.7368 O   0  0  0  0  0  0
  -28.5030  -19.2694   21.3164 C   0  0  0  0  0  0
  -27.3691  -20.1219   21.2270 C   0  0  0  0  0  0
  -28.5761  -17.9891   20.6915 C   0  0  0  0  0  0
  -26.2402  -19.6456   20.4744 C   0  0  0  0  0  0
  -26.3901  -18.4838   19.6632 C   0  0  0  0  0  0
  -27.5333  -17.6567   19.7961 C   0  0  0  0  0  0
  -25.8120  -23.1831   22.8883 C   0  0  0  0  0  0
  -25.5490  -22.6354   24.0865 C   0  0  0  0  0  0
  -25.1021  -24.4434   22.4199 C   0  0  0  0  0  0
  -25.8922  -25.3920   21.5159 C   0  0  0  0  0  0
  -27.8671  -23.8199   21.6089 C   0  0  0  0  0  0
  -27.2145  -25.0012   20.7859 C   0  0  2  0  0  0
  -24.8494  -20.2782   20.5597 C   0  0  0  0  0  0
  -25.3402  -18.0936   18.6163 C   0  0  0  0  0  0
  -29.7939  -17.0467   20.9675 C   0  0  0  0  0  0
  -27.3512  -21.3105   22.2389 C   0  0  0  0  0  0
  -29.6422  -15.5619   20.9052 N   0  0  0  0  0  0
  -26.8422  -22.7014   21.8801 N   0  3  1  0  0  0
  -27.6351  -16.5229   19.0630 F   0  0  0  0  0  0
  -31.4252  -12.5660   19.0560 H   0  0  0  0  0  0
  -30.3810  -11.3679   19.7792 H   0  0  0  0  0  0
  -29.6617  -11.7613   17.4378 H   0  0  0  0  0  0
  -29.5934  -13.4836   17.6896 H   0  0  0  0  0  0
  -27.7207  -11.3435   18.7465 H   0  0  0  0  0  0
  -27.3142  -12.7691   17.7849 H   0  0  0  0  0  0
  -27.6485  -14.2534   19.6015 H   0  0  0  0  0  0
  -28.6809  -11.9486   21.3070 H   0  0  0  0  0  0
  -28.4352  -13.5681   21.8861 H   0  0  0  0  0  0
  -25.2643   -9.5725   22.4748 H   0  0  0  0  0  0
  -23.9987   -7.4606   22.7382 H   0  0  0  0  0  0
  -21.0751   -8.8719   19.8927 H   0  0  0  0  0  0
  -22.3516  -10.9657   19.6228 H   0  0  0  0  0  0
  -21.2029   -7.6115   23.9667 H   0  0  0  0  0  0
  -21.1455   -6.0494   25.9055 H   0  0  0  0  0  0
  -22.0611   -2.7552   23.2905 H   0  0  0  0  0  0
  -22.4175  -11.9903   22.4870 H   0  0  0  0  0  0
  -21.1138  -13.1107   22.3010 H   0  0  0  0  0  0
  -24.6073  -15.7992   20.3990 H   0  0  0  0  0  0
  -26.2761  -15.5982   20.1017 H   0  0  0  0  0  0
  -26.7236  -32.5328   23.1019 H   0  0  0  0  0  0
  -25.0268  -33.9737   25.0538 H   0  0  0  0  0  0
  -22.7477  -31.3349   21.3861 H   0  0  0  0  0  0
  -23.3724  -35.9668   23.3286 H   0  0  0  0  0  0
  -24.3605  -36.8933   22.2055 H   0  0  0  0  0  0
  -23.7183  -37.6525   23.6633 H   0  0  0  0  0  0
  -26.1238  -31.5614   20.6411 H   0  0  0  0  0  0
  -26.8319  -30.8065   22.0536 H   0  0  0  0  0  0
  -28.0297  -28.8704   21.3727 H   0  0  0  0  0  0
  -26.0540  -26.1830   18.5874 H   0  0  0  0  0  0
  -24.0417  -27.5110   18.7165 H   0  0  0  0  0  0
  -23.7885  -30.6718   19.3816 H   0  0  0  0  0  0
  -22.7763  -29.3375   19.8070 H   0  0  0  0  0  0
  -25.1221  -36.1940   25.0837 H   0  0  0  0  0  0
  -21.0385  -28.2836   24.1197 H   0  0  0  0  0  0
  -20.8889  -26.2327   23.1909 H   0  0  0  0  0  0
  -21.6802  -26.9602   21.7969 H   0  0  0  0  0  0
  -19.7702  -25.6981   21.0050 H   0  0  0  0  0  0
  -19.5714  -27.4258   20.6719 H   0  0  0  0  0  0
  -17.4750  -26.3794   21.6494 H   0  0  0  0  0  0
  -18.3677  -25.9890   23.1067 H   0  0  0  0  0  0
  -19.7981  -30.6986   24.2463 H   0  0  0  0  0  0
  -17.4644  -31.5666   24.4866 H   0  0  0  0  0  0
  -15.5273  -30.2454   23.6408 H   0  0  0  0  0  0
  -15.9291  -27.9972   22.6318 H   0  0  0  0  0  0
  -24.6155  -30.7135   25.7892 H   0  0  0  0  0  0
  -24.8892  -32.3057   26.4774 H   0  0  0  0  0  0
  -25.8202  -30.9253   27.0391 H   0  0  0  0  0  0
  -26.3036  -29.6880   24.1390 H   0  0  0  0  0  0
  -27.4071  -29.7466   25.4999 H   0  0  0  0  0  0
  -27.8999  -30.4369   23.9703 H   0  0  0  0  0  0
  -27.2956  -33.3740   26.2281 H   0  0  0  0  0  0
  -28.4151  -32.6955   25.0566 H   0  0  0  0  0  0
  -28.0870  -31.8445   26.5550 H   0  0  0  0  0  0
  -28.2562  -38.0131   24.7473 H   0  0  0  0  0  0
  -28.1049  -36.2646   24.6324 H   0  0  0  0  0  0
  -27.2321  -37.1541   25.8906 H   0  0  0  0  0  0
  -20.9409  -29.9102   21.7049 H   0  0  0  0  0  0
  -26.0096  -38.2903   24.1584 H   0  0  0  0  0  0
  -29.3106  -19.5806   21.9614 H   0  0  0  0  0  0
  -24.7581  -23.0507   24.7025 H   0  0  0  0  0  0
  -26.0572  -21.7839   24.5160 H   0  0  0  0  0  0
  -24.8424  -25.0202   23.3042 H   0  0  0  0  0  0
  -24.1371  -24.1993   22.0039 H   0  0  0  0  0  0
  -26.0565  -26.3235   22.0671 H   0  0  0  0  0  0
  -25.1157  -25.6330   20.7877 H   0  0  0  0  0  0
  -28.2157  -24.2072   22.5770 H   0  0  0  0  0  0
  -28.7410  -23.4342   21.0710 H   0  0  0  0  0  0
  -26.9368  -24.5092   19.8422 H   0  0  0  0  0  0
  -24.7566  -21.1550   19.9238 H   0  0  0  0  0  0
  -24.5863  -20.5549   21.5816 H   0  0  0  0  0  0
  -24.0569  -19.5880   20.2718 H   0  0  0  0  0  0
  -24.5228  -17.4989   19.0250 H   0  0  0  0  0  0
  -25.8021  -17.5254   17.8021 H   0  0  0  0  0  0
  -24.9113  -18.9772   18.1473 H   0  0  0  0  0  0
  -30.1027  -17.2108   21.9981 H   0  0  0  0  0  0
  -30.6408  -17.3350   20.3422 H   0  0  0  0  0  0
  -28.2555  -21.3698   22.8579 H   0  0  0  0  0  0
  -26.6376  -20.8027   22.8774 H   0  0  0  0  0  0
  -28.7498  -15.1921   21.1874 H   0  0  0  0  0  0
  -26.3457  -22.5997   21.0059 H   0  0  0  0  0  0
  1 25  1  0  0  0
  1 30  2  0  0  0
  1 87  1  0  0  0
  2  3  1  0  0  0
  2 25  1  0  0  0
  2 90  1  0  0  0
  2 91  1  0  0  0
  3  4  1  0  0  0
  3 92  1  0  0  0
  3 93  1  0  0  0
  4  5  1  0  0  0
  4 94  1  0  0  0
  4 95  1  0  0  0
  5  6  1  0  0  0
  5 26  1  0  0  0
  5 96  1  0  0  0
  6 25  1  0  0  0
  6 97  1  0  0  0
  6 98  1  0  0  0
  7  8  2  0  0  0
  7 26  1  0  0  0
  7 29  1  0  0  0
  8  9  1  0  0  0
  8 22  1  0  0  0
  9 10  1  0  0  0
  9 27  2  0  0  0
 10 11  2  0  0  0
 10 15  1  0  0  0
 11 12  1  0  0  0
 11 99  1  0  0  0
 12 13  2  0  0  0
 12100  1  0  0  0
 13 14  1  0  0  0
 13 31  1  0  0  0
 14 15  2  0  0  0
 14101  1  0  0  0
 15102  1  0  0  0
 16 17  2  0  0  0
 16 21  1  0  0  0
 16 31  1  0  0  0
 17 18  1  0  0  0
 17103  1  0  0  0
 18 19  2  0  0  0
 18104  1  0  0  0
 19 20  1  0  0  0
 19 24  1  0  0  0
 20 21  2  0  0  0
 20105  1  0  0  0
 21 23  1  0  0  0
 22 28  1  0  0  0
 22 32  2  0  0  0
 26 27  1  0  0  0
 28106  1  0  0  0
 28107  1  0  0  0
 29108  1  0  0  0
 29109  1  0  0  0
 33 34  1  0  0  0
 33 66  1  0  0  0
 33 70  2  0  0  0
 34 36  1  0  0  0
 34 59  1  0  0  0
 34110  1  0  0  0
 35 44  2  0  0  0
 35 45  1  0  0  0
 35 68  1  0  0  0
 36 56  1  0  0  0
 36111  1  0  0  0
 37 39  1  0  0  0
 37 47  1  0  0  0
 37 66  1  0  0  0
 37112  1  0  0  0
 38 43  2  0  0  0
 38 46  1  0  0  0
 38 47  1  0  0  0
 39 64  1  0  0  0
 39 67  2  0  0  0
 40 52  1  0  0  0
 40 53  2  0  0  0
 40 58  1  0  0  0
 41113  1  0  0  0
 41114  1  0  0  0
 41115  1  0  0  0
 41 48  1  0  0  0
 42 43  1  0  0  0
 42 66  1  0  0  0
 42116  1  0  0  0
 42117  1  0  0  0
 43 44  1  0  0  0
 44118  1  0  0  0
 45 46  2  0  0  0
 45119  1  0  0  0
 46120  1  0  0  0
 47121  1  0  0  0
 47122  1  0  0  0
 48 56  1  0  0  0
 48 65  1  0  0  0
 48123  1  0  0  0
 49 50  1  0  0  0
 49 53  1  0  0  0
 49 64  1  0  0  0
 49124  1  0  0  0
 50 51  1  0  0  0
 50125  1  0  0  0
 50126  1  0  0  0
 51 52  1  0  0  0
 51127  1  0  0  0
 51128  1  0  0  0
 52129  1  0  0  0
 52130  1  0  0  0
 53 54  1  0  0  0
 54 55  2  0  0  0
 54131  1  0  0  0
 55 57  1  0  0  0
 55132  1  0  0  0
 56 69  2  0  0  0
 57 58  2  0  0  0
 57133  1  0  0  0
 58134  1  0  0  0
 59 60  1  0  0  0
 59 61  1  0  0  0
 59 62  1  0  0  0
 60135  1  0  0  0
 60136  1  0  0  0
 60137  1  0  0  0
 61138  1  0  0  0
 61139  1  0  0  0
 61140  1  0  0  0
 62141  1  0  0  0
 62142  1  0  0  0
 62143  1  0  0  0
 63 65  1  0  0  0
 63144  1  0  0  0
 63145  1  0  0  0
 63146  1  0  0  0
 64147  1  0  0  0
 65148  1  0  0  0
 68 82  1  0  0  0
 71 72  2  0  0  0
 71 73  1  0  0  0
 71149  1  0  0  0
 72 74  1  0  0  0
 72 86  1  0  0  0
 73 76  2  0  0  0
 73 85  1  0  0  0
 74 75  2  0  0  0
 74 83  1  0  0  0
 75 76  1  0  0  0
 75 84  1  0  0  0
 76 89  1  0  0  0
 77 78  2  0  0  0
 77 79  1  0  0  0
 77 88  1  0  0  0
 78150  1  0  0  0
 78151  1  0  0  0
 79 80  1  0  0  0
 79152  1  0  0  0
 79153  1  0  0  0
 80 82  1  0  0  0
 80154  1  0  0  0
 80155  1  0  0  0
 81 82  1  0  0  0
 81 88  1  0  0  0
 81156  1  0  0  0
 81157  1  0  0  0
 82158  1  0  0  0
 83159  1  0  0  0
 83160  1  0  0  0
 83161  1  0  0  0
 84162  1  0  0  0
 84163  1  0  0  0
 84164  1  0  0  0
 85 87  1  0  0  0
 85165  1  0  0  0
 85166  1  0  0  0
 86167  1  0  0  0
 86168  1  0  0  0
 86 88  1  0  0  0
 87169  1  0  0  0
 88170  1  0  0  0
M  CHG  1  88   1
M  ISO  4   1 100  68 101  82 101  87 100
M  END
> <chiral flag>
0

> <version>
0

> <s_m_source_file>
/data/baiqing/PycharmProjects/Reinvent-master-3.2/result/LINK_invent/BTK/process_docking_weight1_custom_product_contain_oxygen_bond_distance_aromatic_linkinvent_7_9_3/rearranged_h_0038.sdf

> <i_m_source_file_index>
58

> <r_mmod_Potential_Energy-OPLS-2005>
205.690841674805

> <r_mmod_Stretch_Energy-OPLS-2005>
96.1174392700195

> <r_mmod_Bend_Energy-OPLS-2005>
197.352752685547

> <r_mmod_Torsional_Energy-OPLS-2005>
298.724273681641

> <r_mmod_Improper_Torsional_Energy-OPLS-2005>
10.5578308105469

> <r_mmod_Van_der_Waal_Energy-OPLS-2005>
194.682220458984

> <r_mmod_Electrostatic_Energy-OPLS-2005>
-303.982849121094

> <r_mmod_Solvation_Energy-OPLS-2005>
-411.50634765625

> <b_mmod_Minimization_Converged-OPLS-2005>
0

> <r_mmod_RMS_Derivative-OPLS-2005>
26.371789932251

$$$$
58
                    3D
 Structure written by MMmdl.
170179  0  0  1  0            999 V2000
  -30.6388  -14.8158   20.5202 C   0  0  0  0  0  0
  -30.4323  -12.5239   19.4961 C   0  0  0  0  0  0
  -29.5179  -12.5121   18.2549 C   0  0  0  0  0  0
  -28.0531  -12.3095   18.6802 C   0  0  0  0  0  0
  -27.6421  -13.2359   19.8559 C   0  0  2  0  0  0
  -28.6823  -13.2376   20.9974 C   0  0  0  0  0  0
  -25.2544  -13.8184   20.5719 C   0  0  0  0  0  0
  -24.1811  -13.0412   20.9197 C   0  0  0  0  0  0
  -24.6388  -11.6914   20.8755 C   0  0  0  0  0  0
  -23.9031  -10.4293   21.0390 C   0  0  0  0  0  0
  -24.3588   -9.4217   21.9166 C   0  0  0  0  0  0
  -23.6283   -8.2238   22.0756 C   0  0  0  0  0  0
  -22.4264   -8.0270   21.3549 C   0  0  0  0  0  0
  -21.9904   -9.0213   20.4631 C   0  0  0  0  0  0
  -22.7206  -10.2102   20.3038 C   0  0  0  0  0  0
  -21.6859   -6.0732   22.5263 C   0  0  0  0  0  0
  -21.4034   -6.5639   23.8197 C   0  0  0  0  0  0
  -21.3673   -5.6790   24.9162 C   0  0  0  0  0  0
  -21.6034   -4.3052   24.7228 C   0  0  0  0  0  0
  -21.8817   -3.8143   23.4357 C   0  0  0  0  0  0
  -21.9208   -4.6957   22.3413 C   0  0  0  0  0  0
  -22.7857  -13.5217   21.1851 C   0  0  0  0  0  0
  -22.1679   -4.2133   21.0995 F   0  0  0  0  0  0
  -21.5636   -3.4547   25.7754 F   0  0  0  0  0  0
  -29.9670  -13.6129   20.3958 N   0  0  0  0  0  0
  -26.2960  -12.9369   20.3340 N   0  0  0  0  0  0
  -25.9324  -11.6506   20.5780 N   0  0  0  0  0  0
  -22.0470  -12.8195   22.0384 N   0  0  0  0  0  0
  -25.4239  -15.1894   20.4168 N   0  0  0  0  0  0
  -31.8239  -14.8530   20.1752 O   0  0  0  0  0  0
  -21.6649   -6.8853   21.4213 O   0  0  0  0  0  0
  -22.3572  -14.5525   20.6705 O   0  0  0  0  0  0
  -24.6428  -31.8460   23.1968 C   0  0  0  0  0  0
  -25.9233  -32.4678   23.8327 C   0  0  1  0  0  0
  -27.2184  -27.1928   20.1195 C   0  0  0  0  0  0
  -25.6020  -33.8490   24.2211 N   0  0  0  0  0  0
  -23.4415  -30.4706   21.5407 C   0  0  2  0  0  0
  -24.8828  -28.9079   20.1182 C   0  0  0  0  0  0
  -22.7509  -29.4625   22.4913 C   0  0  0  0  0  0
  -18.0298  -28.1411   22.8493 C   0  0  0  0  0  0
  -24.1498  -36.7235   23.2654 C   0  0  0  0  0  0
  -25.9964  -30.7353   21.3903 C   0  0  0  0  0  0
  -26.0649  -29.3572   20.7221 C   0  0  0  0  0  0
  -27.2323  -28.5131   20.7111 C   0  0  0  0  0  0
  -25.9916  -26.8217   19.5173 C   0  0  0  0  0  0
  -24.8530  -27.6471   19.5136 C   0  0  0  0  0  0
  -23.6600  -29.8032   20.1601 C   0  0  0  0  0  0
  -25.4113  -36.2983   24.0329 C   0  0  1  0  0  0
  -20.5887  -28.3767   23.1245 C   0  0  2  0  0  0
  -20.6791  -26.9488   22.5390 C   0  0  0  0  0  0
  -19.5797  -26.6395   21.5191 C   0  0  0  0  0  0
  -18.1963  -26.7962   22.1572 C   0  0  0  0  0  0
  -19.1540  -28.8889   23.2864 C   0  0  0  0  0  0
  -18.9481  -30.1480   23.8895 C   0  0  0  0  0  0
  -17.6488  -30.6615   24.0563 C   0  0  0  0  0  0
  -25.9068  -34.9375   23.5030 C   0  0  0  0  0  0
  -16.5370  -29.9112   23.6377 C   0  0  0  0  0  0
  -16.7282  -28.6509   23.0428 C   0  0  0  0  0  0
  -26.4551  -31.6606   25.0797 C   0  0  0  0  0  0
  -25.3774  -31.3852   26.1521 C   0  0  0  0  0  0
  -27.0455  -30.2997   24.6442 C   0  0  0  0  0  0
  -27.6001  -32.4461   25.7624 C   0  0  0  0  0  0
  -27.5565  -37.1738   24.8473 C   0  0  0  0  0  0
  -21.4208  -29.3105   22.3618 N   0  0  0  0  0  0
  -26.4262  -37.3713   23.9444 N   0  0  0  0  0  0
  -24.7126  -31.0393   22.0951 N   0  0  0  0  0  0
  -23.4147  -28.8159   23.3051 O   0  0  0  0  0  0
  -28.3062  -26.2578   20.1742 O   0  0  0  0  0  0
  -26.5605  -34.8863   22.4592 O   0  0  0  0  0  0
  -23.5564  -32.1321   23.7223 O   0  0  0  0  0  0
  -31.3913  -16.7471   22.6159 C   0  0  0  0  0  0
  -30.6470  -19.4344   22.7481 C   0  0  0  0  0  0
  -30.1373  -18.6583   21.6401 C   0  0  0  0  0  0
  -31.6092  -18.9203   23.6546 C   0  0  0  0  0  0
  -30.4861  -17.1948   21.6151 C   0  0  0  0  0  0
  -31.9566  -17.5680   23.5904 C   0  0  0  0  0  0
  -30.2608  -23.9276   17.2355 C   0  0  0  0  0  0
  -28.9969  -24.6778   16.8611 C   0  0  0  0  0  0
  -29.9371  -22.9861   18.3889 C   0  0  0  0  0  0
  -28.6667  -25.6126   18.0117 C   0  0  0  0  0  0
  -29.2747  -23.5824   19.6767 C   0  0  1  0  0  0
  -28.3276  -24.9476   19.3791 C   0  0  1  0  0  0
  -30.1186  -20.8402   23.0528 C   0  0  0  0  0  0
  -32.2692  -19.7840   24.7325 C   0  0  0  0  0  0
  -29.2110  -19.5269   20.6530 C   0  0  0  0  0  0
  -28.6972  -22.1825   20.3358 C   0  0  0  0  0  0
  -29.9728  -16.0190   20.8283 N   0  0  0  0  0  0
  -29.6086  -20.9657   20.3626 O   0  0  0  0  0  0
  -33.0175  -16.8597   24.7604 Cl  0  0  0  0  0  0
  -31.4703  -12.6504   19.1877 H   0  0  0  0  0  0
  -30.3972  -11.5657   20.0149 H   0  0  0  0  0  0
  -29.8184  -11.7200   17.5670 H   0  0  0  0  0  0
  -29.6245  -13.4520   17.7111 H   0  0  0  0  0  0
  -27.9486  -11.2698   18.9902 H   0  0  0  0  0  0
  -27.3846  -12.4473   17.8302 H   0  0  0  0  0  0
  -27.6188  -14.2443   19.4418 H   0  0  0  0  0  0
  -28.7500  -12.2603   21.4789 H   0  0  0  0  0  0
  -28.3916  -13.9444   21.7778 H   0  0  0  0  0  0
  -25.2692   -9.5745   22.4784 H   0  0  0  0  0  0
  -23.9996   -7.4648   22.7517 H   0  0  0  0  0  0
  -21.0846   -8.8702   19.8947 H   0  0  0  0  0  0
  -22.3620  -10.9638   19.6182 H   0  0  0  0  0  0
  -21.2019   -7.6138   23.9703 H   0  0  0  0  0  0
  -21.1513   -6.0528   25.9062 H   0  0  0  0  0  0
  -22.0595   -2.7604   23.2867 H   0  0  0  0  0  0
  -22.4065  -11.9865   22.4802 H   0  0  0  0  0  0
  -21.1079  -13.1231   22.2521 H   0  0  0  0  0  0
  -24.6568  -15.8437   20.5312 H   0  0  0  0  0  0
  -26.2702  -15.6274   20.0747 H   0  0  0  0  0  0
  -26.7293  -32.5239   23.1054 H   0  0  0  0  0  0
  -25.0325  -33.9656   25.0449 H   0  0  0  0  0  0
  -22.7495  -31.3014   21.3924 H   0  0  0  0  0  0
  -23.3741  -35.9589   23.3289 H   0  0  0  0  0  0
  -24.3614  -36.8894   22.2075 H   0  0  0  0  0  0
  -23.7217  -37.6415   23.6706 H   0  0  0  0  0  0
  -26.1641  -31.5024   20.6323 H   0  0  0  0  0  0
  -26.8584  -30.7609   22.0456 H   0  0  0  0  0  0
  -28.1388  -28.8495   21.1977 H   0  0  0  0  0  0
  -25.8413  -25.8521   19.0730 H   0  0  0  0  0  0
  -23.9325  -27.2881   19.0699 H   0  0  0  0  0  0
  -23.8010  -30.5785   19.4072 H   0  0  0  0  0  0
  -22.7704  -29.2485   19.8487 H   0  0  0  0  0  0
  -25.1269  -36.1801   25.0812 H   0  0  0  0  0  0
  -20.9960  -28.3347   24.1370 H   0  0  0  0  0  0
  -20.5737  -26.2375   23.3591 H   0  0  0  0  0  0
  -21.6670  -26.7599   22.1161 H   0  0  0  0  0  0
  -19.7021  -25.6289   21.1275 H   0  0  0  0  0  0
  -19.6724  -27.3140   20.6661 H   0  0  0  0  0  0
  -17.4226  -26.6762   21.3948 H   0  0  0  0  0  0
  -18.0395  -26.0071   22.8922 H   0  0  0  0  0  0
  -19.7967  -30.7296   24.2257 H   0  0  0  0  0  0
  -17.5061  -31.6303   24.5159 H   0  0  0  0  0  0
  -15.5372  -30.3008   23.7744 H   0  0  0  0  0  0
  -15.8673  -28.0779   22.7258 H   0  0  0  0  0  0
  -24.5854  -30.7282   25.7929 H   0  0  0  0  0  0
  -24.9112  -32.3097   26.4932 H   0  0  0  0  0  0
  -25.8097  -30.9042   27.0307 H   0  0  0  0  0  0
  -26.3097  -29.6668   24.1450 H   0  0  0  0  0  0
  -27.4038  -29.7343   25.5060 H   0  0  0  0  0  0
  -27.9039  -30.4228   23.9823 H   0  0  0  0  0  0
  -27.2441  -33.3718   26.2158 H   0  0  0  0  0  0
  -28.3853  -32.7116   25.0542 H   0  0  0  0  0  0
  -28.0630  -31.8660   26.5605 H   0  0  0  0  0  0
  -28.2506  -38.0092   24.7527 H   0  0  0  0  0  0
  -28.1100  -36.2598   24.6250 H   0  0  0  0  0  0
  -27.2322  -37.1344   25.8887 H   0  0  0  0  0  0
  -20.9446  -29.8733   21.6711 H   0  0  0  0  0  0
  -26.0108  -38.2786   24.1434 H   0  0  0  0  0  0
  -31.6724  -15.7103   22.6977 H   0  0  0  0  0  0
  -31.0628  -24.6148   17.5081 H   0  0  0  0  0  0
  -30.6268  -23.3616   16.3788 H   0  0  0  0  0  0
  -28.1675  -24.0007   16.6532 H   0  0  0  0  0  0
  -29.1658  -25.2599   15.9545 H   0  0  0  0  0  0
  -30.8463  -22.4501   18.6631 H   0  0  0  0  0  0
  -29.2784  -22.2255   17.9676 H   0  0  0  0  0  0
  -27.8493  -26.2553   17.6884 H   0  0  0  0  0  0
  -29.5299  -26.2725   18.1413 H   0  0  0  0  0  0
  -30.0998  -23.9310   20.2986 H   0  0  0  0  0  0
  -27.3291  -24.5267   19.3194 H   0  0  0  0  0  0
  -29.0594  -20.9265   22.8261 H   0  0  0  0  0  0
  -30.6845  -21.5936   22.5040 H   0  0  0  0  0  0
  -30.1616  -21.0973   24.1106 H   0  0  0  0  0  0
  -31.7773  -19.6157   25.6909 H   0  0  0  0  0  0
  -32.2616  -20.8516   24.5130 H   0  0  0  0  0  0
  -33.3245  -19.5340   24.8462 H   0  0  0  0  0  0
  -28.2095  -19.5199   21.0833 H   0  0  0  0  0  0
  -29.1307  -18.9926   19.7070 H   0  0  0  0  0  0
  -27.7943  -21.8928   19.7928 H   0  0  0  0  0  0
  -28.3552  -22.3890   21.3494 H   0  0  0  0  0  0
  -28.9677  -15.9742   20.7524 H   0  0  0  0  0  0
  1 25  1  0  0  0
  1 30  2  0  0  0
  1 87  1  0  0  0
  2  3  1  0  0  0
  2 25  1  0  0  0
  2 90  1  0  0  0
  2 91  1  0  0  0
  3  4  1  0  0  0
  3 92  1  0  0  0
  3 93  1  0  0  0
  4  5  1  0  0  0
  4 94  1  0  0  0
  4 95  1  0  0  0
  5  6  1  0  0  0
  5 26  1  0  0  0
  5 96  1  0  0  0
  6 25  1  0  0  0
  6 97  1  0  0  0
  6 98  1  0  0  0
  7  8  2  0  0  0
  7 26  1  0  0  0
  7 29  1  0  0  0
  8  9  1  0  0  0
  8 22  1  0  0  0
  9 10  1  0  0  0
  9 27  2  0  0  0
 10 11  2  0  0  0
 10 15  1  0  0  0
 11 12  1  0  0  0
 11 99  1  0  0  0
 12 13  2  0  0  0
 12100  1  0  0  0
 13 14  1  0  0  0
 13 31  1  0  0  0
 14 15  2  0  0  0
 14101  1  0  0  0
 15102  1  0  0  0
 16 17  2  0  0  0
 16 21  1  0  0  0
 16 31  1  0  0  0
 17 18  1  0  0  0
 17103  1  0  0  0
 18 19  2  0  0  0
 18104  1  0  0  0
 19 20  1  0  0  0
 19 24  1  0  0  0
 20 21  2  0  0  0
 20105  1  0  0  0
 21 23  1  0  0  0
 22 28  1  0  0  0
 22 32  2  0  0  0
 26 27  1  0  0  0
 28106  1  0  0  0
 28107  1  0  0  0
 29108  1  0  0  0
 29109  1  0  0  0
 33 34  1  0  0  0
 33 66  1  0  0  0
 33 70  2  0  0  0
 34 36  1  0  0  0
 34 59  1  0  0  0
 34110  1  0  0  0
 35 44  2  0  0  0
 35 45  1  0  0  0
 35 68  1  0  0  0
 36 56  1  0  0  0
 36111  1  0  0  0
 37 39  1  0  0  0
 37 47  1  0  0  0
 37 66  1  0  0  0
 37112  1  0  0  0
 38 43  2  0  0  0
 38 46  1  0  0  0
 38 47  1  0  0  0
 39 64  1  0  0  0
 39 67  2  0  0  0
 40 52  1  0  0  0
 40 53  2  0  0  0
 40 58  1  0  0  0
 41113  1  0  0  0
 41114  1  0  0  0
 41115  1  0  0  0
 41 48  1  0  0  0
 42 43  1  0  0  0
 42 66  1  0  0  0
 42116  1  0  0  0
 42117  1  0  0  0
 43 44  1  0  0  0
 44118  1  0  0  0
 45 46  2  0  0  0
 45119  1  0  0  0
 46120  1  0  0  0
 47121  1  0  0  0
 47122  1  0  0  0
 48 56  1  0  0  0
 48 65  1  0  0  0
 48123  1  0  0  0
 49 50  1  0  0  0
 49 53  1  0  0  0
 49 64  1  0  0  0
 49124  1  0  0  0
 50 51  1  0  0  0
 50125  1  0  0  0
 50126  1  0  0  0
 51 52  1  0  0  0
 51127  1  0  0  0
 51128  1  0  0  0
 52129  1  0  0  0
 52130  1  0  0  0
 53 54  1  0  0  0
 54 55  2  0  0  0
 54131  1  0  0  0
 55 57  1  0  0  0
 55132  1  0  0  0
 56 69  2  0  0  0
 57 58  2  0  0  0
 57133  1  0  0  0
 58134  1  0  0  0
 59 60  1  0  0  0
 59 61  1  0  0  0
 59 62  1  0  0  0
 60135  1  0  0  0
 60136  1  0  0  0
 60137  1  0  0  0
 61138  1  0  0  0
 61139  1  0  0  0
 61140  1  0  0  0
 62141  1  0  0  0
 62142  1  0  0  0
 62143  1  0  0  0
 63 65  1  0  0  0
 63144  1  0  0  0
 63145  1  0  0  0
 63146  1  0  0  0
 64147  1  0  0  0
 65148  1  0  0  0
 68 82  1  0  0  0
 71 75  2  0  0  0
 71 76  1  0  0  0
 71149  1  0  0  0
 72 73  2  0  0  0
 72 74  1  0  0  0
 72 83  1  0  0  0
 73 75  1  0  0  0
 73 85  1  0  0  0
 74 76  2  0  0  0
 74 84  1  0  0  0
 75 87  1  0  0  0
 76 89  1  0  0  0
 77 78  1  0  0  0
 77 79  1  0  0  0
 77150  1  0  0  0
 77151  1  0  0  0
 78 80  1  0  0  0
 78152  1  0  0  0
 78153  1  0  0  0
 79 81  1  0  0  0
 79154  1  0  0  0
 79155  1  0  0  0
 80 82  1  0  0  0
 80156  1  0  0  0
 80157  1  0  0  0
 81 82  1  0  0  0
 81 86  1  0  0  0
 81158  1  0  0  0
 82159  1  0  0  0
 83160  1  0  0  0
 83161  1  0  0  0
 83162  1  0  0  0
 84163  1  0  0  0
 84164  1  0  0  0
 84165  1  0  0  0
 85 88  1  0  0  0
 85166  1  0  0  0
 85167  1  0  0  0
 86 88  1  0  0  0
 86168  1  0  0  0
 86169  1  0  0  0
 87170  1  0  0  0
M  ISO  4   1 100  68 101  82 101  87 100
M  END
> <chiral flag>
0

> <version>
0

> <s_m_source_file>
/data/baiqing/PycharmProjects/Reinvent-master-3.2/result/LINK_invent/BTK/process_docking_weight1_custom_product_contain_oxygen_bond_distance_aromatic_linkinvent_7_9_3/rearranged_h_0038.sdf

> <i_m_source_file_index>
59

> <r_mmod_Potential_Energy-OPLS-2005>
573.967041015625

> <r_mmod_Stretch_Energy-OPLS-2005>
221.61067199707

> <r_mmod_Bend_Energy-OPLS-2005>
285.674194335938

> <r_mmod_Torsional_Energy-OPLS-2005>
286.324096679688

> <r_mmod_Improper_Torsional_Energy-OPLS-2005>
5.881667137146

> <r_mmod_Van_der_Waal_Energy-OPLS-2005>
180.374526977539

> <r_mmod_Electrostatic_Energy-OPLS-2005>
-326.022277832031

> <r_mmod_Solvation_Energy-OPLS-2005>
-206.43782043457

> <b_mmod_Minimization_Converged-OPLS-2005>
0

> <r_mmod_RMS_Derivative-OPLS-2005>
5.39321517944336

$$$$
59
                    3D
 Structure written by MMmdl.
159167  0  0  1  0            999 V2000
  -30.6973  -14.5462   20.5793 C   0  0  0  0  0  0
  -30.4134  -12.3590   19.4513 C   0  0  0  0  0  0
  -29.4982  -12.5052   18.2183 C   0  0  0  0  0  0
  -28.0218  -12.3505   18.6319 C   0  0  0  0  0  0
  -27.6488  -13.2102   19.8669 C   0  0  2  0  0  0
  -28.6827  -13.0551   21.0013 C   0  0  0  0  0  0
  -25.2494  -13.8101   20.5569 C   0  0  0  0  0  0
  -24.1786  -13.0375   20.9222 C   0  0  0  0  0  0
  -24.6392  -11.6853   20.8787 C   0  0  0  0  0  0
  -23.9060  -10.4234   21.0459 C   0  0  0  0  0  0
  -24.3609   -9.4159   21.9230 C   0  0  0  0  0  0
  -23.6277   -8.2207   22.0775 C   0  0  0  0  0  0
  -22.4270   -8.0261   21.3545 C   0  0  0  0  0  0
  -21.9914   -9.0248   20.4654 C   0  0  0  0  0  0
  -22.7248  -10.2117   20.3082 C   0  0  0  0  0  0
  -21.6845   -6.0694   22.5279 C   0  0  0  0  0  0
  -21.4007   -6.5608   23.8203 C   0  0  0  0  0  0
  -21.3674   -5.6781   24.9178 C   0  0  0  0  0  0
  -21.6062   -4.3040   24.7250 C   0  0  0  0  0  0
  -21.8812   -3.8112   23.4372 C   0  0  0  0  0  0
  -21.9180   -4.6917   22.3414 C   0  0  0  0  0  0
  -22.7833  -13.5241   21.1904 C   0  0  0  0  0  0
  -22.1646   -4.2104   21.0991 F   0  0  0  0  0  0
  -21.5649   -3.4524   25.7764 F   0  0  0  0  0  0
  -29.9964  -13.3804   20.4368 N   0  0  0  0  0  0
  -26.2934  -12.9287   20.3285 N   0  0  0  0  0  0
  -25.9314  -11.6457   20.5780 N   0  0  0  0  0  0
  -22.0431  -12.8223   22.0406 N   0  0  0  0  0  0
  -25.4149  -15.1759   20.3729 N   0  0  0  0  0  0
  -31.8708  -14.6248   20.2190 O   0  0  0  0  0  0
  -21.6617   -6.8855   21.4250 O   0  0  0  0  0  0
  -22.3590  -14.5621   20.6880 O   0  0  0  0  0  0
  -24.6136  -31.8652   23.2094 C   0  0  0  0  0  0
  -25.9031  -32.4804   23.8381 C   0  0  1  0  0  0
  -27.2155  -27.3813   20.1224 C   0  0  0  0  0  0
  -25.5874  -33.8596   24.2312 N   0  0  0  0  0  0
  -23.4037  -30.4873   21.5534 C   0  0  2  0  0  0
  -24.8434  -28.9444   20.1184 C   0  0  0  0  0  0
  -22.7486  -29.4571   22.5016 C   0  0  0  0  0  0
  -18.0288  -28.1303   22.8635 C   0  0  0  0  0  0
  -24.1477  -36.7311   23.2636 C   0  0  0  0  0  0
  -25.9354  -30.8176   21.3634 C   0  0  0  0  0  0
  -26.0074  -29.4460   20.7155 C   0  0  0  0  0  0
  -27.1948  -28.6792   20.7028 C   0  0  0  0  0  0
  -26.0368  -26.9033   19.5110 C   0  0  0  0  0  0
  -24.8576  -27.6776   19.5084 C   0  0  0  0  0  0
  -23.6122  -29.8253   20.1668 C   0  0  0  0  0  0
  -25.4102  -36.3117   24.0339 C   0  0  1  0  0  0
  -20.5920  -28.3515   23.1324 C   0  0  2  0  0  0
  -20.6681  -26.9283   22.5435 C   0  0  0  0  0  0
  -19.5637  -26.6408   21.5263 C   0  0  0  0  0  0
  -18.1877  -26.7817   22.1829 C   0  0  0  0  0  0
  -19.1569  -28.8758   23.2943 C   0  0  0  0  0  0
  -18.9579  -30.1439   23.8808 C   0  0  0  0  0  0
  -17.6600  -30.6675   24.0454 C   0  0  0  0  0  0
  -25.9053  -34.9465   23.5140 C   0  0  0  0  0  0
  -16.5421  -29.9110   23.6446 C   0  0  0  0  0  0
  -16.7315  -28.6472   23.0574 C   0  0  0  0  0  0
  -26.4458  -31.6599   25.0727 C   0  0  0  0  0  0
  -25.3708  -31.3695   26.1472 C   0  0  0  0  0  0
  -27.0296  -30.3040   24.6107 C   0  0  0  0  0  0
  -27.6051  -32.4308   25.7485 C   0  0  0  0  0  0
  -27.5582  -37.1817   24.8469 C   0  0  0  0  0  0
  -21.4194  -29.2975   22.3797 N   0  0  0  0  0  0
  -26.4292  -37.3799   23.9422 N   0  0  0  0  0  0
  -24.6703  -31.0720   22.1001 N   0  0  0  0  0  0
  -23.4260  -28.8087   23.3041 O   0  0  0  0  0  0
  -28.4032  -26.6557   20.1428 O   0  0  0  0  0  0
  -26.5614  -34.8921   22.4707 O   0  0  0  0  0  0
  -23.5309  -32.1421   23.7466 O   0  0  0  0  0  0
  -29.3737  -20.6356   22.2179 C   0  0  0  0  0  0
  -30.1744  -19.7131   22.9064 C   0  0  0  0  0  0
  -28.4298  -20.2216   21.2593 C   0  0  0  0  0  0
  -28.2809  -18.7984   21.0328 C   0  0  0  0  0  0
  -29.1015  -17.8432   21.7402 C   0  0  0  0  0  0
  -30.0448  -18.3366   22.6764 C   0  0  0  0  0  0
  -27.2128  -18.2578   20.0884 C   0  0  0  0  0  0
  -28.9939  -16.2915   21.5577 C   0  0  0  0  0  0
  -27.5540  -21.3501   20.6236 C   0  0  0  0  0  0
  -27.5477  -23.9403   20.4472 C   0  0  0  0  0  0
  -28.5097  -25.1924   20.2781 C   0  0  0  0  0  0
  -30.0414  -15.7319   20.6796 N   0  0  0  0  0  0
  -28.2849  -22.6272   20.3053 N   0  3  0  0  0  0
  -31.0469  -17.2784   23.6063 Cl  0  0  0  0  0  0
  -31.4652  -12.4511   19.1610 H   0  0  0  0  0  0
  -30.3216  -11.3585   19.8758 H   0  0  0  0  0  0
  -29.7515  -11.7611   17.4622 H   0  0  0  0  0  0
  -29.6492  -13.4790   17.7487 H   0  0  0  0  0  0
  -27.8491  -11.2925   18.8411 H   0  0  0  0  0  0
  -27.3711  -12.6069   17.7958 H   0  0  0  0  0  0
  -27.6780  -14.2467   19.5341 H   0  0  0  0  0  0
  -28.6810  -12.0369   21.3987 H   0  0  0  0  0  0
  -28.4372  -13.6976   21.8446 H   0  0  0  0  0  0
  -25.2747   -9.5649   22.4794 H   0  0  0  0  0  0
  -23.9975   -7.4581   22.7483 H   0  0  0  0  0  0
  -21.0852   -8.8794   19.8927 H   0  0  0  0  0  0
  -22.3732  -10.9664   19.6182 H   0  0  0  0  0  0
  -21.1992   -7.6112   23.9696 H   0  0  0  0  0  0
  -21.1518   -6.0509   25.9082 H   0  0  0  0  0  0
  -22.0580   -2.7568   23.2893 H   0  0  0  0  0  0
  -22.4054  -11.9889   22.4781 H   0  0  0  0  0  0
  -21.1054  -13.1244   22.2611 H   0  0  0  0  0  0
  -24.6151  -15.8005   20.3949 H   0  0  0  0  0  0
  -26.1972  -15.5497   19.8584 H   0  0  0  0  0  0
  -26.7076  -32.5494   23.1100 H   0  0  0  0  0  0
  -25.0049  -33.9758   25.0467 H   0  0  0  0  0  0
  -22.6853  -31.2982   21.4186 H   0  0  0  0  0  0
  -23.3750  -35.9637   23.3302 H   0  0  0  0  0  0
  -24.3583  -36.8927   22.2062 H   0  0  0  0  0  0
  -23.7223  -37.6501   23.6655 H   0  0  0  0  0  0
  -26.0498  -31.5808   20.5937 H   0  0  0  0  0  0
  -26.8179  -30.8689   21.9888 H   0  0  0  0  0  0
  -28.0953  -29.0747   21.1494 H   0  0  0  0  0  0
  -26.0080  -25.9446   19.0121 H   0  0  0  0  0  0
  -23.9639  -27.2952   19.0346 H   0  0  0  0  0  0
  -23.7378  -30.6031   19.4106 H   0  0  0  0  0  0
  -22.7314  -29.2585   19.8655 H   0  0  0  0  0  0
  -25.1282  -36.1982   25.0832 H   0  0  0  0  0  0
  -20.9983  -28.2912   24.1472 H   0  0  0  0  0  0
  -20.5485  -26.2205   23.3648 H   0  0  0  0  0  0
  -21.6473  -26.7083   22.1158 H   0  0  0  0  0  0
  -19.6660  -25.6365   21.1118 H   0  0  0  0  0  0
  -19.6625  -27.3364   20.6891 H   0  0  0  0  0  0
  -17.4069  -26.6517   21.4310 H   0  0  0  0  0  0
  -18.0490  -26.0025   22.9345 H   0  0  0  0  0  0
  -19.8106  -30.7310   24.1973 H   0  0  0  0  0  0
  -17.5314  -31.6535   24.4729 H   0  0  0  0  0  0
  -15.5437  -30.3063   23.7840 H   0  0  0  0  0  0
  -15.8695  -28.0710   22.7555 H   0  0  0  0  0  0
  -24.5881  -30.7044   25.7787 H   0  0  0  0  0  0
  -24.8885  -32.2848   26.4931 H   0  0  0  0  0  0
  -25.8044  -30.8844   27.0231 H   0  0  0  0  0  0
  -26.2848  -29.6815   24.1123 H   0  0  0  0  0  0
  -27.4032  -29.7273   25.4584 H   0  0  0  0  0  0
  -27.8699  -30.4383   23.9283 H   0  0  0  0  0  0
  -27.2698  -33.3601   26.2092 H   0  0  0  0  0  0
  -28.3839  -32.6864   25.0293 H   0  0  0  0  0  0
  -28.0731  -31.8404   26.5374 H   0  0  0  0  0  0
  -28.2613  -38.0102   24.7530 H   0  0  0  0  0  0
  -28.1069  -36.2650   24.6278 H   0  0  0  0  0  0
  -27.2313  -37.1441   25.8869 H   0  0  0  0  0  0
  -20.9273  -29.8881   21.7254 H   0  0  0  0  0  0
  -26.0186  -38.2876   24.1407 H   0  0  0  0  0  0
  -29.4870  -21.6795   22.4681 H   0  0  0  0  0  0
  -30.8878  -20.0743   23.6334 H   0  0  0  0  0  0
  -26.4990  -17.6500   20.6469 H   0  0  0  0  0  0
  -27.6713  -17.6256   19.3315 H   0  0  0  0  0  0
  -26.6192  -19.0063   19.5679 H   0  0  0  0  0  0
  -28.0280  -15.9919   21.1634 H   0  0  0  0  0  0
  -29.0369  -15.8262   22.5488 H   0  0  0  0  0  0
  -26.7523  -21.5466   21.3381 H   0  0  0  0  0  0
  -27.0691  -21.0287   19.7017 H   0  0  0  0  0  0
  -26.7121  -23.9585   19.7466 H   0  0  0  0  0  0
  -27.0771  -23.9292   21.4322 H   0  0  0  0  0  0
  -28.1380  -25.5400   21.2430 H   0  0  0  0  0  0
  -28.2099  -25.2770   19.2343 H   0  0  0  0  0  0
  -30.6576  -16.4710   20.3753 H   0  0  0  0  0  0
  -28.6499  -22.5536   19.3698 H   0  0  0  0  0  0
  -29.0769  -22.6563   20.9245 H   0  0  0  0  0  0
  1 25  1  0  0  0
  1 30  2  0  0  0
  1 82  1  0  0  0
  2  3  1  0  0  0
  2 25  1  0  0  0
  2 85  1  0  0  0
  2 86  1  0  0  0
  3  4  1  0  0  0
  3 87  1  0  0  0
  3 88  1  0  0  0
  4  5  1  0  0  0
  4 89  1  0  0  0
  4 90  1  0  0  0
  5  6  1  0  0  0
  5 26  1  0  0  0
  5 91  1  0  0  0
  6 25  1  0  0  0
  6 92  1  0  0  0
  6 93  1  0  0  0
  7  8  2  0  0  0
  7 26  1  0  0  0
  7 29  1  0  0  0
  8  9  1  0  0  0
  8 22  1  0  0  0
  9 10  1  0  0  0
  9 27  2  0  0  0
 10 11  2  0  0  0
 10 15  1  0  0  0
 11 12  1  0  0  0
 11 94  1  0  0  0
 12 13  2  0  0  0
 12 95  1  0  0  0
 13 14  1  0  0  0
 13 31  1  0  0  0
 14 15  2  0  0  0
 14 96  1  0  0  0
 15 97  1  0  0  0
 16 17  2  0  0  0
 16 21  1  0  0  0
 16 31  1  0  0  0
 17 18  1  0  0  0
 17 98  1  0  0  0
 18 19  2  0  0  0
 18 99  1  0  0  0
 19 20  1  0  0  0
 19 24  1  0  0  0
 20 21  2  0  0  0
 20100  1  0  0  0
 21 23  1  0  0  0
 22 28  1  0  0  0
 22 32  2  0  0  0
 26 27  1  0  0  0
 28101  1  0  0  0
 28102  1  0  0  0
 29103  1  0  0  0
 29104  1  0  0  0
 33 34  1  0  0  0
 33 66  1  0  0  0
 33 70  2  0  0  0
 34 36  1  0  0  0
 34 59  1  0  0  0
 34105  1  0  0  0
 35 44  2  0  0  0
 35 45  1  0  0  0
 35 68  1  0  0  0
 36 56  1  0  0  0
 36106  1  0  0  0
 37 39  1  0  0  0
 37 47  1  0  0  0
 37 66  1  0  0  0
 37107  1  0  0  0
 38 43  2  0  0  0
 38 46  1  0  0  0
 38 47  1  0  0  0
 39 64  1  0  0  0
 39 67  2  0  0  0
 40 52  1  0  0  0
 40 53  2  0  0  0
 40 58  1  0  0  0
 41108  1  0  0  0
 41109  1  0  0  0
 41110  1  0  0  0
 41 48  1  0  0  0
 42 43  1  0  0  0
 42 66  1  0  0  0
 42111  1  0  0  0
 42112  1  0  0  0
 43 44  1  0  0  0
 44113  1  0  0  0
 45 46  2  0  0  0
 45114  1  0  0  0
 46115  1  0  0  0
 47116  1  0  0  0
 47117  1  0  0  0
 48 56  1  0  0  0
 48 65  1  0  0  0
 48118  1  0  0  0
 49 50  1  0  0  0
 49 53  1  0  0  0
 49 64  1  0  0  0
 49119  1  0  0  0
 50 51  1  0  0  0
 50120  1  0  0  0
 50121  1  0  0  0
 51 52  1  0  0  0
 51122  1  0  0  0
 51123  1  0  0  0
 52124  1  0  0  0
 52125  1  0  0  0
 53 54  1  0  0  0
 54 55  2  0  0  0
 54126  1  0  0  0
 55 57  1  0  0  0
 55127  1  0  0  0
 56 69  2  0  0  0
 57 58  2  0  0  0
 57128  1  0  0  0
 58129  1  0  0  0
 59 60  1  0  0  0
 59 61  1  0  0  0
 59 62  1  0  0  0
 60130  1  0  0  0
 60131  1  0  0  0
 60132  1  0  0  0
 61133  1  0  0  0
 61134  1  0  0  0
 61135  1  0  0  0
 62136  1  0  0  0
 62137  1  0  0  0
 62138  1  0  0  0
 63 65  1  0  0  0
 63139  1  0  0  0
 63140  1  0  0  0
 63141  1  0  0  0
 64142  1  0  0  0
 65143  1  0  0  0
 68 81  1  0  0  0
 71 72  2  0  0  0
 71 73  1  0  0  0
 71144  1  0  0  0
 72 76  1  0  0  0
 72145  1  0  0  0
 73 74  2  0  0  0
 73 79  1  0  0  0
 74 75  1  0  0  0
 74 77  1  0  0  0
 75 76  2  0  0  0
 75 78  1  0  0  0
 76 84  1  0  0  0
 77146  1  0  0  0
 77147  1  0  0  0
 77148  1  0  0  0
 78 82  1  0  0  0
 78149  1  0  0  0
 78150  1  0  0  0
 79 83  1  0  0  0
 79151  1  0  0  0
 79152  1  0  0  0
 80 81  1  0  0  0
 80 83  1  0  0  0
 80153  1  0  0  0
 80154  1  0  0  0
 81155  1  0  0  0
 81156  1  0  0  0
 82157  1  0  0  0
 83158  1  0  0  0
 83159  1  0  0  0
M  CHG  1  83   1
M  ISO  4   1 100  68 101  81 101  82 100
M  END
> <chiral flag>
0

> <version>
0

> <s_m_source_file>
/data/baiqing/PycharmProjects/Reinvent-master-3.2/result/LINK_invent/BTK/process_docking_weight1_custom_product_contain_oxygen_bond_distance_aromatic_linkinvent_7_9_3/rearranged_h_0038.sdf

> <i_m_source_file_index>
60

> <r_mmod_Potential_Energy-OPLS-2005>
155.3310546875

> <r_mmod_Stretch_Energy-OPLS-2005>
66.5235214233398

> <r_mmod_Bend_Energy-OPLS-2005>
383.319458007812

> <r_mmod_Torsional_Energy-OPLS-2005>
261.810302734375

> <r_mmod_Improper_Torsional_Energy-OPLS-2005>
17.3368225097656

> <r_mmod_Van_der_Waal_Energy-OPLS-2005>
151.114196777344

> <r_mmod_Electrostatic_Energy-OPLS-2005>
-286.117004394531

> <r_mmod_Solvation_Energy-OPLS-2005>
-465.878112792969

> <b_mmod_Minimization_Converged-OPLS-2005>
0

> <r_mmod_RMS_Derivative-OPLS-2005>
8.56133842468262

$$$$
60
                    3D
 Structure written by MMmdl.
165174  0  0  1  0            999 V2000
  -30.6444  -14.6746   20.5322 C   0  0  0  0  0  0
  -30.4117  -12.4424   19.4431 C   0  0  0  0  0  0
  -29.4841  -12.5289   18.2127 C   0  0  0  0  0  0
  -28.0163  -12.3416   18.6338 C   0  0  0  0  0  0
  -27.6353  -13.2224   19.8516 C   0  0  2  0  0  0
  -28.6807  -13.1283   20.9831 C   0  0  0  0  0  0
  -25.2464  -13.8175   20.5650 C   0  0  0  0  0  0
  -24.1752  -13.0436   20.9208 C   0  0  0  0  0  0
  -24.6348  -11.6911   20.8787 C   0  0  0  0  0  0
  -23.9034  -10.4289   21.0437 C   0  0  0  0  0  0
  -24.3603   -9.4209   21.9202 C   0  0  0  0  0  0
  -23.6283   -8.2240   22.0758 C   0  0  0  0  0  0
  -22.4260   -8.0270   21.3549 C   0  0  0  0  0  0
  -21.9909   -9.0249   20.4643 C   0  0  0  0  0  0
  -22.7224  -10.2136   20.3069 C   0  0  0  0  0  0
  -21.6818   -6.0720   22.5273 C   0  0  0  0  0  0
  -21.3979   -6.5629   23.8194 C   0  0  0  0  0  0
  -21.3686   -5.6797   24.9173 C   0  0  0  0  0  0
  -21.6056   -4.3058   24.7222 C   0  0  0  0  0  0
  -21.8806   -3.8145   23.4341 C   0  0  0  0  0  0
  -21.9172   -4.6953   22.3389 C   0  0  0  0  0  0
  -22.7789  -13.5224   21.1823 C   0  0  0  0  0  0
  -22.1643   -4.2141   21.0970 F   0  0  0  0  0  0
  -21.5670   -3.4551   25.7756 F   0  0  0  0  0  0
  -29.9833  -13.4769   20.4069 N   0  0  0  0  0  0
  -26.2876  -12.9372   20.3273 N   0  0  0  0  0  0
  -25.9269  -11.6520   20.5778 N   0  0  0  0  0  0
  -22.0407  -12.8227   22.0369 N   0  0  0  0  0  0
  -25.4165  -15.1874   20.4022 N   0  0  0  0  0  0
  -31.8124  -14.7888   20.1530 O   0  0  0  0  0  0
  -21.6606   -6.8887   21.4242 O   0  0  0  0  0  0
  -22.3477  -14.5532   20.6682 O   0  0  0  0  0  0
  -24.6317  -31.8597   23.1928 C   0  0  0  0  0  0
  -25.9154  -32.4771   23.8329 C   0  0  1  0  0  0
  -27.2253  -27.2904   20.1447 C   0  0  0  0  0  0
  -25.5937  -33.8570   24.2258 N   0  0  0  0  0  0
  -23.4284  -30.4824   21.5327 C   0  0  2  0  0  0
  -24.8699  -28.9206   20.1137 C   0  0  0  0  0  0
  -22.7496  -29.4684   22.4839 C   0  0  0  0  0  0
  -18.0389  -28.1395   22.8467 C   0  0  0  0  0  0
  -24.1496  -36.7310   23.2639 C   0  0  0  0  0  0
  -25.9653  -30.7874   21.3625 C   0  0  0  0  0  0
  -26.0370  -29.4075   20.7145 C   0  0  0  0  0  0
  -27.2156  -28.6027   20.7186 C   0  0  0  0  0  0
  -26.0247  -26.8404   19.5542 C   0  0  0  0  0  0
  -24.8664  -27.6455   19.5242 C   0  0  0  0  0  0
  -23.6411  -29.8075   20.1506 C   0  0  0  0  0  0
  -25.4112  -36.3079   24.0327 C   0  0  1  0  0  0
  -20.5963  -28.3814   23.1263 C   0  0  2  0  0  0
  -20.6816  -26.9471   22.5592 C   0  0  0  0  0  0
  -19.5927  -26.6499   21.5227 C   0  0  0  0  0  0
  -18.2105  -26.7916   22.1668 C   0  0  0  0  0  0
  -19.1602  -28.8905   23.2885 C   0  0  0  0  0  0
  -18.9474  -30.1491   23.8901 C   0  0  0  0  0  0
  -17.6467  -30.6629   24.0491 C   0  0  0  0  0  0
  -25.9045  -34.9458   23.5088 C   0  0  0  0  0  0
  -16.5375  -29.9104   23.6238 C   0  0  0  0  0  0
  -16.7368  -28.6500   23.0296 C   0  0  0  0  0  0
  -26.4509  -31.6601   25.0722 C   0  0  0  0  0  0
  -25.3716  -31.3771   26.1428 C   0  0  0  0  0  0
  -27.0354  -30.3019   24.6177 C   0  0  0  0  0  0
  -27.6047  -32.4362   25.7516 C   0  0  0  0  0  0
  -27.5572  -37.1793   24.8445 C   0  0  0  0  0  0
  -21.4237  -29.3021   22.3462 N   0  0  0  0  0  0
  -26.4278  -37.3768   23.9401 N   0  0  0  0  0  0
  -24.6946  -31.0616   22.0867 N   0  0  0  0  0  0
  -23.4146  -28.8340   23.3071 O   0  0  0  0  0  0
  -28.3844  -26.4986   20.2062 O   0  0  0  0  0  0
  -26.5594  -34.8926   22.4655 O   0  0  0  0  0  0
  -23.5466  -32.1376   23.7238 O   0  0  0  0  0  0
  -29.9004  -19.1412   19.7736 C   0  0  0  0  0  0
  -29.6771  -20.5443   19.6869 C   0  0  0  0  0  0
  -29.0247  -18.2684   20.4677 C   0  0  0  0  0  0
  -27.9597  -18.9180   21.1801 C   0  0  0  0  0  0
  -27.7324  -20.3450   21.0923 C   0  0  0  0  0  0
  -28.5595  -21.1878   20.2839 C   0  0  0  0  0  0
  -27.3219  -23.6580   17.8591 C   0  0  0  0  0  0
  -28.1916  -24.8845   18.2322 C   0  0  0  0  0  0
  -27.0921  -22.6039   18.9568 C   0  0  0  0  0  0
  -28.3367  -23.8056   20.6535 C   0  0  0  0  0  0
  -28.5369  -25.0965   19.7314 C   0  0  2  0  0  0
  -26.9773  -18.0700   21.9835 C   0  0  0  0  0  0
  -26.5313  -20.9576   21.8151 C   0  0  0  0  0  0
  -29.1158  -16.7004   20.2127 C   0  0  0  0  0  0
  -28.2193  -22.5317   19.8774 N   0  0  0  0  0  0
  -29.9872  -15.7797   21.0186 N   0  0  0  0  0  0
  -31.4479  -12.5727   19.1341 H   0  0  0  0  0  0
  -30.3560  -11.4507   19.8957 H   0  0  0  0  0  0
  -29.7582  -11.7744   17.4733 H   0  0  0  0  0  0
  -29.6134  -13.4933   17.7197 H   0  0  0  0  0  0
  -27.8757  -11.2896   18.8844 H   0  0  0  0  0  0
  -27.3517  -12.5476   17.7922 H   0  0  0  0  0  0
  -27.6393  -14.2431   19.4795 H   0  0  0  0  0  0
  -28.7102  -12.1221   21.3995 H   0  0  0  0  0  0
  -28.4234  -13.7948   21.8080 H   0  0  0  0  0  0
  -25.2737   -9.5679   22.4788 H   0  0  0  0  0  0
  -23.9974   -7.4614   22.7469 H   0  0  0  0  0  0
  -21.0849   -8.8733   19.8964 H   0  0  0  0  0  0
  -22.3637  -10.9667   19.6187 H   0  0  0  0  0  0
  -21.1929   -7.6127   23.9669 H   0  0  0  0  0  0
  -21.1534   -6.0553   25.9068 H   0  0  0  0  0  0
  -22.0560   -2.7607   23.2837 H   0  0  0  0  0  0
  -22.4012  -11.9962   22.4896 H   0  0  0  0  0  0
  -21.1026  -13.1285   22.2500 H   0  0  0  0  0  0
  -24.6597  -15.8504   20.5231 H   0  0  0  0  0  0
  -26.2621  -15.6079   20.0460 H   0  0  0  0  0  0
  -26.7240  -32.5450   23.1086 H   0  0  0  0  0  0
  -25.0071  -33.9688   25.0388 H   0  0  0  0  0  0
  -22.7360  -31.3119   21.3771 H   0  0  0  0  0  0
  -23.3746  -35.9656   23.3282 H   0  0  0  0  0  0
  -24.3552  -36.8939   22.2046 H   0  0  0  0  0  0
  -23.7265  -37.6513   23.6682 H   0  0  0  0  0  0
  -26.0896  -31.5497   20.5936 H   0  0  0  0  0  0
  -26.8461  -30.8391   21.9897 H   0  0  0  0  0  0
  -28.1132  -28.9690   21.1955 H   0  0  0  0  0  0
  -25.9505  -25.8476   19.1418 H   0  0  0  0  0  0
  -23.9650  -27.2591   19.0711 H   0  0  0  0  0  0
  -23.7646  -30.5781   19.3868 H   0  0  0  0  0  0
  -22.7610  -29.2359   19.8493 H   0  0  0  0  0  0
  -25.1306  -36.1900   25.0814 H   0  0  0  0  0  0
  -21.0093  -28.3588   24.1381 H   0  0  0  0  0  0
  -20.5366  -26.2561   23.3923 H   0  0  0  0  0  0
  -21.6765  -26.7330   22.1710 H   0  0  0  0  0  0
  -19.6850  -27.3439   20.6853 H   0  0  0  0  0  0
  -19.7257  -25.6512   21.1104 H   0  0  0  0  0  0
  -17.4360  -26.6459   21.4143 H   0  0  0  0  0  0
  -18.0735  -26.0107   22.9192 H   0  0  0  0  0  0
  -19.7935  -30.7331   24.2311 H   0  0  0  0  0  0
  -17.5033  -31.6329   24.5036 H   0  0  0  0  0  0
  -15.5386  -30.2992   23.7509 H   0  0  0  0  0  0
  -15.8800  -28.0772   22.6982 H   0  0  0  0  0  0
  -24.5884  -30.7122   25.7758 H   0  0  0  0  0  0
  -24.8930  -32.2961   26.4845 H   0  0  0  0  0  0
  -25.8009  -30.8947   27.0223 H   0  0  0  0  0  0
  -26.2923  -29.6763   24.1204 H   0  0  0  0  0  0
  -27.4039  -29.7275   25.4704 H   0  0  0  0  0  0
  -27.8824  -30.4305   23.9424 H   0  0  0  0  0  0
  -27.2623  -33.3657   26.2093 H   0  0  0  0  0  0
  -28.3876  -32.6915   25.0360 H   0  0  0  0  0  0
  -28.0717  -31.8486   26.5426 H   0  0  0  0  0  0
  -28.2578  -38.0099   24.7501 H   0  0  0  0  0  0
  -28.1074  -36.2618   24.6283 H   0  0  0  0  0  0
  -27.2275  -37.1475   25.8840 H   0  0  0  0  0  0
  -20.9487  -29.8364   21.6309 H   0  0  0  0  0  0
  -26.0161  -38.2847   24.1376 H   0  0  0  0  0  0
  -30.7132  -18.7110   19.2028 H   0  0  0  0  0  0
  -30.3418  -21.1281   19.0683 H   0  0  0  0  0  0
  -27.7894  -23.1754   16.9996 H   0  0  0  0  0  0
  -26.3446  -23.9791   17.5001 H   0  0  0  0  0  0
  -27.7737  -25.7851   17.7855 H   0  0  0  0  0  0
  -29.1363  -24.7615   17.7080 H   0  0  0  0  0  0
  -26.8811  -21.6344   18.5060 H   0  0  0  0  0  0
  -26.1885  -22.8747   19.5056 H   0  0  0  0  0  0
  -27.4306  -23.9497   21.2386 H   0  0  0  0  0  0
  -29.1450  -23.7163   21.3808 H   0  0  0  0  0  0
  -29.6251  -25.0797   19.6970 H   0  0  0  0  0  0
  -26.7797  -18.5079   22.9610 H   0  0  0  0  0  0
  -27.3455  -17.0654   22.1824 H   0  0  0  0  0  0
  -26.0276  -17.9852   21.4521 H   0  0  0  0  0  0
  -26.5454  -22.0430   21.8044 H   0  0  0  0  0  0
  -26.4977  -20.6776   22.8678 H   0  0  0  0  0  0
  -25.5946  -20.6481   21.3483 H   0  0  0  0  0  0
  -28.1019  -16.3019   20.2398 H   0  0  0  0  0  0
  -29.4137  -16.5788   19.1699 H   0  0  0  0  0  0
  -30.6414  -16.3369   21.5490 H   0  0  0  0  0  0
  1 25  1  0  0  0
  1 30  2  0  0  0
  1 86  1  0  0  0
  2  3  1  0  0  0
  2 25  1  0  0  0
  2 87  1  0  0  0
  2 88  1  0  0  0
  3  4  1  0  0  0
  3 89  1  0  0  0
  3 90  1  0  0  0
  4  5  1  0  0  0
  4 91  1  0  0  0
  4 92  1  0  0  0
  5  6  1  0  0  0
  5 26  1  0  0  0
  5 93  1  0  0  0
  6 25  1  0  0  0
  6 94  1  0  0  0
  6 95  1  0  0  0
  7  8  2  0  0  0
  7 26  1  0  0  0
  7 29  1  0  0  0
  8  9  1  0  0  0
  8 22  1  0  0  0
  9 10  1  0  0  0
  9 27  2  0  0  0
 10 11  2  0  0  0
 10 15  1  0  0  0
 11 12  1  0  0  0
 11 96  1  0  0  0
 12 13  2  0  0  0
 12 97  1  0  0  0
 13 14  1  0  0  0
 13 31  1  0  0  0
 14 15  2  0  0  0
 14 98  1  0  0  0
 15 99  1  0  0  0
 16 17  2  0  0  0
 16 21  1  0  0  0
 16 31  1  0  0  0
 17 18  1  0  0  0
 17100  1  0  0  0
 18 19  2  0  0  0
 18101  1  0  0  0
 19 20  1  0  0  0
 19 24  1  0  0  0
 20 21  2  0  0  0
 20102  1  0  0  0
 21 23  1  0  0  0
 22 28  1  0  0  0
 22 32  2  0  0  0
 26 27  1  0  0  0
 28103  1  0  0  0
 28104  1  0  0  0
 29105  1  0  0  0
 29106  1  0  0  0
 33 34  1  0  0  0
 33 66  1  0  0  0
 33 70  2  0  0  0
 34 36  1  0  0  0
 34 59  1  0  0  0
 34107  1  0  0  0
 35 44  2  0  0  0
 35 45  1  0  0  0
 35 68  1  0  0  0
 36 56  1  0  0  0
 36108  1  0  0  0
 37 39  1  0  0  0
 37 47  1  0  0  0
 37 66  1  0  0  0
 37109  1  0  0  0
 38 43  2  0  0  0
 38 46  1  0  0  0
 38 47  1  0  0  0
 39 64  1  0  0  0
 39 67  2  0  0  0
 40 52  1  0  0  0
 40 53  2  0  0  0
 40 58  1  0  0  0
 41110  1  0  0  0
 41111  1  0  0  0
 41112  1  0  0  0
 41 48  1  0  0  0
 42 43  1  0  0  0
 42 66  1  0  0  0
 42113  1  0  0  0
 42114  1  0  0  0
 43 44  1  0  0  0
 44115  1  0  0  0
 45 46  2  0  0  0
 45116  1  0  0  0
 46117  1  0  0  0
 47118  1  0  0  0
 47119  1  0  0  0
 48 56  1  0  0  0
 48 65  1  0  0  0
 48120  1  0  0  0
 49 50  1  0  0  0
 49 53  1  0  0  0
 49 64  1  0  0  0
 49121  1  0  0  0
 50 51  1  0  0  0
 50122  1  0  0  0
 50123  1  0  0  0
 51 52  1  0  0  0
 51124  1  0  0  0
 51125  1  0  0  0
 52126  1  0  0  0
 52127  1  0  0  0
 53 54  1  0  0  0
 54 55  2  0  0  0
 54128  1  0  0  0
 55 57  1  0  0  0
 55129  1  0  0  0
 56 69  2  0  0  0
 57 58  2  0  0  0
 57130  1  0  0  0
 58131  1  0  0  0
 59 60  1  0  0  0
 59 61  1  0  0  0
 59 62  1  0  0  0
 60132  1  0  0  0
 60133  1  0  0  0
 60134  1  0  0  0
 61135  1  0  0  0
 61136  1  0  0  0
 61137  1  0  0  0
 62138  1  0  0  0
 62139  1  0  0  0
 62140  1  0  0  0
 63 65  1  0  0  0
 63141  1  0  0  0
 63142  1  0  0  0
 63143  1  0  0  0
 64144  1  0  0  0
 65145  1  0  0  0
 68 81  1  0  0  0
 71 72  2  0  0  0
 71 73  1  0  0  0
 71146  1  0  0  0
 72 76  1  0  0  0
 72147  1  0  0  0
 73 74  2  0  0  0
 73 84  1  0  0  0
 74 75  1  0  0  0
 74 82  1  0  0  0
 75 76  2  0  0  0
 75 83  1  0  0  0
 76 85  1  0  0  0
 77 78  1  0  0  0
 77 79  1  0  0  0
 77148  1  0  0  0
 77149  1  0  0  0
 78 81  1  0  0  0
 78150  1  0  0  0
 78151  1  0  0  0
 79 85  1  0  0  0
 79152  1  0  0  0
 79153  1  0  0  0
 80 81  1  0  0  0
 80 85  1  0  0  0
 80154  1  0  0  0
 80155  1  0  0  0
 81156  1  0  0  0
 82157  1  0  0  0
 82158  1  0  0  0
 82159  1  0  0  0
 83160  1  0  0  0
 83161  1  0  0  0
 83162  1  0  0  0
 84 86  1  0  0  0
 84163  1  0  0  0
 84164  1  0  0  0
 86165  1  0  0  0
M  ISO  4   1 100  68 101  81 101  86 100
M  END
> <chiral flag>
0

> <version>
0

> <s_m_source_file>
/data/baiqing/PycharmProjects/Reinvent-master-3.2/result/LINK_invent/BTK/process_docking_weight1_custom_product_contain_oxygen_bond_distance_aromatic_linkinvent_7_9_3/rearranged_h_0038.sdf

> <i_m_source_file_index>
61

> <r_mmod_Potential_Energy-OPLS-2005>
238.416534423828

> <r_mmod_Stretch_Energy-OPLS-2005>
90.2025833129883

> <r_mmod_Bend_Energy-OPLS-2005>
220.257858276367

> <r_mmod_Torsional_Energy-OPLS-2005>
359.988159179688

> <r_mmod_Improper_Torsional_Energy-OPLS-2005>
12.1832447052002

> <r_mmod_Van_der_Waal_Energy-OPLS-2005>
145.768173217773

> <r_mmod_Electrostatic_Energy-OPLS-2005>
-443.611053466797

> <r_mmod_Solvation_Energy-OPLS-2005>
-206.819274902344

> <b_mmod_Minimization_Converged-OPLS-2005>
0

> <r_mmod_RMS_Derivative-OPLS-2005>
5.58640289306641

$$$$
61
                    3D
 Structure written by MMmdl.
174182  0  0  1  0            999 V2000
  -30.1067  -16.2640   20.4980 C   0  0  0  0  0  0
  -30.3869  -13.7564   19.5655 C   0  0  0  0  0  0
  -29.5975  -12.9931   18.4461 C   0  0  0  0  0  0
  -28.2774  -12.4334   18.9652 C   0  0  0  0  0  0
  -27.5812  -13.4586   19.8606 C   0  0  2  0  0  0
  -28.5166  -14.1152   20.9425 C   0  0  0  0  0  0
  -25.2120  -13.8595   20.5977 C   0  0  0  0  0  0
  -24.1705  -13.0522   20.9374 C   0  0  0  0  0  0
  -24.6681  -11.7109   20.8760 C   0  0  0  0  0  0
  -23.9421  -10.4376   21.0318 C   0  0  0  0  0  0
  -24.3834   -9.4236   21.9118 C   0  0  0  0  0  0
  -23.6442   -8.2293   22.0719 C   0  0  0  0  0  0
  -22.4387   -8.0362   21.3539 C   0  0  0  0  0  0
  -22.0120   -9.0348   20.4574 C   0  0  0  0  0  0
  -22.7558  -10.2193   20.2984 C   0  0  0  0  0  0
  -21.6881   -6.0771   22.5281 C   0  0  0  0  0  0
  -21.4061   -6.5682   23.8210 C   0  0  0  0  0  0
  -21.3689   -5.6832   24.9164 C   0  0  0  0  0  0
  -21.6020   -4.3085   24.7212 C   0  0  0  0  0  0
  -21.8813   -3.8185   23.4335 C   0  0  0  0  0  0
  -21.9208   -4.6999   22.3394 C   0  0  0  0  0  0
  -22.7637  -13.5004   21.2037 C   0  0  0  0  0  0
  -22.1653   -4.2211   21.0951 F   0  0  0  0  0  0
  -21.5628   -3.4539   25.7701 F   0  0  0  0  0  0
  -29.6051  -14.8616   20.2764 N   0  0  0  0  0  0
  -26.2834  -13.0257   20.3595 N   0  0  0  0  0  0
  -25.9711  -11.7136   20.5771 N   0  0  0  0  0  0
  -22.0365  -12.7877   22.0526 N   0  0  0  0  0  0
  -25.3323  -15.2401   20.4428 N   0  0  0  0  0  0
  -31.3449  -16.1278   20.3246 O   0  0  0  0  0  0
  -21.6703   -6.8953   21.4260 O   0  0  0  0  0  0
  -22.3202  -14.5242   20.6823 O   0  0  0  0  0  0
  -24.7295  -31.8027   23.1606 C   0  0  0  0  0  0
  -25.9845  -32.4189   23.8295 C   0  0  1  0  0  0
  -26.7874  -27.3859   19.3962 C   0  0  0  0  0  0
  -25.6647  -33.7966   24.2312 N   0  0  0  0  0  0
  -23.4185  -30.5917   21.5259 C   0  0  2  0  0  0
  -24.6311  -29.1563   19.8727 C   0  0  0  0  0  0
  -22.7750  -29.4975   22.3984 C   0  0  0  0  0  0
  -18.0306  -28.1362   22.8136 C   0  0  0  0  0  0
  -24.1625  -36.6923   23.2615 C   0  0  0  0  0  0
  -25.9939  -30.5288   21.5144 C   0  0  0  0  0  0
  -25.8827  -29.3069   20.5583 C   0  0  0  0  0  0
  -26.9376  -28.3516   20.4078 C   0  0  0  0  0  0
  -25.6963  -27.4129   18.5467 C   0  0  0  0  0  0
  -24.5692  -28.1987   18.9431 C   0  0  0  0  0  0
  -23.5046  -30.1462   20.0619 C   0  0  0  0  0  0
  -25.4189  -36.2568   24.0322 C   0  0  1  0  0  0
  -20.6162  -28.3591   23.0606 C   0  0  2  0  0  0
  -20.7074  -26.9167   22.4892 C   0  0  0  0  0  0
  -19.5752  -26.5505   21.5430 C   0  0  0  0  0  0
  -18.2062  -26.7847   22.1647 C   0  0  0  0  0  0
  -19.1585  -28.8750   23.2452 C   0  0  0  0  0  0
  -18.9870  -30.1514   23.8311 C   0  0  0  0  0  0
  -17.6872  -30.6672   24.0406 C   0  0  0  0  0  0
  -25.9315  -34.8953   23.5087 C   0  0  0  0  0  0
  -16.5685  -29.9224   23.6422 C   0  0  0  0  0  0
  -16.7448  -28.6605   23.0520 C   0  0  0  0  0  0
  -26.4072  -31.6164   25.1129 C   0  0  0  0  0  0
  -25.2452  -31.3989   26.1117 C   0  0  0  0  0  0
  -26.9537  -30.2010   24.8348 C   0  0  0  0  0  0
  -27.5511  -32.3394   25.8983 C   0  0  0  0  0  0
  -27.5571  -37.1648   24.8471 C   0  0  0  0  0  0
  -21.4669  -29.2961   22.2719 N   0  0  0  0  0  0
  -26.4249  -37.3410   23.9397 N   0  0  0  0  0  0
  -24.7086  -31.0303   22.1228 N   0  0  0  0  0  0
  -23.4761  -28.8380   23.1961 O   0  0  0  0  0  0
  -27.3608  -26.1537   19.3790 O   0  0  0  0  0  0
  -26.5692  -34.8502   22.4620 O   0  0  0  0  0  0
  -23.6455  -32.1643   23.6185 O   0  0  0  0  0  0
  -28.8360  -22.2472   20.9298 C   0  0  0  0  0  0
  -28.3803  -20.9683   21.3413 C   0  0  0  0  0  0
  -26.9116  -23.7943   21.6065 C   0  0  0  0  0  0
  -26.7431  -22.7881   22.4798 C   0  0  0  0  0  0
  -28.2307  -23.5861   21.1816 C   0  0  0  0  0  0
  -27.1888  -21.3667   22.2476 C   0  0  0  0  0  0
  -25.1014  -26.4824   26.2861 C   0  0  0  0  0  0
  -23.5713  -23.3994   25.6934 C   0  0  0  0  0  0
  -29.4029  -19.4402   20.9613 C   0  0  0  0  0  0
  -25.7775  -24.9460   21.3379 C   0  0  0  0  0  0
  -25.6083  -23.3180   23.5099 C   0  0  0  0  0  0
  -25.1487  -25.8750   24.8326 C   0  0  0  0  0  0
  -25.1087  -23.6435   25.8012 C   0  0  0  0  0  0
  -25.0312  -24.5698   18.9915 C   0  0  0  0  0  0
  -26.5442  -25.0013   18.6563 C   0  0  0  0  0  0
  -29.3442  -17.6555   20.7375 N   0  0  0  0  0  0
  -24.7239  -24.4335   20.4227 N   0  3  0  0  0  0
  -25.7281  -24.3849   24.6858 N   0  3  0  0  0  0
  -29.2466  -24.9099   21.5719 Cl  0  0  0  0  0  0
  -26.4339  -20.0463   23.2414 Cl  0  0  0  0  0  0
  -31.2001  -14.2414   19.0224 H   0  0  0  0  0  0
  -30.8611  -13.1895   20.3692 H   0  0  0  0  0  0
  -30.2704  -12.2480   18.0391 H   0  0  0  0  0  0
  -29.3820  -13.7131   17.6473 H   0  0  0  0  0  0
  -28.5048  -11.5647   19.5696 H   0  0  0  0  0  0
  -27.6457  -12.1287   18.1289 H   0  0  0  0  0  0
  -27.3459  -14.2669   19.1624 H   0  0  0  0  0  0
  -28.9699  -13.4569   21.6856 H   0  0  0  0  0  0
  -27.9448  -14.8707   21.4979 H   0  0  0  0  0  0
  -25.2913   -9.5692   22.4765 H   0  0  0  0  0  0
  -24.0089   -7.4686   22.7496 H   0  0  0  0  0  0
  -21.1005   -8.8880   19.8896 H   0  0  0  0  0  0
  -22.3959  -10.9708   19.6104 H   0  0  0  0  0  0
  -21.2072   -7.6186   23.9753 H   0  0  0  0  0  0
  -21.1514   -6.0523   25.9070 H   0  0  0  0  0  0
  -22.0565   -2.7657   23.2787 H   0  0  0  0  0  0
  -22.4043  -11.9593   22.4934 H   0  0  0  0  0  0
  -21.0959  -13.0771   22.2697 H   0  0  0  0  0  0
  -24.5322  -15.8584   20.5335 H   0  0  0  0  0  0
  -26.1638  -15.7153   20.1187 H   0  0  0  0  0  0
  -26.8522  -32.3970   23.1896 H   0  0  0  0  0  0
  -25.0988  -33.9030   25.0607 H   0  0  0  0  0  0
  -22.8332  -31.4717   21.5347 H   0  0  0  0  0  0
  -23.3838  -35.9322   23.3066 H   0  0  0  0  0  0
  -24.3778  -36.8738   22.2081 H   0  0  0  0  0  0
  -23.7398  -37.6101   23.6751 H   0  0  0  0  0  0
  -26.5263  -31.2823   20.8995 H   0  0  0  0  0  0
  -26.6671  -29.9734   22.1279 H   0  0  0  0  0  0
  -27.7061  -28.1130   21.0314 H   0  0  0  0  0  0
  -25.4437  -26.8422   17.5393 H   0  0  0  0  0  0
  -23.6372  -28.1589   18.3297 H   0  0  0  0  0  0
  -23.5823  -30.9809   19.4034 H   0  0  0  0  0  0
  -22.5397  -29.8611   19.6815 H   0  0  0  0  0  0
  -25.1311  -36.1420   25.0797 H   0  0  0  0  0  0
  -21.0259  -28.2940   24.0900 H   0  0  0  0  0  0
  -20.7142  -26.2540   23.3427 H   0  0  0  0  0  0
  -21.6688  -26.7680   21.9941 H   0  0  0  0  0  0
  -19.7159  -25.5041   21.2894 H   0  0  0  0  0  0
  -19.6511  -27.0864   20.6147 H   0  0  0  0  0  0
  -17.4667  -26.6798   21.3825 H   0  0  0  0  0  0
  -18.0000  -26.0327   22.9067 H   0  0  0  0  0  0
  -19.8489  -30.7432   24.1493 H   0  0  0  0  0  0
  -17.5671  -31.6520   24.4816 H   0  0  0  0  0  0
  -15.5769  -30.3259   23.8266 H   0  0  0  0  0  0
  -15.8854  -28.1117   22.7541 H   0  0  0  0  0  0
  -25.5098  -31.0011   27.0713 H   0  0  0  0  0  0
  -24.4915  -30.7085   25.7372 H   0  0  0  0  0  0
  -24.6774  -32.3002   26.3019 H   0  0  0  0  0  0
  -26.2199  -29.6472   24.2710 H   0  0  0  0  0  0
  -27.1006  -29.6666   25.7703 H   0  0  0  0  0  0
  -27.9158  -30.2188   24.3383 H   0  0  0  0  0  0
  -27.3249  -33.3543   26.2002 H   0  0  0  0  0  0
  -28.4601  -32.3859   25.3048 H   0  0  0  0  0  0
  -27.7975  -31.7959   26.8044 H   0  0  0  0  0  0
  -28.2396  -38.0124   24.7563 H   0  0  0  0  0  0
  -28.1292  -36.2614   24.6275 H   0  0  0  0  0  0
  -27.2249  -37.1191   25.8869 H   0  0  0  0  0  0
  -21.0458  -29.6701   21.4139 H   0  0  0  0  0  0
  -26.0024  -38.2477   24.1384 H   0  0  0  0  0  0
  -29.8344  -22.4131   20.4180 H   0  0  0  0  0  0
  -24.3165  -26.0884   26.8317 H   0  0  0  0  0  0
  -24.9469  -27.5521   26.4044 H   0  0  0  0  0  0
  -25.9755  -26.3337   26.8039 H   0  0  0  0  0  0
  -23.3382  -22.8204   26.5653 H   0  0  0  0  0  0
  -23.2782  -22.7920   24.8404 H   0  0  0  0  0  0
  -22.8430  -24.2393   25.7499 H   0  0  0  0  0  0
  -30.3295  -19.6877   21.4663 H   0  0  0  0  0  0
  -29.7404  -19.8010   20.0056 H   0  0  0  0  0  0
  -25.9031  -25.8905   20.8016 H   0  0  0  0  0  0
  -25.4846  -25.7156   22.1153 H   0  0  0  0  0  0
  -25.2661  -22.3939   23.8219 H   0  0  0  0  0  0
  -24.6520  -23.6833   23.0454 H   0  0  0  0  0  0
  -25.6240  -26.7118   24.2504 H   0  0  0  0  0  0
  -24.1008  -25.8730   24.4857 H   0  0  0  0  0  0
  -25.6437  -22.7229   25.7753 H   0  0  0  0  0  0
  -25.3411  -24.1177   26.8018 H   0  0  0  0  0  0
  -24.7926  -23.5424   18.7608 H   0  0  0  0  0  0
  -24.1792  -24.9906   18.4923 H   0  0  0  0  0  0
  -26.7427  -24.6993   17.6143 H   0  0  0  0  0  0
  -26.9594  -24.1741   19.1556 H   0  0  0  0  0  0
  -28.3293  -17.5783   20.6337 H   0  0  0  0  0  0
  -24.5331  -23.4760   20.6325 H   0  0  0  0  0  0
  -23.8061  -24.8556   20.6031 H   0  0  0  0  0  0
  -26.6665  -24.6172   24.9087 H   0  0  0  0  0  0
  1 25  1  0  0  0
  1 30  2  0  0  0
  1 86  1  0  0  0
  2  3  1  0  0  0
  2 25  1  0  0  0
  2 91  1  0  0  0
  2 92  1  0  0  0
  3  4  1  0  0  0
  3 93  1  0  0  0
  3 94  1  0  0  0
  4  5  1  0  0  0
  4 95  1  0  0  0
  4 96  1  0  0  0
  5  6  1  0  0  0
  5 26  1  0  0  0
  5 97  1  0  0  0
  6 25  1  0  0  0
  6 98  1  0  0  0
  6 99  1  0  0  0
  7  8  2  0  0  0
  7 26  1  0  0  0
  7 29  1  0  0  0
  8  9  1  0  0  0
  8 22  1  0  0  0
  9 10  1  0  0  0
  9 27  2  0  0  0
 10 11  2  0  0  0
 10 15  1  0  0  0
 11 12  1  0  0  0
 11100  1  0  0  0
 12 13  2  0  0  0
 12101  1  0  0  0
 13 14  1  0  0  0
 13 31  1  0  0  0
 14 15  2  0  0  0
 14102  1  0  0  0
 15103  1  0  0  0
 16 17  2  0  0  0
 16 21  1  0  0  0
 16 31  1  0  0  0
 17 18  1  0  0  0
 17104  1  0  0  0
 18 19  2  0  0  0
 18105  1  0  0  0
 19 20  1  0  0  0
 19 24  1  0  0  0
 20 21  2  0  0  0
 20106  1  0  0  0
 21 23  1  0  0  0
 22 28  1  0  0  0
 22 32  2  0  0  0
 26 27  1  0  0  0
 28107  1  0  0  0
 28108  1  0  0  0
 29109  1  0  0  0
 29110  1  0  0  0
 33 34  1  0  0  0
 33 66  1  0  0  0
 33 70  2  0  0  0
 34 36  1  0  0  0
 34 59  1  0  0  0
 34111  1  0  0  0
 35 44  2  0  0  0
 35 45  1  0  0  0
 35 68  1  0  0  0
 36 56  1  0  0  0
 36112  1  0  0  0
 37 39  1  0  0  0
 37 47  1  0  0  0
 37 66  1  0  0  0
 37113  1  0  0  0
 38 43  2  0  0  0
 38 46  1  0  0  0
 38 47  1  0  0  0
 39 64  1  0  0  0
 39 67  2  0  0  0
 40 52  1  0  0  0
 40 53  2  0  0  0
 40 58  1  0  0  0
 41114  1  0  0  0
 41115  1  0  0  0
 41116  1  0  0  0
 41 48  1  0  0  0
 42 43  1  0  0  0
 42 66  1  0  0  0
 42117  1  0  0  0
 42118  1  0  0  0
 43 44  1  0  0  0
 44119  1  0  0  0
 45 46  2  0  0  0
 45120  1  0  0  0
 46121  1  0  0  0
 47122  1  0  0  0
 47123  1  0  0  0
 48 56  1  0  0  0
 48 65  1  0  0  0
 48124  1  0  0  0
 49 50  1  0  0  0
 49 53  1  0  0  0
 49 64  1  0  0  0
 49125  1  0  0  0
 50 51  1  0  0  0
 50126  1  0  0  0
 50127  1  0  0  0
 51 52  1  0  0  0
 51128  1  0  0  0
 51129  1  0  0  0
 52130  1  0  0  0
 52131  1  0  0  0
 53 54  1  0  0  0
 54 55  2  0  0  0
 54132  1  0  0  0
 55 57  1  0  0  0
 55133  1  0  0  0
 56 69  2  0  0  0
 57 58  2  0  0  0
 57134  1  0  0  0
 58135  1  0  0  0
 59 60  1  0  0  0
 59 61  1  0  0  0
 59 62  1  0  0  0
 60136  1  0  0  0
 60137  1  0  0  0
 60138  1  0  0  0
 61139  1  0  0  0
 61140  1  0  0  0
 61141  1  0  0  0
 62142  1  0  0  0
 62143  1  0  0  0
 62144  1  0  0  0
 63 65  1  0  0  0
 63145  1  0  0  0
 63146  1  0  0  0
 63147  1  0  0  0
 64148  1  0  0  0
 65149  1  0  0  0
 68 85  1  0  0  0
 71 72  2  0  0  0
 71 75  1  0  0  0
 71150  1  0  0  0
 72 76  1  0  0  0
 72 79  1  0  0  0
 73 74  1  0  0  0
 73 75  2  0  0  0
 73 80  1  0  0  0
 74 76  2  0  0  0
 74 81  1  0  0  0
 75 89  1  0  0  0
 76 90  1  0  0  0
 77 82  1  0  0  0
 77151  1  0  0  0
 77152  1  0  0  0
 77153  1  0  0  0
 78 83  1  0  0  0
 78154  1  0  0  0
 78155  1  0  0  0
 78156  1  0  0  0
 79 86  1  0  0  0
 79157  1  0  0  0
 79158  1  0  0  0
 80 87  1  0  0  0
 80159  1  0  0  0
 80160  1  0  0  0
 81161  1  0  0  0
 81162  1  0  0  0
 81 88  1  0  0  0
 82 88  1  0  0  0
 82163  1  0  0  0
 82164  1  0  0  0
 83 88  1  0  0  0
 83165  1  0  0  0
 83166  1  0  0  0
 84 85  1  0  0  0
 84 87  1  0  0  0
 84167  1  0  0  0
 84168  1  0  0  0
 85169  1  0  0  0
 85170  1  0  0  0
 86171  1  0  0  0
 87172  1  0  0  0
 87173  1  0  0  0
 88174  1  0  0  0
M  CHG  2  87   1  88   1
M  ISO  4   1 100  68 101  85 101  86 100
M  END
> <chiral flag>
0

> <version>
0

> <s_m_source_file>
/data/baiqing/PycharmProjects/Reinvent-master-3.2/result/LINK_invent/BTK/process_docking_weight1_custom_product_contain_oxygen_bond_distance_aromatic_linkinvent_7_9_3/rearranged_h_0038.sdf

> <i_m_source_file_index>
62

> <r_mmod_Potential_Energy-OPLS-2005>
3692.81616210938

> <r_mmod_Stretch_Energy-OPLS-2005>
938.608581542969

> <r_mmod_Bend_Energy-OPLS-2005>
969.1328125

> <r_mmod_Torsional_Energy-OPLS-2005>
441.772796630859

> <r_mmod_Improper_Torsional_Energy-OPLS-2005>
21.8382911682129

> <r_mmod_Van_der_Waal_Energy-OPLS-2005>
273.997680664062

> <r_mmod_Electrostatic_Energy-OPLS-2005>
44.4532928466797

> <r_mmod_Solvation_Energy-OPLS-2005>
-951.162475585938

> <b_mmod_Minimization_Converged-OPLS-2005>
0

> <r_mmod_RMS_Derivative-OPLS-2005>
99.9990005493164

$$$$
62
                    3D
 Structure written by MMmdl.
159167  0  0  1  0            999 V2000
  -30.7012  -14.4555   20.5839 C   0  0  0  0  0  0
  -30.4194  -12.3050   19.4080 C   0  0  0  0  0  0
  -29.4849  -12.4998   18.1968 C   0  0  0  0  0  0
  -28.0068  -12.3666   18.6131 C   0  0  0  0  0  0
  -27.6589  -13.2035   19.8736 C   0  0  2  0  0  0
  -28.7022  -12.9733   20.9883 C   0  0  0  0  0  0
  -25.2587  -13.8173   20.5694 C   0  0  0  0  0  0
  -24.1828  -13.0452   20.9174 C   0  0  0  0  0  0
  -24.6378  -11.6915   20.8740 C   0  0  0  0  0  0
  -23.9041  -10.4300   21.0405 C   0  0  0  0  0  0
  -24.3606   -9.4218   21.9184 C   0  0  0  0  0  0
  -23.6287   -8.2249   22.0758 C   0  0  0  0  0  0
  -22.4266   -8.0280   21.3546 C   0  0  0  0  0  0
  -21.9896   -9.0249   20.4645 C   0  0  0  0  0  0
  -22.7220  -10.2131   20.3050 C   0  0  0  0  0  0
  -21.6848   -6.0727   22.5275 C   0  0  0  0  0  0
  -21.4008   -6.5635   23.8208 C   0  0  0  0  0  0
  -21.3661   -5.6790   24.9173 C   0  0  0  0  0  0
  -21.6042   -4.3052   24.7224 C   0  0  0  0  0  0
  -21.8822   -3.8142   23.4345 C   0  0  0  0  0  0
  -21.9196   -4.6955   22.3401 C   0  0  0  0  0  0
  -22.7851  -13.5252   21.1846 C   0  0  0  0  0  0
  -22.1655   -4.2140   21.0976 F   0  0  0  0  0  0
  -21.5635   -3.4534   25.7741 F   0  0  0  0  0  0
  -30.0282  -13.2851   20.4315 N   0  0  0  0  0  0
  -26.3009  -12.9327   20.3378 N   0  0  0  0  0  0
  -25.9297  -11.6494   20.5775 N   0  0  0  0  0  0
  -22.0484  -12.8236   22.0386 N   0  0  0  0  0  0
  -25.4357  -15.1891   20.4143 N   0  0  0  0  0  0
  -31.8243  -14.6474   20.1074 O   0  0  0  0  0  0
  -21.6638   -6.8869   21.4236 O   0  0  0  0  0  0
  -22.3541  -14.5569   20.6712 O   0  0  0  0  0  0
  -24.6167  -31.8662   23.2072 C   0  0  0  0  0  0
  -25.9062  -32.4800   23.8358 C   0  0  1  0  0  0
  -27.2262  -27.4126   20.0916 C   0  0  0  0  0  0
  -25.5937  -33.8598   24.2306 N   0  0  0  0  0  0
  -23.4017  -30.4928   21.5487 C   0  0  2  0  0  0
  -24.8437  -28.9521   20.1144 C   0  0  0  0  0  0
  -22.7405  -29.4667   22.4968 C   0  0  0  0  0  0
  -18.0274  -28.1355   22.8468 C   0  0  0  0  0  0
  -24.1497  -36.7281   23.2635 C   0  0  0  0  0  0
  -25.9329  -30.8252   21.3611 C   0  0  0  0  0  0
  -26.0055  -29.4584   20.7062 C   0  0  0  0  0  0
  -27.1976  -28.6976   20.6878 C   0  0  0  0  0  0
  -26.0400  -26.9189   19.5032 C   0  0  0  0  0  0
  -24.8574  -27.6826   19.5106 C   0  0  0  0  0  0
  -23.6083  -29.8232   20.1640 C   0  0  0  0  0  0
  -25.4115  -36.3087   24.0338 C   0  0  1  0  0  0
  -20.5866  -28.3652   23.1287 C   0  0  2  0  0  0
  -20.6769  -26.9383   22.5393 C   0  0  0  0  0  0
  -19.5757  -26.6363   21.5190 C   0  0  0  0  0  0
  -18.1935  -26.7907   22.1594 C   0  0  0  0  0  0
  -19.1526  -28.8826   23.2876 C   0  0  0  0  0  0
  -18.9467  -30.1433   23.8880 C   0  0  0  0  0  0
  -17.6466  -30.6562   24.0562 C   0  0  0  0  0  0
  -25.9041  -34.9461   23.5111 C   0  0  0  0  0  0
  -16.5358  -29.9067   23.6325 C   0  0  0  0  0  0
  -16.7260  -28.6490   23.0327 C   0  0  0  0  0  0
  -26.4481  -31.6578   25.0697 C   0  0  0  0  0  0
  -25.3749  -31.3688   26.1455 C   0  0  0  0  0  0
  -27.0312  -30.3026   24.6065 C   0  0  0  0  0  0
  -27.6062  -32.4291   25.7465 C   0  0  0  0  0  0
  -27.5583  -37.1793   24.8465 C   0  0  0  0  0  0
  -21.4141  -29.3032   22.3709 N   0  0  0  0  0  0
  -26.4288  -37.3785   23.9425 N   0  0  0  0  0  0
  -24.6687  -31.0767   22.0966 N   0  0  0  0  0  0
  -23.4195  -28.8188   23.2989 O   0  0  0  0  0  0
  -28.4150  -26.7051   20.1095 O   0  0  0  0  0  0
  -26.5580  -34.8924   22.4660 O   0  0  0  0  0  0
  -23.5362  -32.1417   23.7467 O   0  0  0  0  0  0
  -27.9060  -19.5793   21.5347 C   0  0  0  0  0  0
  -30.2256  -18.8398   20.1534 C   0  0  0  0  0  0
  -28.5288  -18.3380   21.8225 C   0  0  0  0  0  0
  -28.4406  -20.4713   20.5741 C   0  0  0  0  0  0
  -29.7269  -17.9762   21.1549 C   0  0  0  0  0  0
  -29.5948  -20.0688   19.8603 C   0  0  0  0  0  0
  -27.9146  -17.4277   22.8745 C   0  0  0  0  0  0
  -30.5645  -16.7545   21.5625 C   0  0  0  0  0  0
  -27.7680  -21.8330   20.3136 C   0  0  0  0  0  0
  -27.9621  -24.3319   20.8011 C   0  0  0  0  0  0
  -28.4722  -25.3185   19.7133 C   0  0  0  0  0  0
  -30.0249  -15.4370   21.2075 N   0  0  0  0  0  0
  -28.6045  -22.9801   20.7578 N   0  3  0  0  0  0
  -30.2870  -21.0962   18.6549 Cl  0  0  0  0  0  0
  -31.4620  -12.4094   19.1012 H   0  0  0  0  0  0
  -30.3290  -11.2931   19.8050 H   0  0  0  0  0  0
  -29.7192  -11.7702   17.4200 H   0  0  0  0  0  0
  -29.6519  -13.4821   17.7530 H   0  0  0  0  0  0
  -27.8095  -11.3113   18.8028 H   0  0  0  0  0  0
  -27.3561  -12.6498   17.7854 H   0  0  0  0  0  0
  -27.7069  -14.2529   19.5824 H   0  0  0  0  0  0
  -28.6821  -11.9325   21.3155 H   0  0  0  0  0  0
  -28.4665  -13.5578   21.8780 H   0  0  0  0  0  0
  -25.2749   -9.5694   22.4753 H   0  0  0  0  0  0
  -23.9993   -7.4641   22.7473 H   0  0  0  0  0  0
  -21.0833   -8.8763   19.8943 H   0  0  0  0  0  0
  -22.3683  -10.9669   19.6153 H   0  0  0  0  0  0
  -21.1995   -7.6144   23.9711 H   0  0  0  0  0  0
  -21.1471   -6.0517   25.9075 H   0  0  0  0  0  0
  -22.0605   -2.7600   23.2850 H   0  0  0  0  0  0
  -22.4084  -11.9883   22.4751 H   0  0  0  0  0  0
  -21.1105  -13.1262   22.2592 H   0  0  0  0  0  0
  -24.6797  -15.8528   20.5404 H   0  0  0  0  0  0
  -26.2974  -15.6260   20.1133 H   0  0  0  0  0  0
  -26.7125  -32.5496   23.1102 H   0  0  0  0  0  0
  -25.0214  -33.9761   25.0544 H   0  0  0  0  0  0
  -22.6924  -31.3115   21.4086 H   0  0  0  0  0  0
  -23.3782  -35.9594   23.3297 H   0  0  0  0  0  0
  -24.3601  -36.8875   22.2050 H   0  0  0  0  0  0
  -23.7222  -37.6479   23.6638 H   0  0  0  0  0  0
  -26.0530  -31.5912   20.5933 H   0  0  0  0  0  0
  -26.8190  -30.8727   21.9815 H   0  0  0  0  0  0
  -28.0972  -29.0878   21.1420 H   0  0  0  0  0  0
  -25.9962  -25.9467   19.0343 H   0  0  0  0  0  0
  -23.9617  -27.2845   19.0536 H   0  0  0  0  0  0
  -23.7179  -30.5986   19.4059 H   0  0  0  0  0  0
  -22.7302  -29.2466   19.8656 H   0  0  0  0  0  0
  -25.1284  -36.1938   25.0832 H   0  0  0  0  0  0
  -20.9959  -28.3218   24.1407 H   0  0  0  0  0  0
  -20.5665  -26.2255   23.3578 H   0  0  0  0  0  0
  -21.6639  -26.7411   22.1190 H   0  0  0  0  0  0
  -19.6934  -25.6280   21.1198 H   0  0  0  0  0  0
  -19.6717  -27.3187   20.6739 H   0  0  0  0  0  0
  -17.4204  -26.6647   21.3997 H   0  0  0  0  0  0
  -18.0337  -26.0033   22.8979 H   0  0  0  0  0  0
  -19.7958  -30.7238   24.2226 H   0  0  0  0  0  0
  -17.5044  -31.6247   24.5152 H   0  0  0  0  0  0
  -15.5364  -30.2972   23.7665 H   0  0  0  0  0  0
  -15.8661  -28.0815   22.7036 H   0  0  0  0  0  0
  -24.5980  -30.6950   25.7816 H   0  0  0  0  0  0
  -24.8887  -32.2839   26.4844 H   0  0  0  0  0  0
  -25.8130  -30.8937   27.0244 H   0  0  0  0  0  0
  -26.2851  -29.6776   24.1144 H   0  0  0  0  0  0
  -27.4130  -29.7253   25.4491 H   0  0  0  0  0  0
  -27.8655  -30.4351   23.9174 H   0  0  0  0  0  0
  -27.2709  -33.3629   26.1982 H   0  0  0  0  0  0
  -28.3912  -32.6761   25.0307 H   0  0  0  0  0  0
  -28.0673  -31.8436   26.5424 H   0  0  0  0  0  0
  -28.2564  -38.0126   24.7551 H   0  0  0  0  0  0
  -28.1105  -36.2656   24.6229 H   0  0  0  0  0  0
  -27.2306  -37.1345   25.8865 H   0  0  0  0  0  0
  -20.9295  -29.8778   21.6950 H   0  0  0  0  0  0
  -26.0166  -38.2847   24.1486 H   0  0  0  0  0  0
  -27.0090  -19.8572   22.0721 H   0  0  0  0  0  0
  -31.1322  -18.5783   19.6260 H   0  0  0  0  0  0
  -27.0126  -17.8630   23.3053 H   0  0  0  0  0  0
  -28.6134  -17.2455   23.6910 H   0  0  0  0  0  0
  -27.6338  -16.4690   22.4371 H   0  0  0  0  0  0
  -30.6995  -16.7749   22.6446 H   0  0  0  0  0  0
  -31.5721  -16.8814   21.1627 H   0  0  0  0  0  0
  -26.8121  -21.8591   20.8403 H   0  0  0  0  0  0
  -27.5353  -21.9323   19.2531 H   0  0  0  0  0  0
  -26.8742  -24.2622   20.7876 H   0  0  0  0  0  0
  -28.2194  -24.7523   21.7734 H   0  0  0  0  0  0
  -27.9940  -25.1406   18.7499 H   0  0  0  0  0  0
  -29.5313  -25.1247   19.5409 H   0  0  0  0  0  0
  -29.0953  -15.2144   21.5268 H   0  0  0  0  0  0
  -29.4365  -23.0031   20.1861 H   0  0  0  0  0  0
  -28.9037  -22.7640   21.6960 H   0  0  0  0  0  0
  1 25  1  0  0  0
  1 30  2  0  0  0
  1 82  1  0  0  0
  2  3  1  0  0  0
  2 25  1  0  0  0
  2 85  1  0  0  0
  2 86  1  0  0  0
  3  4  1  0  0  0
  3 87  1  0  0  0
  3 88  1  0  0  0
  4  5  1  0  0  0
  4 89  1  0  0  0
  4 90  1  0  0  0
  5  6  1  0  0  0
  5 26  1  0  0  0
  5 91  1  0  0  0
  6 25  1  0  0  0
  6 92  1  0  0  0
  6 93  1  0  0  0
  7  8  2  0  0  0
  7 26  1  0  0  0
  7 29  1  0  0  0
  8  9  1  0  0  0
  8 22  1  0  0  0
  9 10  1  0  0  0
  9 27  2  0  0  0
 10 11  2  0  0  0
 10 15  1  0  0  0
 11 12  1  0  0  0
 11 94  1  0  0  0
 12 13  2  0  0  0
 12 95  1  0  0  0
 13 14  1  0  0  0
 13 31  1  0  0  0
 14 15  2  0  0  0
 14 96  1  0  0  0
 15 97  1  0  0  0
 16 17  2  0  0  0
 16 21  1  0  0  0
 16 31  1  0  0  0
 17 18  1  0  0  0
 17 98  1  0  0  0
 18 19  2  0  0  0
 18 99  1  0  0  0
 19 20  1  0  0  0
 19 24  1  0  0  0
 20 21  2  0  0  0
 20100  1  0  0  0
 21 23  1  0  0  0
 22 28  1  0  0  0
 22 32  2  0  0  0
 26 27  1  0  0  0
 28101  1  0  0  0
 28102  1  0  0  0
 29103  1  0  0  0
 29104  1  0  0  0
 33 34  1  0  0  0
 33 66  1  0  0  0
 33 70  2  0  0  0
 34 36  1  0  0  0
 34 59  1  0  0  0
 34105  1  0  0  0
 35 44  2  0  0  0
 35 45  1  0  0  0
 35 68  1  0  0  0
 36 56  1  0  0  0
 36106  1  0  0  0
 37 39  1  0  0  0
 37 47  1  0  0  0
 37 66  1  0  0  0
 37107  1  0  0  0
 38 43  2  0  0  0
 38 46  1  0  0  0
 38 47  1  0  0  0
 39 64  1  0  0  0
 39 67  2  0  0  0
 40 52  1  0  0  0
 40 53  2  0  0  0
 40 58  1  0  0  0
 41108  1  0  0  0
 41109  1  0  0  0
 41110  1  0  0  0
 41 48  1  0  0  0
 42 43  1  0  0  0
 42 66  1  0  0  0
 42111  1  0  0  0
 42112  1  0  0  0
 43 44  1  0  0  0
 44113  1  0  0  0
 45 46  2  0  0  0
 45114  1  0  0  0
 46115  1  0  0  0
 47116  1  0  0  0
 47117  1  0  0  0
 48 56  1  0  0  0
 48 65  1  0  0  0
 48118  1  0  0  0
 49 50  1  0  0  0
 49 53  1  0  0  0
 49 64  1  0  0  0
 49119  1  0  0  0
 50 51  1  0  0  0
 50120  1  0  0  0
 50121  1  0  0  0
 51 52  1  0  0  0
 51122  1  0  0  0
 51123  1  0  0  0
 52124  1  0  0  0
 52125  1  0  0  0
 53 54  1  0  0  0
 54 55  2  0  0  0
 54126  1  0  0  0
 55 57  1  0  0  0
 55127  1  0  0  0
 56 69  2  0  0  0
 57 58  2  0  0  0
 57128  1  0  0  0
 58129  1  0  0  0
 59 60  1  0  0  0
 59 61  1  0  0  0
 59 62  1  0  0  0
 60130  1  0  0  0
 60131  1  0  0  0
 60132  1  0  0  0
 61133  1  0  0  0
 61134  1  0  0  0
 61135  1  0  0  0
 62136  1  0  0  0
 62137  1  0  0  0
 62138  1  0  0  0
 63 65  1  0  0  0
 63139  1  0  0  0
 63140  1  0  0  0
 63141  1  0  0  0
 64142  1  0  0  0
 65143  1  0  0  0
 68 81  1  0  0  0
 71 73  2  0  0  0
 71 74  1  0  0  0
 71144  1  0  0  0
 72 75  2  0  0  0
 72 76  1  0  0  0
 72145  1  0  0  0
 73 75  1  0  0  0
 73 77  1  0  0  0
 74 76  2  0  0  0
 74 79  1  0  0  0
 75 78  1  0  0  0
 76 84  1  0  0  0
 77146  1  0  0  0
 77147  1  0  0  0
 77148  1  0  0  0
 78 82  1  0  0  0
 78149  1  0  0  0
 78150  1  0  0  0
 79 83  1  0  0  0
 79151  1  0  0  0
 79152  1  0  0  0
 80 81  1  0  0  0
 80 83  1  0  0  0
 80153  1  0  0  0
 80154  1  0  0  0
 81155  1  0  0  0
 81156  1  0  0  0
 82157  1  0  0  0
 83158  1  0  0  0
 83159  1  0  0  0
M  CHG  1  83   1
M  ISO  4   1 100  68 101  81 101  82 100
M  END
> <chiral flag>
0

> <version>
0

> <s_m_source_file>
/data/baiqing/PycharmProjects/Reinvent-master-3.2/result/LINK_invent/BTK/process_docking_weight1_custom_product_contain_oxygen_bond_distance_aromatic_linkinvent_7_9_3/rearranged_h_0038.sdf

> <i_m_source_file_index>
63

> <r_mmod_Potential_Energy-OPLS-2005>
-293.060821533203

> <r_mmod_Stretch_Energy-OPLS-2005>
39.5977783203125

> <r_mmod_Bend_Energy-OPLS-2005>
105.105651855469

> <r_mmod_Torsional_Energy-OPLS-2005>
194.67854309082

> <r_mmod_Improper_Torsional_Energy-OPLS-2005>
2.724853515625

> <r_mmod_Van_der_Waal_Energy-OPLS-2005>
146.525527954102

> <r_mmod_Electrostatic_Energy-OPLS-2005>
-351.592132568359

> <r_mmod_Solvation_Energy-OPLS-2005>
-443.279815673828

> <b_mmod_Minimization_Converged-OPLS-2005>
0

> <r_mmod_RMS_Derivative-OPLS-2005>
1.94953262805939

$$$$
63
                    3D
 Structure written by MMmdl.
156164  0  0  1  0            999 V2000
  -30.6216  -14.6361   20.4998 C   0  0  0  0  0  0
  -30.4399  -12.3882   19.4525 C   0  0  0  0  0  0
  -29.5092  -12.5049   18.2241 C   0  0  0  0  0  0
  -28.0317  -12.3431   18.6352 C   0  0  0  0  0  0
  -27.6547  -13.2135   19.8632 C   0  0  2  0  0  0
  -28.6992  -13.0650   20.9932 C   0  0  0  0  0  0
  -25.2576  -13.8164   20.5678 C   0  0  0  0  0  0
  -24.1840  -13.0436   20.9188 C   0  0  0  0  0  0
  -24.6401  -11.6904   20.8737 C   0  0  0  0  0  0
  -23.9067  -10.4291   21.0408 C   0  0  0  0  0  0
  -24.3619   -9.4207   21.9185 C   0  0  0  0  0  0
  -23.6294   -8.2243   22.0756 C   0  0  0  0  0  0
  -22.4274   -8.0283   21.3547 C   0  0  0  0  0  0
  -21.9912   -9.0256   20.4647 C   0  0  0  0  0  0
  -22.7241  -10.2134   20.3057 C   0  0  0  0  0  0
  -21.6853   -6.0739   22.5281 C   0  0  0  0  0  0
  -21.4014   -6.5643   23.8214 C   0  0  0  0  0  0
  -21.3657   -5.6795   24.9176 C   0  0  0  0  0  0
  -21.6043   -4.3058   24.7226 C   0  0  0  0  0  0
  -21.8820   -3.8150   23.4346 C   0  0  0  0  0  0
  -21.9192   -4.6967   22.3403 C   0  0  0  0  0  0
  -22.7860  -13.5235   21.1845 C   0  0  0  0  0  0
  -22.1662   -4.2154   21.0981 F   0  0  0  0  0  0
  -21.5626   -3.4541   25.7737 F   0  0  0  0  0  0
  -30.0164  -13.4077   20.4328 N   0  0  0  0  0  0
  -26.2998  -12.9337   20.3310 N   0  0  0  0  0  0
  -25.9329  -11.6496   20.5752 N   0  0  0  0  0  0
  -22.0497  -12.8231   22.0400 N   0  0  0  0  0  0
  -25.4289  -15.1884   20.4080 N   0  0  0  0  0  0
  -31.7800  -14.8009   20.1049 O   0  0  0  0  0  0
  -21.6637   -6.8881   21.4242 O   0  0  0  0  0  0
  -22.3551  -14.5542   20.6690 O   0  0  0  0  0  0
  -24.6257  -31.8606   23.2027 C   0  0  0  0  0  0
  -25.9108  -32.4780   23.8352 C   0  0  1  0  0  0
  -27.2254  -27.3268   20.1135 C   0  0  0  0  0  0
  -25.5932  -33.8580   24.2281 N   0  0  0  0  0  0
  -23.4185  -30.4850   21.5454 C   0  0  2  0  0  0
  -24.8646  -28.9410   20.1112 C   0  0  0  0  0  0
  -22.7468  -29.4632   22.4935 C   0  0  0  0  0  0
  -18.0285  -28.1383   22.8479 C   0  0  0  0  0  0
  -24.1495  -36.7293   23.2640 C   0  0  0  0  0  0
  -25.9596  -30.7938   21.3723 C   0  0  0  0  0  0
  -26.0337  -29.4222   20.7135 C   0  0  0  0  0  0
  -27.2174  -28.6274   20.7034 C   0  0  0  0  0  0
  -26.0309  -26.8950   19.4913 C   0  0  0  0  0  0
  -24.8648  -27.6823   19.4920 C   0  0  0  0  0  0
  -23.6326  -29.8207   20.1602 C   0  0  0  0  0  0
  -25.4118  -36.3082   24.0333 C   0  0  1  0  0  0
  -20.5885  -28.3685   23.1285 C   0  0  2  0  0  0
  -20.6779  -26.9410   22.5410 C   0  0  0  0  0  0
  -19.5755  -26.6382   21.5209 C   0  0  0  0  0  0
  -18.1931  -26.7925   22.1618 C   0  0  0  0  0  0
  -19.1538  -28.8849   23.2876 C   0  0  0  0  0  0
  -18.9466  -30.1449   23.8891 C   0  0  0  0  0  0
  -17.6468  -30.6584   24.0560 C   0  0  0  0  0  0
  -25.9054  -34.9453   23.5104 C   0  0  0  0  0  0
  -16.5355  -29.9083   23.6331 C   0  0  0  0  0  0
  -16.7273  -28.6507   23.0342 C   0  0  0  0  0  0
  -26.4494  -31.6587   25.0720 C   0  0  0  0  0  0
  -25.3734  -31.3723   26.1450 C   0  0  0  0  0  0
  -27.0340  -30.3017   24.6163 C   0  0  0  0  0  0
  -27.6053  -32.4321   25.7490 C   0  0  0  0  0  0
  -27.5580  -37.1800   24.8464 C   0  0  0  0  0  0
  -21.4184  -29.3041   22.3680 N   0  0  0  0  0  0
  -26.4293  -37.3777   23.9411 N   0  0  0  0  0  0
  -24.6867  -31.0627   22.0972 N   0  0  0  0  0  0
  -23.4194  -28.8168   23.3010 O   0  0  0  0  0  0
  -28.3509  -26.4902   20.1596 O   0  0  0  0  0  0
  -26.5617  -34.8919   22.4665 O   0  0  0  0  0  0
  -23.5424  -32.1408   23.7363 O   0  0  0  0  0  0
  -30.9211  -19.2542   19.9603 C   0  0  0  0  0  0
  -30.9228  -17.8297   20.0475 C   0  0  0  0  0  0
  -28.8697  -17.9403   21.2863 C   0  0  0  0  0  0
  -29.9147  -20.0762   20.5505 C   0  0  0  0  0  0
  -28.8633  -19.3716   21.2126 C   0  0  0  0  0  0
  -29.8987  -17.1274   20.7331 C   0  0  0  0  0  0
  -30.1022  -21.5889   20.5456 C   0  0  0  0  0  0
  -27.7262  -20.1151   21.8985 C   0  0  0  0  0  0
  -29.3695  -24.0797   20.3932 C   0  0  0  0  0  0
  -28.1498  -25.0285   20.0374 C   0  0  0  0  0  0
  -31.3380  -22.0222   20.7893 N   0  0  0  0  0  0
  -29.8133  -15.6728   20.8831 N   0  0  0  0  0  0
  -29.1614  -22.5672   20.3353 N   0  3  0  0  0  0
  -31.4814  -12.5125   19.1507 H   0  0  0  0  0  0
  -30.3739  -11.3914   19.8918 H   0  0  0  0  0  0
  -29.7731  -11.7532   17.4790 H   0  0  0  0  0  0
  -29.6521  -13.4739   17.7434 H   0  0  0  0  0  0
  -27.8683  -11.2898   18.8663 H   0  0  0  0  0  0
  -27.3778  -12.5735   17.7933 H   0  0  0  0  0  0
  -27.6741  -14.2488   19.5225 H   0  0  0  0  0  0
  -28.7093  -12.0420   21.3728 H   0  0  0  0  0  0
  -28.4426  -13.6931   21.8477 H   0  0  0  0  0  0
  -25.2768   -9.5681   22.4758 H   0  0  0  0  0  0
  -24.0003   -7.4635   22.7478 H   0  0  0  0  0  0
  -21.0843   -8.8775   19.8953 H   0  0  0  0  0  0
  -22.3702  -10.9673   19.6164 H   0  0  0  0  0  0
  -21.2009   -7.6152   23.9720 H   0  0  0  0  0  0
  -21.1476   -6.0525   25.9079 H   0  0  0  0  0  0
  -22.0600   -2.7614   23.2845 H   0  0  0  0  0  0
  -22.4110  -11.9895   22.4793 H   0  0  0  0  0  0
  -21.1113  -13.1256   22.2591 H   0  0  0  0  0  0
  -24.6543  -15.8366   20.5012 H   0  0  0  0  0  0
  -26.2645  -15.6234   20.0392 H   0  0  0  0  0  0
  -26.7174  -32.5453   23.1101 H   0  0  0  0  0  0
  -25.0083  -33.9724   25.0429 H   0  0  0  0  0  0
  -22.7119  -31.3053   21.4026 H   0  0  0  0  0  0
  -23.3753  -35.9628   23.3306 H   0  0  0  0  0  0
  -24.3586  -36.8912   22.2053 H   0  0  0  0  0  0
  -23.7252  -37.6500   23.6659 H   0  0  0  0  0  0
  -26.0900  -31.5592   20.6057 H   0  0  0  0  0  0
  -26.8403  -30.8414   22.0014 H   0  0  0  0  0  0
  -28.1146  -28.9934   21.1827 H   0  0  0  0  0  0
  -25.9682  -25.9340   19.0035 H   0  0  0  0  0  0
  -23.9686  -27.3070   19.0171 H   0  0  0  0  0  0
  -23.7521  -30.5983   19.4048 H   0  0  0  0  0  0
  -22.7523  -29.2511   19.8568 H   0  0  0  0  0  0
  -25.1295  -36.1934   25.0827 H   0  0  0  0  0  0
  -20.9972  -28.3262   24.1408 H   0  0  0  0  0  0
  -20.5688  -26.2289   23.3607 H   0  0  0  0  0  0
  -21.6648  -26.7446   22.1198 H   0  0  0  0  0  0
  -19.6928  -25.6296   21.1235 H   0  0  0  0  0  0
  -19.6702  -27.3198   20.6746 H   0  0  0  0  0  0
  -17.4205  -26.6669   21.4017 H   0  0  0  0  0  0
  -18.0332  -26.0069   22.9017 H   0  0  0  0  0  0
  -19.7945  -30.7265   24.2254 H   0  0  0  0  0  0
  -17.5026  -31.6264   24.5162 H   0  0  0  0  0  0
  -15.5356  -30.2982   23.7666 H   0  0  0  0  0  0
  -15.8673  -28.0831   22.7046 H   0  0  0  0  0  0
  -24.5907  -30.7072   25.7781 H   0  0  0  0  0  0
  -24.8925  -32.2892   26.4872 H   0  0  0  0  0  0
  -25.8064  -30.8903   27.0224 H   0  0  0  0  0  0
  -26.2913  -29.6761   24.1202 H   0  0  0  0  0  0
  -27.4065  -29.7274   25.4655 H   0  0  0  0  0  0
  -27.8768  -30.4309   23.9369 H   0  0  0  0  0  0
  -27.2661  -33.3620   26.2063 H   0  0  0  0  0  0
  -28.3865  -32.6882   25.0321 H   0  0  0  0  0  0
  -28.0720  -31.8450   26.5411 H   0  0  0  0  0  0
  -28.2589  -38.0103   24.7504 H   0  0  0  0  0  0
  -28.1078  -36.2630   24.6292 H   0  0  0  0  0  0
  -27.2293  -37.1450   25.8864 H   0  0  0  0  0  0
  -20.9357  -29.8768   21.6899 H   0  0  0  0  0  0
  -26.0175  -38.2851   24.1411 H   0  0  0  0  0  0
  -31.7430  -19.7254   19.4382 H   0  0  0  0  0  0
  -31.7332  -17.2882   19.5813 H   0  0  0  0  0  0
  -28.0588  -17.4506   21.8083 H   0  0  0  0  0  0
  -27.1209  -19.4443   22.5090 H   0  0  0  0  0  0
  -27.0660  -20.5711   21.1604 H   0  0  0  0  0  0
  -28.1048  -20.8970   22.5574 H   0  0  0  0  0  0
  -29.7062  -24.3300   21.4006 H   0  0  0  0  0  0
  -30.1957  -24.3375   19.7287 H   0  0  0  0  0  0
  -27.3095  -24.7409   20.6716 H   0  0  0  0  0  0
  -27.8588  -24.8081   19.0103 H   0  0  0  0  0  0
  -32.0560  -21.3462   21.0035 H   0  0  0  0  0  0
  -31.5851  -22.9963   20.8027 H   0  0  0  0  0  0
  -28.9357  -15.3476   21.2563 H   0  0  0  0  0  0
  -28.2308  -22.2489   20.0950 H   0  0  0  0  0  0
  1 25  1  0  0  0
  1 30  2  0  0  0
  1 82  1  0  0  0
  2  3  1  0  0  0
  2 25  1  0  0  0
  2 84  1  0  0  0
  2 85  1  0  0  0
  3  4  1  0  0  0
  3 86  1  0  0  0
  3 87  1  0  0  0
  4  5  1  0  0  0
  4 88  1  0  0  0
  4 89  1  0  0  0
  5  6  1  0  0  0
  5 26  1  0  0  0
  5 90  1  0  0  0
  6 25  1  0  0  0
  6 91  1  0  0  0
  6 92  1  0  0  0
  7  8  2  0  0  0
  7 26  1  0  0  0
  7 29  1  0  0  0
  8  9  1  0  0  0
  8 22  1  0  0  0
  9 10  1  0  0  0
  9 27  2  0  0  0
 10 11  2  0  0  0
 10 15  1  0  0  0
 11 12  1  0  0  0
 11 93  1  0  0  0
 12 13  2  0  0  0
 12 94  1  0  0  0
 13 14  1  0  0  0
 13 31  1  0  0  0
 14 15  2  0  0  0
 14 95  1  0  0  0
 15 96  1  0  0  0
 16 17  2  0  0  0
 16 21  1  0  0  0
 16 31  1  0  0  0
 17 18  1  0  0  0
 17 97  1  0  0  0
 18 19  2  0  0  0
 18 98  1  0  0  0
 19 20  1  0  0  0
 19 24  1  0  0  0
 20 21  2  0  0  0
 20 99  1  0  0  0
 21 23  1  0  0  0
 22 28  1  0  0  0
 22 32  2  0  0  0
 26 27  1  0  0  0
 28100  1  0  0  0
 28101  1  0  0  0
 29102  1  0  0  0
 29103  1  0  0  0
 33 34  1  0  0  0
 33 66  1  0  0  0
 33 70  2  0  0  0
 34 36  1  0  0  0
 34 59  1  0  0  0
 34104  1  0  0  0
 35 44  2  0  0  0
 35 45  1  0  0  0
 35 68  1  0  0  0
 36 56  1  0  0  0
 36105  1  0  0  0
 37 39  1  0  0  0
 37 47  1  0  0  0
 37 66  1  0  0  0
 37106  1  0  0  0
 38 43  2  0  0  0
 38 46  1  0  0  0
 38 47  1  0  0  0
 39 64  1  0  0  0
 39 67  2  0  0  0
 40 52  1  0  0  0
 40 53  2  0  0  0
 40 58  1  0  0  0
 41107  1  0  0  0
 41108  1  0  0  0
 41109  1  0  0  0
 41 48  1  0  0  0
 42 43  1  0  0  0
 42 66  1  0  0  0
 42110  1  0  0  0
 42111  1  0  0  0
 43 44  1  0  0  0
 44112  1  0  0  0
 45 46  2  0  0  0
 45113  1  0  0  0
 46114  1  0  0  0
 47115  1  0  0  0
 47116  1  0  0  0
 48 56  1  0  0  0
 48 65  1  0  0  0
 48117  1  0  0  0
 49 50  1  0  0  0
 49 53  1  0  0  0
 49 64  1  0  0  0
 49118  1  0  0  0
 50 51  1  0  0  0
 50119  1  0  0  0
 50120  1  0  0  0
 51 52  1  0  0  0
 51121  1  0  0  0
 51122  1  0  0  0
 52123  1  0  0  0
 52124  1  0  0  0
 53 54  1  0  0  0
 54 55  2  0  0  0
 54125  1  0  0  0
 55 57  1  0  0  0
 55126  1  0  0  0
 56 69  2  0  0  0
 57 58  2  0  0  0
 57127  1  0  0  0
 58128  1  0  0  0
 59 60  1  0  0  0
 59 61  1  0  0  0
 59 62  1  0  0  0
 60129  1  0  0  0
 60130  1  0  0  0
 60131  1  0  0  0
 61132  1  0  0  0
 61133  1  0  0  0
 61134  1  0  0  0
 62135  1  0  0  0
 62136  1  0  0  0
 62137  1  0  0  0
 63 65  1  0  0  0
 63138  1  0  0  0
 63139  1  0  0  0
 63140  1  0  0  0
 64141  1  0  0  0
 65142  1  0  0  0
 68 80  1  0  0  0
 71 72  2  0  0  0
 71 74  1  0  0  0
 71143  1  0  0  0
 72 76  1  0  0  0
 72144  1  0  0  0
 73 75  1  0  0  0
 73 76  2  0  0  0
 73145  1  0  0  0
 74 75  2  0  0  0
 74 77  1  0  0  0
 75 78  1  0  0  0
 76 82  1  0  0  0
 77 81  1  0  0  0
 77 83  2  0  0  0
 78146  1  0  0  0
 78147  1  0  0  0
 78148  1  0  0  0
 79 80  1  0  0  0
 79 83  1  0  0  0
 79149  1  0  0  0
 79150  1  0  0  0
 80151  1  0  0  0
 80152  1  0  0  0
 81153  1  0  0  0
 81154  1  0  0  0
 82155  1  0  0  0
 83156  1  0  0  0
M  CHG  1  83   1
M  ISO  4   1 100  68 101  80 101  82 100
M  END
> <chiral flag>
0

> <version>
0

> <s_m_source_file>
/data/baiqing/PycharmProjects/Reinvent-master-3.2/result/LINK_invent/BTK/process_docking_weight1_custom_product_contain_oxygen_bond_distance_aromatic_linkinvent_7_9_3/rearranged_h_0038.sdf

> <i_m_source_file_index>
64

> <r_mmod_Potential_Energy-OPLS-2005>
-152.507537841797

> <r_mmod_Stretch_Energy-OPLS-2005>
79.5089340209961

> <r_mmod_Bend_Energy-OPLS-2005>
137.41130065918

> <r_mmod_Torsional_Energy-OPLS-2005>
209.438125610352

> <r_mmod_Improper_Torsional_Energy-OPLS-2005>
4.291175365448

> <r_mmod_Van_der_Waal_Energy-OPLS-2005>
151.498825073242

> <r_mmod_Electrostatic_Energy-OPLS-2005>
-368.951171875

> <r_mmod_Solvation_Energy-OPLS-2005>
-411.448089599609

> <b_mmod_Minimization_Converged-OPLS-2005>
0

> <r_mmod_RMS_Derivative-OPLS-2005>
0.721498847007751

$$$$
64
                    3D
 Structure written by MMmdl.
167176  0  0  1  0            999 V2000
  -30.6013  -14.7216   20.4390 C   0  0  0  0  0  0
  -30.4352  -12.4340   19.4767 C   0  0  0  0  0  0
  -29.5119  -12.4969   18.2386 C   0  0  0  0  0  0
  -28.0371  -12.3279   18.6509 C   0  0  0  0  0  0
  -27.6445  -13.2259   19.8541 C   0  0  2  0  0  0
  -28.6876  -13.1478   20.9922 C   0  0  0  0  0  0
  -25.2522  -13.8196   20.5691 C   0  0  0  0  0  0
  -24.1804  -13.0438   20.9211 C   0  0  0  0  0  0
  -24.6391  -11.6916   20.8753 C   0  0  0  0  0  0
  -23.9058  -10.4295   21.0417 C   0  0  0  0  0  0
  -24.3612   -9.4210   21.9188 C   0  0  0  0  0  0
  -23.6295   -8.2243   22.0752 C   0  0  0  0  0  0
  -22.4278   -8.0284   21.3541 C   0  0  0  0  0  0
  -21.9914   -9.0255   20.4644 C   0  0  0  0  0  0
  -22.7240  -10.2140   20.3062 C   0  0  0  0  0  0
  -21.6843   -6.0734   22.5277 C   0  0  0  0  0  0
  -21.4007   -6.5638   23.8210 C   0  0  0  0  0  0
  -21.3661   -5.6791   24.9174 C   0  0  0  0  0  0
  -21.6046   -4.3053   24.7221 C   0  0  0  0  0  0
  -21.8819   -3.8149   23.4344 C   0  0  0  0  0  0
  -21.9195   -4.6965   22.3402 C   0  0  0  0  0  0
  -22.7825  -13.5226   21.1862 C   0  0  0  0  0  0
  -22.1662   -4.2141   21.0978 F   0  0  0  0  0  0
  -21.5634   -3.4547   25.7739 F   0  0  0  0  0  0
  -29.9956  -13.4885   20.4189 N   0  0  0  0  0  0
  -26.2945  -12.9382   20.3290 N   0  0  0  0  0  0
  -25.9315  -11.6535   20.5760 N   0  0  0  0  0  0
  -22.0464  -12.8221   22.0422 N   0  0  0  0  0  0
  -25.4238  -15.1914   20.4098 N   0  0  0  0  0  0
  -31.7770  -14.8395   20.0824 O   0  0  0  0  0  0
  -21.6647   -6.8883   21.4238 O   0  0  0  0  0  0
  -22.3515  -14.5531   20.6711 O   0  0  0  0  0  0
  -24.6331  -31.8529   23.1978 C   0  0  0  0  0  0
  -25.9147  -32.4729   23.8323 C   0  0  1  0  0  0
  -27.2349  -27.2638   20.1028 C   0  0  0  0  0  0
  -25.5932  -33.8530   24.2239 N   0  0  0  0  0  0
  -23.4305  -30.4750   21.5413 C   0  0  2  0  0  0
  -24.8780  -28.9202   20.1112 C   0  0  0  0  0  0
  -22.7512  -29.4590   22.4911 C   0  0  0  0  0  0
  -18.0287  -28.1400   22.8475 C   0  0  0  0  0  0
  -24.1492  -36.7274   23.2643 C   0  0  0  0  0  0
  -25.9765  -30.7643   21.3775 C   0  0  0  0  0  0
  -26.0509  -29.3877   20.7152 C   0  0  0  0  0  0
  -27.2267  -28.5702   20.7033 C   0  0  0  0  0  0
  -26.0273  -26.8570   19.4887 C   0  0  0  0  0  0
  -24.8705  -27.6607   19.4941 C   0  0  0  0  0  0
  -23.6488  -29.8069   20.1583 C   0  0  0  0  0  0
  -25.4112  -36.3033   24.0315 C   0  0  1  0  0  0
  -20.5897  -28.3709   23.1268 C   0  0  2  0  0  0
  -20.6776  -26.9425   22.5410 C   0  0  0  0  0  0
  -19.5753  -26.6399   21.5216 C   0  0  0  0  0  0
  -18.1934  -26.7939   22.1627 C   0  0  0  0  0  0
  -19.1543  -28.8870   23.2862 C   0  0  0  0  0  0
  -18.9465  -30.1472   23.8875 C   0  0  0  0  0  0
  -17.6463  -30.6591   24.0571 C   0  0  0  0  0  0
  -25.9058  -34.9413   23.5083 C   0  0  0  0  0  0
  -16.5351  -29.9094   23.6339 C   0  0  0  0  0  0
  -16.7273  -28.6522   23.0340 C   0  0  0  0  0  0
  -26.4509  -31.6556   25.0716 C   0  0  0  0  0  0
  -25.3724  -31.3700   26.1433 C   0  0  0  0  0  0
  -27.0372  -30.2965   24.6226 C   0  0  0  0  0  0
  -27.6066  -32.4304   25.7476 C   0  0  0  0  0  0
  -27.5572  -37.1778   24.8463 C   0  0  0  0  0  0
  -21.4215  -29.3044   22.3650 N   0  0  0  0  0  0
  -26.4281  -37.3743   23.9407 N   0  0  0  0  0  0
  -24.6992  -31.0487   22.0957 N   0  0  0  0  0  0
  -23.4198  -28.8127   23.3018 O   0  0  0  0  0  0
  -28.3639  -26.4106   20.1690 O   0  0  0  0  0  0
  -26.5644  -34.8897   22.4660 O   0  0  0  0  0  0
  -23.5481  -32.1366   23.7269 O   0  0  0  0  0  0
  -29.3477  -19.8153   22.6879 C   0  0  0  0  0  0
  -29.5173  -18.6020   22.0049 C   0  0  0  0  0  0
  -29.2861  -21.0619   22.0266 C   0  0  0  0  0  0
  -29.5891  -18.5757   20.6052 C   0  0  0  0  0  0
  -29.4114  -19.8520   19.9108 C   0  0  0  0  0  0
  -29.2971  -21.1538   20.5965 C   0  0  0  0  0  0
  -30.2793  -22.7152   18.9205 C   0  0  0  0  0  0
  -31.4835  -22.1141   18.8741 C   0  0  0  0  0  0
  -30.3365  -22.6737   23.5625 C   0  0  0  0  0  0
  -29.2449  -22.2103   22.9347 C   0  0  0  0  0  0
  -29.8997  -23.7761   17.8966 C   0  0  0  0  0  0
  -29.6075  -25.1304   18.5571 C   0  0  0  0  0  0
  -28.7283  -23.7384   20.5134 C   0  0  0  0  0  0
  -28.4615  -25.0285   19.5707 C   0  0  1  0  0  0
  -29.3380  -19.7821   18.3872 C   0  0  0  0  0  0
  -29.9337  -17.1857   19.9062 C   0  0  0  0  0  0
  -29.3233  -22.4614   19.9119 N   0  0  0  0  0  0
  -29.7978  -15.8347   20.6007 N   0  0  0  0  0  0
  -31.4753  -12.5603   19.1708 H   0  0  0  0  0  0
  -30.3830  -11.4535   19.9528 H   0  0  0  0  0  0
  -29.7889  -11.7210   17.5232 H   0  0  0  0  0  0
  -29.6450  -13.4496   17.7240 H   0  0  0  0  0  0
  -27.8897  -11.2800   18.9126 H   0  0  0  0  0  0
  -27.3815  -12.5236   17.8021 H   0  0  0  0  0  0
  -27.6432  -14.2486   19.4754 H   0  0  0  0  0  0
  -28.7130  -12.1498   21.4314 H   0  0  0  0  0  0
  -28.4259  -13.8309   21.8021 H   0  0  0  0  0  0
  -25.2751   -9.5686   22.4770 H   0  0  0  0  0  0
  -23.9995   -7.4635   22.7473 H   0  0  0  0  0  0
  -21.0839   -8.8777   19.8952 H   0  0  0  0  0  0
  -22.3691  -10.9678   19.6178 H   0  0  0  0  0  0
  -21.1991   -7.6145   23.9701 H   0  0  0  0  0  0
  -21.1482   -6.0530   25.9069 H   0  0  0  0  0  0
  -22.0600   -2.7610   23.2850 H   0  0  0  0  0  0
  -22.4083  -11.9894   22.4827 H   0  0  0  0  0  0
  -21.1077  -13.1240   22.2591 H   0  0  0  0  0  0
  -24.6579  -15.8474   20.5197 H   0  0  0  0  0  0
  -26.2718  -15.6287   20.0718 H   0  0  0  0  0  0
  -26.7214  -32.5363   23.1067 H   0  0  0  0  0  0
  -25.0027  -33.9660   25.0345 H   0  0  0  0  0  0
  -22.7267  -31.2969   21.3926 H   0  0  0  0  0  0
  -23.3737  -35.9625   23.3298 H   0  0  0  0  0  0
  -24.3590  -36.8917   22.2065 H   0  0  0  0  0  0
  -23.7274  -37.6477   23.6690 H   0  0  0  0  0  0
  -26.1167  -31.5265   20.6094 H   0  0  0  0  0  0
  -26.8535  -30.8135   22.0115 H   0  0  0  0  0  0
  -28.1256  -28.9258   21.1879 H   0  0  0  0  0  0
  -25.9219  -25.8962   19.0145 H   0  0  0  0  0  0
  -23.9687  -27.2892   19.0281 H   0  0  0  0  0  0
  -23.7714  -30.5821   19.4010 H   0  0  0  0  0  0
  -22.7684  -29.2388   19.8529 H   0  0  0  0  0  0
  -25.1294  -36.1875   25.0804 H   0  0  0  0  0  0
  -20.9973  -28.3297   24.1399 H   0  0  0  0  0  0
  -20.5713  -26.2301   23.3613 H   0  0  0  0  0  0
  -21.6638  -26.7467   22.1187 H   0  0  0  0  0  0
  -19.6918  -25.6318   21.1239 H   0  0  0  0  0  0
  -19.6698  -27.3212   20.6756 H   0  0  0  0  0  0
  -17.4203  -26.6673   21.4033 H   0  0  0  0  0  0
  -18.0326  -26.0090   22.9032 H   0  0  0  0  0  0
  -19.7940  -30.7294   24.2229 H   0  0  0  0  0  0
  -17.5020  -31.6273   24.5183 H   0  0  0  0  0  0
  -15.5350  -30.2988   23.7703 H   0  0  0  0  0  0
  -15.8667  -28.0865   22.7035 H   0  0  0  0  0  0
  -24.5916  -30.7031   25.7762 H   0  0  0  0  0  0
  -24.8892  -32.2860   26.4844 H   0  0  0  0  0  0
  -25.8037  -30.8900   27.0223 H   0  0  0  0  0  0
  -26.2976  -29.6670   24.1265 H   0  0  0  0  0  0
  -27.4056  -29.7263   25.4766 H   0  0  0  0  0  0
  -27.8846  -30.4220   23.9473 H   0  0  0  0  0  0
  -27.2693  -33.3631   26.2002 H   0  0  0  0  0  0
  -28.3892  -32.6811   25.0300 H   0  0  0  0  0  0
  -28.0704  -31.8450   26.5429 H   0  0  0  0  0  0
  -28.2565  -38.0101   24.7513 H   0  0  0  0  0  0
  -28.1086  -36.2619   24.6272 H   0  0  0  0  0  0
  -27.2284  -37.1409   25.8866 H   0  0  0  0  0  0
  -20.9412  -29.8767   21.6848 H   0  0  0  0  0  0
  -26.0143  -38.2801   24.1434 H   0  0  0  0  0  0
  -29.3251  -19.7919   23.7683 H   0  0  0  0  0  0
  -29.6271  -17.6889   22.5719 H   0  0  0  0  0  0
  -32.2034  -22.3480   18.1027 H   0  0  0  0  0  0
  -31.7846  -21.3767   19.6048 H   0  0  0  0  0  0
  -30.2811  -23.5156   24.2366 H   0  0  0  0  0  0
  -31.3029  -22.2152   23.4056 H   0  0  0  0  0  0
  -28.2842  -22.6761   23.0988 H   0  0  0  0  0  0
  -29.0268  -23.4294   17.3419 H   0  0  0  0  0  0
  -30.6952  -23.8908   17.1597 H   0  0  0  0  0  0
  -29.3608  -25.8709   17.7943 H   0  0  0  0  0  0
  -30.5105  -25.4884   19.0503 H   0  0  0  0  0  0
  -27.7982  -23.4947   21.0273 H   0  0  0  0  0  0
  -29.4313  -24.0811   21.2722 H   0  0  0  0  0  0
  -27.5864  -24.7801   18.9819 H   0  0  0  0  0  0
  -30.3244  -19.6087   17.9573 H   0  0  0  0  0  0
  -28.9190  -20.6848   17.9450 H   0  0  0  0  0  0
  -28.6843  -18.9733   18.0631 H   0  0  0  0  0  0
  -30.9531  -17.2766   19.5292 H   0  0  0  0  0  0
  -29.3083  -17.0950   19.0190 H   0  0  0  0  0  0
  -28.8735  -15.6328   20.9492 H   0  0  0  0  0  0
  1 25  1  0  0  0
  1 30  2  0  0  0
  1 88  1  0  0  0
  2  3  1  0  0  0
  2 25  1  0  0  0
  2 89  1  0  0  0
  2 90  1  0  0  0
  3  4  1  0  0  0
  3 91  1  0  0  0
  3 92  1  0  0  0
  4  5  1  0  0  0
  4 93  1  0  0  0
  4 94  1  0  0  0
  5  6  1  0  0  0
  5 26  1  0  0  0
  5 95  1  0  0  0
  6 25  1  0  0  0
  6 96  1  0  0  0
  6 97  1  0  0  0
  7  8  2  0  0  0
  7 26  1  0  0  0
  7 29  1  0  0  0
  8  9  1  0  0  0
  8 22  1  0  0  0
  9 10  1  0  0  0
  9 27  2  0  0  0
 10 11  2  0  0  0
 10 15  1  0  0  0
 11 12  1  0  0  0
 11 98  1  0  0  0
 12 13  2  0  0  0
 12 99  1  0  0  0
 13 14  1  0  0  0
 13 31  1  0  0  0
 14 15  2  0  0  0
 14100  1  0  0  0
 15101  1  0  0  0
 16 17  2  0  0  0
 16 21  1  0  0  0
 16 31  1  0  0  0
 17 18  1  0  0  0
 17102  1  0  0  0
 18 19  2  0  0  0
 18103  1  0  0  0
 19 20  1  0  0  0
 19 24  1  0  0  0
 20 21  2  0  0  0
 20104  1  0  0  0
 21 23  1  0  0  0
 22 28  1  0  0  0
 22 32  2  0  0  0
 26 27  1  0  0  0
 28105  1  0  0  0
 28106  1  0  0  0
 29107  1  0  0  0
 29108  1  0  0  0
 33 34  1  0  0  0
 33 66  1  0  0  0
 33 70  2  0  0  0
 34 36  1  0  0  0
 34 59  1  0  0  0
 34109  1  0  0  0
 35 44  2  0  0  0
 35 45  1  0  0  0
 35 68  1  0  0  0
 36 56  1  0  0  0
 36110  1  0  0  0
 37 39  1  0  0  0
 37 47  1  0  0  0
 37 66  1  0  0  0
 37111  1  0  0  0
 38 43  2  0  0  0
 38 46  1  0  0  0
 38 47  1  0  0  0
 39 64  1  0  0  0
 39 67  2  0  0  0
 40 52  1  0  0  0
 40 53  2  0  0  0
 40 58  1  0  0  0
 41112  1  0  0  0
 41113  1  0  0  0
 41114  1  0  0  0
 41 48  1  0  0  0
 42 43  1  0  0  0
 42 66  1  0  0  0
 42115  1  0  0  0
 42116  1  0  0  0
 43 44  1  0  0  0
 44117  1  0  0  0
 45 46  2  0  0  0
 45118  1  0  0  0
 46119  1  0  0  0
 47120  1  0  0  0
 47121  1  0  0  0
 48 56  1  0  0  0
 48 65  1  0  0  0
 48122  1  0  0  0
 49 50  1  0  0  0
 49 53  1  0  0  0
 49 64  1  0  0  0
 49123  1  0  0  0
 50 51  1  0  0  0
 50124  1  0  0  0
 50125  1  0  0  0
 51 52  1  0  0  0
 51126  1  0  0  0
 51127  1  0  0  0
 52128  1  0  0  0
 52129  1  0  0  0
 53 54  1  0  0  0
 54 55  2  0  0  0
 54130  1  0  0  0
 55 57  1  0  0  0
 55131  1  0  0  0
 56 69  2  0  0  0
 57 58  2  0  0  0
 57132  1  0  0  0
 58133  1  0  0  0
 59 60  1  0  0  0
 59 61  1  0  0  0
 59 62  1  0  0  0
 60134  1  0  0  0
 60135  1  0  0  0
 60136  1  0  0  0
 61137  1  0  0  0
 61138  1  0  0  0
 61139  1  0  0  0
 62140  1  0  0  0
 62141  1  0  0  0
 62142  1  0  0  0
 63 65  1  0  0  0
 63143  1  0  0  0
 63144  1  0  0  0
 63145  1  0  0  0
 64146  1  0  0  0
 65147  1  0  0  0
 68 84  1  0  0  0
 71 72  2  0  0  0
 71 73  1  0  0  0
 71148  1  0  0  0
 72 74  1  0  0  0
 72149  1  0  0  0
 73 76  2  0  0  0
 73 80  1  0  0  0
 74 75  2  0  0  0
 74 86  1  0  0  0
 75 76  1  0  0  0
 75 85  1  0  0  0
 76 87  1  0  0  0
 77 78  2  0  0  0
 77 81  1  0  0  0
 77 87  1  0  0  0
 78150  1  0  0  0
 78151  1  0  0  0
 79 80  2  0  0  0
 79152  1  0  0  0
 79153  1  0  0  0
 80154  1  0  0  0
 81 82  1  0  0  0
 81155  1  0  0  0
 81156  1  0  0  0
 82 84  1  0  0  0
 82157  1  0  0  0
 82158  1  0  0  0
 83 84  1  0  0  0
 83 87  1  0  0  0
 83159  1  0  0  0
 83160  1  0  0  0
 84161  1  0  0  0
 85162  1  0  0  0
 85163  1  0  0  0
 85164  1  0  0  0
 86 88  1  0  0  0
 86165  1  0  0  0
 86166  1  0  0  0
 88167  1  0  0  0
M  ISO  4   1 100  68 101  84 101  88 100
M  END
> <chiral flag>
0

> <version>
0

> <s_m_source_file>
/data/baiqing/PycharmProjects/Reinvent-master-3.2/result/LINK_invent/BTK/process_docking_weight1_custom_product_contain_oxygen_bond_distance_aromatic_linkinvent_7_9_3/rearranged_h_0038.sdf

> <i_m_source_file_index>
65

> <r_mmod_Potential_Energy-OPLS-2005>
208.104736328125

> <r_mmod_Stretch_Energy-OPLS-2005>
135.96418762207

> <r_mmod_Bend_Energy-OPLS-2005>
184.603729248047

> <r_mmod_Torsional_Energy-OPLS-2005>
277.027404785156

> <r_mmod_Improper_Torsional_Energy-OPLS-2005>
9.41856098175049

> <r_mmod_Van_der_Waal_Energy-OPLS-2005>
163.672744750977

> <r_mmod_Electrostatic_Energy-OPLS-2005>
-434.946258544922

> <r_mmod_Solvation_Energy-OPLS-2005>
-204.751190185547

> <b_mmod_Minimization_Converged-OPLS-2005>
0

> <r_mmod_RMS_Derivative-OPLS-2005>
2.22677493095398

$$$$
65
                    3D
 Structure written by MMmdl.
170179  0  0  1  0            999 V2000
  -30.5966  -14.7581   20.4032 C   0  0  0  0  0  0
  -30.4380  -12.4392   19.4862 C   0  0  0  0  0  0
  -29.5169  -12.4363   18.2449 C   0  0  0  0  0  0
  -28.0366  -12.3076   18.6535 C   0  0  0  0  0  0
  -27.6438  -13.2261   19.8421 C   0  0  2  0  0  0
  -28.6880  -13.1756   20.9791 C   0  0  0  0  0  0
  -25.2539  -13.8199   20.5676 C   0  0  0  0  0  0
  -24.1824  -13.0449   20.9202 C   0  0  0  0  0  0
  -24.6403  -11.6924   20.8749 C   0  0  0  0  0  0
  -23.9075  -10.4300   21.0403 C   0  0  0  0  0  0
  -24.3625   -9.4214   21.9184 C   0  0  0  0  0  0
  -23.6298   -8.2249   22.0754 C   0  0  0  0  0  0
  -22.4282   -8.0288   21.3541 C   0  0  0  0  0  0
  -21.9919   -9.0262   20.4644 C   0  0  0  0  0  0
  -22.7246  -10.2140   20.3052 C   0  0  0  0  0  0
  -21.6861   -6.0736   22.5285 C   0  0  0  0  0  0
  -21.4018   -6.5641   23.8219 C   0  0  0  0  0  0
  -21.3657   -5.6793   24.9181 C   0  0  0  0  0  0
  -21.6044   -4.3056   24.7230 C   0  0  0  0  0  0
  -21.8819   -3.8148   23.4351 C   0  0  0  0  0  0
  -21.9196   -4.6963   22.3409 C   0  0  0  0  0  0
  -22.7849  -13.5232   21.1863 C   0  0  0  0  0  0
  -22.1665   -4.2151   21.0984 F   0  0  0  0  0  0
  -21.5625   -3.4542   25.7741 F   0  0  0  0  0  0
  -29.9876  -13.5217   20.3926 N   0  0  0  0  0  0
  -26.2956  -12.9395   20.3248 N   0  0  0  0  0  0
  -25.9332  -11.6543   20.5758 N   0  0  0  0  0  0
  -22.0499  -12.8210   22.0409 N   0  0  0  0  0  0
  -25.4232  -15.1919   20.4087 N   0  0  0  0  0  0
  -31.7955  -14.8459   20.1219 O   0  0  0  0  0  0
  -21.6649   -6.8878   21.4241 O   0  0  0  0  0  0
  -22.3532  -14.5540   20.6719 O   0  0  0  0  0  0
  -24.6276  -31.8563   23.1969 C   0  0  0  0  0  0
  -25.9098  -32.4774   23.8311 C   0  0  1  0  0  0
  -27.2182  -27.2636   20.1487 C   0  0  0  0  0  0
  -25.5905  -33.8573   24.2238 N   0  0  0  0  0  0
  -23.4263  -30.4760   21.5390 C   0  0  2  0  0  0
  -24.8772  -28.9218   20.1107 C   0  0  0  0  0  0
  -22.7495  -29.4588   22.4892 C   0  0  0  0  0  0
  -18.0298  -28.1371   22.8454 C   0  0  0  0  0  0
  -24.1502  -36.7280   23.2640 C   0  0  0  0  0  0
  -25.9713  -30.7697   21.3784 C   0  0  0  0  0  0
  -26.0445  -29.3903   20.7266 C   0  0  0  0  0  0
  -27.2166  -28.5712   20.7374 C   0  0  0  0  0  0
  -26.0455  -26.8785   19.4640 C   0  0  0  0  0  0
  -24.8818  -27.6730   19.4693 C   0  0  0  0  0  0
  -23.6472  -29.8093   20.1554 C   0  0  0  0  0  0
  -25.4123  -36.3077   24.0339 C   0  0  1  0  0  0
  -20.5908  -28.3661   23.1285 C   0  0  2  0  0  0
  -20.6788  -26.9386   22.5416 C   0  0  0  0  0  0
  -19.5778  -26.6361   21.5206 C   0  0  0  0  0  0
  -18.1947  -26.7918   22.1599 C   0  0  0  0  0  0
  -19.1555  -28.8828   23.2860 C   0  0  0  0  0  0
  -18.9488  -30.1430   23.8877 C   0  0  0  0  0  0
  -17.6491  -30.6570   24.0543 C   0  0  0  0  0  0
  -25.9058  -34.9450   23.5100 C   0  0  0  0  0  0
  -16.5375  -29.9067   23.6331 C   0  0  0  0  0  0
  -16.7285  -28.6492   23.0332 C   0  0  0  0  0  0
  -26.4469  -31.6595   25.0694 C   0  0  0  0  0  0
  -25.3684  -31.3767   26.1419 C   0  0  0  0  0  0
  -27.0310  -30.3024   24.6143 C   0  0  0  0  0  0
  -27.6012  -32.4340   25.7483 C   0  0  0  0  0  0
  -27.5587  -37.1793   24.8470 C   0  0  0  0  0  0
  -21.4194  -29.3023   22.3658 N   0  0  0  0  0  0
  -26.4298  -37.3773   23.9409 N   0  0  0  0  0  0
  -24.6940  -31.0525   22.0951 N   0  0  0  0  0  0
  -23.4194  -28.8130   23.2991 O   0  0  0  0  0  0
  -28.3230  -26.3825   20.1815 O   0  0  0  0  0  0
  -26.5639  -34.8924   22.4672 O   0  0  0  0  0  0
  -23.5429  -32.1382   23.7270 O   0  0  0  0  0  0
  -30.0767  -19.8665   18.7016 C   0  0  0  0  0  0
  -30.3257  -18.7015   17.9581 C   0  0  0  0  0  0
  -29.6685  -19.8300   20.0432 C   0  0  0  0  0  0
  -30.2008  -17.4130   18.5454 C   0  0  0  0  0  0
  -29.5763  -18.5022   20.6557 C   0  0  0  0  0  0
  -29.8994  -17.2628   19.9375 C   0  0  0  0  0  0
  -27.1394  -22.1119   20.8723 C   0  0  0  0  0  0
  -26.2831  -21.1402   20.5146 C   0  0  0  0  0  0
  -26.9275  -23.1561   21.9588 C   0  0  0  0  0  0
  -26.8961  -24.5770   21.3763 C   0  0  0  0  0  0
  -28.8288  -23.7330   19.8552 C   0  0  0  0  0  0
  -28.2415  -24.9657   20.7217 C   0  0  1  0  0  0
  -30.7230  -18.8900   16.4985 C   0  0  0  0  0  0
  -30.3252  -16.1976   17.6322 C   0  0  0  0  0  0
  -29.1288  -18.3999   22.1053 C   0  0  0  0  0  0
  -29.5112  -21.2698   20.7272 C   0  0  0  0  0  0
  -29.7973  -15.8919   20.5371 N   0  0  0  0  0  0
  -28.4611  -22.2671   20.2048 N   0  3  2  0  0  0
  -31.4777  -12.5606   19.1795 H   0  0  0  0  0  0
  -30.3901  -11.4775   19.9978 H   0  0  0  0  0  0
  -29.7862  -11.6052   17.5914 H   0  0  0  0  0  0
  -29.6714  -13.3314   17.6491 H   0  0  0  0  0  0
  -27.8750  -11.2649   18.9284 H   0  0  0  0  0  0
  -27.3881  -12.4955   17.7974 H   0  0  0  0  0  0
  -27.6363  -14.2417   19.4466 H   0  0  0  0  0  0
  -28.7233  -12.1850   21.4359 H   0  0  0  0  0  0
  -28.4236  -13.8703   21.7778 H   0  0  0  0  0  0
  -25.2773   -9.5700   22.4755 H   0  0  0  0  0  0
  -24.0023   -7.4643   22.7474 H   0  0  0  0  0  0
  -21.0859   -8.8770   19.8949 H   0  0  0  0  0  0
  -22.3704  -10.9675   19.6162 H   0  0  0  0  0  0
  -21.2008   -7.6152   23.9721 H   0  0  0  0  0  0
  -21.1475   -6.0525   25.9081 H   0  0  0  0  0  0
  -22.0597   -2.7612   23.2856 H   0  0  0  0  0  0
  -22.4134  -11.9874   22.4784 H   0  0  0  0  0  0
  -21.1107  -13.1210   22.2606 H   0  0  0  0  0  0
  -24.6499  -15.8386   20.5122 H   0  0  0  0  0  0
  -26.2616  -15.6339   20.0541 H   0  0  0  0  0  0
  -26.7134  -32.5407   23.1015 H   0  0  0  0  0  0
  -25.0051  -33.9723   25.0394 H   0  0  0  0  0  0
  -22.7237  -31.2974   21.3900 H   0  0  0  0  0  0
  -23.3783  -35.9595   23.3312 H   0  0  0  0  0  0
  -24.3605  -36.8903   22.2053 H   0  0  0  0  0  0
  -23.7265  -37.6482   23.6665 H   0  0  0  0  0  0
  -26.1102  -31.5288   20.6072 H   0  0  0  0  0  0
  -26.8478  -30.8210   22.0116 H   0  0  0  0  0  0
  -28.1090  -28.9215   21.2381 H   0  0  0  0  0  0
  -26.0191  -25.9378   18.9338 H   0  0  0  0  0  0
  -23.9920  -27.3168   18.9674 H   0  0  0  0  0  0
  -23.7821  -30.5872   19.4049 H   0  0  0  0  0  0
  -22.7647  -29.2487   19.8404 H   0  0  0  0  0  0
  -25.1318  -36.1904   25.0837 H   0  0  0  0  0  0
  -20.9980  -28.3222   24.1411 H   0  0  0  0  0  0
  -20.5715  -26.2251   23.3596 H   0  0  0  0  0  0
  -21.6652  -26.7429   22.1197 H   0  0  0  0  0  0
  -19.6967  -25.6272   21.1232 H   0  0  0  0  0  0
  -19.6749  -27.3150   20.6727 H   0  0  0  0  0  0
  -17.4234  -26.6652   21.3985 H   0  0  0  0  0  0
  -18.0335  -26.0065   22.9001 H   0  0  0  0  0  0
  -19.7965  -30.7234   24.2231 H   0  0  0  0  0  0
  -17.5059  -31.6255   24.5124 H   0  0  0  0  0  0
  -15.5369  -30.2972   23.7675 H   0  0  0  0  0  0
  -15.8678  -28.0810   22.7057 H   0  0  0  0  0  0
  -24.5886  -30.7090   25.7758 H   0  0  0  0  0  0
  -24.8845  -32.2947   26.4748 H   0  0  0  0  0  0
  -25.7996  -30.9021   27.0245 H   0  0  0  0  0  0
  -26.2875  -29.6796   24.1154 H   0  0  0  0  0  0
  -27.4032  -29.7258   25.4617 H   0  0  0  0  0  0
  -27.8736  -30.4359   23.9361 H   0  0  0  0  0  0
  -27.2610  -33.3670   26.1984 H   0  0  0  0  0  0
  -28.3844  -32.6852   25.0323 H   0  0  0  0  0  0
  -28.0631  -31.8518   26.5464 H   0  0  0  0  0  0
  -28.2578  -38.0106   24.7516 H   0  0  0  0  0  0
  -28.1115  -36.2642   24.6298 H   0  0  0  0  0  0
  -27.2307  -37.1427   25.8872 H   0  0  0  0  0  0
  -20.9367  -29.8782   21.6903 H   0  0  0  0  0  0
  -26.0187  -38.2853   24.1419 H   0  0  0  0  0  0
  -30.2061  -20.8274   18.2198 H   0  0  0  0  0  0
  -25.3254  -21.0296   21.0019 H   0  0  0  0  0  0
  -26.5197  -20.4331   19.7315 H   0  0  0  0  0  0
  -27.7153  -23.0636   22.7069 H   0  0  0  0  0  0
  -25.9888  -22.9483   22.4733 H   0  0  0  0  0  0
  -26.6553  -25.2914   22.1666 H   0  0  0  0  0  0
  -26.0760  -24.6109   20.6647 H   0  0  0  0  0  0
  -29.9098  -23.8357   19.7594 H   0  0  0  0  0  0
  -28.4427  -23.8758   18.8464 H   0  0  0  0  0  0
  -28.9297  -25.0213   21.5673 H   0  0  0  0  0  0
  -31.0880  -19.9017   16.3159 H   0  0  0  0  0  0
  -29.8651  -18.7278   15.8451 H   0  0  0  0  0  0
  -31.5238  -18.2112   16.2045 H   0  0  0  0  0  0
  -30.1307  -16.4229   16.5845 H   0  0  0  0  0  0
  -29.5757  -15.4591   17.9013 H   0  0  0  0  0  0
  -31.3198  -15.7565   17.6973 H   0  0  0  0  0  0
  -29.9807  -18.4859   22.7799 H   0  0  0  0  0  0
  -28.6305  -17.4519   22.3035 H   0  0  0  0  0  0
  -28.4103  -19.1806   22.3551 H   0  0  0  0  0  0
  -30.4877  -21.7440   20.6259 H   0  0  0  0  0  0
  -29.3796  -21.1575   21.8019 H   0  0  0  0  0  0
  -28.9043  -15.6953   20.9619 H   0  0  0  0  0  0
  -28.3305  -21.9038   19.2727 H   0  0  0  0  0  0
  1 25  1  0  0  0
  1 30  2  0  0  0
  1 87  1  0  0  0
  2  3  1  0  0  0
  2 25  1  0  0  0
  2 89  1  0  0  0
  2 90  1  0  0  0
  3  4  1  0  0  0
  3 91  1  0  0  0
  3 92  1  0  0  0
  4  5  1  0  0  0
  4 93  1  0  0  0
  4 94  1  0  0  0
  5  6  1  0  0  0
  5 26  1  0  0  0
  5 95  1  0  0  0
  6 25  1  0  0  0
  6 96  1  0  0  0
  6 97  1  0  0  0
  7  8  2  0  0  0
  7 26  1  0  0  0
  7 29  1  0  0  0
  8  9  1  0  0  0
  8 22  1  0  0  0
  9 10  1  0  0  0
  9 27  2  0  0  0
 10 11  2  0  0  0
 10 15  1  0  0  0
 11 12  1  0  0  0
 11 98  1  0  0  0
 12 13  2  0  0  0
 12 99  1  0  0  0
 13 14  1  0  0  0
 13 31  1  0  0  0
 14 15  2  0  0  0
 14100  1  0  0  0
 15101  1  0  0  0
 16 17  2  0  0  0
 16 21  1  0  0  0
 16 31  1  0  0  0
 17 18  1  0  0  0
 17102  1  0  0  0
 18 19  2  0  0  0
 18103  1  0  0  0
 19 20  1  0  0  0
 19 24  1  0  0  0
 20 21  2  0  0  0
 20104  1  0  0  0
 21 23  1  0  0  0
 22 28  1  0  0  0
 22 32  2  0  0  0
 26 27  1  0  0  0
 28105  1  0  0  0
 28106  1  0  0  0
 29107  1  0  0  0
 29108  1  0  0  0
 33 34  1  0  0  0
 33 66  1  0  0  0
 33 70  2  0  0  0
 34 36  1  0  0  0
 34 59  1  0  0  0
 34109  1  0  0  0
 35 44  2  0  0  0
 35 45  1  0  0  0
 35 68  1  0  0  0
 36 56  1  0  0  0
 36110  1  0  0  0
 37 39  1  0  0  0
 37 47  1  0  0  0
 37 66  1  0  0  0
 37111  1  0  0  0
 38 43  2  0  0  0
 38 46  1  0  0  0
 38 47  1  0  0  0
 39 64  1  0  0  0
 39 67  2  0  0  0
 40 52  1  0  0  0
 40 53  2  0  0  0
 40 58  1  0  0  0
 41112  1  0  0  0
 41113  1  0  0  0
 41114  1  0  0  0
 41 48  1  0  0  0
 42 43  1  0  0  0
 42 66  1  0  0  0
 42115  1  0  0  0
 42116  1  0  0  0
 43 44  1  0  0  0
 44117  1  0  0  0
 45 46  2  0  0  0
 45118  1  0  0  0
 46119  1  0  0  0
 47120  1  0  0  0
 47121  1  0  0  0
 48 56  1  0  0  0
 48 65  1  0  0  0
 48122  1  0  0  0
 49 50  1  0  0  0
 49 53  1  0  0  0
 49 64  1  0  0  0
 49123  1  0  0  0
 50 51  1  0  0  0
 50124  1  0  0  0
 50125  1  0  0  0
 51 52  1  0  0  0
 51126  1  0  0  0
 51127  1  0  0  0
 52128  1  0  0  0
 52129  1  0  0  0
 53 54  1  0  0  0
 54 55  2  0  0  0
 54130  1  0  0  0
 55 57  1  0  0  0
 55131  1  0  0  0
 56 69  2  0  0  0
 57 58  2  0  0  0
 57132  1  0  0  0
 58133  1  0  0  0
 59 60  1  0  0  0
 59 61  1  0  0  0
 59 62  1  0  0  0
 60134  1  0  0  0
 60135  1  0  0  0
 60136  1  0  0  0
 61137  1  0  0  0
 61138  1  0  0  0
 61139  1  0  0  0
 62140  1  0  0  0
 62141  1  0  0  0
 62142  1  0  0  0
 63 65  1  0  0  0
 63143  1  0  0  0
 63144  1  0  0  0
 63145  1  0  0  0
 64146  1  0  0  0
 65147  1  0  0  0
 68 82  1  0  0  0
 71 72  2  0  0  0
 71 73  1  0  0  0
 71148  1  0  0  0
 72 74  1  0  0  0
 72 83  1  0  0  0
 73 75  2  0  0  0
 73 86  1  0  0  0
 74 76  2  0  0  0
 74 84  1  0  0  0
 75 76  1  0  0  0
 75 85  1  0  0  0
 76 87  1  0  0  0
 77 78  2  0  0  0
 77 79  1  0  0  0
 77 88  1  0  0  0
 78149  1  0  0  0
 78150  1  0  0  0
 79 80  1  0  0  0
 79151  1  0  0  0
 79152  1  0  0  0
 80 82  1  0  0  0
 80153  1  0  0  0
 80154  1  0  0  0
 81 82  1  0  0  0
 81 88  1  0  0  0
 81155  1  0  0  0
 81156  1  0  0  0
 82157  1  0  0  0
 83158  1  0  0  0
 83159  1  0  0  0
 83160  1  0  0  0
 84161  1  0  0  0
 84162  1  0  0  0
 84163  1  0  0  0
 85164  1  0  0  0
 85165  1  0  0  0
 85166  1  0  0  0
 86167  1  0  0  0
 86168  1  0  0  0
 86 88  1  0  0  0
 87169  1  0  0  0
 88170  1  0  0  0
M  CHG  1  88   1
M  ISO  4   1 100  68 101  82 101  87 100
M  END
> <chiral flag>
0

> <version>
0

> <s_m_source_file>
/data/baiqing/PycharmProjects/Reinvent-master-3.2/result/LINK_invent/BTK/process_docking_weight1_custom_product_contain_oxygen_bond_distance_aromatic_linkinvent_7_9_3/rearranged_h_0038.sdf

> <i_m_source_file_index>
66

> <r_mmod_Potential_Energy-OPLS-2005>
124.971611022949

> <r_mmod_Stretch_Energy-OPLS-2005>
137.991149902344

> <r_mmod_Bend_Energy-OPLS-2005>
195.940521240234

> <r_mmod_Torsional_Energy-OPLS-2005>
292.087921142578

> <r_mmod_Improper_Torsional_Energy-OPLS-2005>
5.85733413696289

> <r_mmod_Van_der_Waal_Energy-OPLS-2005>
144.026412963867

> <r_mmod_Electrostatic_Energy-OPLS-2005>
-319.157257080078

> <r_mmod_Solvation_Energy-OPLS-2005>
-421.288696289062

> <b_mmod_Minimization_Converged-OPLS-2005>
0

> <r_mmod_RMS_Derivative-OPLS-2005>
2.75100779533386

$$$$
66
                    3D
 Structure written by MMmdl.
158166  0  0  1  0            999 V2000
  -30.6732  -14.7031   20.4793 C   0  0  0  0  0  0
  -30.4209  -12.4338   19.4705 C   0  0  0  0  0  0
  -29.5101  -12.5089   18.2278 C   0  0  0  0  0  0
  -28.0289  -12.3688   18.6307 C   0  0  0  0  0  0
  -27.6417  -13.2520   19.8478 C   0  0  2  0  0  0
  -28.6888  -13.1746   20.9797 C   0  0  0  0  0  0
  -25.2504  -13.8220   20.5728 C   0  0  0  0  0  0
  -24.1808  -13.0438   20.9223 C   0  0  0  0  0  0
  -24.6422  -11.6927   20.8714 C   0  0  0  0  0  0
  -23.9089  -10.4287   21.0384 C   0  0  0  0  0  0
  -24.3620   -9.4215   21.9174 C   0  0  0  0  0  0
  -23.6299   -8.2243   22.0732 C   0  0  0  0  0  0
  -22.4284   -8.0267   21.3526 C   0  0  0  0  0  0
  -21.9938   -9.0247   20.4626 C   0  0  0  0  0  0
  -22.7265  -10.2131   20.3046 C   0  0  0  0  0  0
  -21.6847   -6.0739   22.5281 C   0  0  0  0  0  0
  -21.4013   -6.5642   23.8215 C   0  0  0  0  0  0
  -21.3671   -5.6801   24.9183 C   0  0  0  0  0  0
  -21.6045   -4.3055   24.7237 C   0  0  0  0  0  0
  -21.8813   -3.8149   23.4352 C   0  0  0  0  0  0
  -21.9192   -4.6968   22.3411 C   0  0  0  0  0  0
  -22.7827  -13.5198   21.1867 C   0  0  0  0  0  0
  -22.1663   -4.2163   21.0985 F   0  0  0  0  0  0
  -21.5633   -3.4535   25.7739 F   0  0  0  0  0  0
  -29.9982  -13.5050   20.4017 N   0  0  0  0  0  0
  -26.2954  -12.9482   20.3267 N   0  0  0  0  0  0
  -25.9369  -11.6596   20.5696 N   0  0  0  0  0  0
  -22.0458  -12.8197   22.0410 N   0  0  0  0  0  0
  -25.4169  -15.1953   20.4223 N   0  0  0  0  0  0
  -31.8593  -14.7631   20.1501 O   0  0  0  0  0  0
  -21.6636   -6.8880   21.4232 O   0  0  0  0  0  0
  -22.3529  -14.5516   20.6706 O   0  0  0  0  0  0
  -24.6314  -31.8568   23.1943 C   0  0  0  0  0  0
  -25.9099  -32.4787   23.8325 C   0  0  1  0  0  0
  -27.2352  -27.2614   20.1562 C   0  0  0  0  0  0
  -25.5875  -33.8588   24.2253 N   0  0  0  0  0  0
  -23.4293  -30.4666   21.5459 C   0  0  2  0  0  0
  -24.8818  -28.9135   20.1135 C   0  0  0  0  0  0
  -22.7515  -29.4542   22.5005 C   0  0  0  0  0  0
  -18.0283  -28.1346   22.8435 C   0  0  0  0  0  0
  -24.1488  -36.7307   23.2643 C   0  0  0  0  0  0
  -25.9697  -30.7732   21.3659 C   0  0  0  0  0  0
  -26.0493  -29.3895   20.7240 C   0  0  0  0  0  0
  -27.2275  -28.5766   20.7310 C   0  0  0  0  0  0
  -26.0506  -26.8626   19.4935 C   0  0  0  0  0  0
  -24.8885  -27.6607   19.4808 C   0  0  0  0  0  0
  -23.6459  -29.7908   20.1633 C   0  0  0  0  0  0
  -25.4107  -36.3096   24.0339 C   0  0  1  0  0  0
  -20.5917  -28.3571   23.1283 C   0  0  2  0  0  0
  -20.6779  -26.9321   22.5328 C   0  0  0  0  0  0
  -19.5771  -26.6344   21.5126 C   0  0  0  0  0  0
  -18.1889  -26.7993   22.1353 C   0  0  0  0  0  0
  -19.1556  -28.8747   23.2888 C   0  0  0  0  0  0
  -18.9491  -30.1325   23.8980 C   0  0  0  0  0  0
  -17.6530  -30.6542   24.0611 C   0  0  0  0  0  0
  -25.9052  -34.9467   23.5112 C   0  0  0  0  0  0
  -16.5418  -29.9130   23.6264 C   0  0  0  0  0  0
  -16.7287  -28.6523   23.0303 C   0  0  0  0  0  0
  -26.4485  -31.6582   25.0689 C   0  0  0  0  0  0
  -25.3695  -31.3701   26.1383 C   0  0  0  0  0  0
  -27.0284  -30.3017   24.6049 C   0  0  0  0  0  0
  -27.6048  -32.4314   25.7470 C   0  0  0  0  0  0
  -27.5578  -37.1802   24.8473 C   0  0  0  0  0  0
  -21.4230  -29.2947   22.3706 N   0  0  0  0  0  0
  -26.4293  -37.3782   23.9412 N   0  0  0  0  0  0
  -24.6964  -31.0503   22.0930 N   0  0  0  0  0  0
  -23.4209  -28.8143   23.3147 O   0  0  0  0  0  0
  -28.3356  -26.3761   20.2698 O   0  0  0  0  0  0
  -26.5664  -34.8956   22.4713 O   0  0  0  0  0  0
  -23.5450  -32.1374   23.7228 O   0  0  0  0  0  0
  -28.5642  -18.3865   21.7569 C   0  0  0  0  0  0
  -29.6391  -18.5788   20.8783 C   0  0  0  0  0  0
  -29.8771  -19.9565   20.4451 C   0  0  0  0  0  0
  -27.9255  -20.7717   21.6911 C   0  0  0  0  0  0
  -29.0105  -21.0802   20.8099 C   0  0  0  0  0  0
  -27.7425  -19.4470   22.1696 C   0  0  0  0  0  0
  -31.0993  -20.2627   19.5849 C   0  0  0  0  0  0
  -26.8502  -21.7821   22.0897 C   0  0  0  0  0  0
  -30.5014  -17.2922   20.4959 C   0  0  0  0  0  0
  -29.1131  -23.7920   20.8004 C   0  0  0  0  0  0
  -28.1396  -24.8919   20.1084 C   0  0  0  0  0  0
  -29.1735  -22.3909   20.2053 N   0  0  0  0  0  0
  -29.9748  -15.8733   20.6993 N   0  0  0  0  0  0
  -26.4481  -19.0528   23.2514 Cl  0  0  0  0  0  0
  -31.4650  -12.5309   19.1696 H   0  0  0  0  0  0
  -30.3367  -11.4565   19.9465 H   0  0  0  0  0  0
  -29.7732  -11.7275   17.5129 H   0  0  0  0  0  0
  -29.6689  -13.4542   17.7105 H   0  0  0  0  0  0
  -27.8474  -11.3195   18.8646 H   0  0  0  0  0  0
  -27.3858  -12.6018   17.7813 H   0  0  0  0  0  0
  -27.6341  -14.2801   19.4823 H   0  0  0  0  0  0
  -28.7033  -12.1787   21.4260 H   0  0  0  0  0  0
  -28.4296  -13.8703   21.7794 H   0  0  0  0  0  0
  -25.2757   -9.5686   22.4761 H   0  0  0  0  0  0
  -23.9996   -7.4643   22.7464 H   0  0  0  0  0  0
  -21.0862   -8.8774   19.8935 H   0  0  0  0  0  0
  -22.3720  -10.9665   19.6148 H   0  0  0  0  0  0
  -21.1996   -7.6153   23.9729 H   0  0  0  0  0  0
  -21.1500   -6.0523   25.9088 H   0  0  0  0  0  0
  -22.0576   -2.7613   23.2849 H   0  0  0  0  0  0
  -22.4078  -11.9927   22.4900 H   0  0  0  0  0  0
  -21.1046  -13.1198   22.2494 H   0  0  0  0  0  0
  -24.6397  -15.8402   20.5182 H   0  0  0  0  0  0
  -26.2687  -15.6442   20.1147 H   0  0  0  0  0  0
  -26.7179  -32.5476   23.1093 H   0  0  0  0  0  0
  -24.9936  -33.9739   25.0331 H   0  0  0  0  0  0
  -22.7247  -31.2864   21.4009 H   0  0  0  0  0  0
  -23.3742  -35.9645   23.3306 H   0  0  0  0  0  0
  -24.3571  -36.8931   22.2051 H   0  0  0  0  0  0
  -23.7247  -37.6521   23.6672 H   0  0  0  0  0  0
  -26.0781  -31.5120   20.5721 H   0  0  0  0  0  0
  -26.8603  -30.8578   21.9741 H   0  0  0  0  0  0
  -28.1222  -28.9303   21.2250 H   0  0  0  0  0  0
  -25.9954  -25.9072   18.9929 H   0  0  0  0  0  0
  -23.9958  -27.2959   18.9891 H   0  0  0  0  0  0
  -23.7536  -30.5600   19.3961 H   0  0  0  0  0  0
  -22.7682  -29.2090   19.8761 H   0  0  0  0  0  0
  -25.1278  -36.1955   25.0834 H   0  0  0  0  0  0
  -21.0040  -28.3048   24.1386 H   0  0  0  0  0  0
  -20.5688  -26.2162   23.3474 H   0  0  0  0  0  0
  -21.6629  -26.7302   22.1071 H   0  0  0  0  0  0
  -19.6827  -25.6188   21.1283 H   0  0  0  0  0  0
  -19.6884  -27.3014   20.6548 H   0  0  0  0  0  0
  -17.4385  -26.7109   21.3484 H   0  0  0  0  0  0
  -17.9918  -25.9916   22.8427 H   0  0  0  0  0  0
  -19.8004  -30.6990   24.2495 H   0  0  0  0  0  0
  -17.5131  -31.6204   24.5285 H   0  0  0  0  0  0
  -15.5475  -30.3137   23.7476 H   0  0  0  0  0  0
  -15.8631  -28.0933   22.6981 H   0  0  0  0  0  0
  -24.5897  -30.7038   25.7674 H   0  0  0  0  0  0
  -24.8833  -32.2858   26.4773 H   0  0  0  0  0  0
  -25.7975  -30.8886   27.0175 H   0  0  0  0  0  0
  -26.2799  -29.6826   24.1084 H   0  0  0  0  0  0
  -27.4044  -29.7201   25.4471 H   0  0  0  0  0  0
  -27.8657  -30.4341   23.9186 H   0  0  0  0  0  0
  -27.2663  -33.3630   26.2020 H   0  0  0  0  0  0
  -28.3870  -32.6845   25.0299 H   0  0  0  0  0  0
  -28.0704  -31.8438   26.5396 H   0  0  0  0  0  0
  -28.2609  -38.0092   24.7507 H   0  0  0  0  0  0
  -28.1069  -36.2617   24.6310 H   0  0  0  0  0  0
  -27.2307  -37.1462   25.8889 H   0  0  0  0  0  0
  -20.9455  -29.8421   21.6690 H   0  0  0  0  0  0
  -26.0176  -38.2872   24.1376 H   0  0  0  0  0  0
  -28.3478  -17.4009   22.1389 H   0  0  0  0  0  0
  -31.9351  -20.5753   20.2136 H   0  0  0  0  0  0
  -31.4273  -19.4150   18.9891 H   0  0  0  0  0  0
  -30.9020  -21.0649   18.8745 H   0  0  0  0  0  0
  -25.9206  -21.5348   21.5765 H   0  0  0  0  0  0
  -27.0601  -22.8148   21.8555 H   0  0  0  0  0  0
  -26.6559  -21.7402   23.1604 H   0  0  0  0  0  0
  -31.4412  -17.3675   21.0449 H   0  0  0  0  0  0
  -30.7756  -17.3593   19.4439 H   0  0  0  0  0  0
  -28.9330  -23.7440   21.8761 H   0  0  0  0  0  0
  -30.1312  -24.1821   20.7376 H   0  0  0  0  0  0
  -27.1335  -24.6474   20.4495 H   0  0  0  0  0  0
  -28.1444  -24.7034   19.0343 H   0  0  0  0  0  0
  -29.8006  -22.3572   19.4044 H   0  0  0  0  0  0
  -28.9835  -15.7848   20.8616 H   0  0  0  0  0  0
  1 25  1  0  0  0
  1 30  2  0  0  0
  1 83  1  0  0  0
  2  3  1  0  0  0
  2 25  1  0  0  0
  2 85  1  0  0  0
  2 86  1  0  0  0
  3  4  1  0  0  0
  3 87  1  0  0  0
  3 88  1  0  0  0
  4  5  1  0  0  0
  4 89  1  0  0  0
  4 90  1  0  0  0
  5  6  1  0  0  0
  5 26  1  0  0  0
  5 91  1  0  0  0
  6 25  1  0  0  0
  6 92  1  0  0  0
  6 93  1  0  0  0
  7  8  2  0  0  0
  7 26  1  0  0  0
  7 29  1  0  0  0
  8  9  1  0  0  0
  8 22  1  0  0  0
  9 10  1  0  0  0
  9 27  2  0  0  0
 10 11  2  0  0  0
 10 15  1  0  0  0
 11 12  1  0  0  0
 11 94  1  0  0  0
 12 13  2  0  0  0
 12 95  1  0  0  0
 13 14  1  0  0  0
 13 31  1  0  0  0
 14 15  2  0  0  0
 14 96  1  0  0  0
 15 97  1  0  0  0
 16 17  2  0  0  0
 16 21  1  0  0  0
 16 31  1  0  0  0
 17 18  1  0  0  0
 17 98  1  0  0  0
 18 19  2  0  0  0
 18 99  1  0  0  0
 19 20  1  0  0  0
 19 24  1  0  0  0
 20 21  2  0  0  0
 20100  1  0  0  0
 21 23  1  0  0  0
 22 28  1  0  0  0
 22 32  2  0  0  0
 26 27  1  0  0  0
 28101  1  0  0  0
 28102  1  0  0  0
 29103  1  0  0  0
 29104  1  0  0  0
 33 34  1  0  0  0
 33 66  1  0  0  0
 33 70  2  0  0  0
 34 36  1  0  0  0
 34 59  1  0  0  0
 34105  1  0  0  0
 35 44  2  0  0  0
 35 45  1  0  0  0
 35 68  1  0  0  0
 36 56  1  0  0  0
 36106  1  0  0  0
 37 39  1  0  0  0
 37 47  1  0  0  0
 37 66  1  0  0  0
 37107  1  0  0  0
 38 43  2  0  0  0
 38 46  1  0  0  0
 38 47  1  0  0  0
 39 64  1  0  0  0
 39 67  2  0  0  0
 40 52  1  0  0  0
 40 53  2  0  0  0
 40 58  1  0  0  0
 41108  1  0  0  0
 41109  1  0  0  0
 41110  1  0  0  0
 41 48  1  0  0  0
 42 43  1  0  0  0
 42 66  1  0  0  0
 42111  1  0  0  0
 42112  1  0  0  0
 43 44  1  0  0  0
 44113  1  0  0  0
 45 46  2  0  0  0
 45114  1  0  0  0
 46115  1  0  0  0
 47116  1  0  0  0
 47117  1  0  0  0
 48 56  1  0  0  0
 48 65  1  0  0  0
 48118  1  0  0  0
 49 50  1  0  0  0
 49 53  1  0  0  0
 49 64  1  0  0  0
 49119  1  0  0  0
 50 51  1  0  0  0
 50120  1  0  0  0
 50121  1  0  0  0
 51 52  1  0  0  0
 51122  1  0  0  0
 51123  1  0  0  0
 52124  1  0  0  0
 52125  1  0  0  0
 53 54  1  0  0  0
 54 55  2  0  0  0
 54126  1  0  0  0
 55 57  1  0  0  0
 55127  1  0  0  0
 56 69  2  0  0  0
 57 58  2  0  0  0
 57128  1  0  0  0
 58129  1  0  0  0
 59 60  1  0  0  0
 59 61  1  0  0  0
 59 62  1  0  0  0
 60130  1  0  0  0
 60131  1  0  0  0
 60132  1  0  0  0
 61133  1  0  0  0
 61134  1  0  0  0
 61135  1  0  0  0
 62136  1  0  0  0
 62137  1  0  0  0
 62138  1  0  0  0
 63 65  1  0  0  0
 63139  1  0  0  0
 63140  1  0  0  0
 63141  1  0  0  0
 64142  1  0  0  0
 65143  1  0  0  0
 68 81  1  0  0  0
 71 72  2  0  0  0
 71 76  1  0  0  0
 71144  1  0  0  0
 72 73  1  0  0  0
 72 79  1  0  0  0
 73 75  2  0  0  0
 73 77  1  0  0  0
 74 75  1  0  0  0
 74 76  2  0  0  0
 74 78  1  0  0  0
 75 82  1  0  0  0
 76 84  1  0  0  0
 77145  1  0  0  0
 77146  1  0  0  0
 77147  1  0  0  0
 78148  1  0  0  0
 78149  1  0  0  0
 78150  1  0  0  0
 79 83  1  0  0  0
 79151  1  0  0  0
 79152  1  0  0  0
 80 81  1  0  0  0
 80 82  1  0  0  0
 80153  1  0  0  0
 80154  1  0  0  0
 81155  1  0  0  0
 81156  1  0  0  0
 82157  1  0  0  0
 83158  1  0  0  0
M  ISO  4   1 100  68 101  81 101  83 100
M  END
> <chiral flag>
0

> <version>
0

> <s_m_source_file>
/data/baiqing/PycharmProjects/Reinvent-master-3.2/result/LINK_invent/BTK/process_docking_weight1_custom_product_contain_oxygen_bond_distance_aromatic_linkinvent_7_9_3/rearranged_h_0038.sdf

> <i_m_source_file_index>
67

> <r_mmod_Potential_Energy-OPLS-2005>
86.605712890625

> <r_mmod_Stretch_Energy-OPLS-2005>
124.718574523926

> <r_mmod_Bend_Energy-OPLS-2005>
180.703094482422

> <r_mmod_Torsional_Energy-OPLS-2005>
209.754211425781

> <r_mmod_Improper_Torsional_Energy-OPLS-2005>
8.05085372924805

> <r_mmod_Van_der_Waal_Energy-OPLS-2005>
149.860992431641

> <r_mmod_Electrostatic_Energy-OPLS-2005>
-451.779235839844

> <r_mmod_Solvation_Energy-OPLS-2005>
-214.098770141602

> <b_mmod_Minimization_Converged-OPLS-2005>
0

> <r_mmod_RMS_Derivative-OPLS-2005>
5.72361660003662

$$$$
67
                    3D
 Structure written by MMmdl.
175184  0  0  1  0            999 V2000
  -30.7164  -14.4646   20.5679 C   0  0  0  0  0  0
  -30.3993  -12.2904   19.4405 C   0  0  0  0  0  0
  -29.4738  -12.4810   18.2208 C   0  0  0  0  0  0
  -28.0009  -12.3438   18.6386 C   0  0  0  0  0  0
  -27.6500  -13.2064   19.8771 C   0  0  2  0  0  0
  -28.6919  -13.0150   21.0037 C   0  0  0  0  0  0
  -25.2535  -13.8185   20.5741 C   0  0  0  0  0  0
  -24.1806  -13.0432   20.9234 C   0  0  0  0  0  0
  -24.6356  -11.6912   20.8788 C   0  0  0  0  0  0
  -23.9035  -10.4284   21.0420 C   0  0  0  0  0  0
  -24.3601   -9.4197   21.9177 C   0  0  0  0  0  0
  -23.6289   -8.2223   22.0748 C   0  0  0  0  0  0
  -22.4266   -8.0267   21.3542 C   0  0  0  0  0  0
  -21.9888   -9.0243   20.4644 C   0  0  0  0  0  0
  -22.7208  -10.2125   20.3053 C   0  0  0  0  0  0
  -21.6858   -6.0739   22.5281 C   0  0  0  0  0  0
  -21.4028   -6.5652   23.8213 C   0  0  0  0  0  0
  -21.3661   -5.6812   24.9185 C   0  0  0  0  0  0
  -21.6030   -4.3069   24.7238 C   0  0  0  0  0  0
  -21.8823   -3.8156   23.4357 C   0  0  0  0  0  0
  -21.9193   -4.6972   22.3412 C   0  0  0  0  0  0
  -22.7825  -13.5215   21.1886 C   0  0  0  0  0  0
  -22.1655   -4.2149   21.0996 F   0  0  0  0  0  0
  -21.5613   -3.4555   25.7752 F   0  0  0  0  0  0
  -30.0210  -13.3013   20.4439 N   0  0  0  0  0  0
  -26.2948  -12.9324   20.3413 N   0  0  0  0  0  0
  -25.9281  -11.6488   20.5837 N   0  0  0  0  0  0
  -22.0528  -12.8166   22.0449 N   0  0  0  0  0  0
  -25.4254  -15.1887   20.4198 N   0  0  0  0  0  0
  -31.8373  -14.6181   20.0800 O   0  0  0  0  0  0
  -21.6638   -6.8862   21.4224 O   0  0  0  0  0  0
  -22.3486  -14.5509   20.6731 O   0  0  0  0  0  0
  -24.6170  -31.8643   23.2105 C   0  0  0  0  0  0
  -25.9050  -32.4798   23.8361 C   0  0  1  0  0  0
  -27.2178  -27.4030   20.1204 C   0  0  0  0  0  0
  -25.5893  -33.8581   24.2334 N   0  0  0  0  0  0
  -23.4007  -30.4954   21.5454 C   0  0  2  0  0  0
  -24.8501  -28.9637   20.1029 C   0  0  0  0  0  0
  -22.7367  -29.4675   22.4880 C   0  0  0  0  0  0
  -18.0250  -28.1382   22.8486 C   0  0  0  0  0  0
  -24.1530  -36.7317   23.2640 C   0  0  0  0  0  0
  -25.9313  -30.8330   21.3554 C   0  0  0  0  0  0
  -26.0112  -29.4597   20.7127 C   0  0  0  0  0  0
  -27.1987  -28.6882   20.7168 C   0  0  0  0  0  0
  -26.0572  -26.9551   19.4526 C   0  0  0  0  0  0
  -24.8754  -27.7149   19.4600 C   0  0  0  0  0  0
  -23.6133  -29.8318   20.1567 C   0  0  0  0  0  0
  -25.4136  -36.3045   24.0330 C   0  0  1  0  0  0
  -20.5845  -28.3690   23.1285 C   0  0  2  0  0  0
  -20.6771  -26.9435   22.5405 C   0  0  0  0  0  0
  -19.5796  -26.6504   21.5128 C   0  0  0  0  0  0
  -18.1940  -26.7959   22.1534 C   0  0  0  0  0  0
  -19.1487  -28.8847   23.2884 C   0  0  0  0  0  0
  -18.9428  -30.1457   23.8912 C   0  0  0  0  0  0
  -17.6434  -30.6581   24.0635 C   0  0  0  0  0  0
  -25.9058  -34.9430   23.5139 C   0  0  0  0  0  0
  -16.5327  -29.9102   23.6385 C   0  0  0  0  0  0
  -16.7229  -28.6521   23.0369 C   0  0  0  0  0  0
  -26.4590  -31.6539   25.0613 C   0  0  0  0  0  0
  -25.3935  -31.3470   26.1409 C   0  0  0  0  0  0
  -27.0379  -30.2979   24.5917 C   0  0  0  0  0  0
  -27.6204  -32.4246   25.7305 C   0  0  0  0  0  0
  -27.5579  -37.1808   24.8456 C   0  0  0  0  0  0
  -21.4075  -29.3049   22.3627 N   0  0  0  0  0  0
  -26.4297  -37.3727   23.9386 N   0  0  0  0  0  0
  -24.6683  -31.0784   22.0969 N   0  0  0  0  0  0
  -23.4158  -28.8139   23.2841 O   0  0  0  0  0  0
  -28.3360  -26.5956   20.1890 O   0  0  0  0  0  0
  -26.5610  -34.8895   22.4697 O   0  0  0  0  0  0
  -23.5373  -32.1362   23.7529 O   0  0  0  0  0  0
  -28.3110  -17.8760   21.2772 C   0  0  0  0  0  0
  -27.4213  -18.9332   21.0036 C   0  0  0  0  0  0
  -29.7018  -18.0605   21.2079 C   0  0  0  0  0  0
  -27.9208  -20.2114   20.6364 C   0  0  0  0  0  0
  -30.2050  -19.3890   21.0327 C   0  0  0  0  0  0
  -29.3171  -20.4828   20.7454 C   0  0  0  0  0  0
  -30.1885  -24.8837   23.4027 C   0  0  0  0  0  0
  -30.2453  -23.3741   23.5681 C   0  0  0  0  0  0
  -30.3573  -25.2104   21.9149 C   0  0  0  0  0  0
  -29.0905  -22.7276   22.8008 C   0  0  0  0  0  0
  -29.4080  -24.4462   20.9446 C   0  0  2  0  0  0
  -25.9281  -18.6535   21.1092 C   0  0  0  0  0  0
  -26.9463  -21.2792   20.1344 C   0  0  0  0  0  0
  -31.7080  -19.6397   21.1485 C   0  0  0  0  0  0
  -30.6441  -16.8425   21.3433 C   0  0  0  0  0  0
  -29.8475  -21.9408   20.5382 C   0  0  0  0  0  0
  -28.0948  -25.2483   20.6869 C   0  0  0  0  0  0
  -30.0701  -15.4914   21.1584 N   0  0  0  0  0  0
  -29.1404  -23.0003   21.3346 N   0  3  1  0  0  0
  -31.4458  -12.3658   19.1427 H   0  0  0  0  0  0
  -30.2839  -11.2878   19.8584 H   0  0  0  0  0  0
  -29.7102  -11.7496   17.4465 H   0  0  0  0  0  0
  -29.6403  -13.4664   17.7852 H   0  0  0  0  0  0
  -27.8146  -11.2900   18.8545 H   0  0  0  0  0  0
  -27.3420  -12.5930   17.8067 H   0  0  0  0  0  0
  -27.6881  -14.2454   19.5531 H   0  0  0  0  0  0
  -28.6601  -11.9891   21.3707 H   0  0  0  0  0  0
  -28.4561  -13.6414   21.8638 H   0  0  0  0  0  0
  -25.2731   -9.5694   22.4758 H   0  0  0  0  0  0
  -24.0025   -7.4608   22.7452 H   0  0  0  0  0  0
  -21.0820   -8.8741   19.8946 H   0  0  0  0  0  0
  -22.3639  -10.9674   19.6186 H   0  0  0  0  0  0
  -21.2029   -7.6163   23.9722 H   0  0  0  0  0  0
  -21.1473   -6.0546   25.9088 H   0  0  0  0  0  0
  -22.0590   -2.7611   23.2873 H   0  0  0  0  0  0
  -22.4223  -11.9826   22.4770 H   0  0  0  0  0  0
  -21.1159  -13.1142   22.2763 H   0  0  0  0  0  0
  -24.6566  -15.8365   20.5556 H   0  0  0  0  0  0
  -26.2700  -15.6347   20.0838 H   0  0  0  0  0  0
  -26.7008  -32.5585   23.1022 H   0  0  0  0  0  0
  -24.9998  -33.9720   25.0448 H   0  0  0  0  0  0
  -22.6879  -31.3121   21.4079 H   0  0  0  0  0  0
  -23.3713  -35.9719   23.3285 H   0  0  0  0  0  0
  -24.3594  -36.8997   22.2059 H   0  0  0  0  0  0
  -23.7416  -37.6554   23.6705 H   0  0  0  0  0  0
  -26.0361  -31.5917   20.5782 H   0  0  0  0  0  0
  -26.8260  -30.9046   21.9620 H   0  0  0  0  0  0
  -28.0910  -29.0649   21.1972 H   0  0  0  0  0  0
  -26.0674  -26.0240   18.9069 H   0  0  0  0  0  0
  -23.9947  -27.3395   18.9538 H   0  0  0  0  0  0
  -23.7169  -30.6097   19.3998 H   0  0  0  0  0  0
  -22.7375  -29.2507   19.8630 H   0  0  0  0  0  0
  -25.1346  -36.1894   25.0823 H   0  0  0  0  0  0
  -20.9942  -28.3306   24.1401 H   0  0  0  0  0  0
  -20.5611  -26.2303   23.3565 H   0  0  0  0  0  0
  -21.6645  -26.7505   22.1234 H   0  0  0  0  0  0
  -19.7035  -25.6498   21.0972 H   0  0  0  0  0  0
  -19.6778  -27.3493   20.6790 H   0  0  0  0  0  0
  -17.4244  -26.6704   21.3900 H   0  0  0  0  0  0
  -18.0394  -26.0017   22.8853 H   0  0  0  0  0  0
  -19.7911  -30.7276   24.2225 H   0  0  0  0  0  0
  -17.5011  -31.6247   24.5284 H   0  0  0  0  0  0
  -15.5335  -30.3053   23.7716 H   0  0  0  0  0  0
  -15.8597  -28.0905   22.7072 H   0  0  0  0  0  0
  -24.6462  -30.6422   25.7783 H   0  0  0  0  0  0
  -24.8686  -32.2461   26.4637 H   0  0  0  0  0  0
  -25.8510  -30.8933   27.0240 H   0  0  0  0  0  0
  -26.2765  -29.6536   24.1485 H   0  0  0  0  0  0
  -27.4698  -29.7418   25.4255 H   0  0  0  0  0  0
  -27.8355  -30.4285   23.8594 H   0  0  0  0  0  0
  -27.2880  -33.3429   26.2149 H   0  0  0  0  0  0
  -28.3883  -32.7055   25.0070 H   0  0  0  0  0  0
  -28.1041  -31.8187   26.4986 H   0  0  0  0  0  0
  -28.2567  -38.0135   24.7529 H   0  0  0  0  0  0
  -28.1140  -36.2670   24.6283 H   0  0  0  0  0  0
  -27.2285  -37.1442   25.8855 H   0  0  0  0  0  0
  -20.9141  -29.8709   21.6867 H   0  0  0  0  0  0
  -26.0134  -38.2801   24.1324 H   0  0  0  0  0  0
  -27.9086  -16.9054   21.5313 H   0  0  0  0  0  0
  -30.9853  -25.3440   23.9914 H   0  0  0  0  0  0
  -29.2517  -25.2799   23.7984 H   0  0  0  0  0  0
  -30.1696  -23.1278   24.6263 H   0  0  0  0  0  0
  -31.2045  -22.9876   23.2190 H   0  0  0  0  0  0
  -31.3929  -25.0082   21.6410 H   0  0  0  0  0  0
  -30.2351  -26.2862   21.7825 H   0  0  0  0  0  0
  -28.1478  -23.1149   23.1910 H   0  0  0  0  0  0
  -29.0746  -21.6600   23.0195 H   0  0  0  0  0  0
  -29.9120  -24.4386   19.9786 H   0  0  0  0  0  0
  -25.7316  -17.7912   21.7483 H   0  0  0  0  0  0
  -25.5036  -18.4460   20.1280 H   0  0  0  0  0  0
  -25.3911  -19.4898   21.5583 H   0  0  0  0  0  0
  -26.0560  -20.8413   19.6766 H   0  0  0  0  0  0
  -27.3996  -21.8957   19.3566 H   0  0  0  0  0  0
  -26.6250  -21.9189   20.9547 H   0  0  0  0  0  0
  -32.2625  -18.8052   21.5781 H   0  0  0  0  0  0
  -31.9002  -20.4664   21.8331 H   0  0  0  0  0  0
  -32.1463  -19.8580   20.1706 H   0  0  0  0  0  0
  -31.1289  -16.8670   22.3199 H   0  0  0  0  0  0
  -31.4230  -16.9842   20.5932 H   0  0  0  0  0  0
  -29.7632  -22.1778   19.4770 H   0  0  0  0  0  0
  -30.9084  -22.0362   20.7570 H   0  0  0  0  0  0
  -27.5068  -25.2772   21.6069 H   0  0  0  0  0  0
  -27.4937  -24.6990   19.9620 H   0  0  0  0  0  0
  -29.1380  -15.3219   21.4998 H   0  0  0  0  0  0
  -28.1876  -22.8316   21.0493 H   0  0  0  0  0  0
  1 25  1  0  0  0
  1 30  2  0  0  0
  1 88  1  0  0  0
  2  3  1  0  0  0
  2 25  1  0  0  0
  2 90  1  0  0  0
  2 91  1  0  0  0
  3  4  1  0  0  0
  3 92  1  0  0  0
  3 93  1  0  0  0
  4  5  1  0  0  0
  4 94  1  0  0  0
  4 95  1  0  0  0
  5  6  1  0  0  0
  5 26  1  0  0  0
  5 96  1  0  0  0
  6 25  1  0  0  0
  6 97  1  0  0  0
  6 98  1  0  0  0
  7  8  2  0  0  0
  7 26  1  0  0  0
  7 29  1  0  0  0
  8  9  1  0  0  0
  8 22  1  0  0  0
  9 10  1  0  0  0
  9 27  2  0  0  0
 10 11  2  0  0  0
 10 15  1  0  0  0
 11 12  1  0  0  0
 11 99  1  0  0  0
 12 13  2  0  0  0
 12100  1  0  0  0
 13 14  1  0  0  0
 13 31  1  0  0  0
 14 15  2  0  0  0
 14101  1  0  0  0
 15102  1  0  0  0
 16 17  2  0  0  0
 16 21  1  0  0  0
 16 31  1  0  0  0
 17 18  1  0  0  0
 17103  1  0  0  0
 18 19  2  0  0  0
 18104  1  0  0  0
 19 20  1  0  0  0
 19 24  1  0  0  0
 20 21  2  0  0  0
 20105  1  0  0  0
 21 23  1  0  0  0
 22 28  1  0  0  0
 22 32  2  0  0  0
 26 27  1  0  0  0
 28106  1  0  0  0
 28107  1  0  0  0
 29108  1  0  0  0
 29109  1  0  0  0
 33 34  1  0  0  0
 33 66  1  0  0  0
 33 70  2  0  0  0
 34 36  1  0  0  0
 34 59  1  0  0  0
 34110  1  0  0  0
 35 44  2  0  0  0
 35 45  1  0  0  0
 35 68  1  0  0  0
 36 56  1  0  0  0
 36111  1  0  0  0
 37 39  1  0  0  0
 37 47  1  0  0  0
 37 66  1  0  0  0
 37112  1  0  0  0
 38 43  2  0  0  0
 38 46  1  0  0  0
 38 47  1  0  0  0
 39 64  1  0  0  0
 39 67  2  0  0  0
 40 52  1  0  0  0
 40 53  2  0  0  0
 40 58  1  0  0  0
 41113  1  0  0  0
 41114  1  0  0  0
 41115  1  0  0  0
 41 48  1  0  0  0
 42 43  1  0  0  0
 42 66  1  0  0  0
 42116  1  0  0  0
 42117  1  0  0  0
 43 44  1  0  0  0
 44118  1  0  0  0
 45 46  2  0  0  0
 45119  1  0  0  0
 46120  1  0  0  0
 47121  1  0  0  0
 47122  1  0  0  0
 48 56  1  0  0  0
 48 65  1  0  0  0
 48123  1  0  0  0
 49 50  1  0  0  0
 49 53  1  0  0  0
 49 64  1  0  0  0
 49124  1  0  0  0
 50 51  1  0  0  0
 50125  1  0  0  0
 50126  1  0  0  0
 51 52  1  0  0  0
 51127  1  0  0  0
 51128  1  0  0  0
 52129  1  0  0  0
 52130  1  0  0  0
 53 54  1  0  0  0
 54 55  2  0  0  0
 54131  1  0  0  0
 55 57  1  0  0  0
 55132  1  0  0  0
 56 69  2  0  0  0
 57 58  2  0  0  0
 57133  1  0  0  0
 58134  1  0  0  0
 59 60  1  0  0  0
 59 61  1  0  0  0
 59 62  1  0  0  0
 60135  1  0  0  0
 60136  1  0  0  0
 60137  1  0  0  0
 61138  1  0  0  0
 61139  1  0  0  0
 61140  1  0  0  0
 62141  1  0  0  0
 62142  1  0  0  0
 62143  1  0  0  0
 63 65  1  0  0  0
 63144  1  0  0  0
 63145  1  0  0  0
 63146  1  0  0  0
 64147  1  0  0  0
 65148  1  0  0  0
 68 87  1  0  0  0
 71 72  2  0  0  0
 71 73  1  0  0  0
 71149  1  0  0  0
 72 74  1  0  0  0
 72 82  1  0  0  0
 73 75  2  0  0  0
 73 85  1  0  0  0
 74 76  2  0  0  0
 74 83  1  0  0  0
 75 76  1  0  0  0
 75 84  1  0  0  0
 76 86  1  0  0  0
 77 78  1  0  0  0
 77 79  1  0  0  0
 77150  1  0  0  0
 77151  1  0  0  0
 78 80  1  0  0  0
 78152  1  0  0  0
 78153  1  0  0  0
 79 81  1  0  0  0
 79154  1  0  0  0
 79155  1  0  0  0
 80 89  1  0  0  0
 80156  1  0  0  0
 80157  1  0  0  0
 81 87  1  0  0  0
 81 89  1  0  0  0
 81158  1  0  0  0
 82159  1  0  0  0
 82160  1  0  0  0
 82161  1  0  0  0
 83162  1  0  0  0
 83163  1  0  0  0
 83164  1  0  0  0
 84165  1  0  0  0
 84166  1  0  0  0
 84167  1  0  0  0
 85 88  1  0  0  0
 85168  1  0  0  0
 85169  1  0  0  0
 86170  1  0  0  0
 86171  1  0  0  0
 86 89  1  0  0  0
 87172  1  0  0  0
 87173  1  0  0  0
 88174  1  0  0  0
 89175  1  0  0  0
M  CHG  1  89   1
M  ISO  4   1 100  68 101  87 101  88 100
M  END
> <chiral flag>
0

> <version>
0

> <s_m_source_file>
/data/baiqing/PycharmProjects/Reinvent-master-3.2/result/LINK_invent/BTK/process_docking_weight1_custom_product_contain_oxygen_bond_distance_aromatic_linkinvent_7_9_3/rearranged_h_0038.sdf

> <i_m_source_file_index>
68

> <r_mmod_Potential_Energy-OPLS-2005>
-82.6781463623047

> <r_mmod_Stretch_Energy-OPLS-2005>
56.893009185791

> <r_mmod_Bend_Energy-OPLS-2005>
113.749214172363

> <r_mmod_Torsional_Energy-OPLS-2005>
265.992492675781

> <r_mmod_Improper_Torsional_Energy-OPLS-2005>
2.63462376594543

> <r_mmod_Van_der_Waal_Energy-OPLS-2005>
163.747711181641

> <r_mmod_Electrostatic_Energy-OPLS-2005>
-302.242309570312

> <r_mmod_Solvation_Energy-OPLS-2005>
-402.911926269531

> <b_mmod_Minimization_Converged-OPLS-2005>
0

> <r_mmod_RMS_Derivative-OPLS-2005>
7.15576219558716

$$$$
68
                    3D
 Structure written by MMmdl.
170179  0  0  1  0            999 V2000
  -30.6072  -14.7465   20.4486 C   0  0  0  0  0  0
  -30.4273  -12.4552   19.4681 C   0  0  0  0  0  0
  -29.5043  -12.5068   18.2312 C   0  0  0  0  0  0
  -28.0301  -12.3318   18.6464 C   0  0  0  0  0  0
  -27.6365  -13.2316   19.8481 C   0  0  2  0  0  0
  -28.6831  -13.1692   20.9810 C   0  0  0  0  0  0
  -25.2479  -13.8191   20.5711 C   0  0  0  0  0  0
  -24.1771  -13.0438   20.9227 C   0  0  0  0  0  0
  -24.6362  -11.6915   20.8750 C   0  0  0  0  0  0
  -23.9035  -10.4300   21.0402 C   0  0  0  0  0  0
  -24.3599   -9.4221   21.9181 C   0  0  0  0  0  0
  -23.6296   -8.2240   22.0746 C   0  0  0  0  0  0
  -22.4278   -8.0267   21.3538 C   0  0  0  0  0  0
  -21.9899   -9.0227   20.4635 C   0  0  0  0  0  0
  -22.7208  -10.2121   20.3051 C   0  0  0  0  0  0
  -21.6851   -6.0725   22.5277 C   0  0  0  0  0  0
  -21.4013   -6.5636   23.8208 C   0  0  0  0  0  0
  -21.3663   -5.6791   24.9172 C   0  0  0  0  0  0
  -21.6052   -4.3052   24.7226 C   0  0  0  0  0  0
  -21.8819   -3.8140   23.4344 C   0  0  0  0  0  0
  -21.9195   -4.6956   22.3400 C   0  0  0  0  0  0
  -22.7801  -13.5212   21.1889 C   0  0  0  0  0  0
  -22.1665   -4.2143   21.0978 F   0  0  0  0  0  0
  -21.5632   -3.4539   25.7736 F   0  0  0  0  0  0
  -29.9804  -13.5219   20.3917 N   0  0  0  0  0  0
  -26.2896  -12.9399   20.3276 N   0  0  0  0  0  0
  -25.9294  -11.6544   20.5749 N   0  0  0  0  0  0
  -22.0448  -12.8191   22.0441 N   0  0  0  0  0  0
  -25.4155  -15.1918   20.4138 N   0  0  0  0  0  0
  -31.8059  -14.8225   20.1619 O   0  0  0  0  0  0
  -21.6643   -6.8862   21.4235 O   0  0  0  0  0  0
  -22.3490  -14.5523   20.6743 O   0  0  0  0  0  0
  -24.6316  -31.8544   23.1955 C   0  0  0  0  0  0
  -25.9146  -32.4749   23.8305 C   0  0  1  0  0  0
  -27.2226  -27.2662   20.1405 C   0  0  0  0  0  0
  -25.5953  -33.8551   24.2246 N   0  0  0  0  0  0
  -23.4262  -30.4721   21.5418 C   0  0  2  0  0  0
  -24.8700  -28.9039   20.1230 C   0  0  0  0  0  0
  -22.7490  -29.4611   22.4970 C   0  0  0  0  0  0
  -18.0293  -28.1395   22.8498 C   0  0  0  0  0  0
  -24.1492  -36.7267   23.2643 C   0  0  0  0  0  0
  -25.9674  -30.7701   21.3676 C   0  0  0  0  0  0
  -26.0402  -29.3874   20.7210 C   0  0  0  0  0  0
  -27.2207  -28.5828   20.7118 C   0  0  0  0  0  0
  -26.0295  -26.8310   19.5315 C   0  0  0  0  0  0
  -24.8672  -27.6324   19.5219 C   0  0  0  0  0  0
  -23.6407  -29.7920   20.1634 C   0  0  0  0  0  0
  -25.4122  -36.3055   24.0324 C   0  0  1  0  0  0
  -20.5894  -28.3695   23.1302 C   0  0  2  0  0  0
  -20.6798  -26.9427   22.5415 C   0  0  0  0  0  0
  -19.5770  -26.6389   21.5232 C   0  0  0  0  0  0
  -18.1941  -26.7945   22.1626 C   0  0  0  0  0  0
  -19.1545  -28.8870   23.2886 C   0  0  0  0  0  0
  -18.9461  -30.1479   23.8888 C   0  0  0  0  0  0
  -17.6457  -30.6591   24.0574 C   0  0  0  0  0  0
  -25.9058  -34.9434   23.5080 C   0  0  0  0  0  0
  -16.5349  -29.9077   23.6349 C   0  0  0  0  0  0
  -16.7277  -28.6502   23.0358 C   0  0  0  0  0  0
  -26.4509  -31.6575   25.0693 C   0  0  0  0  0  0
  -25.3722  -31.3700   26.1398 C   0  0  0  0  0  0
  -27.0372  -30.3008   24.6159 C   0  0  0  0  0  0
  -27.6065  -32.4311   25.7472 C   0  0  0  0  0  0
  -27.5573  -37.1797   24.8470 C   0  0  0  0  0  0
  -21.4205  -29.3038   22.3695 N   0  0  0  0  0  0
  -26.4287  -37.3761   23.9406 N   0  0  0  0  0  0
  -24.6952  -31.0502   22.0928 N   0  0  0  0  0  0
  -23.4192  -28.8184   23.3095 O   0  0  0  0  0  0
  -28.3651  -26.4456   20.0964 O   0  0  0  0  0  0
  -26.5611  -34.8927   22.4635 O   0  0  0  0  0  0
  -23.5468  -32.1373   23.7257 O   0  0  0  0  0  0
  -31.4502  -17.7032   21.1251 C   0  0  0  0  0  0
  -29.3231  -18.4464   20.2465 C   0  0  0  0  0  0
  -31.8778  -19.0479   21.1846 C   0  0  0  0  0  0
  -29.7170  -19.8544   20.3024 C   0  0  0  0  0  0
  -31.0457  -20.1135   20.7444 C   0  0  0  0  0  0
  -30.1851  -17.3347   20.6254 C   0  0  0  0  0  0
  -27.7745  -22.3307   21.8044 C   0  0  0  0  0  0
  -26.7897  -21.4581   22.1193 C   0  0  0  0  0  0
  -28.1090  -23.5491   22.6651 C   0  0  0  0  0  0
  -27.7073  -24.8771   21.9765 C   0  0  0  0  0  0
  -28.2945  -23.6799   19.7750 C   0  0  0  0  0  0
  -28.4393  -25.0420   20.6351 C   0  0  1  0  0  0
  -33.2773  -19.3173   21.7201 C   0  0  0  0  0  0
  -31.6175  -21.5331   20.7233 C   0  0  0  0  0  0
  -26.2421  -20.2814   21.3362 C   0  0  0  0  0  0
  -28.8202  -21.0679   19.7483 C   0  0  0  0  0  0
  -29.8185  -15.8900   20.5716 N   0  0  0  0  0  0
  -28.6146  -22.3789   20.5496 N   0  3  2  0  0  0
  -31.4686  -12.5821   19.1661 H   0  0  0  0  0  0
  -30.3739  -11.4801   19.9540 H   0  0  0  0  0  0
  -29.7864  -11.7340   17.5156 H   0  0  0  0  0  0
  -29.6304  -13.4606   17.7172 H   0  0  0  0  0  0
  -27.8860  -11.2834   18.9083 H   0  0  0  0  0  0
  -27.3709  -12.5264   17.7996 H   0  0  0  0  0  0
  -27.6261  -14.2518   19.4655 H   0  0  0  0  0  0
  -28.7192  -12.1729   21.4239 H   0  0  0  0  0  0
  -28.4235  -13.8542   21.7902 H   0  0  0  0  0  0
  -25.2739   -9.5715   22.4762 H   0  0  0  0  0  0
  -24.0016   -7.4631   22.7465 H   0  0  0  0  0  0
  -21.0833   -8.8719   19.8943 H   0  0  0  0  0  0
  -22.3640  -10.9650   19.6166 H   0  0  0  0  0  0
  -21.1999   -7.6145   23.9706 H   0  0  0  0  0  0
  -21.1491   -6.0524   25.9073 H   0  0  0  0  0  0
  -22.0597   -2.7606   23.2840 H   0  0  0  0  0  0
  -22.4063  -11.9850   22.4821 H   0  0  0  0  0  0
  -21.1053  -13.1188   22.2628 H   0  0  0  0  0  0
  -24.6452  -15.8417   20.5281 H   0  0  0  0  0  0
  -26.2510  -15.6332   20.0548 H   0  0  0  0  0  0
  -26.7221  -32.5388   23.1059 H   0  0  0  0  0  0
  -25.0162  -33.9704   25.0434 H   0  0  0  0  0  0
  -22.7228  -31.2932   21.3917 H   0  0  0  0  0  0
  -23.3759  -35.9593   23.3292 H   0  0  0  0  0  0
  -24.3593  -36.8890   22.2061 H   0  0  0  0  0  0
  -23.7249  -37.6469   23.6666 H   0  0  0  0  0  0
  -26.0970  -31.5246   20.5904 H   0  0  0  0  0  0
  -26.8502  -30.8277   21.9925 H   0  0  0  0  0  0
  -28.1249  -28.9621   21.1673 H   0  0  0  0  0  0
  -25.9914  -25.8587   19.0611 H   0  0  0  0  0  0
  -23.9672  -27.2522   19.0586 H   0  0  0  0  0  0
  -23.7643  -30.5599   19.3989 H   0  0  0  0  0  0
  -22.7588  -29.2209   19.8663 H   0  0  0  0  0  0
  -25.1318  -36.1883   25.0816 H   0  0  0  0  0  0
  -20.9985  -28.3244   24.1427 H   0  0  0  0  0  0
  -20.5763  -26.2289   23.3602 H   0  0  0  0  0  0
  -21.6654  -26.7496   22.1174 H   0  0  0  0  0  0
  -19.6926  -25.6302   21.1258 H   0  0  0  0  0  0
  -19.6706  -27.3205   20.6770 H   0  0  0  0  0  0
  -17.4233  -26.6734   21.3996 H   0  0  0  0  0  0
  -18.0302  -26.0079   22.9008 H   0  0  0  0  0  0
  -19.7928  -30.7320   24.2225 H   0  0  0  0  0  0
  -17.4997  -31.6276   24.5169 H   0  0  0  0  0  0
  -15.5346  -30.2968   23.7691 H   0  0  0  0  0  0
  -15.8681  -28.0820   22.7066 H   0  0  0  0  0  0
  -24.5923  -30.7036   25.7696 H   0  0  0  0  0  0
  -24.8888  -32.2857   26.4807 H   0  0  0  0  0  0
  -25.8032  -30.8874   27.0177 H   0  0  0  0  0  0
  -26.2948  -29.6738   24.1211 H   0  0  0  0  0  0
  -27.4117  -29.7296   25.4663 H   0  0  0  0  0  0
  -27.8791  -30.4325   23.9360 H   0  0  0  0  0  0
  -27.2688  -33.3640   26.2007 H   0  0  0  0  0  0
  -28.3895  -32.6821   25.0298 H   0  0  0  0  0  0
  -28.0709  -31.8449   26.5417 H   0  0  0  0  0  0
  -28.2593  -38.0094   24.7520 H   0  0  0  0  0  0
  -28.1065  -36.2628   24.6286 H   0  0  0  0  0  0
  -27.2288  -37.1427   25.8872 H   0  0  0  0  0  0
  -20.9399  -29.8680   21.6833 H   0  0  0  0  0  0
  -26.0148  -38.2823   24.1406 H   0  0  0  0  0  0
  -32.1285  -16.9366   21.4699 H   0  0  0  0  0  0
  -28.3425  -18.2095   19.8579 H   0  0  0  0  0  0
  -26.2791  -21.6151   23.0597 H   0  0  0  0  0  0
  -29.1771  -23.5488   22.8919 H   0  0  0  0  0  0
  -27.6010  -23.4717   23.6278 H   0  0  0  0  0  0
  -27.9468  -25.7169   22.6292 H   0  0  0  0  0  0
  -26.6275  -24.9076   21.8216 H   0  0  0  0  0  0
  -28.9499  -23.7443   18.9068 H   0  0  0  0  0  0
  -27.2776  -23.6054   19.3882 H   0  0  0  0  0  0
  -29.4953  -25.0258   20.9095 H   0  0  0  0  0  0
  -33.7069  -18.4344   22.1950 H   0  0  0  0  0  0
  -33.2620  -20.1146   22.4644 H   0  0  0  0  0  0
  -33.9454  -19.6116   20.9098 H   0  0  0  0  0  0
  -32.6946  -21.5332   20.5655 H   0  0  0  0  0  0
  -31.4255  -22.0484   21.6645 H   0  0  0  0  0  0
  -31.2291  -22.1320   19.9021 H   0  0  0  0  0  0
  -25.9249  -20.5778   20.3369 H   0  0  0  0  0  0
  -25.3586  -19.8897   21.8414 H   0  0  0  0  0  0
  -26.9629  -19.4685   21.2774 H   0  0  0  0  0  0
  -27.8711  -20.6865   19.3854 H   0  0  0  0  0  0
  -29.3159  -21.3633   18.8237 H   0  0  0  0  0  0
  -28.8307  -15.6947   20.6134 H   0  0  0  0  0  0
  -29.5594  -22.5350   20.8660 H   0  0  0  0  0  0
  1 25  1  0  0  0
  1 30  2  0  0  0
  1 87  1  0  0  0
  2  3  1  0  0  0
  2 25  1  0  0  0
  2 89  1  0  0  0
  2 90  1  0  0  0
  3  4  1  0  0  0
  3 91  1  0  0  0
  3 92  1  0  0  0
  4  5  1  0  0  0
  4 93  1  0  0  0
  4 94  1  0  0  0
  5  6  1  0  0  0
  5 26  1  0  0  0
  5 95  1  0  0  0
  6 25  1  0  0  0
  6 96  1  0  0  0
  6 97  1  0  0  0
  7  8  2  0  0  0
  7 26  1  0  0  0
  7 29  1  0  0  0
  8  9  1  0  0  0
  8 22  1  0  0  0
  9 10  1  0  0  0
  9 27  2  0  0  0
 10 11  2  0  0  0
 10 15  1  0  0  0
 11 12  1  0  0  0
 11 98  1  0  0  0
 12 13  2  0  0  0
 12 99  1  0  0  0
 13 14  1  0  0  0
 13 31  1  0  0  0
 14 15  2  0  0  0
 14100  1  0  0  0
 15101  1  0  0  0
 16 17  2  0  0  0
 16 21  1  0  0  0
 16 31  1  0  0  0
 17 18  1  0  0  0
 17102  1  0  0  0
 18 19  2  0  0  0
 18103  1  0  0  0
 19 20  1  0  0  0
 19 24  1  0  0  0
 20 21  2  0  0  0
 20104  1  0  0  0
 21 23  1  0  0  0
 22 28  1  0  0  0
 22 32  2  0  0  0
 26 27  1  0  0  0
 28105  1  0  0  0
 28106  1  0  0  0
 29107  1  0  0  0
 29108  1  0  0  0
 33 34  1  0  0  0
 33 66  1  0  0  0
 33 70  2  0  0  0
 34 36  1  0  0  0
 34 59  1  0  0  0
 34109  1  0  0  0
 35 44  2  0  0  0
 35 45  1  0  0  0
 35 68  1  0  0  0
 36 56  1  0  0  0
 36110  1  0  0  0
 37 39  1  0  0  0
 37 47  1  0  0  0
 37 66  1  0  0  0
 37111  1  0  0  0
 38 43  2  0  0  0
 38 46  1  0  0  0
 38 47  1  0  0  0
 39 64  1  0  0  0
 39 67  2  0  0  0
 40 52  1  0  0  0
 40 53  2  0  0  0
 40 58  1  0  0  0
 41112  1  0  0  0
 41113  1  0  0  0
 41114  1  0  0  0
 41 48  1  0  0  0
 42 43  1  0  0  0
 42 66  1  0  0  0
 42115  1  0  0  0
 42116  1  0  0  0
 43 44  1  0  0  0
 44117  1  0  0  0
 45 46  2  0  0  0
 45118  1  0  0  0
 46119  1  0  0  0
 47120  1  0  0  0
 47121  1  0  0  0
 48 56  1  0  0  0
 48 65  1  0  0  0
 48122  1  0  0  0
 49 50  1  0  0  0
 49 53  1  0  0  0
 49 64  1  0  0  0
 49123  1  0  0  0
 50 51  1  0  0  0
 50124  1  0  0  0
 50125  1  0  0  0
 51 52  1  0  0  0
 51126  1  0  0  0
 51127  1  0  0  0
 52128  1  0  0  0
 52129  1  0  0  0
 53 54  1  0  0  0
 54 55  2  0  0  0
 54130  1  0  0  0
 55 57  1  0  0  0
 55131  1  0  0  0
 56 69  2  0  0  0
 57 58  2  0  0  0
 57132  1  0  0  0
 58133  1  0  0  0
 59 60  1  0  0  0
 59 61  1  0  0  0
 59 62  1  0  0  0
 60134  1  0  0  0
 60135  1  0  0  0
 60136  1  0  0  0
 61137  1  0  0  0
 61138  1  0  0  0
 61139  1  0  0  0
 62140  1  0  0  0
 62141  1  0  0  0
 62142  1  0  0  0
 63 65  1  0  0  0
 63143  1  0  0  0
 63144  1  0  0  0
 63145  1  0  0  0
 64146  1  0  0  0
 65147  1  0  0  0
 68 82  1  0  0  0
 71 73  2  0  0  0
 71 76  1  0  0  0
 71148  1  0  0  0
 72 74  1  0  0  0
 72 76  2  0  0  0
 72149  1  0  0  0
 73 75  1  0  0  0
 73 83  1  0  0  0
 74 75  2  0  0  0
 74 86  1  0  0  0
 75 84  1  0  0  0
 76 87  1  0  0  0
 77 78  2  0  0  0
 77 79  1  0  0  0
 77 88  1  0  0  0
 78 85  1  0  0  0
 78150  1  0  0  0
 79 80  1  0  0  0
 79151  1  0  0  0
 79152  1  0  0  0
 80 82  1  0  0  0
 80153  1  0  0  0
 80154  1  0  0  0
 81 82  1  0  0  0
 81 88  1  0  0  0
 81155  1  0  0  0
 81156  1  0  0  0
 82157  1  0  0  0
 83158  1  0  0  0
 83159  1  0  0  0
 83160  1  0  0  0
 84161  1  0  0  0
 84162  1  0  0  0
 84163  1  0  0  0
 85164  1  0  0  0
 85165  1  0  0  0
 85166  1  0  0  0
 86167  1  0  0  0
 86168  1  0  0  0
 86 88  1  0  0  0
 87169  1  0  0  0
 88170  1  0  0  0
M  CHG  1  88   1
M  ISO  4   1 100  68 101  82 101  87 100
M  END
> <chiral flag>
0

> <version>
0

> <s_m_source_file>
/data/baiqing/PycharmProjects/Reinvent-master-3.2/result/LINK_invent/BTK/process_docking_weight1_custom_product_contain_oxygen_bond_distance_aromatic_linkinvent_7_9_3/rearranged_h_0038.sdf

> <i_m_source_file_index>
69

> <r_mmod_Potential_Energy-OPLS-2005>
122.044891357422

> <r_mmod_Stretch_Energy-OPLS-2005>
132.044937133789

> <r_mmod_Bend_Energy-OPLS-2005>
205.514862060547

> <r_mmod_Torsional_Energy-OPLS-2005>
255.29997253418

> <r_mmod_Improper_Torsional_Energy-OPLS-2005>
6.85193109512329

> <r_mmod_Van_der_Waal_Energy-OPLS-2005>
141.776931762695

> <r_mmod_Electrostatic_Energy-OPLS-2005>
-279.177795410156

> <r_mmod_Solvation_Energy-OPLS-2005>
-418.899017333984

> <b_mmod_Minimization_Converged-OPLS-2005>
0

> <r_mmod_RMS_Derivative-OPLS-2005>
1.92777132987976

$$$$
69
                    3D
 Structure written by MMmdl.
180189  0  0  1  0            999 V2000
  -30.6233  -14.5953   20.4903 C   0  0  0  0  0  0
  -30.4485  -12.3544   19.4413 C   0  0  0  0  0  0
  -29.5176  -12.4962   18.2176 C   0  0  0  0  0  0
  -28.0412  -12.3227   18.6327 C   0  0  0  0  0  0
  -27.6676  -13.1810   19.8697 C   0  0  2  0  0  0
  -28.7120  -13.0238   20.9971 C   0  0  0  0  0  0
  -25.2663  -13.8085   20.5689 C   0  0  0  0  0  0
  -24.1863  -13.0396   20.9132 C   0  0  0  0  0  0
  -24.6395  -11.6862   20.8713 C   0  0  0  0  0  0
  -23.9053  -10.4276   21.0403 C   0  0  0  0  0  0
  -24.3622   -9.4204   21.9187 C   0  0  0  0  0  0
  -23.6297   -8.2236   22.0776 C   0  0  0  0  0  0
  -22.4276   -8.0279   21.3553 C   0  0  0  0  0  0
  -21.9889   -9.0262   20.4676 C   0  0  0  0  0  0
  -22.7229  -10.2129   20.3058 C   0  0  0  0  0  0
  -21.6841   -6.0734   22.5275 C   0  0  0  0  0  0
  -21.4020   -6.5635   23.8226 C   0  0  0  0  0  0
  -21.3656   -5.6781   24.9169 C   0  0  0  0  0  0
  -21.6035   -4.3048   24.7204 C   0  0  0  0  0  0
  -21.8830   -3.8151   23.4325 C   0  0  0  0  0  0
  -21.9211   -4.6967   22.3399 C   0  0  0  0  0  0
  -22.7894  -13.5245   21.1787 C   0  0  0  0  0  0
  -22.1678   -4.2170   21.0959 F   0  0  0  0  0  0
  -21.5634   -3.4524   25.7707 F   0  0  0  0  0  0
  -30.0302  -13.3637   20.4324 N   0  0  0  0  0  0
  -26.3072  -12.9215   20.3330 N   0  0  0  0  0  0
  -25.9316  -11.6399   20.5710 N   0  0  0  0  0  0
  -22.0506  -12.8302   22.0359 N   0  0  0  0  0  0
  -25.4357  -15.1799   20.4184 N   0  0  0  0  0  0
  -31.7600  -14.8014   20.0575 O   0  0  0  0  0  0
  -21.6643   -6.8870   21.4241 O   0  0  0  0  0  0
  -22.3619  -14.5591   20.6676 O   0  0  0  0  0  0
  -24.6156  -31.8621   23.2058 C   0  0  0  0  0  0
  -25.9021  -32.4800   23.8363 C   0  0  1  0  0  0
  -27.2431  -27.3856   20.1148 C   0  0  0  0  0  0
  -25.5865  -33.8603   24.2266 N   0  0  0  0  0  0
  -23.4105  -30.4808   21.5447 C   0  0  2  0  0  0
  -24.8607  -28.9342   20.1215 C   0  0  0  0  0  0
  -22.7427  -29.4609   22.4954 C   0  0  0  0  0  0
  -18.0255  -28.1388   22.8435 C   0  0  0  0  0  0
  -24.1486  -36.7305   23.2643 C   0  0  0  0  0  0
  -25.9443  -30.8082   21.3717 C   0  0  0  0  0  0
  -26.0232  -29.4400   20.7157 C   0  0  0  0  0  0
  -27.2195  -28.6780   20.6988 C   0  0  0  0  0  0
  -26.0592  -26.9001   19.5160 C   0  0  0  0  0  0
  -24.8758  -27.6649   19.5157 C   0  0  0  0  0  0
  -23.6262  -29.8072   20.1622 C   0  0  0  0  0  0
  -25.4113  -36.3094   24.0324 C   0  0  1  0  0  0
  -20.5843  -28.3657   23.1290 C   0  0  2  0  0  0
  -20.6722  -26.9382   22.5407 C   0  0  0  0  0  0
  -19.5742  -26.6363   21.5162 C   0  0  0  0  0  0
  -18.1910  -26.7921   22.1563 C   0  0  0  0  0  0
  -19.1507  -28.8836   23.2850 C   0  0  0  0  0  0
  -18.9458  -30.1435   23.8878 C   0  0  0  0  0  0
  -17.6472  -30.6594   24.0546 C   0  0  0  0  0  0
  -25.9042  -34.9464   23.5093 C   0  0  0  0  0  0
  -16.5347  -29.9098   23.6341 C   0  0  0  0  0  0
  -16.7249  -28.6516   23.0339 C   0  0  0  0  0  0
  -26.4412  -31.6637   25.0762 C   0  0  0  0  0  0
  -25.3669  -31.3824   26.1532 C   0  0  0  0  0  0
  -27.0223  -30.3051   24.6220 C   0  0  0  0  0  0
  -27.5973  -32.4383   25.7522 C   0  0  0  0  0  0
  -27.5594  -37.1790   24.8447 C   0  0  0  0  0  0
  -21.4146  -29.3021   22.3713 N   0  0  0  0  0  0
  -26.4281  -37.3800   23.9430 N   0  0  0  0  0  0
  -24.6741  -31.0670   22.0976 N   0  0  0  0  0  0
  -23.4172  -28.8146   23.3003 O   0  0  0  0  0  0
  -28.4056  -26.6279   20.0839 O   0  0  0  0  0  0
  -26.5642  -34.8928   22.4676 O   0  0  0  0  0  0
  -23.5336  -32.1376   23.7422 O   0  0  0  0  0  0
  -28.4186  -17.0622   19.5985 C   0  0  0  0  0  0
  -30.2984  -18.0753   20.7222 C   0  0  0  0  0  0
  -28.0126  -18.3210   19.1150 C   0  0  0  0  0  0
  -29.9023  -19.3799   20.2690 C   0  0  0  0  0  0
  -28.8007  -19.4756   19.3624 C   0  0  0  0  0  0
  -29.5841  -16.8957   20.3743 C   0  0  0  0  0  0
  -31.8970  -22.6899   20.0457 C   0  0  0  0  0  0
  -33.0719  -22.3927   20.6337 C   0  0  0  0  0  0
  -25.6536  -19.2128   19.2674 C   0  0  0  0  0  0
  -24.7817  -20.1206   18.7949 C   0  0  0  0  0  0
  -31.6919  -23.8853   19.1270 C   0  0  0  0  0  0
  -30.7312  -24.9017   19.7630 C   0  0  0  0  0  0
  -29.5700  -22.9336   20.8848 C   0  0  0  0  0  0
  -29.3639  -24.2561   20.0394 C   0  0  1  0  0  0
  -28.4241  -20.7747   18.6523 C   0  0  0  0  0  0
  -26.6466  -18.4196   18.4314 C   0  0  0  0  0  0
  -30.6402  -20.6041   20.9011 C   0  0  0  0  0  0
  -23.8241  -20.9125   19.6685 C   0  0  0  0  0  0
  -28.3505  -25.2881   20.6519 C   0  0  0  0  0  0
  -29.8319  -15.5981   20.9599 N   0  0  0  0  0  0
  -30.5781  -21.9837   20.2772 N   0  3  2  0  0  0
  -22.4203  -20.6828   19.2886 N   0  3  0  0  0  0
  -31.4952  -12.4716   19.1479 H   0  0  0  0  0  0
  -30.3733  -11.3518   19.8645 H   0  0  0  0  0  0
  -29.7827  -11.7619   17.4539 H   0  0  0  0  0  0
  -29.6654  -13.4751   17.7605 H   0  0  0  0  0  0
  -27.8809  -11.2683   18.8559 H   0  0  0  0  0  0
  -27.3832  -12.5647   17.7961 H   0  0  0  0  0  0
  -27.6955  -14.2017   19.5165 H   0  0  0  0  0  0
  -28.7243  -12.0027   21.3767 H   0  0  0  0  0  0
  -28.4567  -13.6462   21.8558 H   0  0  0  0  0  0
  -25.2780   -9.5711   22.4724 H   0  0  0  0  0  0
  -24.0043   -7.4639   22.7481 H   0  0  0  0  0  0
  -21.0834   -8.8791   19.8976 H   0  0  0  0  0  0
  -22.3721  -10.9670   19.6153 H   0  0  0  0  0  0
  -21.2018   -7.6140   23.9727 H   0  0  0  0  0  0
  -21.1459   -6.0493   25.9079 H   0  0  0  0  0  0
  -22.0624   -2.7612   23.2791 H   0  0  0  0  0  0
  -22.4078  -11.9938   22.4734 H   0  0  0  0  0  0
  -21.1147  -13.1400   22.2583 H   0  0  0  0  0  0
  -24.6664  -15.8269   20.5493 H   0  0  0  0  0  0
  -26.2918  -15.6359   20.1421 H   0  0  0  0  0  0
  -26.7102  -32.5466   23.1126 H   0  0  0  0  0  0
  -24.9948  -33.9747   25.0367 H   0  0  0  0  0  0
  -22.7010  -31.2967   21.3974 H   0  0  0  0  0  0
  -23.3761  -35.9621   23.3273 H   0  0  0  0  0  0
  -24.3579  -36.8970   22.2067 H   0  0  0  0  0  0
  -23.7215  -37.6485   23.6685 H   0  0  0  0  0  0
  -26.0766  -31.5747   20.6081 H   0  0  0  0  0  0
  -26.8219  -30.8494   22.0030 H   0  0  0  0  0  0
  -28.1197  -29.0676   21.1535 H   0  0  0  0  0  0
  -26.0505  -25.9271   19.0438 H   0  0  0  0  0  0
  -23.9841  -27.2647   19.0533 H   0  0  0  0  0  0
  -23.7477  -30.5782   19.3998 H   0  0  0  0  0  0
  -22.7493  -29.2297   19.8622 H   0  0  0  0  0  0
  -25.1284  -36.1935   25.0815 H   0  0  0  0  0  0
  -20.9883  -28.3199   24.1428 H   0  0  0  0  0  0
  -20.5519  -26.2267   23.3593 H   0  0  0  0  0  0
  -21.6610  -26.7363   22.1277 H   0  0  0  0  0  0
  -19.6896  -25.6256   21.1234 H   0  0  0  0  0  0
  -19.6731  -27.3129   20.6663 H   0  0  0  0  0  0
  -17.4166  -26.6611   21.3985 H   0  0  0  0  0  0
  -18.0368  -26.0085   22.8997 H   0  0  0  0  0  0
  -19.7958  -30.7214   24.2245 H   0  0  0  0  0  0
  -17.5073  -31.6277   24.5147 H   0  0  0  0  0  0
  -15.5371  -30.3014   23.7716 H   0  0  0  0  0  0
  -15.8623  -28.0867   22.7074 H   0  0  0  0  0  0
  -24.5817  -30.7165   25.7936 H   0  0  0  0  0  0
  -24.8887  -32.3019   26.4932 H   0  0  0  0  0  0
  -25.8036  -30.9065   27.0326 H   0  0  0  0  0  0
  -26.2796  -29.6894   24.1141 H   0  0  0  0  0  0
  -27.3778  -29.7242   25.4741 H   0  0  0  0  0  0
  -27.8731  -30.4337   23.9526 H   0  0  0  0  0  0
  -27.2550  -33.3653   26.2136 H   0  0  0  0  0  0
  -28.3758  -32.7006   25.0349 H   0  0  0  0  0  0
  -28.0663  -31.8507   26.5425 H   0  0  0  0  0  0
  -28.2561  -38.0137   24.7552 H   0  0  0  0  0  0
  -28.1124  -36.2665   24.6161 H   0  0  0  0  0  0
  -27.2325  -37.1332   25.8851 H   0  0  0  0  0  0
  -20.9308  -29.8831   21.7018 H   0  0  0  0  0  0
  -26.0154  -38.2851   24.1508 H   0  0  0  0  0  0
  -27.7920  -16.2213   19.3801 H   0  0  0  0  0  0
  -31.1311  -17.9804   21.4050 H   0  0  0  0  0  0
  -33.9433  -22.9967   20.4212 H   0  0  0  0  0  0
  -33.2197  -21.5897   21.3390 H   0  0  0  0  0  0
  -25.6713  -19.0103   20.3287 H   0  0  0  0  0  0
  -24.7488  -20.3313   17.7353 H   0  0  0  0  0  0
  -31.3209  -23.5504   18.1560 H   0  0  0  0  0  0
  -32.6523  -24.3649   18.9335 H   0  0  0  0  0  0
  -30.6197  -25.7595   19.0991 H   0  0  0  0  0  0
  -31.1574  -25.2899   20.6899 H   0  0  0  0  0  0
  -28.6127  -22.4356   21.0265 H   0  0  0  0  0  0
  -29.9064  -23.1888   21.8899 H   0  0  0  0  0  0
  -28.9508  -23.9740   19.0696 H   0  0  0  0  0  0
  -27.8513  -20.6010   17.7452 H   0  0  0  0  0  0
  -29.3002  -21.3011   18.2793 H   0  0  0  0  0  0
  -27.8109  -21.4135   19.2866 H   0  0  0  0  0  0
  -26.2265  -17.4226   18.3077 H   0  0  0  0  0  0
  -26.7264  -18.8233   17.4227 H   0  0  0  0  0  0
  -31.6732  -20.2677   20.9256 H   0  0  0  0  0  0
  -30.3491  -20.6717   21.9504 H   0  0  0  0  0  0
  -24.0660  -21.9727   19.5862 H   0  0  0  0  0  0
  -23.9588  -20.6383   20.7164 H   0  0  0  0  0  0
  -28.5378  -25.3916   21.7204 H   0  0  0  0  0  0
  -27.3551  -24.8532   20.5679 H   0  0  0  0  0  0
  -29.0098  -15.2067   21.3903 H   0  0  0  0  0  0
  -30.2104  -21.7733   19.3629 H   0  0  0  0  0  0
  -22.2436  -20.9867   18.3479 H   0  0  0  0  0  0
  -21.8161  -21.2008   19.9020 H   0  0  0  0  0  0
  -22.1823  -19.7098   19.3635 H   0  0  0  0  0  0
  1 25  1  0  0  0
  1 30  2  0  0  0
  1 90  1  0  0  0
  2  3  1  0  0  0
  2 25  1  0  0  0
  2 93  1  0  0  0
  2 94  1  0  0  0
  3  4  1  0  0  0
  3 95  1  0  0  0
  3 96  1  0  0  0
  4  5  1  0  0  0
  4 97  1  0  0  0
  4 98  1  0  0  0
  5  6  1  0  0  0
  5 26  1  0  0  0
  5 99  1  0  0  0
  6 25  1  0  0  0
  6100  1  0  0  0
  6101  1  0  0  0
  7  8  2  0  0  0
  7 26  1  0  0  0
  7 29  1  0  0  0
  8  9  1  0  0  0
  8 22  1  0  0  0
  9 10  1  0  0  0
  9 27  2  0  0  0
 10 11  2  0  0  0
 10 15  1  0  0  0
 11 12  1  0  0  0
 11102  1  0  0  0
 12 13  2  0  0  0
 12103  1  0  0  0
 13 14  1  0  0  0
 13 31  1  0  0  0
 14 15  2  0  0  0
 14104  1  0  0  0
 15105  1  0  0  0
 16 17  2  0  0  0
 16 21  1  0  0  0
 16 31  1  0  0  0
 17 18  1  0  0  0
 17106  1  0  0  0
 18 19  2  0  0  0
 18107  1  0  0  0
 19 20  1  0  0  0
 19 24  1  0  0  0
 20 21  2  0  0  0
 20108  1  0  0  0
 21 23  1  0  0  0
 22 28  1  0  0  0
 22 32  2  0  0  0
 26 27  1  0  0  0
 28109  1  0  0  0
 28110  1  0  0  0
 29111  1  0  0  0
 29112  1  0  0  0
 33 34  1  0  0  0
 33 66  1  0  0  0
 33 70  2  0  0  0
 34 36  1  0  0  0
 34 59  1  0  0  0
 34113  1  0  0  0
 35 44  2  0  0  0
 35 45  1  0  0  0
 35 68  1  0  0  0
 36 56  1  0  0  0
 36114  1  0  0  0
 37 39  1  0  0  0
 37 47  1  0  0  0
 37 66  1  0  0  0
 37115  1  0  0  0
 38 43  2  0  0  0
 38 46  1  0  0  0
 38 47  1  0  0  0
 39 64  1  0  0  0
 39 67  2  0  0  0
 40 52  1  0  0  0
 40 53  2  0  0  0
 40 58  1  0  0  0
 41116  1  0  0  0
 41117  1  0  0  0
 41118  1  0  0  0
 41 48  1  0  0  0
 42 43  1  0  0  0
 42 66  1  0  0  0
 42119  1  0  0  0
 42120  1  0  0  0
 43 44  1  0  0  0
 44121  1  0  0  0
 45 46  2  0  0  0
 45122  1  0  0  0
 46123  1  0  0  0
 47124  1  0  0  0
 47125  1  0  0  0
 48 56  1  0  0  0
 48 65  1  0  0  0
 48126  1  0  0  0
 49 50  1  0  0  0
 49 53  1  0  0  0
 49 64  1  0  0  0
 49127  1  0  0  0
 50 51  1  0  0  0
 50128  1  0  0  0
 50129  1  0  0  0
 51 52  1  0  0  0
 51130  1  0  0  0
 51131  1  0  0  0
 52132  1  0  0  0
 52133  1  0  0  0
 53 54  1  0  0  0
 54 55  2  0  0  0
 54134  1  0  0  0
 55 57  1  0  0  0
 55135  1  0  0  0
 56 69  2  0  0  0
 57 58  2  0  0  0
 57136  1  0  0  0
 58137  1  0  0  0
 59 60  1  0  0  0
 59 61  1  0  0  0
 59 62  1  0  0  0
 60138  1  0  0  0
 60139  1  0  0  0
 60140  1  0  0  0
 61141  1  0  0  0
 61142  1  0  0  0
 61143  1  0  0  0
 62144  1  0  0  0
 62145  1  0  0  0
 62146  1  0  0  0
 63 65  1  0  0  0
 63147  1  0  0  0
 63148  1  0  0  0
 63149  1  0  0  0
 64150  1  0  0  0
 65151  1  0  0  0
 68 89  1  0  0  0
 71 73  2  0  0  0
 71 76  1  0  0  0
 71152  1  0  0  0
 72 74  1  0  0  0
 72 76  2  0  0  0
 72153  1  0  0  0
 73 75  1  0  0  0
 73 86  1  0  0  0
 74 75  2  0  0  0
 74 87  1  0  0  0
 75 85  1  0  0  0
 76 90  1  0  0  0
 77 78  2  0  0  0
 77 81  1  0  0  0
 77 91  1  0  0  0
 78154  1  0  0  0
 78155  1  0  0  0
 79 80  2  0  0  0
 79 86  1  0  0  0
 79156  1  0  0  0
 80 88  1  0  0  0
 80157  1  0  0  0
 81 82  1  0  0  0
 81158  1  0  0  0
 81159  1  0  0  0
 82 84  1  0  0  0
 82160  1  0  0  0
 82161  1  0  0  0
 83 84  1  0  0  0
 83 91  1  0  0  0
 83162  1  0  0  0
 83163  1  0  0  0
 84 89  1  0  0  0
 84164  1  0  0  0
 85165  1  0  0  0
 85166  1  0  0  0
 85167  1  0  0  0
 86168  1  0  0  0
 86169  1  0  0  0
 87170  1  0  0  0
 87171  1  0  0  0
 87 91  1  0  0  0
 88 92  1  0  0  0
 88172  1  0  0  0
 88173  1  0  0  0
 89174  1  0  0  0
 89175  1  0  0  0
 90176  1  0  0  0
 91177  1  0  0  0
 92178  1  0  0  0
 92179  1  0  0  0
 92180  1  0  0  0
M  CHG  2  91   1  92   1
M  ISO  4   1 100  68 101  89 101  90 100
M  END
> <chiral flag>
0

> <version>
0

> <s_m_source_file>
/data/baiqing/PycharmProjects/Reinvent-master-3.2/result/LINK_invent/BTK/process_docking_weight1_custom_product_contain_oxygen_bond_distance_aromatic_linkinvent_7_9_3/rearranged_h_0038.sdf

> <i_m_source_file_index>
70

> <r_mmod_Potential_Energy-OPLS-2005>
-248.432113647461

> <r_mmod_Stretch_Energy-OPLS-2005>
64.830696105957

> <r_mmod_Bend_Energy-OPLS-2005>
144.882690429688

> <r_mmod_Torsional_Energy-OPLS-2005>
301.483184814453

> <r_mmod_Improper_Torsional_Energy-OPLS-2005>
7.96611642837524

> <r_mmod_Van_der_Waal_Energy-OPLS-2005>
154.306732177734

> <r_mmod_Electrostatic_Energy-OPLS-2005>
-42.5027503967285

> <r_mmod_Solvation_Energy-OPLS-2005>
-909.4892578125

> <b_mmod_Minimization_Converged-OPLS-2005>
0

> <r_mmod_RMS_Derivative-OPLS-2005>
4.54584884643555

$$$$
70
                    3D
 Structure written by MMmdl.
169178  0  0  1  0            999 V2000
  -30.6253  -14.6264   20.5397 C   0  0  0  0  0  0
  -30.4393  -12.3926   19.4545 C   0  0  0  0  0  0
  -29.5114  -12.5229   18.2262 C   0  0  0  0  0  0
  -28.0326  -12.3627   18.6318 C   0  0  0  0  0  0
  -27.6526  -13.2233   19.8679 C   0  0  2  0  0  0
  -28.6953  -13.0541   20.9949 C   0  0  0  0  0  0
  -25.2528  -13.8206   20.5680 C   0  0  0  0  0  0
  -24.1816  -13.0443   20.9224 C   0  0  0  0  0  0
  -24.6397  -11.6921   20.8762 C   0  0  0  0  0  0
  -23.9082  -10.4296   21.0416 C   0  0  0  0  0  0
  -24.3617   -9.4200   21.9197 C   0  0  0  0  0  0
  -23.6289   -8.2237   22.0734 C   0  0  0  0  0  0
  -22.4266   -8.0279   21.3520 C   0  0  0  0  0  0
  -21.9911   -9.0255   20.4627 C   0  0  0  0  0  0
  -22.7241  -10.2145   20.3059 C   0  0  0  0  0  0
  -21.6854   -6.0738   22.5284 C   0  0  0  0  0  0
  -21.4033   -6.5636   23.8227 C   0  0  0  0  0  0
  -21.3651   -5.6775   24.9176 C   0  0  0  0  0  0
  -21.6032   -4.3038   24.7223 C   0  0  0  0  0  0
  -21.8810   -3.8132   23.4345 C   0  0  0  0  0  0
  -21.9172   -4.6959   22.3400 C   0  0  0  0  0  0
  -22.7832  -13.5215   21.1884 C   0  0  0  0  0  0
  -22.1638   -4.2142   21.0985 F   0  0  0  0  0  0
  -21.5604   -3.4524   25.7732 F   0  0  0  0  0  0
  -30.0163  -13.4022   20.4450 N   0  0  0  0  0  0
  -26.2960  -12.9397   20.3293 N   0  0  0  0  0  0
  -25.9328  -11.6553   20.5746 N   0  0  0  0  0  0
  -22.0452  -12.8225   22.0443 N   0  0  0  0  0  0
  -25.4228  -15.1938   20.4127 N   0  0  0  0  0  0
  -31.7725  -14.8053   20.1200 O   0  0  0  0  0  0
  -21.6618   -6.8883   21.4244 O   0  0  0  0  0  0
  -22.3520  -14.5499   20.6689 O   0  0  0  0  0  0
  -24.6249  -31.8609   23.2019 C   0  0  0  0  0  0
  -25.9084  -32.4780   23.8358 C   0  0  1  0  0  0
  -27.2331  -27.3255   20.1172 C   0  0  0  0  0  0
  -25.5890  -33.8575   24.2277 N   0  0  0  0  0  0
  -23.4183  -30.4844   21.5455 C   0  0  2  0  0  0
  -24.8656  -28.9444   20.1121 C   0  0  0  0  0  0
  -22.7476  -29.4623   22.4929 C   0  0  0  0  0  0
  -18.0300  -28.1390   22.8476 C   0  0  0  0  0  0
  -24.1456  -36.7257   23.2643 C   0  0  0  0  0  0
  -25.9595  -30.7966   21.3716 C   0  0  0  0  0  0
  -26.0355  -29.4251   20.7124 C   0  0  0  0  0  0
  -27.2208  -28.6311   20.7018 C   0  0  0  0  0  0
  -26.0241  -26.8911   19.5174 C   0  0  0  0  0  0
  -24.8621  -27.6816   19.5068 C   0  0  0  0  0  0
  -23.6313  -29.8222   20.1605 C   0  0  0  0  0  0
  -25.4083  -36.3064   24.0341 C   0  0  1  0  0  0
  -20.5902  -28.3681   23.1267 C   0  0  2  0  0  0
  -20.6775  -26.9397   22.5415 C   0  0  0  0  0  0
  -19.5756  -26.6385   21.5206 C   0  0  0  0  0  0
  -18.1941  -26.7925   22.1627 C   0  0  0  0  0  0
  -19.1551  -28.8857   23.2873 C   0  0  0  0  0  0
  -18.9489  -30.1437   23.8907 C   0  0  0  0  0  0
  -17.6485  -30.6572   24.0597 C   0  0  0  0  0  0
  -25.9041  -34.9446   23.5111 C   0  0  0  0  0  0
  -16.5374  -29.9087   23.6326 C   0  0  0  0  0  0
  -16.7287  -28.6522   23.0328 C   0  0  0  0  0  0
  -26.4467  -31.6591   25.0727 C   0  0  0  0  0  0
  -25.3700  -31.3772   26.1464 C   0  0  0  0  0  0
  -27.0302  -30.3013   24.6177 C   0  0  0  0  0  0
  -27.6038  -32.4338   25.7461 C   0  0  0  0  0  0
  -27.5560  -37.1760   24.8455 C   0  0  0  0  0  0
  -21.4201  -29.3009   22.3641 N   0  0  0  0  0  0
  -26.4243  -37.3772   23.9441 N   0  0  0  0  0  0
  -24.6860  -31.0639   22.0967 N   0  0  0  0  0  0
  -23.4198  -28.8183   23.3036 O   0  0  0  0  0  0
  -28.3748  -26.5024   20.1561 O   0  0  0  0  0  0
  -26.5650  -34.8924   22.4702 O   0  0  0  0  0  0
  -23.5411  -32.1398   23.7360 O   0  0  0  0  0  0
  -30.9156  -17.8476   20.3147 C   0  0  0  0  0  0
  -30.9539  -19.2755   20.3173 C   0  0  0  0  0  0
  -28.9121  -19.3200   21.6236 C   0  0  0  0  0  0
  -29.9395  -20.0623   20.9595 C   0  0  0  0  0  0
  -28.8859  -17.8797   21.6159 C   0  0  0  0  0  0
  -29.8993  -17.1064   20.9670 C   0  0  0  0  0  0
  -27.8314  -23.1969   18.3048 C   0  0  0  0  0  0
  -28.2318  -24.6736   18.4707 C   0  0  0  0  0  0
  -28.8398  -22.2470   18.9861 C   0  0  0  0  0  0
  -29.3049  -24.0724   20.6383 C   0  0  0  0  0  0
  -28.2342  -25.0365   19.9689 C   0  0  1  0  0  0
  -32.1660  -19.9308   19.6656 C   0  0  0  0  0  0
  -27.8278  -20.0570   22.4082 C   0  0  0  0  0  0
  -27.7694  -17.1446   22.3693 C   0  0  0  0  0  0
  -30.0616  -21.6456   21.0781 C   0  0  0  0  0  0
  -29.8335  -15.6425   21.0097 N   0  0  0  0  0  0
  -29.0543  -22.5758   20.4216 N   0  3  2  0  0  0
  -31.4821  -12.5171   19.1554 H   0  0  0  0  0  0
  -30.3692  -11.3921   19.8856 H   0  0  0  0  0  0
  -29.7722  -11.7817   17.4687 H   0  0  0  0  0  0
  -29.6576  -13.5018   17.7647 H   0  0  0  0  0  0
  -27.8623  -11.3082   18.8529 H   0  0  0  0  0  0
  -27.3839  -12.6038   17.7896 H   0  0  0  0  0  0
  -27.6743  -14.2640   19.5431 H   0  0  0  0  0  0
  -28.6985  -12.0210   21.3449 H   0  0  0  0  0  0
  -28.4342  -13.6577   21.8668 H   0  0  0  0  0  0
  -25.2768   -9.5650   22.4797 H   0  0  0  0  0  0
  -23.9961   -7.4612   22.7454 H   0  0  0  0  0  0
  -21.0827   -8.8808   19.8943 H   0  0  0  0  0  0
  -22.3712  -10.9693   19.6180 H   0  0  0  0  0  0
  -21.2079   -7.6152   23.9750 H   0  0  0  0  0  0
  -21.1465   -6.0498   25.9081 H   0  0  0  0  0  0
  -22.0593   -2.7589   23.2861 H   0  0  0  0  0  0
  -22.4035  -11.9891   22.4872 H   0  0  0  0  0  0
  -21.1081  -13.1287   22.2649 H   0  0  0  0  0  0
  -24.6673  -15.8513   20.5666 H   0  0  0  0  0  0
  -26.2498  -15.6279   20.0245 H   0  0  0  0  0  0
  -26.7152  -32.5461   23.1111 H   0  0  0  0  0  0
  -24.9955  -33.9717   25.0365 H   0  0  0  0  0  0
  -22.7101  -31.3037   21.4046 H   0  0  0  0  0  0
  -23.3718  -35.9585   23.3312 H   0  0  0  0  0  0
  -24.3531  -36.8866   22.2049 H   0  0  0  0  0  0
  -23.7208  -37.6458   23.6667 H   0  0  0  0  0  0
  -26.0915  -31.5633   20.6063 H   0  0  0  0  0  0
  -26.8385  -30.8424   22.0027 H   0  0  0  0  0  0
  -28.1181  -29.0021   21.1776 H   0  0  0  0  0  0
  -25.9271  -25.9216   19.0590 H   0  0  0  0  0  0
  -23.9641  -27.3015   19.0382 H   0  0  0  0  0  0
  -23.7440  -30.5993   19.4040 H   0  0  0  0  0  0
  -22.7518  -29.2508   19.8586 H   0  0  0  0  0  0
  -25.1251  -36.1896   25.0832 H   0  0  0  0  0  0
  -21.0004  -28.3281   24.1382 H   0  0  0  0  0  0
  -20.5625  -26.2310   23.3626 H   0  0  0  0  0  0
  -21.6654  -26.7388   22.1245 H   0  0  0  0  0  0
  -19.6915  -25.6305   21.1205 H   0  0  0  0  0  0
  -19.6687  -27.3222   20.6756 H   0  0  0  0  0  0
  -17.4198  -26.6650   21.4044 H   0  0  0  0  0  0
  -18.0353  -26.0075   22.9033 H   0  0  0  0  0  0
  -19.7965  -30.7252   24.2288 H   0  0  0  0  0  0
  -17.5040  -31.6227   24.5243 H   0  0  0  0  0  0
  -15.5372  -30.3001   23.7640 H   0  0  0  0  0  0
  -15.8690  -28.0848   22.7018 H   0  0  0  0  0  0
  -24.5837  -30.7150   25.7814 H   0  0  0  0  0  0
  -24.8937  -32.2971   26.4883 H   0  0  0  0  0  0
  -25.8007  -30.8948   27.0247 H   0  0  0  0  0  0
  -26.2871  -29.6762   24.1209 H   0  0  0  0  0  0
  -27.4010  -29.7277   25.4682 H   0  0  0  0  0  0
  -27.8738  -30.4312   23.9391 H   0  0  0  0  0  0
  -27.2657  -33.3654   26.2017 H   0  0  0  0  0  0
  -28.3823  -32.6875   25.0253 H   0  0  0  0  0  0
  -28.0715  -31.8480   26.5379 H   0  0  0  0  0  0
  -28.2569  -38.0068   24.7528 H   0  0  0  0  0  0
  -28.1057  -36.2605   24.6213 H   0  0  0  0  0  0
  -27.2298  -37.1328   25.8863 H   0  0  0  0  0  0
  -20.9393  -29.8674   21.6789 H   0  0  0  0  0  0
  -26.0107  -38.2819   24.1534 H   0  0  0  0  0  0
  -31.7110  -17.3149   19.8137 H   0  0  0  0  0  0
  -27.7567  -22.9529   17.2449 H   0  0  0  0  0  0
  -26.8332  -23.0389   18.7195 H   0  0  0  0  0  0
  -27.5668  -25.3054   17.8878 H   0  0  0  0  0  0
  -29.2241  -24.8378   18.0473 H   0  0  0  0  0  0
  -29.7928  -22.2821   18.4566 H   0  0  0  0  0  0
  -28.4750  -21.2209   18.9071 H   0  0  0  0  0  0
  -29.3530  -24.2739   21.7093 H   0  0  0  0  0  0
  -30.2915  -24.3190   20.2416 H   0  0  0  0  0  0
  -27.2794  -24.7544   20.4152 H   0  0  0  0  0  0
  -32.8583  -19.1921   19.2602 H   0  0  0  0  0  0
  -32.7342  -20.5044   20.3989 H   0  0  0  0  0  0
  -31.8785  -20.5929   18.8482 H   0  0  0  0  0  0
  -27.9825  -21.1287   22.5003 H   0  0  0  0  0  0
  -27.7713  -19.6715   23.4273 H   0  0  0  0  0  0
  -26.8554  -19.9130   21.9367 H   0  0  0  0  0  0
  -28.0436  -17.0206   23.4184 H   0  0  0  0  0  0
  -27.5688  -16.1555   21.9603 H   0  0  0  0  0  0
  -26.8127  -17.6662   22.3367 H   0  0  0  0  0  0
  -31.0373  -21.9647   20.7197 H   0  0  0  0  0  0
  -30.0960  -21.8817   22.1422 H   0  0  0  0  0  0
  -28.9692  -15.2887   21.3845 H   0  0  0  0  0  0
  -28.1772  -22.3819   20.8800 H   0  0  0  0  0  0
  1 25  1  0  0  0
  1 30  2  0  0  0
  1 86  1  0  0  0
  2  3  1  0  0  0
  2 25  1  0  0  0
  2 88  1  0  0  0
  2 89  1  0  0  0
  3  4  1  0  0  0
  3 90  1  0  0  0
  3 91  1  0  0  0
  4  5  1  0  0  0
  4 92  1  0  0  0
  4 93  1  0  0  0
  5  6  1  0  0  0
  5 26  1  0  0  0
  5 94  1  0  0  0
  6 25  1  0  0  0
  6 95  1  0  0  0
  6 96  1  0  0  0
  7  8  2  0  0  0
  7 26  1  0  0  0
  7 29  1  0  0  0
  8  9  1  0  0  0
  8 22  1  0  0  0
  9 10  1  0  0  0
  9 27  2  0  0  0
 10 11  2  0  0  0
 10 15  1  0  0  0
 11 12  1  0  0  0
 11 97  1  0  0  0
 12 13  2  0  0  0
 12 98  1  0  0  0
 13 14  1  0  0  0
 13 31  1  0  0  0
 14 15  2  0  0  0
 14 99  1  0  0  0
 15100  1  0  0  0
 16 17  2  0  0  0
 16 21  1  0  0  0
 16 31  1  0  0  0
 17 18  1  0  0  0
 17101  1  0  0  0
 18 19  2  0  0  0
 18102  1  0  0  0
 19 20  1  0  0  0
 19 24  1  0  0  0
 20 21  2  0  0  0
 20103  1  0  0  0
 21 23  1  0  0  0
 22 28  1  0  0  0
 22 32  2  0  0  0
 26 27  1  0  0  0
 28104  1  0  0  0
 28105  1  0  0  0
 29106  1  0  0  0
 29107  1  0  0  0
 33 34  1  0  0  0
 33 66  1  0  0  0
 33 70  2  0  0  0
 34 36  1  0  0  0
 34 59  1  0  0  0
 34108  1  0  0  0
 35 44  2  0  0  0
 35 45  1  0  0  0
 35 68  1  0  0  0
 36 56  1  0  0  0
 36109  1  0  0  0
 37 39  1  0  0  0
 37 47  1  0  0  0
 37 66  1  0  0  0
 37110  1  0  0  0
 38 43  2  0  0  0
 38 46  1  0  0  0
 38 47  1  0  0  0
 39 64  1  0  0  0
 39 67  2  0  0  0
 40 52  1  0  0  0
 40 53  2  0  0  0
 40 58  1  0  0  0
 41111  1  0  0  0
 41112  1  0  0  0
 41113  1  0  0  0
 41 48  1  0  0  0
 42 43  1  0  0  0
 42 66  1  0  0  0
 42114  1  0  0  0
 42115  1  0  0  0
 43 44  1  0  0  0
 44116  1  0  0  0
 45 46  2  0  0  0
 45117  1  0  0  0
 46118  1  0  0  0
 47119  1  0  0  0
 47120  1  0  0  0
 48 56  1  0  0  0
 48 65  1  0  0  0
 48121  1  0  0  0
 49 50  1  0  0  0
 49 53  1  0  0  0
 49 64  1  0  0  0
 49122  1  0  0  0
 50 51  1  0  0  0
 50123  1  0  0  0
 50124  1  0  0  0
 51 52  1  0  0  0
 51125  1  0  0  0
 51126  1  0  0  0
 52127  1  0  0  0
 52128  1  0  0  0
 53 54  1  0  0  0
 54 55  2  0  0  0
 54129  1  0  0  0
 55 57  1  0  0  0
 55130  1  0  0  0
 56 69  2  0  0  0
 57 58  2  0  0  0
 57131  1  0  0  0
 58132  1  0  0  0
 59 60  1  0  0  0
 59 61  1  0  0  0
 59 62  1  0  0  0
 60133  1  0  0  0
 60134  1  0  0  0
 60135  1  0  0  0
 61136  1  0  0  0
 61137  1  0  0  0
 61138  1  0  0  0
 62139  1  0  0  0
 62140  1  0  0  0
 62141  1  0  0  0
 63 65  1  0  0  0
 63142  1  0  0  0
 63143  1  0  0  0
 63144  1  0  0  0
 64145  1  0  0  0
 65146  1  0  0  0
 68 81  1  0  0  0
 71 72  2  0  0  0
 71 76  1  0  0  0
 71147  1  0  0  0
 72 74  1  0  0  0
 72 82  1  0  0  0
 73 74  2  0  0  0
 73 75  1  0  0  0
 73 83  1  0  0  0
 74 85  1  0  0  0
 75 76  2  0  0  0
 75 84  1  0  0  0
 76 86  1  0  0  0
 77 78  1  0  0  0
 77 79  1  0  0  0
 77148  1  0  0  0
 77149  1  0  0  0
 78 81  1  0  0  0
 78150  1  0  0  0
 78151  1  0  0  0
 79 87  1  0  0  0
 79152  1  0  0  0
 79153  1  0  0  0
 80 81  1  0  0  0
 80 87  1  0  0  0
 80154  1  0  0  0
 80155  1  0  0  0
 81156  1  0  0  0
 82157  1  0  0  0
 82158  1  0  0  0
 82159  1  0  0  0
 83160  1  0  0  0
 83161  1  0  0  0
 83162  1  0  0  0
 84163  1  0  0  0
 84164  1  0  0  0
 84165  1  0  0  0
 85166  1  0  0  0
 85167  1  0  0  0
 85 87  1  0  0  0
 86168  1  0  0  0
 87169  1  0  0  0
M  CHG  1  87   1
M  ISO  4   1 100  68 101  81 101  86 100
M  END
> <chiral flag>
0

> <version>
0

> <s_m_source_file>
/data/baiqing/PycharmProjects/Reinvent-master-3.2/result/LINK_invent/BTK/process_docking_weight1_custom_product_contain_oxygen_bond_distance_aromatic_linkinvent_7_9_3/rearranged_h_0038.sdf

> <i_m_source_file_index>
71

> <r_mmod_Potential_Energy-OPLS-2005>
-16.7444686889648

> <r_mmod_Stretch_Energy-OPLS-2005>
90.8226089477539

> <r_mmod_Bend_Energy-OPLS-2005>
150.422927856445

> <r_mmod_Torsional_Energy-OPLS-2005>
226.137329101562

> <r_mmod_Improper_Torsional_Energy-OPLS-2005>
4.02406644821167

> <r_mmod_Van_der_Waal_Energy-OPLS-2005>
159.769348144531

> <r_mmod_Electrostatic_Energy-OPLS-2005>
-273.334716796875

> <r_mmod_Solvation_Energy-OPLS-2005>
-417.593017578125

> <b_mmod_Minimization_Converged-OPLS-2005>
0

> <r_mmod_RMS_Derivative-OPLS-2005>
3.76779317855835

$$$$
71
                    3D
 Structure written by MMmdl.
156164  0  0  1  0            999 V2000
  -30.5971  -14.6966   20.4952 C   0  0  0  0  0  0
  -30.4497  -12.4297   19.4588 C   0  0  0  0  0  0
  -29.5137  -12.5136   18.2307 C   0  0  0  0  0  0
  -28.0384  -12.3411   18.6445 C   0  0  0  0  0  0
  -27.6559  -13.2186   19.8660 C   0  0  2  0  0  0
  -28.7025  -13.0843   20.9957 C   0  0  0  0  0  0
  -25.2578  -13.8171   20.5694 C   0  0  0  0  0  0
  -24.1841  -13.0438   20.9192 C   0  0  0  0  0  0
  -24.6415  -11.6911   20.8746 C   0  0  0  0  0  0
  -23.9081  -10.4295   21.0413 C   0  0  0  0  0  0
  -24.3627   -9.4206   21.9188 C   0  0  0  0  0  0
  -23.6297   -8.2243   22.0759 C   0  0  0  0  0  0
  -22.4277   -8.0291   21.3548 C   0  0  0  0  0  0
  -21.9922   -9.0264   20.4650 C   0  0  0  0  0  0
  -22.7255  -10.2140   20.3062 C   0  0  0  0  0  0
  -21.6849   -6.0747   22.5281 C   0  0  0  0  0  0
  -21.4010   -6.5646   23.8216 C   0  0  0  0  0  0
  -21.3657   -5.6797   24.9176 C   0  0  0  0  0  0
  -21.6043   -4.3060   24.7223 C   0  0  0  0  0  0
  -21.8817   -3.8158   23.4341 C   0  0  0  0  0  0
  -21.9191   -4.6978   22.3399 C   0  0  0  0  0  0
  -22.7861  -13.5234   21.1839 C   0  0  0  0  0  0
  -22.1659   -4.2166   21.0976 F   0  0  0  0  0  0
  -21.5625   -3.4541   25.7731 F   0  0  0  0  0  0
  -30.0138  -13.4518   20.4354 N   0  0  0  0  0  0
  -26.3015  -12.9357   20.3346 N   0  0  0  0  0  0
  -25.9347  -11.6507   20.5777 N   0  0  0  0  0  0
  -22.0489  -12.8241   22.0393 N   0  0  0  0  0  0
  -25.4278  -15.1888   20.4095 N   0  0  0  0  0  0
  -31.7437  -14.8793   20.0738 O   0  0  0  0  0  0
  -21.6633   -6.8890   21.4245 O   0  0  0  0  0  0
  -22.3546  -14.5540   20.6685 O   0  0  0  0  0  0
  -24.6317  -31.8567   23.1969 C   0  0  0  0  0  0
  -25.9151  -32.4759   23.8319 C   0  0  1  0  0  0
  -27.2327  -27.2827   20.1249 C   0  0  0  0  0  0
  -25.5958  -33.8559   24.2260 N   0  0  0  0  0  0
  -23.4266  -30.4783   21.5385 C   0  0  2  0  0  0
  -24.8758  -28.9222   20.1097 C   0  0  0  0  0  0
  -22.7493  -29.4625   22.4898 C   0  0  0  0  0  0
  -18.0301  -28.1390   22.8478 C   0  0  0  0  0  0
  -24.1498  -36.7278   23.2638 C   0  0  0  0  0  0
  -25.9692  -30.7771   21.3713 C   0  0  0  0  0  0
  -26.0446  -29.3988   20.7162 C   0  0  0  0  0  0
  -27.2236  -28.5910   20.7115 C   0  0  0  0  0  0
  -26.0419  -26.8651   19.4917 C   0  0  0  0  0  0
  -24.8788  -27.6626   19.4876 C   0  0  0  0  0  0
  -23.6455  -29.8081   20.1561 C   0  0  0  0  0  0
  -25.4119  -36.3073   24.0333 C   0  0  1  0  0  0
  -20.5902  -28.3715   23.1266 C   0  0  2  0  0  0
  -20.6802  -26.9433   22.5412 C   0  0  0  0  0  0
  -19.5782  -26.6389   21.5216 C   0  0  0  0  0  0
  -18.1953  -26.7930   22.1617 C   0  0  0  0  0  0
  -19.1549  -28.8862   23.2874 C   0  0  0  0  0  0
  -18.9481  -30.1450   23.8917 C   0  0  0  0  0  0
  -17.6482  -30.6597   24.0558 C   0  0  0  0  0  0
  -25.9061  -34.9441   23.5094 C   0  0  0  0  0  0
  -16.5373  -29.9099   23.6319 C   0  0  0  0  0  0
  -16.7285  -28.6508   23.0350 C   0  0  0  0  0  0
  -26.4524  -31.6566   25.0692 C   0  0  0  0  0  0
  -25.3738  -31.3693   26.1398 C   0  0  0  0  0  0
  -27.0382  -30.3007   24.6138 C   0  0  0  0  0  0
  -27.6101  -32.4275   25.7462 C   0  0  0  0  0  0
  -27.5579  -37.1790   24.8461 C   0  0  0  0  0  0
  -21.4200  -29.3070   22.3651 N   0  0  0  0  0  0
  -26.4291  -37.3774   23.9412 N   0  0  0  0  0  0
  -24.6946  -31.0551   22.0922 N   0  0  0  0  0  0
  -23.4200  -28.8166   23.2995 O   0  0  0  0  0  0
  -28.3547  -26.4297   20.1847 O   0  0  0  0  0  0
  -26.5619  -34.8917   22.4656 O   0  0  0  0  0  0
  -23.5477  -32.1368   23.7294 O   0  0  0  0  0  0
  -28.5352  -19.3178   21.3017 C   0  0  0  0  0  0
  -30.4941  -17.9708   19.8345 C   0  0  0  0  0  0
  -29.2429  -20.0994   20.3488 C   0  0  0  0  0  0
  -29.7353  -17.1871   20.7521 C   0  0  0  0  0  0
  -28.7631  -17.9193   21.4918 C   0  0  0  0  0  0
  -30.2498  -19.3763   19.6306 C   0  0  0  0  0  0
  -29.3871  -24.0198   20.6161 C   0  0  0  0  0  0
  -31.8986  -24.2875   21.1781 C   0  0  0  0  0  0
  -28.7937  -21.6014   20.0318 C   0  0  0  0  0  0
  -30.4677  -24.8491   21.3182 C   0  0  0  0  0  0
  -28.2211  -24.9408   20.0239 C   0  0  0  0  0  0
  -29.5812  -22.7126   20.6400 N   0  0  0  0  0  0
  -29.7969  -15.7201   20.9463 N   0  0  0  0  0  0
  -27.7814  -17.0808   22.6422 Cl  0  0  0  0  0  0
  -31.1857  -20.1892   18.4281 Cl  0  0  0  0  0  0
  -31.4866  -12.5751   19.1504 H   0  0  0  0  0  0
  -30.4096  -11.4362   19.9080 H   0  0  0  0  0  0
  -29.7864  -11.7521   17.4990 H   0  0  0  0  0  0
  -29.6436  -13.4755   17.7327 H   0  0  0  0  0  0
  -27.8864  -11.2883   18.8870 H   0  0  0  0  0  0
  -27.3806  -12.5566   17.8013 H   0  0  0  0  0  0
  -27.6704  -14.2522   19.5195 H   0  0  0  0  0  0
  -28.7292  -12.0601   21.3716 H   0  0  0  0  0  0
  -28.4364  -13.7051   21.8521 H   0  0  0  0  0  0
  -25.2771   -9.5676   22.4766 H   0  0  0  0  0  0
  -24.0003   -7.4635   22.7481 H   0  0  0  0  0  0
  -21.0850   -8.8792   19.8954 H   0  0  0  0  0  0
  -22.3722  -10.9685   19.6174 H   0  0  0  0  0  0
  -21.2001   -7.6152   23.9728 H   0  0  0  0  0  0
  -21.1477   -6.0522   25.9080 H   0  0  0  0  0  0
  -22.0599   -2.7624   23.2833 H   0  0  0  0  0  0
  -22.4084  -11.9899   22.4794 H   0  0  0  0  0  0
  -21.1116  -13.1294   22.2587 H   0  0  0  0  0  0
  -24.6678  -15.8462   20.5448 H   0  0  0  0  0  0
  -26.2862  -15.6343   20.1142 H   0  0  0  0  0  0
  -26.7215  -32.5431   23.1061 H   0  0  0  0  0  0
  -25.0133  -33.9693   25.0428 H   0  0  0  0  0  0
  -22.7231  -31.3001   21.3893 H   0  0  0  0  0  0
  -23.3774  -35.9596   23.3288 H   0  0  0  0  0  0
  -24.3601  -36.8919   22.2056 H   0  0  0  0  0  0
  -23.7236  -37.6473   23.6663 H   0  0  0  0  0  0
  -26.0989  -31.5367   20.5991 H   0  0  0  0  0  0
  -26.8512  -30.8348   21.9970 H   0  0  0  0  0  0
  -28.1202  -28.9502   21.1970 H   0  0  0  0  0  0
  -25.9912  -25.9032   19.0024 H   0  0  0  0  0  0
  -23.9839  -27.2934   19.0053 H   0  0  0  0  0  0
  -23.7700  -30.5828   19.3987 H   0  0  0  0  0  0
  -22.7640  -29.2422   19.8492 H   0  0  0  0  0  0
  -25.1301  -36.1921   25.0829 H   0  0  0  0  0  0
  -21.0004  -28.3315   24.1381 H   0  0  0  0  0  0
  -20.5738  -26.2324   23.3621 H   0  0  0  0  0  0
  -21.6665  -26.7478   22.1186 H   0  0  0  0  0  0
  -19.6959  -25.6293   21.1268 H   0  0  0  0  0  0
  -19.6734  -27.3180   20.6729 H   0  0  0  0  0  0
  -17.4229  -26.6690   21.4010 H   0  0  0  0  0  0
  -18.0343  -26.0062   22.9003 H   0  0  0  0  0  0
  -19.7955  -30.7246   24.2329 H   0  0  0  0  0  0
  -17.5041  -31.6284   24.5148 H   0  0  0  0  0  0
  -15.5376  -30.3023   23.7620 H   0  0  0  0  0  0
  -15.8678  -28.0832   22.7072 H   0  0  0  0  0  0
  -24.5954  -30.7008   25.7698 H   0  0  0  0  0  0
  -24.8875  -32.2848   26.4775 H   0  0  0  0  0  0
  -25.8048  -30.8899   27.0196 H   0  0  0  0  0  0
  -26.2954  -29.6725   24.1209 H   0  0  0  0  0  0
  -27.4165  -29.7293   25.4625 H   0  0  0  0  0  0
  -27.8775  -30.4324   23.9305 H   0  0  0  0  0  0
  -27.2764  -33.3606   26.2006 H   0  0  0  0  0  0
  -28.3929  -32.6773   25.0285 H   0  0  0  0  0  0
  -28.0733  -31.8393   26.5394 H   0  0  0  0  0  0
  -28.2579  -38.0102   24.7533 H   0  0  0  0  0  0
  -28.1102  -36.2639   24.6266 H   0  0  0  0  0  0
  -27.2302  -37.1402   25.8866 H   0  0  0  0  0  0
  -20.9387  -29.8786   21.6844 H   0  0  0  0  0  0
  -26.0178  -38.2853   24.1427 H   0  0  0  0  0  0
  -27.7525  -19.7889   21.8773 H   0  0  0  0  0  0
  -31.2520  -17.4879   19.2355 H   0  0  0  0  0  0
  -32.6165  -24.9362   21.6797 H   0  0  0  0  0  0
  -32.1952  -24.2203   20.1301 H   0  0  0  0  0  0
  -31.9970  -23.2948   21.6180 H   0  0  0  0  0  0
  -27.7464  -21.7064   20.3203 H   0  0  0  0  0  0
  -28.7953  -21.7174   18.9473 H   0  0  0  0  0  0
  -30.2002  -24.9293   22.3726 H   0  0  0  0  0  0
  -30.4879  -25.8665   20.9316 H   0  0  0  0  0  0
  -27.2913  -24.6133   20.4902 H   0  0  0  0  0  0
  -28.1313  -24.7209   18.9598 H   0  0  0  0  0  0
  -28.9831  -15.3677   21.4286 H   0  0  0  0  0  0
  1 25  1  0  0  0
  1 30  2  0  0  0
  1 83  1  0  0  0
  2  3  1  0  0  0
  2 25  1  0  0  0
  2 86  1  0  0  0
  2 87  1  0  0  0
  3  4  1  0  0  0
  3 88  1  0  0  0
  3 89  1  0  0  0
  4  5  1  0  0  0
  4 90  1  0  0  0
  4 91  1  0  0  0
  5  6  1  0  0  0
  5 26  1  0  0  0
  5 92  1  0  0  0
  6 25  1  0  0  0
  6 93  1  0  0  0
  6 94  1  0  0  0
  7  8  2  0  0  0
  7 26  1  0  0  0
  7 29  1  0  0  0
  8  9  1  0  0  0
  8 22  1  0  0  0
  9 10  1  0  0  0
  9 27  2  0  0  0
 10 11  2  0  0  0
 10 15  1  0  0  0
 11 12  1  0  0  0
 11 95  1  0  0  0
 12 13  2  0  0  0
 12 96  1  0  0  0
 13 14  1  0  0  0
 13 31  1  0  0  0
 14 15  2  0  0  0
 14 97  1  0  0  0
 15 98  1  0  0  0
 16 17  2  0  0  0
 16 21  1  0  0  0
 16 31  1  0  0  0
 17 18  1  0  0  0
 17 99  1  0  0  0
 18 19  2  0  0  0
 18100  1  0  0  0
 19 20  1  0  0  0
 19 24  1  0  0  0
 20 21  2  0  0  0
 20101  1  0  0  0
 21 23  1  0  0  0
 22 28  1  0  0  0
 22 32  2  0  0  0
 26 27  1  0  0  0
 28102  1  0  0  0
 28103  1  0  0  0
 29104  1  0  0  0
 29105  1  0  0  0
 33 34  1  0  0  0
 33 66  1  0  0  0
 33 70  2  0  0  0
 34 36  1  0  0  0
 34 59  1  0  0  0
 34106  1  0  0  0
 35 44  2  0  0  0
 35 45  1  0  0  0
 35 68  1  0  0  0
 36 56  1  0  0  0
 36107  1  0  0  0
 37 39  1  0  0  0
 37 47  1  0  0  0
 37 66  1  0  0  0
 37108  1  0  0  0
 38 43  2  0  0  0
 38 46  1  0  0  0
 38 47  1  0  0  0
 39 64  1  0  0  0
 39 67  2  0  0  0
 40 52  1  0  0  0
 40 53  2  0  0  0
 40 58  1  0  0  0
 41109  1  0  0  0
 41110  1  0  0  0
 41111  1  0  0  0
 41 48  1  0  0  0
 42 43  1  0  0  0
 42 66  1  0  0  0
 42112  1  0  0  0
 42113  1  0  0  0
 43 44  1  0  0  0
 44114  1  0  0  0
 45 46  2  0  0  0
 45115  1  0  0  0
 46116  1  0  0  0
 47117  1  0  0  0
 47118  1  0  0  0
 48 56  1  0  0  0
 48 65  1  0  0  0
 48119  1  0  0  0
 49 50  1  0  0  0
 49 53  1  0  0  0
 49 64  1  0  0  0
 49120  1  0  0  0
 50 51  1  0  0  0
 50121  1  0  0  0
 50122  1  0  0  0
 51 52  1  0  0  0
 51123  1  0  0  0
 51124  1  0  0  0
 52125  1  0  0  0
 52126  1  0  0  0
 53 54  1  0  0  0
 54 55  2  0  0  0
 54127  1  0  0  0
 55 57  1  0  0  0
 55128  1  0  0  0
 56 69  2  0  0  0
 57 58  2  0  0  0
 57129  1  0  0  0
 58130  1  0  0  0
 59 60  1  0  0  0
 59 61  1  0  0  0
 59 62  1  0  0  0
 60131  1  0  0  0
 60132  1  0  0  0
 60133  1  0  0  0
 61134  1  0  0  0
 61135  1  0  0  0
 61136  1  0  0  0
 62137  1  0  0  0
 62138  1  0  0  0
 62139  1  0  0  0
 63 65  1  0  0  0
 63140  1  0  0  0
 63141  1  0  0  0
 63142  1  0  0  0
 64143  1  0  0  0
 65144  1  0  0  0
 68 81  1  0  0  0
 71 73  2  0  0  0
 71 75  1  0  0  0
 71145  1  0  0  0
 72 74  1  0  0  0
 72 76  2  0  0  0
 72146  1  0  0  0
 73 76  1  0  0  0
 73 79  1  0  0  0
 74 75  2  0  0  0
 74 83  1  0  0  0
 75 84  1  0  0  0
 76 85  1  0  0  0
 77 80  1  0  0  0
 77 81  1  0  0  0
 77 82  2  0  0  0
 78 80  1  0  0  0
 78147  1  0  0  0
 78148  1  0  0  0
 78149  1  0  0  0
 79 82  1  0  0  0
 79150  1  0  0  0
 79151  1  0  0  0
 80152  1  0  0  0
 80153  1  0  0  0
 81154  1  0  0  0
 81155  1  0  0  0
 83156  1  0  0  0
M  ISO  4   1 100  68 101  81 101  83 100
M  END
> <chiral flag>
0

> <version>
0

> <s_m_source_file>
/data/baiqing/PycharmProjects/Reinvent-master-3.2/result/LINK_invent/BTK/process_docking_weight1_custom_product_contain_oxygen_bond_distance_aromatic_linkinvent_7_9_3/rearranged_h_0038.sdf

> <i_m_source_file_index>
72

> <r_mmod_Potential_Energy-OPLS-2005>
120.023803710938

> <r_mmod_Stretch_Energy-OPLS-2005>
108.671119689941

> <r_mmod_Bend_Energy-OPLS-2005>
185.777572631836

> <r_mmod_Torsional_Energy-OPLS-2005>
213.884323120117

> <r_mmod_Improper_Torsional_Energy-OPLS-2005>
3.79859113693237

> <r_mmod_Van_der_Waal_Energy-OPLS-2005>
136.15739440918

> <r_mmod_Electrostatic_Energy-OPLS-2005>
-386.097534179688

> <r_mmod_Solvation_Energy-OPLS-2005>
-208.193893432617

> <b_mmod_Minimization_Converged-OPLS-2005>
0

> <r_mmod_RMS_Derivative-OPLS-2005>
1.50668883323669

$$$$
72
                    3D
 Structure written by MMmdl.
163171  0  0  1  0            999 V2000
  -30.6731  -14.4998   20.4443 C   0  0  0  0  0  0
  -30.4208  -12.2903   19.4189 C   0  0  0  0  0  0
  -29.4855  -12.4426   18.1987 C   0  0  0  0  0  0
  -28.0091  -12.3168   18.6243 C   0  0  0  0  0  0
  -27.6504  -13.1997   19.8496 C   0  0  2  0  0  0
  -28.6969  -13.0365   20.9751 C   0  0  0  0  0  0
  -25.2575  -13.8125   20.5643 C   0  0  0  0  0  0
  -24.1828  -13.0430   20.9186 C   0  0  0  0  0  0
  -24.6366  -11.6889   20.8731 C   0  0  0  0  0  0
  -23.9021  -10.4287   21.0396 C   0  0  0  0  0  0
  -24.3581   -9.4206   21.9170 C   0  0  0  0  0  0
  -23.6279   -8.2231   22.0738 C   0  0  0  0  0  0
  -22.4254   -8.0280   21.3536 C   0  0  0  0  0  0
  -21.9877   -9.0249   20.4626 C   0  0  0  0  0  0
  -22.7192  -10.2138   20.3040 C   0  0  0  0  0  0
  -21.6856   -6.0715   22.5278 C   0  0  0  0  0  0
  -21.4007   -6.5616   23.8214 C   0  0  0  0  0  0
  -21.3671   -5.6768   24.9178 C   0  0  0  0  0  0
  -21.6059   -4.3035   24.7216 C   0  0  0  0  0  0
  -21.8834   -3.8124   23.4337 C   0  0  0  0  0  0
  -21.9189   -4.6938   22.3394 C   0  0  0  0  0  0
  -22.7864  -13.5253   21.1875 C   0  0  0  0  0  0
  -22.1664   -4.2114   21.0977 F   0  0  0  0  0  0
  -21.5636   -3.4526   25.7732 F   0  0  0  0  0  0
  -30.0242  -13.3074   20.4030 N   0  0  0  0  0  0
  -26.2982  -12.9275   20.3272 N   0  0  0  0  0  0
  -25.9285  -11.6452   20.5739 N   0  0  0  0  0  0
  -22.0479  -12.8278   22.0422 N   0  0  0  0  0  0
  -25.4268  -15.1843   20.4048 N   0  0  0  0  0  0
  -31.8791  -14.6076   20.2188 O   0  0  0  0  0  0
  -21.6644   -6.8859   21.4236 O   0  0  0  0  0  0
  -22.3563  -14.5548   20.6716 O   0  0  0  0  0  0
  -24.6161  -31.8678   23.2051 C   0  0  0  0  0  0
  -25.9070  -32.4800   23.8351 C   0  0  1  0  0  0
  -27.2196  -27.4167   20.1094 C   0  0  0  0  0  0
  -25.5939  -33.8601   24.2281 N   0  0  0  0  0  0
  -23.4026  -30.4919   21.5460 C   0  0  2  0  0  0
  -24.8455  -28.9491   20.1132 C   0  0  0  0  0  0
  -22.7399  -29.4691   22.4984 C   0  0  0  0  0  0
  -18.0291  -28.1362   22.8504 C   0  0  0  0  0  0
  -24.1518  -36.7310   23.2627 C   0  0  0  0  0  0
  -25.9321  -30.8278   21.3589 C   0  0  0  0  0  0
  -26.0068  -29.4595   20.7087 C   0  0  0  0  0  0
  -27.1996  -28.7018   20.7000 C   0  0  0  0  0  0
  -26.0460  -26.9207   19.5074 C   0  0  0  0  0  0
  -24.8603  -27.6802   19.5077 C   0  0  0  0  0  0
  -23.6081  -29.8175   20.1628 C   0  0  0  0  0  0
  -25.4127  -36.3098   24.0328 C   0  0  1  0  0  0
  -20.5867  -28.3656   23.1330 C   0  0  2  0  0  0
  -20.6776  -26.9397   22.5418 C   0  0  0  0  0  0
  -19.5744  -26.6382   21.5217 C   0  0  0  0  0  0
  -18.1936  -26.7915   22.1635 C   0  0  0  0  0  0
  -19.1532  -28.8827   23.2913 C   0  0  0  0  0  0
  -18.9460  -30.1433   23.8921 C   0  0  0  0  0  0
  -17.6461  -30.6574   24.0560 C   0  0  0  0  0  0
  -25.9067  -34.9469   23.5100 C   0  0  0  0  0  0
  -16.5347  -29.9073   23.6331 C   0  0  0  0  0  0
  -16.7279  -28.6478   23.0367 C   0  0  0  0  0  0
  -26.4490  -31.6563   25.0665 C   0  0  0  0  0  0
  -25.3741  -31.3685   26.1388 C   0  0  0  0  0  0
  -27.0245  -30.2984   24.6039 C   0  0  0  0  0  0
  -27.6097  -32.4232   25.7421 C   0  0  0  0  0  0
  -27.5574  -37.1800   24.8453 C   0  0  0  0  0  0
  -21.4126  -29.3035   22.3709 N   0  0  0  0  0  0
  -26.4289  -37.3788   23.9409 N   0  0  0  0  0  0
  -24.6694  -31.0766   22.0954 N   0  0  0  0  0  0
  -23.4159  -28.8255   23.3064 O   0  0  0  0  0  0
  -28.3702  -26.6626   20.0882 O   0  0  0  0  0  0
  -26.5607  -34.8942   22.4658 O   0  0  0  0  0  0
  -23.5375  -32.1431   23.7486 O   0  0  0  0  0  0
  -31.0375  -18.6266   18.5708 C   0  0  0  0  0  0
  -29.4899  -17.9765   20.7937 C   0  0  0  0  0  0
  -30.5124  -19.6633   19.3640 C   0  0  0  0  0  0
  -30.7965  -17.2701   18.8664 C   0  0  0  0  0  0
  -29.6520  -19.3459   20.4462 C   0  0  0  0  0  0
  -30.0908  -16.9241   20.0545 C   0  0  0  0  0  0
  -28.7345  -22.9051   21.0012 C   0  0  0  0  0  0
  -30.9123  -21.0888   19.0294 C   0  0  0  0  0  0
  -31.2678  -16.2546   17.8323 C   0  0  0  0  0  0
  -27.3887  -21.3811   19.5879 C   0  0  0  0  0  0
  -28.9327  -20.4210   21.2972 C   0  0  0  0  0  0
  -28.1316  -24.1403   20.2688 C   0  0  0  0  0  0
  -28.3909  -25.5165   20.9616 C   0  0  0  0  0  0
  -29.8559  -15.5751   20.4998 N   0  0  0  0  0  0
  -28.3991  -21.6376   20.6191 N   0  0  0  0  0  0
  -29.5336  -23.1026   21.9199 O   0  0  0  0  0  0
  -31.4617  -12.3872   19.1049 H   0  0  0  0  0  0
  -30.3276  -11.2903   19.8471 H   0  0  0  0  0  0
  -29.7216  -11.6793   17.4554 H   0  0  0  0  0  0
  -29.6495  -13.4015   17.7055 H   0  0  0  0  0  0
  -27.8384  -11.2665   18.8712 H   0  0  0  0  0  0
  -27.3478  -12.5404   17.7861 H   0  0  0  0  0  0
  -27.6733  -14.2327   19.5027 H   0  0  0  0  0  0
  -28.6709  -12.0251   21.3839 H   0  0  0  0  0  0
  -28.4750  -13.7044   21.8106 H   0  0  0  0  0  0
  -25.2726   -9.5688   22.4743 H   0  0  0  0  0  0
  -23.9992   -7.4614   22.7461 H   0  0  0  0  0  0
  -21.0796   -8.8765   19.8951 H   0  0  0  0  0  0
  -22.3633  -10.9680   19.6153 H   0  0  0  0  0  0
  -21.2002   -7.6127   23.9706 H   0  0  0  0  0  0
  -21.1489   -6.0495   25.9085 H   0  0  0  0  0  0
  -22.0598   -2.7583   23.2841 H   0  0  0  0  0  0
  -22.4083  -11.9948   22.4833 H   0  0  0  0  0  0
  -21.1105  -13.1330   22.2612 H   0  0  0  0  0  0
  -24.6468  -15.8271   20.4963 H   0  0  0  0  0  0
  -26.2698  -15.6310   20.0675 H   0  0  0  0  0  0
  -26.7148  -32.5498   23.1123 H   0  0  0  0  0  0
  -25.0105  -33.9760   25.0440 H   0  0  0  0  0  0
  -22.6949  -31.3103   21.4057 H   0  0  0  0  0  0
  -23.3772  -35.9650   23.3271 H   0  0  0  0  0  0
  -24.3637  -36.8918   22.2045 H   0  0  0  0  0  0
  -23.7280  -37.6525   23.6636 H   0  0  0  0  0  0
  -26.0488  -31.5908   20.5885 H   0  0  0  0  0  0
  -26.8202  -30.8773   21.9778 H   0  0  0  0  0  0
  -28.0986  -29.0914   21.1570 H   0  0  0  0  0  0
  -26.0506  -25.9526   19.0279 H   0  0  0  0  0  0
  -23.9691  -27.2848   19.0395 H   0  0  0  0  0  0
  -23.7164  -30.5861   19.3965 H   0  0  0  0  0  0
  -22.7340  -29.2325   19.8690 H   0  0  0  0  0  0
  -25.1319  -36.1932   25.0814 H   0  0  0  0  0  0
  -20.9988  -28.3210   24.1453 H   0  0  0  0  0  0
  -20.5727  -26.2251   23.3594 H   0  0  0  0  0  0
  -21.6652  -26.7462   22.1194 H   0  0  0  0  0  0
  -19.6907  -25.6307   21.1218 H   0  0  0  0  0  0
  -19.6687  -27.3231   20.6782 H   0  0  0  0  0  0
  -17.4215  -26.6686   21.4021 H   0  0  0  0  0  0
  -18.0324  -26.0033   22.9017 H   0  0  0  0  0  0
  -19.7929  -30.7226   24.2306 H   0  0  0  0  0  0
  -17.5018  -31.6273   24.5128 H   0  0  0  0  0  0
  -15.5353  -30.2982   23.7624 H   0  0  0  0  0  0
  -15.8674  -28.0788   22.7092 H   0  0  0  0  0  0
  -24.6039  -30.6878   25.7728 H   0  0  0  0  0  0
  -24.8798  -32.2831   26.4674 H   0  0  0  0  0  0
  -25.8099  -30.9005   27.0221 H   0  0  0  0  0  0
  -26.2733  -29.6796   24.1098 H   0  0  0  0  0  0
  -27.3981  -29.7174   25.4487 H   0  0  0  0  0  0
  -27.8631  -30.4251   23.9169 H   0  0  0  0  0  0
  -27.2779  -33.3561   26.1985 H   0  0  0  0  0  0
  -28.3925  -32.6690   25.0227 H   0  0  0  0  0  0
  -28.0731  -31.8314   26.5332 H   0  0  0  0  0  0
  -28.2593  -38.0097   24.7532 H   0  0  0  0  0  0
  -28.1060  -36.2641   24.6236 H   0  0  0  0  0  0
  -27.2287  -37.1381   25.8847 H   0  0  0  0  0  0
  -20.9263  -29.8700   21.6901 H   0  0  0  0  0  0
  -26.0163  -38.2856   24.1426 H   0  0  0  0  0  0
  -31.6338  -18.8796   17.7028 H   0  0  0  0  0  0
  -28.8893  -17.7238   21.6577 H   0  0  0  0  0  0
  -31.7849  -21.1116   18.3758 H   0  0  0  0  0  0
  -31.1803  -21.6309   19.9360 H   0  0  0  0  0  0
  -30.1101  -21.6184   18.5177 H   0  0  0  0  0  0
  -31.4024  -16.7180   16.8552 H   0  0  0  0  0  0
  -30.5268  -15.4688   17.7009 H   0  0  0  0  0  0
  -32.2224  -15.8092   18.1036 H   0  0  0  0  0  0
  -26.4052  -21.7069   19.9259 H   0  0  0  0  0  0
  -27.3120  -20.3218   19.3390 H   0  0  0  0  0  0
  -27.6164  -21.9100   18.6609 H   0  0  0  0  0  0
  -29.6064  -20.6724   22.1158 H   0  0  0  0  0  0
  -28.0803  -19.9432   21.7830 H   0  0  0  0  0  0
  -27.0570  -24.0053   20.1430 H   0  0  0  0  0  0
  -28.5637  -24.1570   19.2689 H   0  0  0  0  0  0
  -29.3827  -25.5334   21.4155 H   0  0  0  0  0  0
  -27.6934  -25.6483   21.7942 H   0  0  0  0  0  0
  -28.9259  -15.3740   20.8318 H   0  0  0  0  0  0
  1 25  1  0  0  0
  1 30  2  0  0  0
  1 84  1  0  0  0
  2  3  1  0  0  0
  2 25  1  0  0  0
  2 87  1  0  0  0
  2 88  1  0  0  0
  3  4  1  0  0  0
  3 89  1  0  0  0
  3 90  1  0  0  0
  4  5  1  0  0  0
  4 91  1  0  0  0
  4 92  1  0  0  0
  5  6  1  0  0  0
  5 26  1  0  0  0
  5 93  1  0  0  0
  6 25  1  0  0  0
  6 94  1  0  0  0
  6 95  1  0  0  0
  7  8  2  0  0  0
  7 26  1  0  0  0
  7 29  1  0  0  0
  8  9  1  0  0  0
  8 22  1  0  0  0
  9 10  1  0  0  0
  9 27  2  0  0  0
 10 11  2  0  0  0
 10 15  1  0  0  0
 11 12  1  0  0  0
 11 96  1  0  0  0
 12 13  2  0  0  0
 12 97  1  0  0  0
 13 14  1  0  0  0
 13 31  1  0  0  0
 14 15  2  0  0  0
 14 98  1  0  0  0
 15 99  1  0  0  0
 16 17  2  0  0  0
 16 21  1  0  0  0
 16 31  1  0  0  0
 17 18  1  0  0  0
 17100  1  0  0  0
 18 19  2  0  0  0
 18101  1  0  0  0
 19 20  1  0  0  0
 19 24  1  0  0  0
 20 21  2  0  0  0
 20102  1  0  0  0
 21 23  1  0  0  0
 22 28  1  0  0  0
 22 32  2  0  0  0
 26 27  1  0  0  0
 28103  1  0  0  0
 28104  1  0  0  0
 29105  1  0  0  0
 29106  1  0  0  0
 33 34  1  0  0  0
 33 66  1  0  0  0
 33 70  2  0  0  0
 34 36  1  0  0  0
 34 59  1  0  0  0
 34107  1  0  0  0
 35 44  2  0  0  0
 35 45  1  0  0  0
 35 68  1  0  0  0
 36 56  1  0  0  0
 36108  1  0  0  0
 37 39  1  0  0  0
 37 47  1  0  0  0
 37 66  1  0  0  0
 37109  1  0  0  0
 38 43  2  0  0  0
 38 46  1  0  0  0
 38 47  1  0  0  0
 39 64  1  0  0  0
 39 67  2  0  0  0
 40 52  1  0  0  0
 40 53  2  0  0  0
 40 58  1  0  0  0
 41110  1  0  0  0
 41111  1  0  0  0
 41112  1  0  0  0
 41 48  1  0  0  0
 42 43  1  0  0  0
 42 66  1  0  0  0
 42113  1  0  0  0
 42114  1  0  0  0
 43 44  1  0  0  0
 44115  1  0  0  0
 45 46  2  0  0  0
 45116  1  0  0  0
 46117  1  0  0  0
 47118  1  0  0  0
 47119  1  0  0  0
 48 56  1  0  0  0
 48 65  1  0  0  0
 48120  1  0  0  0
 49 50  1  0  0  0
 49 53  1  0  0  0
 49 64  1  0  0  0
 49121  1  0  0  0
 50 51  1  0  0  0
 50122  1  0  0  0
 50123  1  0  0  0
 51 52  1  0  0  0
 51124  1  0  0  0
 51125  1  0  0  0
 52126  1  0  0  0
 52127  1  0  0  0
 53 54  1  0  0  0
 54 55  2  0  0  0
 54128  1  0  0  0
 55 57  1  0  0  0
 55129  1  0  0  0
 56 69  2  0  0  0
 57 58  2  0  0  0
 57130  1  0  0  0
 58131  1  0  0  0
 59 60  1  0  0  0
 59 61  1  0  0  0
 59 62  1  0  0  0
 60132  1  0  0  0
 60133  1  0  0  0
 60134  1  0  0  0
 61135  1  0  0  0
 61136  1  0  0  0
 61137  1  0  0  0
 62138  1  0  0  0
 62139  1  0  0  0
 62140  1  0  0  0
 63 65  1  0  0  0
 63141  1  0  0  0
 63142  1  0  0  0
 63143  1  0  0  0
 64144  1  0  0  0
 65145  1  0  0  0
 68 83  1  0  0  0
 71 73  2  0  0  0
 71 74  1  0  0  0
 71146  1  0  0  0
 72 75  2  0  0  0
 72 76  1  0  0  0
 72147  1  0  0  0
 73 75  1  0  0  0
 73 78  1  0  0  0
 74 76  2  0  0  0
 74 79  1  0  0  0
 75 81  1  0  0  0
 76 84  1  0  0  0
 77 82  1  0  0  0
 77 85  1  0  0  0
 77 86  2  0  0  0
 78148  1  0  0  0
 78149  1  0  0  0
 78150  1  0  0  0
 79151  1  0  0  0
 79152  1  0  0  0
 79153  1  0  0  0
 80 85  1  0  0  0
 80154  1  0  0  0
 80155  1  0  0  0
 80156  1  0  0  0
 81 85  1  0  0  0
 81157  1  0  0  0
 81158  1  0  0  0
 82 83  1  0  0  0
 82159  1  0  0  0
 82160  1  0  0  0
 83161  1  0  0  0
 83162  1  0  0  0
 84163  1  0  0  0
M  ISO  4   1 100  68 101  83 101  84 100
M  END
> <chiral flag>
0

> <version>
0

> <s_m_source_file>
/data/baiqing/PycharmProjects/Reinvent-master-3.2/result/LINK_invent/BTK/process_docking_weight1_custom_product_contain_oxygen_bond_distance_aromatic_linkinvent_7_9_3/rearranged_h_0038.sdf

> <i_m_source_file_index>
73

> <r_mmod_Potential_Energy-OPLS-2005>
-24.5736274719238

> <r_mmod_Stretch_Energy-OPLS-2005>
46.7059059143066

> <r_mmod_Bend_Energy-OPLS-2005>
108.382545471191

> <r_mmod_Torsional_Energy-OPLS-2005>
274.983367919922

> <r_mmod_Improper_Torsional_Energy-OPLS-2005>
6.51374244689941

> <r_mmod_Van_der_Waal_Energy-OPLS-2005>
160.008255004883

> <r_mmod_Electrostatic_Energy-OPLS-2005>
-420.371551513672

> <r_mmod_Solvation_Energy-OPLS-2005>
-225.560989379883

> <b_mmod_Minimization_Converged-OPLS-2005>
0

> <r_mmod_RMS_Derivative-OPLS-2005>
4.16646289825439

$$$$
73
                    3D
 Structure written by MMmdl.
172181  0  0  1  0            999 V2000
  -30.5856  -14.7660   20.4567 C   0  0  0  0  0  0
  -30.4403  -12.4692   19.4606 C   0  0  0  0  0  0
  -29.5126  -12.5121   18.2264 C   0  0  0  0  0  0
  -28.0375  -12.3364   18.6418 C   0  0  0  0  0  0
  -27.6442  -13.2278   19.8510 C   0  0  2  0  0  0
  -28.6931  -13.1586   20.9810 C   0  0  0  0  0  0
  -25.2565  -13.8180   20.5723 C   0  0  0  0  0  0
  -24.1838  -13.0436   20.9210 C   0  0  0  0  0  0
  -24.6413  -11.6912   20.8748 C   0  0  0  0  0  0
  -23.9086  -10.4296   21.0429 C   0  0  0  0  0  0
  -24.3630   -9.4213   21.9205 C   0  0  0  0  0  0
  -23.6311   -8.2245   22.0767 C   0  0  0  0  0  0
  -22.4299   -8.0290   21.3559 C   0  0  0  0  0  0
  -21.9939   -9.0265   20.4659 C   0  0  0  0  0  0
  -22.7259  -10.2143   20.3080 C   0  0  0  0  0  0
  -21.6870   -6.0733   22.5270 C   0  0  0  0  0  0
  -21.4016   -6.5633   23.8196 C   0  0  0  0  0  0
  -21.3661   -5.6786   24.9164 C   0  0  0  0  0  0
  -21.6043   -4.3055   24.7218 C   0  0  0  0  0  0
  -21.8828   -3.8146   23.4345 C   0  0  0  0  0  0
  -21.9205   -4.6963   22.3398 C   0  0  0  0  0  0
  -22.7872  -13.5245   21.1843 C   0  0  0  0  0  0
  -22.1686   -4.2142   21.0984 F   0  0  0  0  0  0
  -21.5629   -3.4540   25.7743 F   0  0  0  0  0  0
  -29.9816  -13.5297   20.3873 N   0  0  0  0  0  0
  -26.2972  -12.9356   20.3301 N   0  0  0  0  0  0
  -25.9337  -11.6507   20.5747 N   0  0  0  0  0  0
  -22.0495  -12.8240   22.0382 N   0  0  0  0  0  0
  -25.4266  -15.1898   20.4125 N   0  0  0  0  0  0
  -31.7751  -14.8742   20.1431 O   0  0  0  0  0  0
  -21.6663   -6.8891   21.4242 O   0  0  0  0  0  0
  -22.3584  -14.5547   20.6674 O   0  0  0  0  0  0
  -24.6325  -31.8543   23.1934 C   0  0  0  0  0  0
  -25.9147  -32.4758   23.8305 C   0  0  1  0  0  0
  -27.2332  -27.2456   20.1605 C   0  0  0  0  0  0
  -25.5925  -33.8558   24.2228 N   0  0  0  0  0  0
  -23.4308  -30.4686   21.5382 C   0  0  2  0  0  0
  -24.8823  -28.8956   20.1278 C   0  0  0  0  0  0
  -22.7491  -29.4599   22.4937 C   0  0  0  0  0  0
  -18.0285  -28.1380   22.8484 C   0  0  0  0  0  0
  -24.1490  -36.7273   23.2639 C   0  0  0  0  0  0
  -25.9751  -30.7605   21.3767 C   0  0  0  0  0  0
  -26.0509  -29.3754   20.7328 C   0  0  0  0  0  0
  -27.2320  -28.5650   20.7302 C   0  0  0  0  0  0
  -26.0397  -26.8190   19.5464 C   0  0  0  0  0  0
  -24.8809  -27.6259   19.5236 C   0  0  0  0  0  0
  -23.6521  -29.7840   20.1626 C   0  0  0  0  0  0
  -25.4127  -36.3077   24.0319 C   0  0  1  0  0  0
  -20.5879  -28.3703   23.1271 C   0  0  2  0  0  0
  -20.6773  -26.9420   22.5406 C   0  0  0  0  0  0
  -19.5753  -26.6384   21.5209 C   0  0  0  0  0  0
  -18.1930  -26.7926   22.1611 C   0  0  0  0  0  0
  -19.1534  -28.8861   23.2868 C   0  0  0  0  0  0
  -18.9462  -30.1464   23.8886 C   0  0  0  0  0  0
  -17.6462  -30.6589   24.0559 C   0  0  0  0  0  0
  -25.9067  -34.9445   23.5081 C   0  0  0  0  0  0
  -16.5354  -29.9078   23.6337 C   0  0  0  0  0  0
  -16.7272  -28.6489   23.0368 C   0  0  0  0  0  0
  -26.4492  -31.6591   25.0713 C   0  0  0  0  0  0
  -25.3692  -31.3750   26.1414 C   0  0  0  0  0  0
  -27.0336  -30.2995   24.6243 C   0  0  0  0  0  0
  -27.6023  -32.4348   25.7505 C   0  0  0  0  0  0
  -27.5581  -37.1796   24.8460 C   0  0  0  0  0  0
  -21.4198  -29.3043   22.3663 N   0  0  0  0  0  0
  -26.4300  -37.3784   23.9395 N   0  0  0  0  0  0
  -24.6984  -31.0474   22.0931 N   0  0  0  0  0  0
  -23.4180  -28.8173   23.3073 O   0  0  0  0  0  0
  -28.3707  -26.4163   20.0712 O   0  0  0  0  0  0
  -26.5654  -34.8929   22.4662 O   0  0  0  0  0  0
  -23.5461  -32.1379   23.7211 O   0  0  0  0  0  0
  -29.2770  -18.4476   20.5425 C   0  0  0  0  0  0
  -29.3964  -19.8233   21.0285 C   0  0  0  0  0  0
  -30.3322  -20.0088   22.0837 C   0  0  0  0  0  0
  -31.2005  -18.9585   22.4861 C   0  0  0  0  0  0
  -31.0115  -17.6187   22.0465 C   0  0  0  0  0  0
  -30.0510  -17.3083   21.0393 C   0  0  0  0  0  0
  -30.0250  -24.9053   20.9428 C   0  0  0  0  0  0
  -30.6849  -24.1487   19.7791 C   0  0  0  0  0  0
  -27.9611  -23.6659   20.0910 C   0  0  0  0  0  0
  -28.5093  -25.0605   20.7224 C   0  0  2  0  0  0
  -30.3263  -22.6429   19.7936 C   0  0  2  0  0  0
  -30.3590  -21.2999   22.9081 C   0  0  0  0  0  0
  -32.3450  -19.2872   23.4468 C   0  0  0  0  0  0
  -31.7908  -16.5195   22.7740 C   0  0  0  0  0  0
  -30.8196  -21.9544   18.5099 C   0  0  0  0  0  0
  -28.4189  -21.0399   20.6090 C   0  0  0  0  0  0
  -29.7747  -15.8864   20.6572 N   0  0  0  0  0  0
  -28.8661  -22.3973   19.9866 N   0  3  1  0  0  0
  -31.4789  -12.6089   19.1552 H   0  0  0  0  0  0
  -30.4018  -11.4931   19.9468 H   0  0  0  0  0  0
  -29.7962  -11.7379   17.5122 H   0  0  0  0  0  0
  -29.6379  -13.4653   17.7078 H   0  0  0  0  0  0
  -27.8920  -11.2858   18.8960 H   0  0  0  0  0  0
  -27.3810  -12.5409   17.7966 H   0  0  0  0  0  0
  -27.6369  -14.2489   19.4711 H   0  0  0  0  0  0
  -28.7448  -12.1540   21.4062 H   0  0  0  0  0  0
  -28.4324  -13.8279   21.8035 H   0  0  0  0  0  0
  -25.2771   -9.5682   22.4783 H   0  0  0  0  0  0
  -24.0016   -7.4637   22.7480 H   0  0  0  0  0  0
  -21.0875   -8.8786   19.8961 H   0  0  0  0  0  0
  -22.3726  -10.9692   19.6191 H   0  0  0  0  0  0
  -21.2006   -7.6147   23.9695 H   0  0  0  0  0  0
  -21.1479   -6.0528   25.9063 H   0  0  0  0  0  0
  -22.0610   -2.7606   23.2846 H   0  0  0  0  0  0
  -22.4112  -11.9909   22.4789 H   0  0  0  0  0  0
  -21.1106  -13.1254   22.2527 H   0  0  0  0  0  0
  -24.6589  -15.8429   20.5282 H   0  0  0  0  0  0
  -26.2644  -15.6262   20.0494 H   0  0  0  0  0  0
  -26.7207  -32.5403   23.1033 H   0  0  0  0  0  0
  -25.0031  -33.9704   25.0344 H   0  0  0  0  0  0
  -22.7289  -31.2899   21.3806 H   0  0  0  0  0  0
  -23.3775  -35.9582   23.3306 H   0  0  0  0  0  0
  -24.3562  -36.8913   22.2051 H   0  0  0  0  0  0
  -23.7218  -37.6458   23.6675 H   0  0  0  0  0  0
  -26.1147  -31.5154   20.6015 H   0  0  0  0  0  0
  -26.8500  -30.8149   22.0134 H   0  0  0  0  0  0
  -28.1365  -28.9424   21.1896 H   0  0  0  0  0  0
  -26.0073  -25.8480   19.0727 H   0  0  0  0  0  0
  -23.9863  -27.2523   19.0467 H   0  0  0  0  0  0
  -23.7720  -30.5474   19.3937 H   0  0  0  0  0  0
  -22.7735  -29.2078   19.8686 H   0  0  0  0  0  0
  -25.1314  -36.1921   25.0812 H   0  0  0  0  0  0
  -20.9958  -28.3284   24.1402 H   0  0  0  0  0  0
  -20.5679  -26.2311   23.3617 H   0  0  0  0  0  0
  -21.6648  -26.7448   22.1214 H   0  0  0  0  0  0
  -19.6926  -25.6296   21.1254 H   0  0  0  0  0  0
  -19.6703  -27.3184   20.6735 H   0  0  0  0  0  0
  -17.4212  -26.6695   21.4004 H   0  0  0  0  0  0
  -18.0315  -26.0055   22.8988 H   0  0  0  0  0  0
  -19.7941  -30.7276   24.2249 H   0  0  0  0  0  0
  -17.5018  -31.6274   24.5151 H   0  0  0  0  0  0
  -15.5354  -30.2976   23.7665 H   0  0  0  0  0  0
  -15.8673  -28.0803   22.7095 H   0  0  0  0  0  0
  -24.5870  -30.7117   25.7710 H   0  0  0  0  0  0
  -24.8888  -32.2922   26.4824 H   0  0  0  0  0  0
  -25.7990  -30.8916   27.0195 H   0  0  0  0  0  0
  -26.2935  -29.6749   24.1235 H   0  0  0  0  0  0
  -27.3923  -29.7278   25.4808 H   0  0  0  0  0  0
  -27.8855  -30.4225   23.9557 H   0  0  0  0  0  0
  -27.2598  -33.3627   26.2094 H   0  0  0  0  0  0
  -28.3832  -32.6954   25.0353 H   0  0  0  0  0  0
  -28.0696  -31.8481   26.5420 H   0  0  0  0  0  0
  -28.2602  -38.0090   24.7519 H   0  0  0  0  0  0
  -28.1080  -36.2621   24.6287 H   0  0  0  0  0  0
  -27.2291  -37.1447   25.8864 H   0  0  0  0  0  0
  -20.9406  -29.8713   21.6816 H   0  0  0  0  0  0
  -26.0181  -38.2861   24.1407 H   0  0  0  0  0  0
  -28.5083  -18.2416   19.8095 H   0  0  0  0  0  0
  -30.4896  -25.8819   21.0759 H   0  0  0  0  0  0
  -30.2075  -24.3599   21.8692 H   0  0  0  0  0  0
  -31.7691  -24.2560   19.8430 H   0  0  0  0  0  0
  -30.3935  -24.6052   18.8312 H   0  0  0  0  0  0
  -27.6725  -23.8950   19.0655 H   0  0  0  0  0  0
  -27.0278  -23.3953   20.5842 H   0  0  0  0  0  0
  -28.0613  -25.1690   21.7122 H   0  0  0  0  0  0
  -30.8832  -22.2031   20.6126 H   0  0  0  0  0  0
  -29.5694  -22.0080   22.6718 H   0  0  0  0  0  0
  -31.3051  -21.8269   22.8014 H   0  0  0  0  0  0
  -30.2334  -21.0588   23.9652 H   0  0  0  0  0  0
  -33.1889  -18.6070   23.3365 H   0  0  0  0  0  0
  -32.0118  -19.2753   24.4849 H   0  0  0  0  0  0
  -32.7638  -20.2688   23.2308 H   0  0  0  0  0  0
  -32.7591  -16.3532   22.2993 H   0  0  0  0  0  0
  -31.2560  -15.5763   22.8320 H   0  0  0  0  0  0
  -31.9572  -16.7752   23.8186 H   0  0  0  0  0  0
  -30.3066  -22.3230   17.6210 H   0  0  0  0  0  0
  -30.6801  -20.8727   18.5555 H   0  0  0  0  0  0
  -31.8837  -22.1383   18.3593 H   0  0  0  0  0  0
  -27.8226  -21.2673   21.4930 H   0  0  0  0  0  0
  -27.6931  -20.6277   19.9087 H   0  0  0  0  0  0
  -28.7933  -15.6605   20.6135 H   0  0  0  0  0  0
  -28.6418  -22.1574   19.0332 H   0  0  0  0  0  0
  1 25  1  0  0  0
  1 30  2  0  0  0
  1 87  1  0  0  0
  2  3  1  0  0  0
  2 25  1  0  0  0
  2 89  1  0  0  0
  2 90  1  0  0  0
  3  4  1  0  0  0
  3 91  1  0  0  0
  3 92  1  0  0  0
  4  5  1  0  0  0
  4 93  1  0  0  0
  4 94  1  0  0  0
  5  6  1  0  0  0
  5 26  1  0  0  0
  5 95  1  0  0  0
  6 25  1  0  0  0
  6 96  1  0  0  0
  6 97  1  0  0  0
  7  8  2  0  0  0
  7 26  1  0  0  0
  7 29  1  0  0  0
  8  9  1  0  0  0
  8 22  1  0  0  0
  9 10  1  0  0  0
  9 27  2  0  0  0
 10 11  2  0  0  0
 10 15  1  0  0  0
 11 12  1  0  0  0
 11 98  1  0  0  0
 12 13  2  0  0  0
 12 99  1  0  0  0
 13 14  1  0  0  0
 13 31  1  0  0  0
 14 15  2  0  0  0
 14100  1  0  0  0
 15101  1  0  0  0
 16 17  2  0  0  0
 16 21  1  0  0  0
 16 31  1  0  0  0
 17 18  1  0  0  0
 17102  1  0  0  0
 18 19  2  0  0  0
 18103  1  0  0  0
 19 20  1  0  0  0
 19 24  1  0  0  0
 20 21  2  0  0  0
 20104  1  0  0  0
 21 23  1  0  0  0
 22 28  1  0  0  0
 22 32  2  0  0  0
 26 27  1  0  0  0
 28105  1  0  0  0
 28106  1  0  0  0
 29107  1  0  0  0
 29108  1  0  0  0
 33 34  1  0  0  0
 33 66  1  0  0  0
 33 70  2  0  0  0
 34 36  1  0  0  0
 34 59  1  0  0  0
 34109  1  0  0  0
 35 44  2  0  0  0
 35 45  1  0  0  0
 35 68  1  0  0  0
 36 56  1  0  0  0
 36110  1  0  0  0
 37 39  1  0  0  0
 37 47  1  0  0  0
 37 66  1  0  0  0
 37111  1  0  0  0
 38 43  2  0  0  0
 38 46  1  0  0  0
 38 47  1  0  0  0
 39 64  1  0  0  0
 39 67  2  0  0  0
 40 52  1  0  0  0
 40 53  2  0  0  0
 40 58  1  0  0  0
 41112  1  0  0  0
 41113  1  0  0  0
 41114  1  0  0  0
 41 48  1  0  0  0
 42 43  1  0  0  0
 42 66  1  0  0  0
 42115  1  0  0  0
 42116  1  0  0  0
 43 44  1  0  0  0
 44117  1  0  0  0
 45 46  2  0  0  0
 45118  1  0  0  0
 46119  1  0  0  0
 47120  1  0  0  0
 47121  1  0  0  0
 48 56  1  0  0  0
 48 65  1  0  0  0
 48122  1  0  0  0
 49 50  1  0  0  0
 49 53  1  0  0  0
 49 64  1  0  0  0
 49123  1  0  0  0
 50 51  1  0  0  0
 50124  1  0  0  0
 50125  1  0  0  0
 51 52  1  0  0  0
 51126  1  0  0  0
 51127  1  0  0  0
 52128  1  0  0  0
 52129  1  0  0  0
 53 54  1  0  0  0
 54 55  2  0  0  0
 54130  1  0  0  0
 55 57  1  0  0  0
 55131  1  0  0  0
 56 69  2  0  0  0
 57 58  2  0  0  0
 57132  1  0  0  0
 58133  1  0  0  0
 59 60  1  0  0  0
 59 61  1  0  0  0
 59 62  1  0  0  0
 60134  1  0  0  0
 60135  1  0  0  0
 60136  1  0  0  0
 61137  1  0  0  0
 61138  1  0  0  0
 61139  1  0  0  0
 62140  1  0  0  0
 62141  1  0  0  0
 62142  1  0  0  0
 63 65  1  0  0  0
 63143  1  0  0  0
 63144  1  0  0  0
 63145  1  0  0  0
 64146  1  0  0  0
 65147  1  0  0  0
 68 80  1  0  0  0
 71 72  2  0  0  0
 71 76  1  0  0  0
 71148  1  0  0  0
 72 73  1  0  0  0
 72 86  1  0  0  0
 73 74  2  0  0  0
 73 82  1  0  0  0
 74 75  1  0  0  0
 74 83  1  0  0  0
 75 76  2  0  0  0
 75 84  1  0  0  0
 76 87  1  0  0  0
 77 78  1  0  0  0
 77 80  1  0  0  0
 77149  1  0  0  0
 77150  1  0  0  0
 78 81  1  0  0  0
 78151  1  0  0  0
 78152  1  0  0  0
 79 80  1  0  0  0
 79 88  1  0  0  0
 79153  1  0  0  0
 79154  1  0  0  0
 80155  1  0  0  0
 81 85  1  0  0  0
 81 88  1  0  0  0
 81156  1  0  0  0
 82157  1  0  0  0
 82158  1  0  0  0
 82159  1  0  0  0
 83160  1  0  0  0
 83161  1  0  0  0
 83162  1  0  0  0
 84163  1  0  0  0
 84164  1  0  0  0
 84165  1  0  0  0
 85166  1  0  0  0
 85167  1  0  0  0
 85168  1  0  0  0
 86169  1  0  0  0
 86170  1  0  0  0
 86 88  1  0  0  0
 87171  1  0  0  0
 88172  1  0  0  0
M  CHG  1  88   1
M  ISO  4   1 100  68 101  80 101  87 100
M  END
> <chiral flag>
0

> <version>
0

> <s_m_source_file>
/data/baiqing/PycharmProjects/Reinvent-master-3.2/result/LINK_invent/BTK/process_docking_weight1_custom_product_contain_oxygen_bond_distance_aromatic_linkinvent_7_9_3/rearranged_h_0038.sdf

> <i_m_source_file_index>
74

> <r_mmod_Potential_Energy-OPLS-2005>
240.76399230957

> <r_mmod_Stretch_Energy-OPLS-2005>
150.848266601562

> <r_mmod_Bend_Energy-OPLS-2005>
231.182800292969

> <r_mmod_Torsional_Energy-OPLS-2005>
325.573699951172

> <r_mmod_Improper_Torsional_Energy-OPLS-2005>
7.5054407119751

> <r_mmod_Van_der_Waal_Energy-OPLS-2005>
156.402526855469

> <r_mmod_Electrostatic_Energy-OPLS-2005>
-301.034576416016

> <r_mmod_Solvation_Energy-OPLS-2005>
-416.807861328125

> <b_mmod_Minimization_Converged-OPLS-2005>
0

> <r_mmod_RMS_Derivative-OPLS-2005>
3.05923771858215

$$$$
74
                    3D
 Structure written by MMmdl.
167176  0  0  1  0            999 V2000
  -30.6153  -14.6511   20.4776 C   0  0  0  0  0  0
  -30.4429  -12.3969   19.4389 C   0  0  0  0  0  0
  -29.4989  -12.5034   18.2206 C   0  0  0  0  0  0
  -28.0301  -12.3186   18.6491 C   0  0  0  0  0  0
  -27.6535  -13.1983   19.8670 C   0  0  2  0  0  0
  -28.7088  -13.0676   20.9902 C   0  0  0  0  0  0
  -25.2522  -13.8059   20.5710 C   0  0  0  0  0  0
  -24.1800  -13.0344   20.9223 C   0  0  0  0  0  0
  -24.6370  -11.6825   20.8765 C   0  0  0  0  0  0
  -23.9028  -10.4228   21.0394 C   0  0  0  0  0  0
  -24.3584   -9.4158   21.9173 C   0  0  0  0  0  0
  -23.6261   -8.2205   22.0757 C   0  0  0  0  0  0
  -22.4249   -8.0249   21.3550 C   0  0  0  0  0  0
  -21.9870   -9.0217   20.4649 C   0  0  0  0  0  0
  -22.7205  -10.2086   20.3042 C   0  0  0  0  0  0
  -21.6843   -6.0702   22.5268 C   0  0  0  0  0  0
  -21.4011   -6.5617   23.8195 C   0  0  0  0  0  0
  -21.3655   -5.6776   24.9158 C   0  0  0  0  0  0
  -21.6060   -4.3041   24.7222 C   0  0  0  0  0  0
  -21.8821   -3.8122   23.4339 C   0  0  0  0  0  0
  -21.9183   -4.6928   22.3385 C   0  0  0  0  0  0
  -22.7829  -13.5162   21.1893 C   0  0  0  0  0  0
  -22.1669   -4.2106   21.0965 F   0  0  0  0  0  0
  -21.5622   -3.4529   25.7740 F   0  0  0  0  0  0
  -30.0191  -13.4175   20.4140 N   0  0  0  0  0  0
  -26.2983  -12.9240   20.3376 N   0  0  0  0  0  0
  -25.9304  -11.6400   20.5812 N   0  0  0  0  0  0
  -22.0469  -12.8167   22.0456 N   0  0  0  0  0  0
  -25.4059  -15.1765   20.4075 N   0  0  0  0  0  0
  -31.7888  -14.8263   20.1337 O   0  0  0  0  0  0
  -21.6632   -6.8847   21.4243 O   0  0  0  0  0  0
  -22.3494  -14.5449   20.6714 O   0  0  0  0  0  0
  -24.6297  -31.8590   23.2030 C   0  0  0  0  0  0
  -25.9130  -32.4770   23.8360 C   0  0  1  0  0  0
  -27.2457  -27.3269   20.0949 C   0  0  0  0  0  0
  -25.5937  -33.8577   24.2274 N   0  0  0  0  0  0
  -23.4235  -30.4868   21.5471 C   0  0  2  0  0  0
  -24.8696  -28.9407   20.1212 C   0  0  0  0  0  0
  -22.7488  -29.4634   22.4901 C   0  0  0  0  0  0
  -18.0276  -28.1429   22.8467 C   0  0  0  0  0  0
  -24.1487  -36.7301   23.2635 C   0  0  0  0  0  0
  -25.9700  -30.7910   21.3772 C   0  0  0  0  0  0
  -26.0390  -29.4227   20.7108 C   0  0  0  0  0  0
  -27.2236  -28.6287   20.6839 C   0  0  0  0  0  0
  -26.0286  -26.8871   19.5162 C   0  0  0  0  0  0
  -24.8666  -27.6771   19.5170 C   0  0  0  0  0  0
  -23.6393  -29.8216   20.1644 C   0  0  0  0  0  0
  -25.4116  -36.3070   24.0312 C   0  0  1  0  0  0
  -20.5880  -28.3749   23.1257 C   0  0  2  0  0  0
  -20.6748  -26.9446   22.5429 C   0  0  0  0  0  0
  -19.5748  -26.6407   21.5207 C   0  0  0  0  0  0
  -18.1927  -26.7961   22.1608 C   0  0  0  0  0  0
  -19.1529  -28.8893   23.2863 C   0  0  0  0  0  0
  -18.9440  -30.1472   23.8928 C   0  0  0  0  0  0
  -17.6445  -30.6613   24.0571 C   0  0  0  0  0  0
  -25.9063  -34.9442   23.5086 C   0  0  0  0  0  0
  -16.5337  -29.9116   23.6335 C   0  0  0  0  0  0
  -16.7265  -28.6530   23.0363 C   0  0  0  0  0  0
  -26.4473  -31.6600   25.0762 C   0  0  0  0  0  0
  -25.3685  -31.3794   26.1473 C   0  0  0  0  0  0
  -27.0276  -30.2983   24.6299 C   0  0  0  0  0  0
  -27.6010  -32.4335   25.7556 C   0  0  0  0  0  0
  -27.5575  -37.1815   24.8444 C   0  0  0  0  0  0
  -21.4191  -29.3080   22.3623 N   0  0  0  0  0  0
  -26.4278  -37.3780   23.9387 N   0  0  0  0  0  0
  -24.6933  -31.0614   22.0998 N   0  0  0  0  0  0
  -23.4184  -28.8133   23.2977 O   0  0  0  0  0  0
  -28.4415  -26.5803   20.1287 O   0  0  0  0  0  0
  -26.5653  -34.8911   22.4673 O   0  0  0  0  0  0
  -23.5457  -32.1366   23.7378 O   0  0  0  0  0  0
  -30.7796  -17.9794   21.1891 C   0  0  0  0  0  0
  -30.6161  -19.4013   21.2262 C   0  0  0  0  0  0
  -29.4636  -20.0481   20.6671 C   0  0  0  0  0  0
  -28.5733  -19.2039   19.9351 C   0  0  0  0  0  0
  -29.8256  -17.1328   20.5728 C   0  0  0  0  0  0
  -28.7664  -17.7868   19.8909 C   0  0  0  0  0  0
  -29.5156  -22.5339   18.6861 C   0  0  0  0  0  0
  -30.4520  -21.7723   18.0925 C   0  0  0  0  0  0
  -28.4575  -23.3223   17.9103 C   0  0  0  0  0  0
  -27.8072  -24.5268   18.6137 C   0  0  0  0  0  0
  -29.0435  -24.0890   20.7060 C   0  0  0  0  0  0
  -28.7317  -25.1989   19.6323 C   0  0  2  0  0  0
  -31.6875  -20.2076   21.9427 C   0  0  0  0  0  0
  -27.3397  -19.7591   19.2228 C   0  0  0  0  0  0
  -29.0799  -21.5503   21.0142 C   0  0  0  0  0  0
  -29.7626  -15.6832   20.7509 N   0  0  0  0  0  0
  -29.5332  -22.7375   20.1780 N   0  3  1  0  0  0
  -27.6595  -16.8199   18.9810 Cl  0  0  0  0  0  0
  -31.4819  -12.5319   19.1307 H   0  0  0  0  0  0
  -30.3883  -11.4018   19.8828 H   0  0  0  0  0  0
  -29.7606  -11.7554   17.4725 H   0  0  0  0  0  0
  -29.6227  -13.4724   17.7342 H   0  0  0  0  0  0
  -27.8946  -11.2690   18.9077 H   0  0  0  0  0  0
  -27.3575  -12.5180   17.8145 H   0  0  0  0  0  0
  -27.6635  -14.2242   19.5122 H   0  0  0  0  0  0
  -28.7342  -12.0474   21.3734 H   0  0  0  0  0  0
  -28.4589  -13.6986   21.8437 H   0  0  0  0  0  0
  -25.2729   -9.5625   22.4747 H   0  0  0  0  0  0
  -23.9946   -7.4601   22.7484 H   0  0  0  0  0  0
  -21.0788   -8.8742   19.8971 H   0  0  0  0  0  0
  -22.3666  -10.9630   19.6144 H   0  0  0  0  0  0
  -21.2036   -7.6127   23.9682 H   0  0  0  0  0  0
  -21.1479   -6.0509   25.9051 H   0  0  0  0  0  0
  -22.0610   -2.7581   23.2850 H   0  0  0  0  0  0
  -22.4070  -11.9819   22.4831 H   0  0  0  0  0  0
  -21.1116  -13.1221   22.2723 H   0  0  0  0  0  0
  -24.5999  -15.7903   20.4395 H   0  0  0  0  0  0
  -26.2078  -15.6086   19.9605 H   0  0  0  0  0  0
  -26.7214  -32.5402   23.1123 H   0  0  0  0  0  0
  -24.9992  -33.9715   25.0338 H   0  0  0  0  0  0
  -22.7167  -31.3067   21.3986 H   0  0  0  0  0  0
  -23.3735  -35.9650   23.3308 H   0  0  0  0  0  0
  -24.3564  -36.8918   22.2045 H   0  0  0  0  0  0
  -23.7264  -37.6502   23.6667 H   0  0  0  0  0  0
  -26.1194  -31.5606   20.6187 H   0  0  0  0  0  0
  -26.8442  -30.8217   22.0193 H   0  0  0  0  0  0
  -28.1301  -29.0120   21.1296 H   0  0  0  0  0  0
  -25.8905  -25.9298   19.0602 H   0  0  0  0  0  0
  -23.9632  -27.2968   19.0620 H   0  0  0  0  0  0
  -23.7622  -30.5977   19.4076 H   0  0  0  0  0  0
  -22.7618  -29.2502   19.8616 H   0  0  0  0  0  0
  -25.1293  -36.1921   25.0805 H   0  0  0  0  0  0
  -20.9982  -28.3379   24.1371 H   0  0  0  0  0  0
  -20.5589  -26.2391   23.3660 H   0  0  0  0  0  0
  -21.6624  -26.7422   22.1263 H   0  0  0  0  0  0
  -19.6907  -25.6301   21.1276 H   0  0  0  0  0  0
  -19.6713  -27.3182   20.6711 H   0  0  0  0  0  0
  -17.4182  -26.6709   21.4012 H   0  0  0  0  0  0
  -18.0313  -26.0093   22.9008 H   0  0  0  0  0  0
  -19.7911  -30.7266   24.2340 H   0  0  0  0  0  0
  -17.5007  -31.6290   24.5179 H   0  0  0  0  0  0
  -15.5343  -30.3052   23.7638 H   0  0  0  0  0  0
  -15.8652  -28.0865   22.7113 H   0  0  0  0  0  0
  -24.5974  -30.6971   25.7891 H   0  0  0  0  0  0
  -24.8741  -32.2949   26.4694 H   0  0  0  0  0  0
  -25.8020  -30.9203   27.0375 H   0  0  0  0  0  0
  -26.2883  -29.6770   24.1252 H   0  0  0  0  0  0
  -27.3768  -29.7209   25.4864 H   0  0  0  0  0  0
  -27.8832  -30.4128   23.9664 H   0  0  0  0  0  0
  -27.2622  -33.3713   26.1979 H   0  0  0  0  0  0
  -28.3940  -32.6779   25.0476 H   0  0  0  0  0  0
  -28.0543  -31.8564   26.5616 H   0  0  0  0  0  0
  -28.2570  -38.0133   24.7471 H   0  0  0  0  0  0
  -28.1093  -36.2651   24.6278 H   0  0  0  0  0  0
  -27.2305  -37.1483   25.8854 H   0  0  0  0  0  0
  -20.9387  -29.8819   21.6820 H   0  0  0  0  0  0
  -26.0151  -38.2850   24.1385 H   0  0  0  0  0  0
  -31.6186  -17.5299   21.7020 H   0  0  0  0  0  0
  -30.4552  -21.6423   17.0190 H   0  0  0  0  0  0
  -31.2197  -21.2577   18.6520 H   0  0  0  0  0  0
  -27.6859  -22.6349   17.5616 H   0  0  0  0  0  0
  -28.9405  -23.6901   17.0036 H   0  0  0  0  0  0
  -26.9192  -24.1580   19.1284 H   0  0  0  0  0  0
  -27.4945  -25.2301   17.8424 H   0  0  0  0  0  0
  -29.7991  -24.4680   21.3953 H   0  0  0  0  0  0
  -28.1488  -23.9407   21.3107 H   0  0  0  0  0  0
  -29.6725  -25.3710   19.1099 H   0  0  0  0  0  0
  -31.4109  -20.3922   22.9807 H   0  0  0  0  0  0
  -31.8731  -21.1678   21.4597 H   0  0  0  0  0  0
  -32.6361  -19.6698   21.9326 H   0  0  0  0  0  0
  -27.2249  -20.8404   19.2641 H   0  0  0  0  0  0
  -26.4357  -19.3185   19.6484 H   0  0  0  0  0  0
  -27.3734  -19.4915   18.1653 H   0  0  0  0  0  0
  -29.4023  -21.7413   22.0381 H   0  0  0  0  0  0
  -27.9952  -21.6018   21.1022 H   0  0  0  0  0  0
  -28.8204  -15.3535   20.8939 H   0  0  0  0  0  0
  -30.5153  -22.7846   20.4026 H   0  0  0  0  0  0
  1 25  1  0  0  0
  1 30  2  0  0  0
  1 86  1  0  0  0
  2  3  1  0  0  0
  2 25  1  0  0  0
  2 89  1  0  0  0
  2 90  1  0  0  0
  3  4  1  0  0  0
  3 91  1  0  0  0
  3 92  1  0  0  0
  4  5  1  0  0  0
  4 93  1  0  0  0
  4 94  1  0  0  0
  5  6  1  0  0  0
  5 26  1  0  0  0
  5 95  1  0  0  0
  6 25  1  0  0  0
  6 96  1  0  0  0
  6 97  1  0  0  0
  7  8  2  0  0  0
  7 26  1  0  0  0
  7 29  1  0  0  0
  8  9  1  0  0  0
  8 22  1  0  0  0
  9 10  1  0  0  0
  9 27  2  0  0  0
 10 11  2  0  0  0
 10 15  1  0  0  0
 11 12  1  0  0  0
 11 98  1  0  0  0
 12 13  2  0  0  0
 12 99  1  0  0  0
 13 14  1  0  0  0
 13 31  1  0  0  0
 14 15  2  0  0  0
 14100  1  0  0  0
 15101  1  0  0  0
 16 17  2  0  0  0
 16 21  1  0  0  0
 16 31  1  0  0  0
 17 18  1  0  0  0
 17102  1  0  0  0
 18 19  2  0  0  0
 18103  1  0  0  0
 19 20  1  0  0  0
 19 24  1  0  0  0
 20 21  2  0  0  0
 20104  1  0  0  0
 21 23  1  0  0  0
 22 28  1  0  0  0
 22 32  2  0  0  0
 26 27  1  0  0  0
 28105  1  0  0  0
 28106  1  0  0  0
 29107  1  0  0  0
 29108  1  0  0  0
 33 34  1  0  0  0
 33 66  1  0  0  0
 33 70  2  0  0  0
 34 36  1  0  0  0
 34 59  1  0  0  0
 34109  1  0  0  0
 35 44  2  0  0  0
 35 45  1  0  0  0
 35 68  1  0  0  0
 36 56  1  0  0  0
 36110  1  0  0  0
 37 39  1  0  0  0
 37 47  1  0  0  0
 37 66  1  0  0  0
 37111  1  0  0  0
 38 43  2  0  0  0
 38 46  1  0  0  0
 38 47  1  0  0  0
 39 64  1  0  0  0
 39 67  2  0  0  0
 40 52  1  0  0  0
 40 53  2  0  0  0
 40 58  1  0  0  0
 41112  1  0  0  0
 41113  1  0  0  0
 41114  1  0  0  0
 41 48  1  0  0  0
 42 43  1  0  0  0
 42 66  1  0  0  0
 42115  1  0  0  0
 42116  1  0  0  0
 43 44  1  0  0  0
 44117  1  0  0  0
 45 46  2  0  0  0
 45118  1  0  0  0
 46119  1  0  0  0
 47120  1  0  0  0
 47121  1  0  0  0
 48 56  1  0  0  0
 48 65  1  0  0  0
 48122  1  0  0  0
 49 50  1  0  0  0
 49 53  1  0  0  0
 49 64  1  0  0  0
 49123  1  0  0  0
 50 51  1  0  0  0
 50124  1  0  0  0
 50125  1  0  0  0
 51 52  1  0  0  0
 51126  1  0  0  0
 51127  1  0  0  0
 52128  1  0  0  0
 52129  1  0  0  0
 53 54  1  0  0  0
 54 55  2  0  0  0
 54130  1  0  0  0
 55 57  1  0  0  0
 55131  1  0  0  0
 56 69  2  0  0  0
 57 58  2  0  0  0
 57132  1  0  0  0
 58133  1  0  0  0
 59 60  1  0  0  0
 59 61  1  0  0  0
 59 62  1  0  0  0
 60134  1  0  0  0
 60135  1  0  0  0
 60136  1  0  0  0
 61137  1  0  0  0
 61138  1  0  0  0
 61139  1  0  0  0
 62140  1  0  0  0
 62141  1  0  0  0
 62142  1  0  0  0
 63 65  1  0  0  0
 63143  1  0  0  0
 63144  1  0  0  0
 63145  1  0  0  0
 64146  1  0  0  0
 65147  1  0  0  0
 68 82  1  0  0  0
 71 72  2  0  0  0
 71 75  1  0  0  0
 71148  1  0  0  0
 72 73  1  0  0  0
 72 83  1  0  0  0
 73 74  2  0  0  0
 73 85  1  0  0  0
 74 76  1  0  0  0
 74 84  1  0  0  0
 75 76  2  0  0  0
 75 86  1  0  0  0
 76 88  1  0  0  0
 77 78  2  0  0  0
 77 79  1  0  0  0
 77 87  1  0  0  0
 78149  1  0  0  0
 78150  1  0  0  0
 79 80  1  0  0  0
 79151  1  0  0  0
 79152  1  0  0  0
 80 82  1  0  0  0
 80153  1  0  0  0
 80154  1  0  0  0
 81 82  1  0  0  0
 81 87  1  0  0  0
 81155  1  0  0  0
 81156  1  0  0  0
 82157  1  0  0  0
 83158  1  0  0  0
 83159  1  0  0  0
 83160  1  0  0  0
 84161  1  0  0  0
 84162  1  0  0  0
 84163  1  0  0  0
 85164  1  0  0  0
 85165  1  0  0  0
 85 87  1  0  0  0
 86166  1  0  0  0
 87167  1  0  0  0
M  CHG  1  87   1
M  ISO  4   1 100  68 101  82 101  86 100
M  END
> <chiral flag>
0

> <version>
0

> <s_m_source_file>
/data/baiqing/PycharmProjects/Reinvent-master-3.2/result/LINK_invent/BTK/process_docking_weight1_custom_product_contain_oxygen_bond_distance_aromatic_linkinvent_7_9_3/rearranged_h_0038.sdf

> <i_m_source_file_index>
75

> <r_mmod_Potential_Energy-OPLS-2005>
52.7076416015625

> <r_mmod_Stretch_Energy-OPLS-2005>
87.2445449829102

> <r_mmod_Bend_Energy-OPLS-2005>
211.559783935547

> <r_mmod_Torsional_Energy-OPLS-2005>
260.0859375

> <r_mmod_Improper_Torsional_Energy-OPLS-2005>
8.07494068145752

> <r_mmod_Van_der_Waal_Energy-OPLS-2005>
153.823776245117

> <r_mmod_Electrostatic_Energy-OPLS-2005>
-291.793792724609

> <r_mmod_Solvation_Energy-OPLS-2005>
-422.512725830078

> <b_mmod_Minimization_Converged-OPLS-2005>
0

> <r_mmod_RMS_Derivative-OPLS-2005>
4.42372894287109

$$$$
75
                    3D
 Structure written by MMmdl.
170179  0  0  1  0            999 V2000
  -30.5991  -14.6702   20.4698 C   0  0  0  0  0  0
  -30.4463  -12.4064   19.4460 C   0  0  0  0  0  0
  -29.5078  -12.5026   18.2214 C   0  0  0  0  0  0
  -28.0322  -12.3292   18.6378 C   0  0  0  0  0  0
  -27.6504  -13.2009   19.8622 C   0  0  2  0  0  0
  -28.7028  -13.0760   20.9876 C   0  0  0  0  0  0
  -25.2531  -13.8073   20.5756 C   0  0  0  0  0  0
  -24.1798  -13.0358   20.9235 C   0  0  0  0  0  0
  -24.6371  -11.6842   20.8755 C   0  0  0  0  0  0
  -23.9043  -10.4245   21.0413 C   0  0  0  0  0  0
  -24.3599   -9.4171   21.9191 C   0  0  0  0  0  0
  -23.6273   -8.2212   22.0758 C   0  0  0  0  0  0
  -22.4255   -8.0261   21.3543 C   0  0  0  0  0  0
  -21.9890   -9.0232   20.4648 C   0  0  0  0  0  0
  -22.7220  -10.2106   20.3055 C   0  0  0  0  0  0
  -21.6842   -6.0723   22.5278 C   0  0  0  0  0  0
  -21.4006   -6.5628   23.8210 C   0  0  0  0  0  0
  -21.3656   -5.6784   24.9175 C   0  0  0  0  0  0
  -21.6045   -4.3048   24.7224 C   0  0  0  0  0  0
  -21.8823   -3.8137   23.4347 C   0  0  0  0  0  0
  -21.9190   -4.6952   22.3401 C   0  0  0  0  0  0
  -22.7826  -13.5180   21.1876 C   0  0  0  0  0  0
  -22.1662   -4.2139   21.0979 F   0  0  0  0  0  0
  -21.5630   -3.4533   25.7741 F   0  0  0  0  0  0
  -30.0130  -13.4306   20.4147 N   0  0  0  0  0  0
  -26.2964  -12.9257   20.3332 N   0  0  0  0  0  0
  -25.9293  -11.6424   20.5762 N   0  0  0  0  0  0
  -22.0457  -12.8193   22.0435 N   0  0  0  0  0  0
  -25.4111  -15.1787   20.4260 N   0  0  0  0  0  0
  -31.7770  -14.8457   20.1453 O   0  0  0  0  0  0
  -21.6622   -6.8861   21.4239 O   0  0  0  0  0  0
  -22.3525  -14.5488   20.6713 O   0  0  0  0  0  0
  -24.6247  -31.8603   23.2033 C   0  0  0  0  0  0
  -25.9102  -32.4779   23.8355 C   0  0  1  0  0  0
  -27.2342  -27.3291   20.1048 C   0  0  0  0  0  0
  -25.5922  -33.8579   24.2284 N   0  0  0  0  0  0
  -23.4179  -30.4835   21.5456 C   0  0  2  0  0  0
  -24.8653  -28.9389   20.1106 C   0  0  0  0  0  0
  -22.7463  -29.4623   22.4940 C   0  0  0  0  0  0
  -18.0285  -28.1382   22.8487 C   0  0  0  0  0  0
  -24.1489  -36.7294   23.2639 C   0  0  0  0  0  0
  -25.9582  -30.7904   21.3757 C   0  0  0  0  0  0
  -26.0313  -29.4179   20.7192 C   0  0  0  0  0  0
  -27.2123  -28.6206   20.7153 C   0  0  0  0  0  0
  -26.0420  -26.9022   19.4715 C   0  0  0  0  0  0
  -24.8718  -27.6847   19.4822 C   0  0  0  0  0  0
  -23.6324  -29.8178   20.1606 C   0  0  0  0  0  0
  -25.4112  -36.3084   24.0331 C   0  0  1  0  0  0
  -20.5883  -28.3685   23.1287 C   0  0  2  0  0  0
  -20.6774  -26.9410   22.5411 C   0  0  0  0  0  0
  -19.5751  -26.6384   21.5212 C   0  0  0  0  0  0
  -18.1931  -26.7927   22.1623 C   0  0  0  0  0  0
  -19.1537  -28.8851   23.2884 C   0  0  0  0  0  0
  -18.9461  -30.1453   23.8900 C   0  0  0  0  0  0
  -17.6462  -30.6586   24.0564 C   0  0  0  0  0  0
  -25.9048  -34.9452   23.5108 C   0  0  0  0  0  0
  -16.5353  -29.9085   23.6328 C   0  0  0  0  0  0
  -16.7272  -28.6502   23.0350 C   0  0  0  0  0  0
  -26.4491  -31.6587   25.0723 C   0  0  0  0  0  0
  -25.3730  -31.3726   26.1456 C   0  0  0  0  0  0
  -27.0335  -30.3010   24.6179 C   0  0  0  0  0  0
  -27.6052  -32.4322   25.7492 C   0  0  0  0  0  0
  -27.5578  -37.1802   24.8464 C   0  0  0  0  0  0
  -21.4179  -29.3040   22.3681 N   0  0  0  0  0  0
  -26.4291  -37.3776   23.9407 N   0  0  0  0  0  0
  -24.6854  -31.0616   22.0984 N   0  0  0  0  0  0
  -23.4191  -28.8164   23.3019 O   0  0  0  0  0  0
  -28.3791  -26.5144   20.1696 O   0  0  0  0  0  0
  -26.5616  -34.8918   22.4674 O   0  0  0  0  0  0
  -23.5414  -32.1402   23.7367 O   0  0  0  0  0  0
  -30.5188  -19.4488   21.1078 C   0  0  0  0  0  0
  -30.7039  -18.0290   21.1173 C   0  0  0  0  0  0
  -29.3725  -20.0838   20.5417 C   0  0  0  0  0  0
  -28.4420  -19.2005   19.9061 C   0  0  0  0  0  0
  -29.7650  -17.1551   20.5131 C   0  0  0  0  0  0
  -28.6776  -17.7877   19.8485 C   0  0  0  0  0  0
  -29.4802  -24.1874   20.1799 C   0  0  0  0  0  0
  -30.4197  -24.6212   21.0479 C   0  0  0  0  0  0
  -28.5936  -24.4785   17.0122 C   0  0  0  0  0  0
  -29.3836  -23.1907   17.2468 C   0  0  0  0  0  0
  -28.8446  -25.5476   18.0763 C   0  0  0  0  0  0
  -28.8365  -22.3719   18.4249 C   0  0  0  0  0  0
  -28.4441  -25.1810   19.5260 C   0  0  2  0  0  0
  -27.1271  -19.7121   19.3188 C   0  0  0  0  0  0
  -31.5399  -23.8214   21.6916 C   0  0  0  0  0  0
  -29.1008  -21.6338   20.7852 C   0  0  0  0  0  0
  -29.7270  -15.7002   20.6999 N   0  0  0  0  0  0
  -29.4593  -22.6824   19.7372 N   0  3  2  0  0  0
  -27.5961  -16.8008   18.9300 Cl  0  0  0  0  0  0
  -31.4843  -12.5464   19.1401 H   0  0  0  0  0  0
  -30.3957  -11.4137   19.8957 H   0  0  0  0  0  0
  -29.7768  -11.7483   17.4807 H   0  0  0  0  0  0
  -29.6388  -13.4697   17.7329 H   0  0  0  0  0  0
  -27.8775  -11.2762   18.8746 H   0  0  0  0  0  0
  -27.3746  -12.5513   17.7965 H   0  0  0  0  0  0
  -27.6580  -14.2254   19.5078 H   0  0  0  0  0  0
  -28.7263  -12.0574   21.3773 H   0  0  0  0  0  0
  -28.4472  -13.7132   21.8360 H   0  0  0  0  0  0
  -25.2744   -9.5648   22.4766 H   0  0  0  0  0  0
  -23.9979   -7.4601   22.7473 H   0  0  0  0  0  0
  -21.0820   -8.8752   19.8952 H   0  0  0  0  0  0
  -22.3686  -10.9648   19.6164 H   0  0  0  0  0  0
  -21.1993   -7.6137   23.9708 H   0  0  0  0  0  0
  -21.1475   -6.0517   25.9077 H   0  0  0  0  0  0
  -22.0607   -2.7599   23.2853 H   0  0  0  0  0  0
  -22.4061  -11.9852   22.4829 H   0  0  0  0  0  0
  -21.1079  -13.1234   22.2633 H   0  0  0  0  0  0
  -24.6239  -15.8108   20.5136 H   0  0  0  0  0  0
  -26.2193  -15.6196   20.0014 H   0  0  0  0  0  0
  -26.7169  -32.5451   23.1103 H   0  0  0  0  0  0
  -25.0068  -33.9722   25.0428 H   0  0  0  0  0  0
  -22.7117  -31.3041   21.4031 H   0  0  0  0  0  0
  -23.3748  -35.9630   23.3303 H   0  0  0  0  0  0
  -24.3581  -36.8911   22.2052 H   0  0  0  0  0  0
  -23.7246  -37.6500   23.6658 H   0  0  0  0  0  0
  -26.0909  -31.5537   20.6077 H   0  0  0  0  0  0
  -26.8383  -30.8386   22.0052 H   0  0  0  0  0  0
  -28.1053  -28.9831   21.2051 H   0  0  0  0  0  0
  -25.9735  -25.9543   18.9622 H   0  0  0  0  0  0
  -23.9783  -27.3122   19.0005 H   0  0  0  0  0  0
  -23.7501  -30.5946   19.4041 H   0  0  0  0  0  0
  -22.7524  -29.2467   19.8587 H   0  0  0  0  0  0
  -25.1292  -36.1938   25.0823 H   0  0  0  0  0  0
  -20.9977  -28.3262   24.1407 H   0  0  0  0  0  0
  -20.5678  -26.2292   23.3607 H   0  0  0  0  0  0
  -21.6644  -26.7443   22.1204 H   0  0  0  0  0  0
  -19.6913  -25.6299   21.1235 H   0  0  0  0  0  0
  -19.6686  -27.3197   20.6745 H   0  0  0  0  0  0
  -17.4199  -26.6672   21.4028 H   0  0  0  0  0  0
  -18.0332  -26.0068   22.9018 H   0  0  0  0  0  0
  -19.7937  -30.7269   24.2268 H   0  0  0  0  0  0
  -17.5017  -31.6264   24.5168 H   0  0  0  0  0  0
  -15.5354  -30.2990   23.7652 H   0  0  0  0  0  0
  -15.8670  -28.0823   22.7066 H   0  0  0  0  0  0
  -24.5898  -30.7081   25.7789 H   0  0  0  0  0  0
  -24.8933  -32.2896   26.4890 H   0  0  0  0  0  0
  -25.8061  -30.8897   27.0226 H   0  0  0  0  0  0
  -26.2908  -29.6759   24.1208 H   0  0  0  0  0  0
  -27.4036  -29.7268   25.4682 H   0  0  0  0  0  0
  -27.8776  -30.4294   23.9400 H   0  0  0  0  0  0
  -27.2662  -33.3622   26.2068 H   0  0  0  0  0  0
  -28.3863  -32.6881   25.0322 H   0  0  0  0  0  0
  -28.0718  -31.8449   26.5412 H   0  0  0  0  0  0
  -28.2598  -38.0096   24.7508 H   0  0  0  0  0  0
  -28.1072  -36.2629   24.6294 H   0  0  0  0  0  0
  -27.2296  -37.1458   25.8866 H   0  0  0  0  0  0
  -20.9353  -29.8762   21.6893 H   0  0  0  0  0  0
  -26.0174  -38.2853   24.1403 H   0  0  0  0  0  0
  -31.2500  -20.0541   21.6267 H   0  0  0  0  0  0
  -31.5499  -17.6147   21.6473 H   0  0  0  0  0  0
  -30.4068  -25.6650   21.3295 H   0  0  0  0  0  0
  -27.5261  -24.2646   16.9398 H   0  0  0  0  0  0
  -28.8763  -24.8878   16.0411 H   0  0  0  0  0  0
  -30.4511  -23.3891   17.3527 H   0  0  0  0  0  0
  -29.2868  -22.5837   16.3449 H   0  0  0  0  0  0
  -28.2884  -26.4299   17.7580 H   0  0  0  0  0  0
  -29.8920  -25.8530   18.0563 H   0  0  0  0  0  0
  -29.0474  -21.3297   18.1899 H   0  0  0  0  0  0
  -27.7519  -22.4614   18.4845 H   0  0  0  0  0  0
  -27.4797  -24.6789   19.5699 H   0  0  0  0  0  0
  -26.8497  -20.7111   19.6401 H   0  0  0  0  0  0
  -26.2988  -19.0738   19.6282 H   0  0  0  0  0  0
  -27.1658  -19.7000   18.2293 H   0  0  0  0  0  0
  -31.6924  -22.8421   21.2411 H   0  0  0  0  0  0
  -31.3449  -23.6897   22.7564 H   0  0  0  0  0  0
  -32.4779  -24.3689   21.5916 H   0  0  0  0  0  0
  -29.6285  -21.8884   21.7028 H   0  0  0  0  0  0
  -28.0571  -21.7762   21.0615 H   0  0  0  0  0  0
  -28.7906  -15.3489   20.8243 H   0  0  0  0  0  0
  -30.4271  -22.4599   19.5615 H   0  0  0  0  0  0
  1 25  1  0  0  0
  1 30  2  0  0  0
  1 87  1  0  0  0
  2  3  1  0  0  0
  2 25  1  0  0  0
  2 90  1  0  0  0
  2 91  1  0  0  0
  3  4  1  0  0  0
  3 92  1  0  0  0
  3 93  1  0  0  0
  4  5  1  0  0  0
  4 94  1  0  0  0
  4 95  1  0  0  0
  5  6  1  0  0  0
  5 26  1  0  0  0
  5 96  1  0  0  0
  6 25  1  0  0  0
  6 97  1  0  0  0
  6 98  1  0  0  0
  7  8  2  0  0  0
  7 26  1  0  0  0
  7 29  1  0  0  0
  8  9  1  0  0  0
  8 22  1  0  0  0
  9 10  1  0  0  0
  9 27  2  0  0  0
 10 11  2  0  0  0
 10 15  1  0  0  0
 11 12  1  0  0  0
 11 99  1  0  0  0
 12 13  2  0  0  0
 12100  1  0  0  0
 13 14  1  0  0  0
 13 31  1  0  0  0
 14 15  2  0  0  0
 14101  1  0  0  0
 15102  1  0  0  0
 16 17  2  0  0  0
 16 21  1  0  0  0
 16 31  1  0  0  0
 17 18  1  0  0  0
 17103  1  0  0  0
 18 19  2  0  0  0
 18104  1  0  0  0
 19 20  1  0  0  0
 19 24  1  0  0  0
 20 21  2  0  0  0
 20105  1  0  0  0
 21 23  1  0  0  0
 22 28  1  0  0  0
 22 32  2  0  0  0
 26 27  1  0  0  0
 28106  1  0  0  0
 28107  1  0  0  0
 29108  1  0  0  0
 29109  1  0  0  0
 33 34  1  0  0  0
 33 66  1  0  0  0
 33 70  2  0  0  0
 34 36  1  0  0  0
 34 59  1  0  0  0
 34110  1  0  0  0
 35 44  2  0  0  0
 35 45  1  0  0  0
 35 68  1  0  0  0
 36 56  1  0  0  0
 36111  1  0  0  0
 37 39  1  0  0  0
 37 47  1  0  0  0
 37 66  1  0  0  0
 37112  1  0  0  0
 38 43  2  0  0  0
 38 46  1  0  0  0
 38 47  1  0  0  0
 39 64  1  0  0  0
 39 67  2  0  0  0
 40 52  1  0  0  0
 40 53  2  0  0  0
 40 58  1  0  0  0
 41113  1  0  0  0
 41114  1  0  0  0
 41115  1  0  0  0
 41 48  1  0  0  0
 42 43  1  0  0  0
 42 66  1  0  0  0
 42116  1  0  0  0
 42117  1  0  0  0
 43 44  1  0  0  0
 44118  1  0  0  0
 45 46  2  0  0  0
 45119  1  0  0  0
 46120  1  0  0  0
 47121  1  0  0  0
 47122  1  0  0  0
 48 56  1  0  0  0
 48 65  1  0  0  0
 48123  1  0  0  0
 49 50  1  0  0  0
 49 53  1  0  0  0
 49 64  1  0  0  0
 49124  1  0  0  0
 50 51  1  0  0  0
 50125  1  0  0  0
 50126  1  0  0  0
 51 52  1  0  0  0
 51127  1  0  0  0
 51128  1  0  0  0
 52129  1  0  0  0
 52130  1  0  0  0
 53 54  1  0  0  0
 54 55  2  0  0  0
 54131  1  0  0  0
 55 57  1  0  0  0
 55132  1  0  0  0
 56 69  2  0  0  0
 57 58  2  0  0  0
 57133  1  0  0  0
 58134  1  0  0  0
 59 60  1  0  0  0
 59 61  1  0  0  0
 59 62  1  0  0  0
 60135  1  0  0  0
 60136  1  0  0  0
 60137  1  0  0  0
 61138  1  0  0  0
 61139  1  0  0  0
 61140  1  0  0  0
 62141  1  0  0  0
 62142  1  0  0  0
 62143  1  0  0  0
 63 65  1  0  0  0
 63144  1  0  0  0
 63145  1  0  0  0
 63146  1  0  0  0
 64147  1  0  0  0
 65148  1  0  0  0
 68 83  1  0  0  0
 71 72  2  0  0  0
 71 73  1  0  0  0
 71149  1  0  0  0
 72 75  1  0  0  0
 72150  1  0  0  0
 73 74  2  0  0  0
 73 86  1  0  0  0
 74 76  1  0  0  0
 74 84  1  0  0  0
 75 76  2  0  0  0
 75 87  1  0  0  0
 76 89  1  0  0  0
 77 78  2  0  0  0
 77 83  1  0  0  0
 77 88  1  0  0  0
 78 85  1  0  0  0
 78151  1  0  0  0
 79 80  1  0  0  0
 79 81  1  0  0  0
 79152  1  0  0  0
 79153  1  0  0  0
 80 82  1  0  0  0
 80154  1  0  0  0
 80155  1  0  0  0
 81 83  1  0  0  0
 81156  1  0  0  0
 81157  1  0  0  0
 82 88  1  0  0  0
 82158  1  0  0  0
 82159  1  0  0  0
 83160  1  0  0  0
 84161  1  0  0  0
 84162  1  0  0  0
 84163  1  0  0  0
 85164  1  0  0  0
 85165  1  0  0  0
 85166  1  0  0  0
 86167  1  0  0  0
 86168  1  0  0  0
 86 88  1  0  0  0
 87169  1  0  0  0
 88170  1  0  0  0
M  CHG  1  88   1
M  ISO  4   1 100  68 101  83 101  87 100
M  END
> <chiral flag>
0

> <version>
0

> <s_m_source_file>
/data/baiqing/PycharmProjects/Reinvent-master-3.2/result/LINK_invent/BTK/process_docking_weight1_custom_product_contain_oxygen_bond_distance_aromatic_linkinvent_7_9_3/rearranged_h_0038.sdf

> <i_m_source_file_index>
76

> <r_mmod_Potential_Energy-OPLS-2005>
12.1612043380737

> <r_mmod_Stretch_Energy-OPLS-2005>
94.2004241943359

> <r_mmod_Bend_Energy-OPLS-2005>
174.543823242188

> <r_mmod_Torsional_Energy-OPLS-2005>
245.353179931641

> <r_mmod_Improper_Torsional_Energy-OPLS-2005>
7.85344934463501

> <r_mmod_Van_der_Waal_Energy-OPLS-2005>
150.523254394531

> <r_mmod_Electrostatic_Energy-OPLS-2005>
-289.740051269531

> <r_mmod_Solvation_Energy-OPLS-2005>
-423.259521484375

> <b_mmod_Minimization_Converged-OPLS-2005>
0

> <r_mmod_RMS_Derivative-OPLS-2005>
0.584866464138031

$$$$
76
                    3D
 Structure written by MMmdl.
167176  0  0  1  0            999 V2000
  -30.7689  -14.5877   20.4916 C   0  0  0  0  0  0
  -30.3985  -12.3615   19.4764 C   0  0  0  0  0  0
  -29.5027  -12.4803   18.2304 C   0  0  0  0  0  0
  -28.0253  -12.3383   18.6349 C   0  0  0  0  0  0
  -27.6437  -13.2418   19.8416 C   0  0  2  0  0  0
  -28.6854  -13.1862   20.9835 C   0  0  0  0  0  0
  -25.2490  -13.8206   20.5711 C   0  0  0  0  0  0
  -24.1793  -13.0464   20.9208 C   0  0  0  0  0  0
  -24.6413  -11.6929   20.8731 C   0  0  0  0  0  0
  -23.9106  -10.4285   21.0401 C   0  0  0  0  0  0
  -24.3645   -9.4200   21.9196 C   0  0  0  0  0  0
  -23.6287   -8.2264   22.0798 C   0  0  0  0  0  0
  -22.4259   -8.0301   21.3604 C   0  0  0  0  0  0
  -21.9894   -9.0290   20.4708 C   0  0  0  0  0  0
  -22.7263  -10.2141   20.3073 C   0  0  0  0  0  0
  -21.6837   -6.0738   22.5311 C   0  0  0  0  0  0
  -21.4027   -6.5653   23.8246 C   0  0  0  0  0  0
  -21.3660   -5.6799   24.9212 C   0  0  0  0  0  0
  -21.6021   -4.3066   24.7233 C   0  0  0  0  0  0
  -21.8798   -3.8156   23.4363 C   0  0  0  0  0  0
  -21.9171   -4.6973   22.3414 C   0  0  0  0  0  0
  -22.7807  -13.5262   21.1864 C   0  0  0  0  0  0
  -22.1648   -4.2169   21.0989 F   0  0  0  0  0  0
  -21.5611   -3.4541   25.7742 F   0  0  0  0  0  0
  -30.0121  -13.4469   20.4074 N   0  0  0  0  0  0
  -26.2951  -12.9482   20.3240 N   0  0  0  0  0  0
  -25.9352  -11.6618   20.5706 N   0  0  0  0  0  0
  -22.0414  -12.8301   22.0396 N   0  0  0  0  0  0
  -25.4086  -15.1952   20.4213 N   0  0  0  0  0  0
  -31.9462  -14.5382   20.1531 O   0  0  0  0  0  0
  -21.6633   -6.8901   21.4275 O   0  0  0  0  0  0
  -22.3515  -14.5583   20.6698 O   0  0  0  0  0  0
  -24.6141  -31.8646   23.2036 C   0  0  0  0  0  0
  -25.9040  -32.4814   23.8353 C   0  0  1  0  0  0
  -27.2727  -27.3995   20.1172 C   0  0  0  0  0  0
  -25.5870  -33.8610   24.2301 N   0  0  0  0  0  0
  -23.4093  -30.4783   21.5476 C   0  0  2  0  0  0
  -24.8646  -28.9329   20.1272 C   0  0  0  0  0  0
  -22.7420  -29.4624   22.5020 C   0  0  0  0  0  0
  -18.0258  -28.1402   22.8482 C   0  0  0  0  0  0
  -24.1471  -36.7271   23.2645 C   0  0  0  0  0  0
  -25.9382  -30.8189   21.3661 C   0  0  0  0  0  0
  -26.0228  -29.4464   20.7192 C   0  0  0  0  0  0
  -27.2200  -28.6893   20.7069 C   0  0  0  0  0  0
  -26.0819  -26.9088   19.5196 C   0  0  0  0  0  0
  -24.8925  -27.6647   19.5258 C   0  0  0  0  0  0
  -23.6223  -29.7951   20.1697 C   0  0  0  0  0  0
  -25.4104  -36.3097   24.0326 C   0  0  1  0  0  0
  -20.5851  -28.3676   23.1333 C   0  0  2  0  0  0
  -20.6761  -26.9428   22.5416 C   0  0  0  0  0  0
  -19.5763  -26.6419   21.5199 C   0  0  0  0  0  0
  -18.1928  -26.7948   22.1608 C   0  0  0  0  0  0
  -19.1509  -28.8858   23.2894 C   0  0  0  0  0  0
  -18.9437  -30.1457   23.8933 C   0  0  0  0  0  0
  -17.6447  -30.6620   24.0554 C   0  0  0  0  0  0
  -25.9045  -34.9479   23.5122 C   0  0  0  0  0  0
  -16.5335  -29.9122   23.6329 C   0  0  0  0  0  0
  -16.7240  -28.6514   23.0383 C   0  0  0  0  0  0
  -26.4469  -31.6621   25.0717 C   0  0  0  0  0  0
  -25.3704  -31.3728   26.1442 C   0  0  0  0  0  0
  -27.0311  -30.3057   24.6150 C   0  0  0  0  0  0
  -27.6078  -32.4319   25.7466 C   0  0  0  0  0  0
  -27.5565  -37.1795   24.8476 C   0  0  0  0  0  0
  -21.4140  -29.3008   22.3726 N   0  0  0  0  0  0
  -26.4293  -37.3779   23.9414 N   0  0  0  0  0  0
  -24.6716  -31.0680   22.0980 N   0  0  0  0  0  0
  -23.4167  -28.8226   23.3122 O   0  0  0  0  0  0
  -28.4886  -26.7125   20.1445 O   0  0  0  0  0  0
  -26.5611  -34.8925   22.4697 O   0  0  0  0  0  0
  -23.5322  -32.1436   23.7397 O   0  0  0  0  0  0
  -32.1078  -17.3807   20.3520 C   0  0  0  0  0  0
  -32.6614  -18.6669   20.2963 C   0  0  0  0  0  0
  -29.9631  -18.3518   20.9329 C   0  0  0  0  0  0
  -30.5195  -19.6876   20.9111 C   0  0  0  0  0  0
  -30.7425  -17.1613   20.6780 C   0  0  0  0  0  0
  -31.8990  -19.8037   20.5900 C   0  0  0  0  0  0
  -29.9118  -23.5682   21.4405 C   0  0  0  0  0  0
  -31.0128  -23.9897   22.1145 C   0  0  0  0  0  0
  -28.6249  -24.4063   21.1806 C   0  0  0  0  0  0
  -29.8893  -23.5920   18.4207 C   0  0  0  0  0  0
  -29.8705  -25.0172   19.0464 C   0  0  0  0  0  0
  -29.3861  -22.3854   19.2807 C   0  0  0  0  0  0
  -28.6088  -25.2879   19.8836 C   0  0  2  0  0  0
  -31.2407  -25.3782   22.6956 C   0  0  0  0  0  0
  -29.6796  -20.9599   21.3175 C   0  0  0  0  0  0
  -30.1688  -15.7985   20.7494 N   0  0  0  0  0  0
  -29.9937  -22.2739   20.6331 N   0  3  2  0  0  0
  -32.7458  -21.3102   20.5360 Cl  0  0  0  0  0  0
  -31.4502  -12.3960   19.1857 H   0  0  0  0  0  0
  -30.2710  -11.3926   19.9593 H   0  0  0  0  0  0
  -29.7748  -11.7115   17.5058 H   0  0  0  0  0  0
  -29.6711  -13.4374   17.7369 H   0  0  0  0  0  0
  -27.8585  -11.2896   18.8867 H   0  0  0  0  0  0
  -27.3811  -12.5492   17.7793 H   0  0  0  0  0  0
  -27.6465  -14.2644   19.4607 H   0  0  0  0  0  0
  -28.6679  -12.2183   21.4842 H   0  0  0  0  0  0
  -28.4370  -13.9260   21.7481 H   0  0  0  0  0  0
  -25.2798   -9.5644   22.4790 H   0  0  0  0  0  0
  -23.9978   -7.4622   22.7530 H   0  0  0  0  0  0
  -21.0810   -8.8834   19.9014 H   0  0  0  0  0  0
  -22.3750  -10.9698   19.6182 H   0  0  0  0  0  0
  -21.2072   -7.6168   23.9786 H   0  0  0  0  0  0
  -21.1495   -6.0525   25.9122 H   0  0  0  0  0  0
  -22.0561   -2.7626   23.2854 H   0  0  0  0  0  0
  -22.3986  -11.9963   22.4805 H   0  0  0  0  0  0
  -21.1074  -13.1456   22.2632 H   0  0  0  0  0  0
  -24.6293  -15.8311   20.5511 H   0  0  0  0  0  0
  -26.2473  -15.6580   20.0940 H   0  0  0  0  0  0
  -26.7098  -32.5551   23.1108 H   0  0  0  0  0  0
  -25.0007  -33.9764   25.0428 H   0  0  0  0  0  0
  -22.6966  -31.2915   21.3965 H   0  0  0  0  0  0
  -23.3755  -35.9581   23.3353 H   0  0  0  0  0  0
  -24.3542  -36.8850   22.2046 H   0  0  0  0  0  0
  -23.7183  -37.6475   23.6632 H   0  0  0  0  0  0
  -26.0528  -31.5814   20.5953 H   0  0  0  0  0  0
  -26.8214  -30.8780   21.9896 H   0  0  0  0  0  0
  -28.1145  -29.0918   21.1628 H   0  0  0  0  0  0
  -26.0273  -25.9459   19.0365 H   0  0  0  0  0  0
  -24.0013  -27.2611   19.0667 H   0  0  0  0  0  0
  -23.7171  -30.5589   19.3958 H   0  0  0  0  0  0
  -22.7508  -29.1993   19.8888 H   0  0  0  0  0  0
  -25.1269  -36.1945   25.0799 H   0  0  0  0  0  0
  -20.9894  -28.3247   24.1489 H   0  0  0  0  0  0
  -20.5687  -26.2282   23.3592 H   0  0  0  0  0  0
  -21.6633  -26.7504   22.1226 H   0  0  0  0  0  0
  -19.6953  -25.6332   21.1252 H   0  0  0  0  0  0
  -19.6751  -27.3214   20.6723 H   0  0  0  0  0  0
  -17.4204  -26.6675   21.4017 H   0  0  0  0  0  0
  -18.0359  -26.0086   22.9003 H   0  0  0  0  0  0
  -19.7902  -30.7218   24.2404 H   0  0  0  0  0  0
  -17.5006  -31.6329   24.5110 H   0  0  0  0  0  0
  -15.5340  -30.3045   23.7657 H   0  0  0  0  0  0
  -15.8617  -28.0811   22.7191 H   0  0  0  0  0  0
  -24.5905  -30.7052   25.7747 H   0  0  0  0  0  0
  -24.8869  -32.2891   26.4834 H   0  0  0  0  0  0
  -25.8024  -30.8926   27.0231 H   0  0  0  0  0  0
  -26.2887  -29.6837   24.1150 H   0  0  0  0  0  0
  -27.4002  -29.7265   25.4622 H   0  0  0  0  0  0
  -27.8736  -30.4369   23.9362 H   0  0  0  0  0  0
  -27.2760  -33.3625   26.2060 H   0  0  0  0  0  0
  -28.3882  -32.6867   25.0288 H   0  0  0  0  0  0
  -28.0762  -31.8432   26.5362 H   0  0  0  0  0  0
  -28.2625  -38.0062   24.7491 H   0  0  0  0  0  0
  -28.1035  -36.2596   24.6344 H   0  0  0  0  0  0
  -27.2290  -37.1451   25.8891 H   0  0  0  0  0  0
  -20.9352  -29.8591   21.6801 H   0  0  0  0  0  0
  -26.0190  -38.2860   24.1444 H   0  0  0  0  0  0
  -32.8125  -16.5977   20.1350 H   0  0  0  0  0  0
  -33.7067  -18.7798   20.0490 H   0  0  0  0  0  0
  -28.9147  -18.2368   21.1805 H   0  0  0  0  0  0
  -31.8719  -23.3432   22.2129 H   0  0  0  0  0  0
  -28.4108  -25.0315   22.0445 H   0  0  0  0  0  0
  -27.7775  -23.7238   21.1501 H   0  0  0  0  0  0
  -30.8893  -23.3762   18.0433 H   0  0  0  0  0  0
  -29.2515  -23.6326   17.5391 H   0  0  0  0  0  0
  -30.7749  -25.1868   19.6376 H   0  0  0  0  0  0
  -29.9398  -25.7586   18.2512 H   0  0  0  0  0  0
  -29.6018  -21.4662   18.7323 H   0  0  0  0  0  0
  -28.2998  -22.4125   19.3791 H   0  0  0  0  0  0
  -27.7854  -24.9654   19.2580 H   0  0  0  0  0  0
  -32.1821  -25.7859   22.3134 H   0  0  0  0  0  0
  -31.3110  -25.3489   23.7861 H   0  0  0  0  0  0
  -30.4602  -26.0799   22.4035 H   0  0  0  0  0  0
  -29.8056  -21.0992   22.3931 H   0  0  0  0  0  0
  -28.6179  -20.7565   21.1816 H   0  0  0  0  0  0
  -29.1822  -15.7387   20.9483 H   0  0  0  0  0  0
  -30.9814  -22.1587   20.4448 H   0  0  0  0  0  0
  1 25  1  0  0  0
  1 30  2  0  0  0
  1 86  1  0  0  0
  2  3  1  0  0  0
  2 25  1  0  0  0
  2 89  1  0  0  0
  2 90  1  0  0  0
  3  4  1  0  0  0
  3 91  1  0  0  0
  3 92  1  0  0  0
  4  5  1  0  0  0
  4 93  1  0  0  0
  4 94  1  0  0  0
  5  6  1  0  0  0
  5 26  1  0  0  0
  5 95  1  0  0  0
  6 25  1  0  0  0
  6 96  1  0  0  0
  6 97  1  0  0  0
  7  8  2  0  0  0
  7 26  1  0  0  0
  7 29  1  0  0  0
  8  9  1  0  0  0
  8 22  1  0  0  0
  9 10  1  0  0  0
  9 27  2  0  0  0
 10 11  2  0  0  0
 10 15  1  0  0  0
 11 12  1  0  0  0
 11 98  1  0  0  0
 12 13  2  0  0  0
 12 99  1  0  0  0
 13 14  1  0  0  0
 13 31  1  0  0  0
 14 15  2  0  0  0
 14100  1  0  0  0
 15101  1  0  0  0
 16 17  2  0  0  0
 16 21  1  0  0  0
 16 31  1  0  0  0
 17 18  1  0  0  0
 17102  1  0  0  0
 18 19  2  0  0  0
 18103  1  0  0  0
 19 20  1  0  0  0
 19 24  1  0  0  0
 20 21  2  0  0  0
 20104  1  0  0  0
 21 23  1  0  0  0
 22 28  1  0  0  0
 22 32  2  0  0  0
 26 27  1  0  0  0
 28105  1  0  0  0
 28106  1  0  0  0
 29107  1  0  0  0
 29108  1  0  0  0
 33 34  1  0  0  0
 33 66  1  0  0  0
 33 70  2  0  0  0
 34 36  1  0  0  0
 34 59  1  0  0  0
 34109  1  0  0  0
 35 44  2  0  0  0
 35 45  1  0  0  0
 35 68  1  0  0  0
 36 56  1  0  0  0
 36110  1  0  0  0
 37 39  1  0  0  0
 37 47  1  0  0  0
 37 66  1  0  0  0
 37111  1  0  0  0
 38 43  2  0  0  0
 38 46  1  0  0  0
 38 47  1  0  0  0
 39 64  1  0  0  0
 39 67  2  0  0  0
 40 52  1  0  0  0
 40 53  2  0  0  0
 40 58  1  0  0  0
 41112  1  0  0  0
 41113  1  0  0  0
 41114  1  0  0  0
 41 48  1  0  0  0
 42 43  1  0  0  0
 42 66  1  0  0  0
 42115  1  0  0  0
 42116  1  0  0  0
 43 44  1  0  0  0
 44117  1  0  0  0
 45 46  2  0  0  0
 45118  1  0  0  0
 46119  1  0  0  0
 47120  1  0  0  0
 47121  1  0  0  0
 48 56  1  0  0  0
 48 65  1  0  0  0
 48122  1  0  0  0
 49 50  1  0  0  0
 49 53  1  0  0  0
 49 64  1  0  0  0
 49123  1  0  0  0
 50 51  1  0  0  0
 50124  1  0  0  0
 50125  1  0  0  0
 51 52  1  0  0  0
 51126  1  0  0  0
 51127  1  0  0  0
 52128  1  0  0  0
 52129  1  0  0  0
 53 54  1  0  0  0
 54 55  2  0  0  0
 54130  1  0  0  0
 55 57  1  0  0  0
 55131  1  0  0  0
 56 69  2  0  0  0
 57 58  2  0  0  0
 57132  1  0  0  0
 58133  1  0  0  0
 59 60  1  0  0  0
 59 61  1  0  0  0
 59 62  1  0  0  0
 60134  1  0  0  0
 60135  1  0  0  0
 60136  1  0  0  0
 61137  1  0  0  0
 61138  1  0  0  0
 61139  1  0  0  0
 62140  1  0  0  0
 62141  1  0  0  0
 62142  1  0  0  0
 63 65  1  0  0  0
 63143  1  0  0  0
 63144  1  0  0  0
 63145  1  0  0  0
 64146  1  0  0  0
 65147  1  0  0  0
 68 83  1  0  0  0
 71 72  2  0  0  0
 71 75  1  0  0  0
 71148  1  0  0  0
 72 76  1  0  0  0
 72149  1  0  0  0
 73 74  1  0  0  0
 73 75  2  0  0  0
 73150  1  0  0  0
 74 76  2  0  0  0
 74 85  1  0  0  0
 75 86  1  0  0  0
 76 88  1  0  0  0
 77 78  2  0  0  0
 77 79  1  0  0  0
 77 87  1  0  0  0
 78 84  1  0  0  0
 78151  1  0  0  0
 79 83  1  0  0  0
 79152  1  0  0  0
 79153  1  0  0  0
 80 81  1  0  0  0
 80 82  1  0  0  0
 80154  1  0  0  0
 80155  1  0  0  0
 81 83  1  0  0  0
 81156  1  0  0  0
 81157  1  0  0  0
 82 87  1  0  0  0
 82158  1  0  0  0
 82159  1  0  0  0
 83160  1  0  0  0
 84161  1  0  0  0
 84162  1  0  0  0
 84163  1  0  0  0
 85164  1  0  0  0
 85165  1  0  0  0
 85 87  1  0  0  0
 86166  1  0  0  0
 87167  1  0  0  0
M  CHG  1  87   1
M  ISO  4   1 100  68 101  83 101  86 100
M  END
> <chiral flag>
0

> <version>
0

> <s_m_source_file>
/data/baiqing/PycharmProjects/Reinvent-master-3.2/result/LINK_invent/BTK/process_docking_weight1_custom_product_contain_oxygen_bond_distance_aromatic_linkinvent_7_9_3/rearranged_h_0038.sdf

> <i_m_source_file_index>
77

> <r_mmod_Potential_Energy-OPLS-2005>
-36.6050262451172

> <r_mmod_Stretch_Energy-OPLS-2005>
81.1581115722656

> <r_mmod_Bend_Energy-OPLS-2005>
160.749542236328

> <r_mmod_Torsional_Energy-OPLS-2005>
249.733428955078

> <r_mmod_Improper_Torsional_Energy-OPLS-2005>
4.86003828048706

> <r_mmod_Van_der_Waal_Energy-OPLS-2005>
174.063583374023

> <r_mmod_Electrostatic_Energy-OPLS-2005>
-310.524291992188

> <r_mmod_Solvation_Energy-OPLS-2005>
-436.823120117188

> <b_mmod_Minimization_Converged-OPLS-2005>
0

> <r_mmod_RMS_Derivative-OPLS-2005>
6.71613645553589

$$$$
77
                    3D
 Structure written by MMmdl.
164173  0  0  1  0            999 V2000
  -30.6442  -14.7010   20.4305 C   0  0  0  0  0  0
  -30.4256  -12.4223   19.4608 C   0  0  0  0  0  0
  -29.5022  -12.4981   18.2264 C   0  0  0  0  0  0
  -28.0282  -12.3389   18.6428 C   0  0  0  0  0  0
  -27.6419  -13.2317   19.8538 C   0  0  2  0  0  0
  -28.6924  -13.1549   20.9829 C   0  0  0  0  0  0
  -25.2507  -13.8204   20.5744 C   0  0  0  0  0  0
  -24.1798  -13.0448   20.9240 C   0  0  0  0  0  0
  -24.6378  -11.6924   20.8760 C   0  0  0  0  0  0
  -23.9039  -10.4304   21.0391 C   0  0  0  0  0  0
  -24.3602   -9.4213   21.9155 C   0  0  0  0  0  0
  -23.6298   -8.2242   22.0720 C   0  0  0  0  0  0
  -22.4284   -8.0265   21.3521 C   0  0  0  0  0  0
  -21.9904   -9.0230   20.4625 C   0  0  0  0  0  0
  -22.7214  -10.2120   20.3032 C   0  0  0  0  0  0
  -21.6866   -6.0714   22.5269 C   0  0  0  0  0  0
  -21.4024   -6.5613   23.8199 C   0  0  0  0  0  0
  -21.3667   -5.6764   24.9159 C   0  0  0  0  0  0
  -21.6052   -4.3026   24.7218 C   0  0  0  0  0  0
  -21.8826   -3.8115   23.4338 C   0  0  0  0  0  0
  -21.9199   -4.6937   22.3393 C   0  0  0  0  0  0
  -22.7807  -13.5220   21.1879 C   0  0  0  0  0  0
  -22.1668   -4.2123   21.0970 F   0  0  0  0  0  0
  -21.5633   -3.4508   25.7730 F   0  0  0  0  0  0
  -29.9954  -13.4880   20.3915 N   0  0  0  0  0  0
  -26.2938  -12.9419   20.3341 N   0  0  0  0  0  0
  -25.9301  -11.6559   20.5729 N   0  0  0  0  0  0
  -22.0446  -12.8229   22.0455 N   0  0  0  0  0  0
  -25.4159  -15.1930   20.4163 N   0  0  0  0  0  0
  -31.8400  -14.7528   20.1360 O   0  0  0  0  0  0
  -21.6639   -6.8867   21.4237 O   0  0  0  0  0  0
  -22.3485  -14.5498   20.6675 O   0  0  0  0  0  0
  -24.6315  -31.8546   23.1962 C   0  0  0  0  0  0
  -25.9147  -32.4745   23.8311 C   0  0  1  0  0  0
  -27.2166  -27.2615   20.1254 C   0  0  0  0  0  0
  -25.5927  -33.8546   24.2234 N   0  0  0  0  0  0
  -23.4258  -30.4778   21.5412 C   0  0  2  0  0  0
  -24.8705  -28.9170   20.1130 C   0  0  0  0  0  0
  -22.7510  -29.4599   22.4918 C   0  0  0  0  0  0
  -18.0307  -28.1398   22.8509 C   0  0  0  0  0  0
  -24.1486  -36.7277   23.2643 C   0  0  0  0  0  0
  -25.9726  -30.7670   21.3739 C   0  0  0  0  0  0
  -26.0450  -29.3891   20.7155 C   0  0  0  0  0  0
  -27.2247  -28.5778   20.6992 C   0  0  0  0  0  0
  -26.0201  -26.8473   19.5083 C   0  0  0  0  0  0
  -24.8642  -27.6548   19.4976 C   0  0  0  0  0  0
  -23.6418  -29.8077   20.1590 C   0  0  0  0  0  0
  -25.4119  -36.3073   24.0328 C   0  0  1  0  0  0
  -20.5915  -28.3682   23.1283 C   0  0  2  0  0  0
  -20.6768  -26.9407   22.5389 C   0  0  0  0  0  0
  -19.5717  -26.6390   21.5220 C   0  0  0  0  0  0
  -18.1915  -26.7946   22.1654 C   0  0  0  0  0  0
  -19.1565  -28.8856   23.2892 C   0  0  0  0  0  0
  -18.9489  -30.1473   23.8882 C   0  0  0  0  0  0
  -17.6477  -30.6582   24.0590 C   0  0  0  0  0  0
  -25.9058  -34.9438   23.5095 C   0  0  0  0  0  0
  -16.5370  -29.9080   23.6363 C   0  0  0  0  0  0
  -16.7289  -28.6517   23.0354 C   0  0  0  0  0  0
  -26.4499  -31.6565   25.0698 C   0  0  0  0  0  0
  -25.3705  -31.3724   26.1408 C   0  0  0  0  0  0
  -27.0352  -30.2977   24.6200 C   0  0  0  0  0  0
  -27.6048  -32.4319   25.7462 C   0  0  0  0  0  0
  -27.5586  -37.1803   24.8469 C   0  0  0  0  0  0
  -21.4215  -29.3029   22.3669 N   0  0  0  0  0  0
  -26.4297  -37.3769   23.9411 N   0  0  0  0  0  0
  -24.6962  -31.0508   22.0939 N   0  0  0  0  0  0
  -23.4229  -28.8140   23.2991 O   0  0  0  0  0  0
  -28.3262  -26.3879   20.0984 O   0  0  0  0  0  0
  -26.5641  -34.8914   22.4669 O   0  0  0  0  0  0
  -23.5462  -32.1362   23.7265 O   0  0  0  0  0  0
  -32.0156  -19.0130   20.6543 C   0  0  0  0  0  0
  -31.1058  -20.0441   20.3572 C   0  0  0  0  0  0
  -31.6024  -17.6704   20.7245 C   0  0  0  0  0  0
  -29.7385  -19.7858   20.1129 C   0  0  0  0  0  0
  -29.3341  -18.3748   20.1667 C   0  0  0  0  0  0
  -30.2634  -17.2906   20.4713 C   0  0  0  0  0  0
  -28.5751  -22.3461   21.8803 C   0  0  0  0  0  0
  -27.8859  -21.3340   22.4435 C   0  0  0  0  0  0
  -29.0159  -23.6037   22.6295 C   0  0  0  0  0  0
  -29.2305  -24.8693   21.7672 C   0  0  0  0  0  0
  -28.4234  -23.6595   19.7190 C   0  0  0  0  0  0
  -28.2088  -24.9814   20.6280 C   0  0  2  0  0  0
  -27.9064  -17.9632   19.8403 C   0  0  0  0  0  0
  -28.8467  -21.0481   19.6800 C   0  0  0  0  0  0
  -29.8824  -15.8536   20.5466 N   0  0  0  0  0  0
  -28.9574  -22.3925   20.4293 N   0  3  2  0  0  0
  -31.4663  -12.5331   19.1511 H   0  0  0  0  0  0
  -30.3603  -11.4454   19.9423 H   0  0  0  0  0  0
  -29.7761  -11.7269   17.5047 H   0  0  0  0  0  0
  -29.6406  -13.4549   17.7212 H   0  0  0  0  0  0
  -27.8807  -11.2891   18.8953 H   0  0  0  0  0  0
  -27.3714  -12.5403   17.7961 H   0  0  0  0  0  0
  -27.6379  -14.2558   19.4826 H   0  0  0  0  0  0
  -28.7185  -12.1553   21.4234 H   0  0  0  0  0  0
  -28.4385  -13.8396   21.7929 H   0  0  0  0  0  0
  -25.2740   -9.5701   22.4732 H   0  0  0  0  0  0
  -24.0002   -7.4642   22.7443 H   0  0  0  0  0  0
  -21.0830   -8.8732   19.8956 H   0  0  0  0  0  0
  -22.3650  -10.9638   19.6132 H   0  0  0  0  0  0
  -21.2017   -7.6122   23.9699 H   0  0  0  0  0  0
  -21.1493   -6.0487   25.9061 H   0  0  0  0  0  0
  -22.0608   -2.7579   23.2832 H   0  0  0  0  0  0
  -22.4051  -11.9906   22.4891 H   0  0  0  0  0  0
  -21.1027  -13.1205   22.2578 H   0  0  0  0  0  0
  -24.6468  -15.8425   20.5379 H   0  0  0  0  0  0
  -26.2508  -15.6309   20.0528 H   0  0  0  0  0  0
  -26.7218  -32.5390   23.1053 H   0  0  0  0  0  0
  -25.0058  -33.9674   25.0369 H   0  0  0  0  0  0
  -22.7205  -31.2994   21.3995 H   0  0  0  0  0  0
  -23.3752  -35.9607   23.3299 H   0  0  0  0  0  0
  -24.3558  -36.8884   22.2052 H   0  0  0  0  0  0
  -23.7219  -37.6469   23.6663 H   0  0  0  0  0  0
  -26.1180  -31.5299   20.6088 H   0  0  0  0  0  0
  -26.8473  -30.8083   22.0117 H   0  0  0  0  0  0
  -28.1323  -28.9452   21.1582 H   0  0  0  0  0  0
  -25.9713  -25.8809   19.0289 H   0  0  0  0  0  0
  -23.9684  -27.2903   19.0141 H   0  0  0  0  0  0
  -23.7655  -30.5821   19.4017 H   0  0  0  0  0  0
  -22.7586  -29.2444   19.8539 H   0  0  0  0  0  0
  -25.1303  -36.1920   25.0820 H   0  0  0  0  0  0
  -21.0049  -28.3235   24.1384 H   0  0  0  0  0  0
  -20.5701  -26.2284   23.3583 H   0  0  0  0  0  0
  -21.6622  -26.7423   22.1154 H   0  0  0  0  0  0
  -19.6838  -25.6306   21.1219 H   0  0  0  0  0  0
  -19.6634  -27.3221   20.6770 H   0  0  0  0  0  0
  -17.4192  -26.6762   21.4050 H   0  0  0  0  0  0
  -18.0277  -26.0076   22.9028 H   0  0  0  0  0  0
  -19.7957  -30.7325   24.2204 H   0  0  0  0  0  0
  -17.5027  -31.6249   24.5228 H   0  0  0  0  0  0
  -15.5370  -30.2969   23.7690 H   0  0  0  0  0  0
  -15.8700  -28.0840   22.7035 H   0  0  0  0  0  0
  -24.5874  -30.7093   25.7714 H   0  0  0  0  0  0
  -24.8914  -32.2899   26.4839 H   0  0  0  0  0  0
  -25.7991  -30.8872   27.0185 H   0  0  0  0  0  0
  -26.2946  -29.6709   24.1228 H   0  0  0  0  0  0
  -27.4013  -29.7252   25.4727 H   0  0  0  0  0  0
  -27.8822  -30.4220   23.9456 H   0  0  0  0  0  0
  -27.2654  -33.3624   26.2027 H   0  0  0  0  0  0
  -28.3858  -32.6870   25.0286 H   0  0  0  0  0  0
  -28.0734  -31.8460   26.5378 H   0  0  0  0  0  0
  -28.2623  -38.0088   24.7533 H   0  0  0  0  0  0
  -28.1067  -36.2623   24.6296 H   0  0  0  0  0  0
  -27.2308  -37.1458   25.8874 H   0  0  0  0  0  0
  -20.9420  -29.8747   21.6863 H   0  0  0  0  0  0
  -26.0171  -38.2842   24.1397 H   0  0  0  0  0  0
  -33.0582  -19.2506   20.8185 H   0  0  0  0  0  0
  -31.4941  -21.0515   20.2911 H   0  0  0  0  0  0
  -32.3561  -16.9390   20.9728 H   0  0  0  0  0  0
  -27.6310  -21.3642   23.4924 H   0  0  0  0  0  0
  -27.5688  -20.4587   21.8981 H   0  0  0  0  0  0
  -29.9238  -23.3775   23.1878 H   0  0  0  0  0  0
  -28.2478  -23.8154   23.3768 H   0  0  0  0  0  0
  -30.2343  -24.8607   21.3403 H   0  0  0  0  0  0
  -29.1887  -25.7508   22.4067 H   0  0  0  0  0  0
  -29.1136  -23.8922   18.9094 H   0  0  0  0  0  0
  -27.4733  -23.4212   19.2383 H   0  0  0  0  0  0
  -27.2225  -24.8878   21.0855 H   0  0  0  0  0  0
  -27.2119  -18.7881   19.7202 H   0  0  0  0  0  0
  -27.5128  -17.3305   20.6351 H   0  0  0  0  0  0
  -27.8959  -17.3866   18.9160 H   0  0  0  0  0  0
  -27.7908  -20.7936   19.6577 H   0  0  0  0  0  0
  -29.0944  -21.2444   18.6364 H   0  0  0  0  0  0
  -28.8972  -15.6739   20.6595 H   0  0  0  0  0  0
  -29.9535  -22.5530   20.4285 H   0  0  0  0  0  0
  1 25  1  0  0  0
  1 30  2  0  0  0
  1 85  1  0  0  0
  2  3  1  0  0  0
  2 25  1  0  0  0
  2 87  1  0  0  0
  2 88  1  0  0  0
  3  4  1  0  0  0
  3 89  1  0  0  0
  3 90  1  0  0  0
  4  5  1  0  0  0
  4 91  1  0  0  0
  4 92  1  0  0  0
  5  6  1  0  0  0
  5 26  1  0  0  0
  5 93  1  0  0  0
  6 25  1  0  0  0
  6 94  1  0  0  0
  6 95  1  0  0  0
  7  8  2  0  0  0
  7 26  1  0  0  0
  7 29  1  0  0  0
  8  9  1  0  0  0
  8 22  1  0  0  0
  9 10  1  0  0  0
  9 27  2  0  0  0
 10 11  2  0  0  0
 10 15  1  0  0  0
 11 12  1  0  0  0
 11 96  1  0  0  0
 12 13  2  0  0  0
 12 97  1  0  0  0
 13 14  1  0  0  0
 13 31  1  0  0  0
 14 15  2  0  0  0
 14 98  1  0  0  0
 15 99  1  0  0  0
 16 17  2  0  0  0
 16 21  1  0  0  0
 16 31  1  0  0  0
 17 18  1  0  0  0
 17100  1  0  0  0
 18 19  2  0  0  0
 18101  1  0  0  0
 19 20  1  0  0  0
 19 24  1  0  0  0
 20 21  2  0  0  0
 20102  1  0  0  0
 21 23  1  0  0  0
 22 28  1  0  0  0
 22 32  2  0  0  0
 26 27  1  0  0  0
 28103  1  0  0  0
 28104  1  0  0  0
 29105  1  0  0  0
 29106  1  0  0  0
 33 34  1  0  0  0
 33 66  1  0  0  0
 33 70  2  0  0  0
 34 36  1  0  0  0
 34 59  1  0  0  0
 34107  1  0  0  0
 35 44  2  0  0  0
 35 45  1  0  0  0
 35 68  1  0  0  0
 36 56  1  0  0  0
 36108  1  0  0  0
 37 39  1  0  0  0
 37 47  1  0  0  0
 37 66  1  0  0  0
 37109  1  0  0  0
 38 43  2  0  0  0
 38 46  1  0  0  0
 38 47  1  0  0  0
 39 64  1  0  0  0
 39 67  2  0  0  0
 40 52  1  0  0  0
 40 53  2  0  0  0
 40 58  1  0  0  0
 41110  1  0  0  0
 41111  1  0  0  0
 41112  1  0  0  0
 41 48  1  0  0  0
 42 43  1  0  0  0
 42 66  1  0  0  0
 42113  1  0  0  0
 42114  1  0  0  0
 43 44  1  0  0  0
 44115  1  0  0  0
 45 46  2  0  0  0
 45116  1  0  0  0
 46117  1  0  0  0
 47118  1  0  0  0
 47119  1  0  0  0
 48 56  1  0  0  0
 48 65  1  0  0  0
 48120  1  0  0  0
 49 50  1  0  0  0
 49 53  1  0  0  0
 49 64  1  0  0  0
 49121  1  0  0  0
 50 51  1  0  0  0
 50122  1  0  0  0
 50123  1  0  0  0
 51 52  1  0  0  0
 51124  1  0  0  0
 51125  1  0  0  0
 52126  1  0  0  0
 52127  1  0  0  0
 53 54  1  0  0  0
 54 55  2  0  0  0
 54128  1  0  0  0
 55 57  1  0  0  0
 55129  1  0  0  0
 56 69  2  0  0  0
 57 58  2  0  0  0
 57130  1  0  0  0
 58131  1  0  0  0
 59 60  1  0  0  0
 59 61  1  0  0  0
 59 62  1  0  0  0
 60132  1  0  0  0
 60133  1  0  0  0
 60134  1  0  0  0
 61135  1  0  0  0
 61136  1  0  0  0
 61137  1  0  0  0
 62138  1  0  0  0
 62139  1  0  0  0
 62140  1  0  0  0
 63 65  1  0  0  0
 63141  1  0  0  0
 63142  1  0  0  0
 63143  1  0  0  0
 64144  1  0  0  0
 65145  1  0  0  0
 68 82  1  0  0  0
 71 72  2  0  0  0
 71 73  1  0  0  0
 71146  1  0  0  0
 72 74  1  0  0  0
 72147  1  0  0  0
 73 76  2  0  0  0
 73148  1  0  0  0
 74 75  2  0  0  0
 74 84  1  0  0  0
 75 76  1  0  0  0
 75 83  1  0  0  0
 76 85  1  0  0  0
 77 78  2  0  0  0
 77 79  1  0  0  0
 77 86  1  0  0  0
 78149  1  0  0  0
 78150  1  0  0  0
 79 80  1  0  0  0
 79151  1  0  0  0
 79152  1  0  0  0
 80 82  1  0  0  0
 80153  1  0  0  0
 80154  1  0  0  0
 81 82  1  0  0  0
 81 86  1  0  0  0
 81155  1  0  0  0
 81156  1  0  0  0
 82157  1  0  0  0
 83158  1  0  0  0
 83159  1  0  0  0
 83160  1  0  0  0
 84161  1  0  0  0
 84162  1  0  0  0
 84 86  1  0  0  0
 85163  1  0  0  0
 86164  1  0  0  0
M  CHG  1  86   1
M  ISO  4   1 100  68 101  82 101  85 100
M  END
> <chiral flag>
0

> <version>
0

> <s_m_source_file>
/data/baiqing/PycharmProjects/Reinvent-master-3.2/result/LINK_invent/BTK/process_docking_weight1_custom_product_contain_oxygen_bond_distance_aromatic_linkinvent_7_9_3/rearranged_h_0038.sdf

> <i_m_source_file_index>
78

> <r_mmod_Potential_Energy-OPLS-2005>
76.563362121582

> <r_mmod_Stretch_Energy-OPLS-2005>
128.122268676758

> <r_mmod_Bend_Energy-OPLS-2005>
174.982086181641

> <r_mmod_Torsional_Energy-OPLS-2005>
257.588500976562

> <r_mmod_Improper_Torsional_Energy-OPLS-2005>
6.50353384017944

> <r_mmod_Van_der_Waal_Energy-OPLS-2005>
144.334945678711

> <r_mmod_Electrostatic_Energy-OPLS-2005>
-280.802734375

> <r_mmod_Solvation_Energy-OPLS-2005>
-427.320159912109

> <b_mmod_Minimization_Converged-OPLS-2005>
0

> <r_mmod_RMS_Derivative-OPLS-2005>
3.62988328933716

$$$$
78
                    3D
 Structure written by MMmdl.
173182  0  0  1  0            999 V2000
  -30.6561  -14.5481   20.5375 C   0  0  0  0  0  0
  -30.4321  -12.3444   19.4372 C   0  0  0  0  0  0
  -29.5023  -12.5131   18.2157 C   0  0  0  0  0  0
  -28.0233  -12.3648   18.6249 C   0  0  0  0  0  0
  -27.6597  -13.2105   19.8747 C   0  0  2  0  0  0
  -28.7025  -13.0139   20.9988 C   0  0  0  0  0  0
  -25.2581  -13.8162   20.5685 C   0  0  0  0  0  0
  -24.1834  -13.0433   20.9175 C   0  0  0  0  0  0
  -24.6396  -11.6903   20.8730 C   0  0  0  0  0  0
  -23.9064  -10.4290   21.0399 C   0  0  0  0  0  0
  -24.3615   -9.4206   21.9179 C   0  0  0  0  0  0
  -23.6293   -8.2240   22.0755 C   0  0  0  0  0  0
  -22.4275   -8.0279   21.3545 C   0  0  0  0  0  0
  -21.9909   -9.0248   20.4643 C   0  0  0  0  0  0
  -22.7235  -10.2129   20.3050 C   0  0  0  0  0  0
  -21.6851   -6.0734   22.5278 C   0  0  0  0  0  0
  -21.4013   -6.5639   23.8212 C   0  0  0  0  0  0
  -21.3659   -5.6792   24.9174 C   0  0  0  0  0  0
  -21.6046   -4.3056   24.7222 C   0  0  0  0  0  0
  -21.8819   -3.8147   23.4344 C   0  0  0  0  0  0
  -21.9193   -4.6963   22.3400 C   0  0  0  0  0  0
  -22.7857  -13.5229   21.1839 C   0  0  0  0  0  0
  -22.1660   -4.2152   21.0976 F   0  0  0  0  0  0
  -21.5630   -3.4539   25.7736 F   0  0  0  0  0  0
  -30.0282  -13.3390   20.4462 N   0  0  0  0  0  0
  -26.3018  -12.9334   20.3361 N   0  0  0  0  0  0
  -25.9327  -11.6494   20.5764 N   0  0  0  0  0  0
  -22.0498  -12.8219   22.0392 N   0  0  0  0  0  0
  -25.4307  -15.1884   20.4111 N   0  0  0  0  0  0
  -31.7977  -14.7310   20.1028 O   0  0  0  0  0  0
  -21.6638   -6.8876   21.4241 O   0  0  0  0  0  0
  -22.3542  -14.5536   20.6695 O   0  0  0  0  0  0
  -24.6190  -31.8650   23.2080 C   0  0  0  0  0  0
  -25.9064  -32.4806   23.8387 C   0  0  1  0  0  0
  -27.2258  -27.3861   20.1155 C   0  0  0  0  0  0
  -25.5903  -33.8606   24.2313 N   0  0  0  0  0  0
  -23.4099  -30.4880   21.5492 C   0  0  2  0  0  0
  -24.8584  -28.9492   20.1152 C   0  0  0  0  0  0
  -22.7437  -29.4642   22.4974 C   0  0  0  0  0  0
  -18.0275  -28.1389   22.8490 C   0  0  0  0  0  0
  -24.1484  -36.7310   23.2634 C   0  0  0  0  0  0
  -25.9438  -30.8151   21.3701 C   0  0  0  0  0  0
  -26.0207  -29.4442   20.7220 C   0  0  0  0  0  0
  -27.2104  -28.6697   20.7209 C   0  0  0  0  0  0
  -26.0551  -26.9306   19.4768 C   0  0  0  0  0  0
  -24.8722  -27.6927   19.4875 C   0  0  0  0  0  0
  -23.6222  -29.8211   20.1642 C   0  0  0  0  0  0
  -25.4106  -36.3104   24.0332 C   0  0  1  0  0  0
  -20.5869  -28.3680   23.1309 C   0  0  2  0  0  0
  -20.6769  -26.9413   22.5414 C   0  0  0  0  0  0
  -19.5745  -26.6393   21.5216 C   0  0  0  0  0  0
  -18.1922  -26.7934   22.1623 C   0  0  0  0  0  0
  -19.1525  -28.8850   23.2895 C   0  0  0  0  0  0
  -18.9450  -30.1453   23.8913 C   0  0  0  0  0  0
  -17.6451  -30.6592   24.0570 C   0  0  0  0  0  0
  -25.9041  -34.9467   23.5123 C   0  0  0  0  0  0
  -16.5343  -29.9096   23.6330 C   0  0  0  0  0  0
  -16.7264  -28.6513   23.0351 C   0  0  0  0  0  0
  -26.4483  -31.6591   25.0724 C   0  0  0  0  0  0
  -25.3742  -31.3687   26.1462 C   0  0  0  0  0  0
  -27.0316  -30.3028   24.6117 C   0  0  0  0  0  0
  -27.6053  -32.4312   25.7490 C   0  0  0  0  0  0
  -27.5585  -37.1798   24.8456 C   0  0  0  0  0  0
  -21.4160  -29.3038   22.3710 N   0  0  0  0  0  0
  -26.4288  -37.3794   23.9415 N   0  0  0  0  0  0
  -24.6757  -31.0714   22.1002 N   0  0  0  0  0  0
  -23.4183  -28.8180   23.3036 O   0  0  0  0  0  0
  -28.3526  -26.5793   20.0875 O   0  0  0  0  0  0
  -26.5610  -34.8920   22.4690 O   0  0  0  0  0  0
  -23.5370  -32.1424   23.7447 O   0  0  0  0  0  0
  -30.0969  -19.0268   19.4349 C   0  0  0  0  0  0
  -30.2946  -19.2460   21.8324 C   0  0  0  0  0  0
  -30.2787  -19.8651   20.5601 C   0  0  0  0  0  0
  -29.9805  -17.6161   19.5591 C   0  0  0  0  0  0
  -30.1762  -17.8357   21.9736 C   0  0  0  0  0  0
  -30.0557  -16.9916   20.8361 C   0  0  0  0  0  0
  -30.0790  -23.8284   20.0185 C   0  0  0  0  0  0
  -30.4878  -24.1242   18.7650 C   0  0  0  0  0  0
  -29.8569  -24.8800   21.1069 C   0  0  0  0  0  0
  -27.3246  -23.4081   19.9204 C   0  0  0  0  0  0
  -27.3243  -24.4336   21.0915 C   0  0  0  0  0  0
  -28.2400  -22.1476   20.0827 C   0  0  0  0  0  0
  -28.4416  -25.5294   21.0905 C   0  0  2  0  0  0
  -29.7720  -16.7991   18.2944 C   0  0  0  0  0  0
  -30.2097  -17.2316   23.3668 C   0  0  0  0  0  0
  -30.5812  -23.2022   17.5637 C   0  0  0  0  0  0
  -30.6587  -21.3616   20.3730 C   0  0  0  0  0  0
  -29.8930  -15.5661   21.0112 N   0  0  0  0  0  0
  -29.6328  -22.4622   20.4936 N   0  3  1  0  0  0
  -31.4755  -12.4575   19.1374 H   0  0  0  0  0  0
  -30.3475  -11.3373   19.8480 H   0  0  0  0  0  0
  -29.7515  -11.7790   17.4480 H   0  0  0  0  0  0
  -29.6612  -13.4935   17.7637 H   0  0  0  0  0  0
  -27.8409  -11.3090   18.8275 H   0  0  0  0  0  0
  -27.3733  -12.6296   17.7899 H   0  0  0  0  0  0
  -27.6944  -14.2552   19.5667 H   0  0  0  0  0  0
  -28.6923  -11.9815   21.3507 H   0  0  0  0  0  0
  -28.4563  -13.6217   21.8709 H   0  0  0  0  0  0
  -25.2761   -9.5683   22.4754 H   0  0  0  0  0  0
  -24.0004   -7.4632   22.7476 H   0  0  0  0  0  0
  -21.0843   -8.8763   19.8946 H   0  0  0  0  0  0
  -22.3694  -10.9668   19.6159 H   0  0  0  0  0  0
  -21.2005   -7.6147   23.9716 H   0  0  0  0  0  0
  -21.1483   -6.0522   25.9076 H   0  0  0  0  0  0
  -22.0600   -2.7612   23.2843 H   0  0  0  0  0  0
  -22.4117  -11.9877   22.4773 H   0  0  0  0  0  0
  -21.1114  -13.1240   22.2594 H   0  0  0  0  0  0
  -24.6652  -15.8447   20.5208 H   0  0  0  0  0  0
  -26.2864  -15.6294   20.0979 H   0  0  0  0  0  0
  -26.7137  -32.5515   23.1148 H   0  0  0  0  0  0
  -25.0036  -33.9762   25.0445 H   0  0  0  0  0  0
  -22.7008  -31.3064   21.4087 H   0  0  0  0  0  0
  -23.3753  -35.9635   23.3281 H   0  0  0  0  0  0
  -24.3581  -36.8948   22.2051 H   0  0  0  0  0  0
  -23.7225  -37.6501   23.6667 H   0  0  0  0  0  0
  -26.0605  -31.5759   20.5969 H   0  0  0  0  0  0
  -26.8301  -30.8718   21.9902 H   0  0  0  0  0  0
  -28.1078  -29.0449   21.1923 H   0  0  0  0  0  0
  -26.0535  -25.9706   18.9813 H   0  0  0  0  0  0
  -23.9828  -27.3101   19.0063 H   0  0  0  0  0  0
  -23.7350  -30.5970   19.4063 H   0  0  0  0  0  0
  -22.7444  -29.2442   19.8661 H   0  0  0  0  0  0
  -25.1280  -36.1962   25.0824 H   0  0  0  0  0  0
  -20.9957  -28.3254   24.1432 H   0  0  0  0  0  0
  -20.5688  -26.2288   23.3606 H   0  0  0  0  0  0
  -21.6641  -26.7463   22.1200 H   0  0  0  0  0  0
  -19.6913  -25.6308   21.1236 H   0  0  0  0  0  0
  -19.6685  -27.3214   20.6753 H   0  0  0  0  0  0
  -17.4192  -26.6682   21.4024 H   0  0  0  0  0  0
  -18.0320  -26.0074   22.9020 H   0  0  0  0  0  0
  -19.7921  -30.7267   24.2296 H   0  0  0  0  0  0
  -17.5003  -31.6273   24.5171 H   0  0  0  0  0  0
  -15.5345  -30.3003   23.7648 H   0  0  0  0  0  0
  -15.8661  -28.0841   22.7064 H   0  0  0  0  0  0
  -24.5921  -30.7034   25.7784 H   0  0  0  0  0  0
  -24.8926  -32.2835   26.4926 H   0  0  0  0  0  0
  -25.8088  -30.8836   27.0212 H   0  0  0  0  0  0
  -26.2864  -29.6784   24.1173 H   0  0  0  0  0  0
  -27.4078  -29.7268   25.4582 H   0  0  0  0  0  0
  -27.8706  -30.4335   23.9278 H   0  0  0  0  0  0
  -27.2679  -33.3615   26.2074 H   0  0  0  0  0  0
  -28.3862  -32.6868   25.0314 H   0  0  0  0  0  0
  -28.0725  -31.8432   26.5399 H   0  0  0  0  0  0
  -28.2573  -38.0124   24.7560 H   0  0  0  0  0  0
  -28.1115  -36.2662   24.6219 H   0  0  0  0  0  0
  -27.2313  -37.1374   25.8859 H   0  0  0  0  0  0
  -20.9334  -29.8751   21.6914 H   0  0  0  0  0  0
  -26.0176  -38.2865   24.1444 H   0  0  0  0  0  0
  -30.0900  -19.4691   18.4481 H   0  0  0  0  0  0
  -30.4463  -19.8551   22.7131 H   0  0  0  0  0  0
  -30.7592  -25.1504   18.5589 H   0  0  0  0  0  0
  -30.6169  -25.6568   21.0148 H   0  0  0  0  0  0
  -30.0320  -24.4226   22.0814 H   0  0  0  0  0  0
  -27.5506  -23.9272   18.9877 H   0  0  0  0  0  0
  -26.3048  -23.0435   19.7891 H   0  0  0  0  0  0
  -27.3780  -23.8825   22.0315 H   0  0  0  0  0  0
  -26.3500  -24.9177   21.1375 H   0  0  0  0  0  0
  -28.2565  -21.6017   19.1393 H   0  0  0  0  0  0
  -27.8105  -21.4672   20.8186 H   0  0  0  0  0  0
  -28.3469  -26.0612   22.0392 H   0  0  0  0  0  0
  -29.5157  -17.4360   17.4473 H   0  0  0  0  0  0
  -28.9610  -16.0822   18.4208 H   0  0  0  0  0  0
  -30.6804  -16.2545   18.0369 H   0  0  0  0  0  0
  -30.3860  -17.9877   24.1323 H   0  0  0  0  0  0
  -31.0053  -16.4900   23.4415 H   0  0  0  0  0  0
  -29.2618  -16.7421   23.5905 H   0  0  0  0  0  0
  -30.0400  -22.2672   17.6950 H   0  0  0  0  0  0
  -31.6236  -22.9808   17.3330 H   0  0  0  0  0  0
  -30.1450  -23.7001   16.6972 H   0  0  0  0  0  0
  -31.1631  -21.4301   19.4129 H   0  0  0  0  0  0
  -31.4451  -21.5899   21.0931 H   0  0  0  0  0  0
  -29.0353  -15.2778   21.4549 H   0  0  0  0  0  0
  -29.5437  -22.5395   21.4946 H   0  0  0  0  0  0
  1 25  1  0  0  0
  1 30  2  0  0  0
  1 88  1  0  0  0
  2  3  1  0  0  0
  2 25  1  0  0  0
  2 90  1  0  0  0
  2 91  1  0  0  0
  3  4  1  0  0  0
  3 92  1  0  0  0
  3 93  1  0  0  0
  4  5  1  0  0  0
  4 94  1  0  0  0
  4 95  1  0  0  0
  5  6  1  0  0  0
  5 26  1  0  0  0
  5 96  1  0  0  0
  6 25  1  0  0  0
  6 97  1  0  0  0
  6 98  1  0  0  0
  7  8  2  0  0  0
  7 26  1  0  0  0
  7 29  1  0  0  0
  8  9  1  0  0  0
  8 22  1  0  0  0
  9 10  1  0  0  0
  9 27  2  0  0  0
 10 11  2  0  0  0
 10 15  1  0  0  0
 11 12  1  0  0  0
 11 99  1  0  0  0
 12 13  2  0  0  0
 12100  1  0  0  0
 13 14  1  0  0  0
 13 31  1  0  0  0
 14 15  2  0  0  0
 14101  1  0  0  0
 15102  1  0  0  0
 16 17  2  0  0  0
 16 21  1  0  0  0
 16 31  1  0  0  0
 17 18  1  0  0  0
 17103  1  0  0  0
 18 19  2  0  0  0
 18104  1  0  0  0
 19 20  1  0  0  0
 19 24  1  0  0  0
 20 21  2  0  0  0
 20105  1  0  0  0
 21 23  1  0  0  0
 22 28  1  0  0  0
 22 32  2  0  0  0
 26 27  1  0  0  0
 28106  1  0  0  0
 28107  1  0  0  0
 29108  1  0  0  0
 29109  1  0  0  0
 33 34  1  0  0  0
 33 66  1  0  0  0
 33 70  2  0  0  0
 34 36  1  0  0  0
 34 59  1  0  0  0
 34110  1  0  0  0
 35 44  2  0  0  0
 35 45  1  0  0  0
 35 68  1  0  0  0
 36 56  1  0  0  0
 36111  1  0  0  0
 37 39  1  0  0  0
 37 47  1  0  0  0
 37 66  1  0  0  0
 37112  1  0  0  0
 38 43  2  0  0  0
 38 46  1  0  0  0
 38 47  1  0  0  0
 39 64  1  0  0  0
 39 67  2  0  0  0
 40 52  1  0  0  0
 40 53  2  0  0  0
 40 58  1  0  0  0
 41113  1  0  0  0
 41114  1  0  0  0
 41115  1  0  0  0
 41 48  1  0  0  0
 42 43  1  0  0  0
 42 66  1  0  0  0
 42116  1  0  0  0
 42117  1  0  0  0
 43 44  1  0  0  0
 44118  1  0  0  0
 45 46  2  0  0  0
 45119  1  0  0  0
 46120  1  0  0  0
 47121  1  0  0  0
 47122  1  0  0  0
 48 56  1  0  0  0
 48 65  1  0  0  0
 48123  1  0  0  0
 49 50  1  0  0  0
 49 53  1  0  0  0
 49 64  1  0  0  0
 49124  1  0  0  0
 50 51  1  0  0  0
 50125  1  0  0  0
 50126  1  0  0  0
 51 52  1  0  0  0
 51127  1  0  0  0
 51128  1  0  0  0
 52129  1  0  0  0
 52130  1  0  0  0
 53 54  1  0  0  0
 54 55  2  0  0  0
 54131  1  0  0  0
 55 57  1  0  0  0
 55132  1  0  0  0
 56 69  2  0  0  0
 57 58  2  0  0  0
 57133  1  0  0  0
 58134  1  0  0  0
 59 60  1  0  0  0
 59 61  1  0  0  0
 59 62  1  0  0  0
 60135  1  0  0  0
 60136  1  0  0  0
 60137  1  0  0  0
 61138  1  0  0  0
 61139  1  0  0  0
 61140  1  0  0  0
 62141  1  0  0  0
 62142  1  0  0  0
 62143  1  0  0  0
 63 65  1  0  0  0
 63144  1  0  0  0
 63145  1  0  0  0
 63146  1  0  0  0
 64147  1  0  0  0
 65148  1  0  0  0
 68 83  1  0  0  0
 71 73  2  0  0  0
 71 74  1  0  0  0
 71149  1  0  0  0
 72 73  1  0  0  0
 72 75  2  0  0  0
 72150  1  0  0  0
 73 87  1  0  0  0
 74 76  2  0  0  0
 74 84  1  0  0  0
 75 76  1  0  0  0
 75 85  1  0  0  0
 76 88  1  0  0  0
 77 78  2  0  0  0
 77 79  1  0  0  0
 77 89  1  0  0  0
 78 86  1  0  0  0
 78151  1  0  0  0
 79 83  1  0  0  0
 79152  1  0  0  0
 79153  1  0  0  0
 80 81  1  0  0  0
 80 82  1  0  0  0
 80154  1  0  0  0
 80155  1  0  0  0
 81 83  1  0  0  0
 81156  1  0  0  0
 81157  1  0  0  0
 82 89  1  0  0  0
 82158  1  0  0  0
 82159  1  0  0  0
 83160  1  0  0  0
 84161  1  0  0  0
 84162  1  0  0  0
 84163  1  0  0  0
 85164  1  0  0  0
 85165  1  0  0  0
 85166  1  0  0  0
 86167  1  0  0  0
 86168  1  0  0  0
 86169  1  0  0  0
 87170  1  0  0  0
 87171  1  0  0  0
 87 89  1  0  0  0
 88172  1  0  0  0
 89173  1  0  0  0
M  CHG  1  89   1
M  ISO  4   1 100  68 101  83 101  88 100
M  END
> <chiral flag>
0

> <version>
0

> <s_m_source_file>
/data/baiqing/PycharmProjects/Reinvent-master-3.2/result/LINK_invent/BTK/process_docking_weight1_custom_product_contain_oxygen_bond_distance_aromatic_linkinvent_7_9_3/rearranged_h_0038.sdf

> <i_m_source_file_index>
79

> <r_mmod_Potential_Energy-OPLS-2005>
-93.7580718994141

> <r_mmod_Stretch_Energy-OPLS-2005>
55.96533203125

> <r_mmod_Bend_Energy-OPLS-2005>
138.314041137695

> <r_mmod_Torsional_Energy-OPLS-2005>
287.851318359375

> <r_mmod_Improper_Torsional_Energy-OPLS-2005>
4.78163433074951

> <r_mmod_Van_der_Waal_Energy-OPLS-2005>
142.403961181641

> <r_mmod_Electrostatic_Energy-OPLS-2005>
-321.591857910156

> <r_mmod_Solvation_Energy-OPLS-2005>
-424.696624755859

> <b_mmod_Minimization_Converged-OPLS-2005>
0

> <r_mmod_RMS_Derivative-OPLS-2005>
0.91550624370575

$$$$
79
                    3D
 Structure written by MMmdl.
159167  0  0  1  0            999 V2000
  -30.7856  -14.3651   20.6927 C   0  0  0  0  0  0
  -30.4150  -12.2901   19.4098 C   0  0  0  0  0  0
  -29.4900  -12.5240   18.2019 C   0  0  0  0  0  0
  -28.0147  -12.3760   18.6169 C   0  0  0  0  0  0
  -27.6678  -13.2060   19.8810 C   0  0  2  0  0  0
  -28.7041  -12.9652   21.0019 C   0  0  0  0  0  0
  -25.2608  -13.8164   20.5681 C   0  0  0  0  0  0
  -24.1855  -13.0447   20.9175 C   0  0  0  0  0  0
  -24.6405  -11.6910   20.8724 C   0  0  0  0  0  0
  -23.9073  -10.4296   21.0402 C   0  0  0  0  0  0
  -24.3619   -9.4212   21.9186 C   0  0  0  0  0  0
  -23.6294   -8.2248   22.0754 C   0  0  0  0  0  0
  -22.4275   -8.0283   21.3547 C   0  0  0  0  0  0
  -21.9915   -9.0259   20.4648 C   0  0  0  0  0  0
  -22.7246  -10.2137   20.3053 C   0  0  0  0  0  0
  -21.6851   -6.0740   22.5287 C   0  0  0  0  0  0
  -21.4018   -6.5645   23.8221 C   0  0  0  0  0  0
  -21.3655   -5.6795   24.9180 C   0  0  0  0  0  0
  -21.6038   -4.3058   24.7229 C   0  0  0  0  0  0
  -21.8818   -3.8153   23.4349 C   0  0  0  0  0  0
  -21.9196   -4.6972   22.3408 C   0  0  0  0  0  0
  -22.7874  -13.5242   21.1846 C   0  0  0  0  0  0
  -22.1661   -4.2158   21.0985 F   0  0  0  0  0  0
  -21.5620   -3.4541   25.7738 F   0  0  0  0  0  0
  -30.0494  -13.2456   20.4666 N   0  0  0  0  0  0
  -26.3056  -12.9338   20.3388 N   0  0  0  0  0  0
  -25.9338  -11.6500   20.5770 N   0  0  0  0  0  0
  -22.0499  -12.8225   22.0379 N   0  0  0  0  0  0
  -25.4358  -15.1882   20.4102 N   0  0  0  0  0  0
  -31.7946  -14.6470   20.0375 O   0  0  0  0  0  0
  -21.6633   -6.8880   21.4247 O   0  0  0  0  0  0
  -22.3568  -14.5554   20.6697 O   0  0  0  0  0  0
  -24.6142  -31.8706   23.2150 C   0  0  0  0  0  0
  -25.9044  -32.4832   23.8421 C   0  0  1  0  0  0
  -27.2213  -27.4314   20.0795 C   0  0  0  0  0  0
  -25.5913  -33.8634   24.2350 N   0  0  0  0  0  0
  -23.4014  -30.4993   21.5546 C   0  0  2  0  0  0
  -24.8409  -28.9742   20.1108 C   0  0  0  0  0  0
  -22.7421  -29.4678   22.4986 C   0  0  0  0  0  0
  -18.0291  -28.1361   22.8501 C   0  0  0  0  0  0
  -24.1490  -36.7316   23.2645 C   0  0  0  0  0  0
  -25.9343  -30.8281   21.3755 C   0  0  0  0  0  0
  -26.0038  -29.4668   20.7163 C   0  0  0  0  0  0
  -27.1931  -28.6993   20.7062 C   0  0  0  0  0  0
  -26.0403  -26.9789   19.4391 C   0  0  0  0  0  0
  -24.8549  -27.7274   19.4725 C   0  0  0  0  0  0
  -23.6056  -29.8415   20.1665 C   0  0  0  0  0  0
  -25.4111  -36.3124   24.0349 C   0  0  1  0  0  0
  -20.5889  -28.3642   23.1320 C   0  0  2  0  0  0
  -20.6767  -26.9377   22.5421 C   0  0  0  0  0  0
  -19.5744  -26.6377   21.5216 C   0  0  0  0  0  0
  -18.1927  -26.7910   22.1632 C   0  0  0  0  0  0
  -19.1545  -28.8811   23.2899 C   0  0  0  0  0  0
  -18.9467  -30.1415   23.8901 C   0  0  0  0  0  0
  -17.6465  -30.6559   24.0558 C   0  0  0  0  0  0
  -25.9048  -34.9485   23.5147 C   0  0  0  0  0  0
  -16.5352  -29.9065   23.6329 C   0  0  0  0  0  0
  -16.7278  -28.6487   23.0350 C   0  0  0  0  0  0
  -26.4461  -31.6609   25.0745 C   0  0  0  0  0  0
  -25.3725  -31.3721   26.1499 C   0  0  0  0  0  0
  -27.0304  -30.3063   24.6112 C   0  0  0  0  0  0
  -27.6035  -32.4333   25.7505 C   0  0  0  0  0  0
  -27.5585  -37.1821   24.8471 C   0  0  0  0  0  0
  -21.4154  -29.3017   22.3721 N   0  0  0  0  0  0
  -26.4304  -37.3801   23.9406 N   0  0  0  0  0  0
  -24.6679  -31.0812   22.1048 N   0  0  0  0  0  0
  -23.4197  -28.8210   23.3015 O   0  0  0  0  0  0
  -28.3867  -26.6823   20.1172 O   0  0  0  0  0  0
  -26.5602  -34.8921   22.4708 O   0  0  0  0  0  0
  -23.5332  -32.1462   23.7536 O   0  0  0  0  0  0
  -29.9251  -17.6321   23.9865 C   0  0  0  0  0  0
  -29.1748  -18.7690   24.3410 C   0  0  0  0  0  0
  -29.9643  -18.3872   21.6673 C   0  0  0  0  0  0
  -30.3265  -17.4385   22.6495 C   0  0  0  0  0  0
  -29.2151  -19.5358   22.0171 C   0  0  0  0  0  0
  -28.8162  -19.7178   23.3639 C   0  0  0  0  0  0
  -31.1729  -16.2293   22.2845 C   0  0  0  0  0  0
  -28.8072  -20.5376   20.9389 C   0  0  0  0  0  0
  -29.2347  -24.3493   20.5215 C   0  0  0  0  0  0
  -28.9287  -22.8784   20.1418 C   0  0  0  0  0  0
  -28.2827  -25.2932   19.7623 C   0  0  0  0  0  0
  -30.3990  -15.1182   21.7311 N   0  0  0  0  0  0
  -29.4322  -21.8721   21.1087 N   0  3  0  0  0  0
  -27.9012  -21.1055   23.8393 Cl  0  0  0  0  0  0
  -31.4611  -12.3773   19.1113 H   0  0  0  0  0  0
  -30.3036  -11.2708   19.7836 H   0  0  0  0  0  0
  -29.7268  -11.8194   17.4035 H   0  0  0  0  0  0
  -29.6639  -13.5205   17.7934 H   0  0  0  0  0  0
  -27.8293  -11.3179   18.8077 H   0  0  0  0  0  0
  -27.3601  -12.6547   17.7909 H   0  0  0  0  0  0
  -27.7228  -14.2577   19.6002 H   0  0  0  0  0  0
  -28.6633  -11.9283   21.3381 H   0  0  0  0  0  0
  -28.4511  -13.5631   21.8772 H   0  0  0  0  0  0
  -25.2763   -9.5681   22.4763 H   0  0  0  0  0  0
  -24.0004   -7.4633   22.7469 H   0  0  0  0  0  0
  -21.0850   -8.8782   19.8945 H   0  0  0  0  0  0
  -22.3718  -10.9674   19.6156 H   0  0  0  0  0  0
  -21.2014   -7.6154   23.9733 H   0  0  0  0  0  0
  -21.1470   -6.0519   25.9083 H   0  0  0  0  0  0
  -22.0599   -2.7617   23.2850 H   0  0  0  0  0  0
  -22.4094  -11.9880   22.4767 H   0  0  0  0  0  0
  -21.1111  -13.1253   22.2559 H   0  0  0  0  0  0
  -24.6777  -15.8505   20.5267 H   0  0  0  0  0  0
  -26.2996  -15.6222   20.1086 H   0  0  0  0  0  0
  -26.7096  -32.5547   23.1164 H   0  0  0  0  0  0
  -25.0067  -33.9804   25.0498 H   0  0  0  0  0  0
  -22.6906  -31.3169   21.4212 H   0  0  0  0  0  0
  -23.3757  -35.9650   23.3330 H   0  0  0  0  0  0
  -24.3581  -36.8911   22.2057 H   0  0  0  0  0  0
  -23.7239  -37.6534   23.6622 H   0  0  0  0  0  0
  -26.0601  -31.5945   20.6103 H   0  0  0  0  0  0
  -26.8174  -30.8706   21.9999 H   0  0  0  0  0  0
  -28.0852  -29.0692   21.1918 H   0  0  0  0  0  0
  -25.9986  -26.0487   18.8932 H   0  0  0  0  0  0
  -23.9650  -27.3497   18.9857 H   0  0  0  0  0  0
  -23.7134  -30.6195   19.4103 H   0  0  0  0  0  0
  -22.7277  -29.2639   19.8710 H   0  0  0  0  0  0
  -25.1279  -36.2015   25.0841 H   0  0  0  0  0  0
  -20.9972  -28.3189   24.1445 H   0  0  0  0  0  0
  -20.5688  -26.2230   23.3605 H   0  0  0  0  0  0
  -21.6629  -26.7430   22.1192 H   0  0  0  0  0  0
  -19.6904  -25.6309   21.1209 H   0  0  0  0  0  0
  -19.6669  -27.3202   20.6764 H   0  0  0  0  0  0
  -17.4201  -26.6680   21.4023 H   0  0  0  0  0  0
  -18.0293  -26.0033   22.9002 H   0  0  0  0  0  0
  -19.7943  -30.7226   24.2256 H   0  0  0  0  0  0
  -17.5031  -31.6248   24.5147 H   0  0  0  0  0  0
  -15.5352  -30.2952   23.7648 H   0  0  0  0  0  0
  -15.8696  -28.0803   22.7040 H   0  0  0  0  0  0
  -24.5883  -30.7079   25.7849 H   0  0  0  0  0  0
  -24.8929  -32.2879   26.4964 H   0  0  0  0  0  0
  -25.8091  -30.8892   27.0255 H   0  0  0  0  0  0
  -26.2852  -29.6834   24.1150 H   0  0  0  0  0  0
  -27.4076  -29.7284   25.4559 H   0  0  0  0  0  0
  -27.8673  -30.4414   23.9259 H   0  0  0  0  0  0
  -27.2646  -33.3624   26.2103 H   0  0  0  0  0  0
  -28.3824  -32.6923   25.0317 H   0  0  0  0  0  0
  -28.0700  -31.8445   26.5412 H   0  0  0  0  0  0
  -28.2617  -38.0098   24.7503 H   0  0  0  0  0  0
  -28.1063  -36.2642   24.6313 H   0  0  0  0  0  0
  -27.2300  -37.1495   25.8871 H   0  0  0  0  0  0
  -20.9289  -29.8788   21.7001 H   0  0  0  0  0  0
  -26.0215  -38.2899   24.1372 H   0  0  0  0  0  0
  -30.1995  -16.9156   24.7486 H   0  0  0  0  0  0
  -28.8760  -18.9145   25.3706 H   0  0  0  0  0  0
  -30.2664  -18.2286   20.6411 H   0  0  0  0  0  0
  -31.6964  -15.8713   23.1723 H   0  0  0  0  0  0
  -31.9552  -16.5613   21.5994 H   0  0  0  0  0  0
  -27.7204  -20.6267   20.9618 H   0  0  0  0  0  0
  -29.0541  -20.1475   19.9516 H   0  0  0  0  0  0
  -30.2762  -24.5924   20.3110 H   0  0  0  0  0  0
  -29.0834  -24.4951   21.5912 H   0  0  0  0  0  0
  -29.3185  -22.6590   19.1471 H   0  0  0  0  0  0
  -27.8463  -22.7532   20.0759 H   0  0  0  0  0  0
  -27.2951  -24.9087   20.0104 H   0  0  0  0  0  0
  -28.4180  -25.1894   18.6853 H   0  0  0  0  0  0
  -29.5756  -14.8255   22.2352 H   0  0  0  0  0  0
  -30.4326  -21.7850   21.0330 H   0  0  0  0  0  0
  -29.2153  -22.1781   22.0438 H   0  0  0  0  0  0
  1 25  1  0  0  0
  1 30  2  0  0  0
  1 82  1  0  0  0
  2  3  1  0  0  0
  2 25  1  0  0  0
  2 85  1  0  0  0
  2 86  1  0  0  0
  3  4  1  0  0  0
  3 87  1  0  0  0
  3 88  1  0  0  0
  4  5  1  0  0  0
  4 89  1  0  0  0
  4 90  1  0  0  0
  5  6  1  0  0  0
  5 26  1  0  0  0
  5 91  1  0  0  0
  6 25  1  0  0  0
  6 92  1  0  0  0
  6 93  1  0  0  0
  7  8  2  0  0  0
  7 26  1  0  0  0
  7 29  1  0  0  0
  8  9  1  0  0  0
  8 22  1  0  0  0
  9 10  1  0  0  0
  9 27  2  0  0  0
 10 11  2  0  0  0
 10 15  1  0  0  0
 11 12  1  0  0  0
 11 94  1  0  0  0
 12 13  2  0  0  0
 12 95  1  0  0  0
 13 14  1  0  0  0
 13 31  1  0  0  0
 14 15  2  0  0  0
 14 96  1  0  0  0
 15 97  1  0  0  0
 16 17  2  0  0  0
 16 21  1  0  0  0
 16 31  1  0  0  0
 17 18  1  0  0  0
 17 98  1  0  0  0
 18 19  2  0  0  0
 18 99  1  0  0  0
 19 20  1  0  0  0
 19 24  1  0  0  0
 20 21  2  0  0  0
 20100  1  0  0  0
 21 23  1  0  0  0
 22 28  1  0  0  0
 22 32  2  0  0  0
 26 27  1  0  0  0
 28101  1  0  0  0
 28102  1  0  0  0
 29103  1  0  0  0
 29104  1  0  0  0
 33 34  1  0  0  0
 33 66  1  0  0  0
 33 70  2  0  0  0
 34 36  1  0  0  0
 34 59  1  0  0  0
 34105  1  0  0  0
 35 44  2  0  0  0
 35 45  1  0  0  0
 35 68  1  0  0  0
 36 56  1  0  0  0
 36106  1  0  0  0
 37 39  1  0  0  0
 37 47  1  0  0  0
 37 66  1  0  0  0
 37107  1  0  0  0
 38 43  2  0  0  0
 38 46  1  0  0  0
 38 47  1  0  0  0
 39 64  1  0  0  0
 39 67  2  0  0  0
 40 52  1  0  0  0
 40 53  2  0  0  0
 40 58  1  0  0  0
 41108  1  0  0  0
 41109  1  0  0  0
 41110  1  0  0  0
 41 48  1  0  0  0
 42 43  1  0  0  0
 42 66  1  0  0  0
 42111  1  0  0  0
 42112  1  0  0  0
 43 44  1  0  0  0
 44113  1  0  0  0
 45 46  2  0  0  0
 45114  1  0  0  0
 46115  1  0  0  0
 47116  1  0  0  0
 47117  1  0  0  0
 48 56  1  0  0  0
 48 65  1  0  0  0
 48118  1  0  0  0
 49 50  1  0  0  0
 49 53  1  0  0  0
 49 64  1  0  0  0
 49119  1  0  0  0
 50 51  1  0  0  0
 50120  1  0  0  0
 50121  1  0  0  0
 51 52  1  0  0  0
 51122  1  0  0  0
 51123  1  0  0  0
 52124  1  0  0  0
 52125  1  0  0  0
 53 54  1  0  0  0
 54 55  2  0  0  0
 54126  1  0  0  0
 55 57  1  0  0  0
 55127  1  0  0  0
 56 69  2  0  0  0
 57 58  2  0  0  0
 57128  1  0  0  0
 58129  1  0  0  0
 59 60  1  0  0  0
 59 61  1  0  0  0
 59 62  1  0  0  0
 60130  1  0  0  0
 60131  1  0  0  0
 60132  1  0  0  0
 61133  1  0  0  0
 61134  1  0  0  0
 61135  1  0  0  0
 62136  1  0  0  0
 62137  1  0  0  0
 62138  1  0  0  0
 63 65  1  0  0  0
 63139  1  0  0  0
 63140  1  0  0  0
 63141  1  0  0  0
 64142  1  0  0  0
 65143  1  0  0  0
 68 81  1  0  0  0
 71 72  2  0  0  0
 71 74  1  0  0  0
 71144  1  0  0  0
 72 76  1  0  0  0
 72145  1  0  0  0
 73 74  2  0  0  0
 73 75  1  0  0  0
 73146  1  0  0  0
 74 77  1  0  0  0
 75 76  2  0  0  0
 75 78  1  0  0  0
 76 84  1  0  0  0
 77 82  1  0  0  0
 77147  1  0  0  0
 77148  1  0  0  0
 78 83  1  0  0  0
 78149  1  0  0  0
 78150  1  0  0  0
 79 80  1  0  0  0
 79 81  1  0  0  0
 79151  1  0  0  0
 79152  1  0  0  0
 80 83  1  0  0  0
 80153  1  0  0  0
 80154  1  0  0  0
 81155  1  0  0  0
 81156  1  0  0  0
 82157  1  0  0  0
 83158  1  0  0  0
 83159  1  0  0  0
M  CHG  1  83   1
M  ISO  4   1 100  68 101  81 101  82 100
M  END
> <chiral flag>
0

> <version>
0

> <s_m_source_file>
/data/baiqing/PycharmProjects/Reinvent-master-3.2/result/LINK_invent/BTK/process_docking_weight1_custom_product_contain_oxygen_bond_distance_aromatic_linkinvent_7_9_3/rearranged_h_0038.sdf

> <i_m_source_file_index>
80

> <r_mmod_Potential_Energy-OPLS-2005>
-334.975402832031

> <r_mmod_Stretch_Energy-OPLS-2005>
34.5489501953125

> <r_mmod_Bend_Energy-OPLS-2005>
91.614387512207

> <r_mmod_Torsional_Energy-OPLS-2005>
188.923156738281

> <r_mmod_Improper_Torsional_Energy-OPLS-2005>
2.15005326271057

> <r_mmod_Van_der_Waal_Energy-OPLS-2005>
164.392929077148

> <r_mmod_Electrostatic_Energy-OPLS-2005>
-361.97412109375

> <r_mmod_Solvation_Energy-OPLS-2005>
-465.262268066406

> <b_mmod_Minimization_Converged-OPLS-2005>
0

> <r_mmod_RMS_Derivative-OPLS-2005>
2.16737413406372

$$$$
80
                    3D
 Structure written by MMmdl.
162170  0  0  1  0            999 V2000
  -30.7170  -14.5117   20.5141 C   0  0  0  0  0  0
  -30.4158  -12.3173   19.4401 C   0  0  0  0  0  0
  -29.4962  -12.4942   18.2150 C   0  0  0  0  0  0
  -28.0181  -12.3512   18.6266 C   0  0  0  0  0  0
  -27.6518  -13.2092   19.8683 C   0  0  2  0  0  0
  -28.7000  -13.0614   20.9952 C   0  0  0  0  0  0
  -25.2549  -13.8160   20.5689 C   0  0  0  0  0  0
  -24.1807  -13.0422   20.9206 C   0  0  0  0  0  0
  -24.6375  -11.6888   20.8771 C   0  0  0  0  0  0
  -23.9054  -10.4270   21.0427 C   0  0  0  0  0  0
  -24.3613   -9.4189   21.9201 C   0  0  0  0  0  0
  -23.6296   -8.2219   22.0771 C   0  0  0  0  0  0
  -22.4285   -8.0252   21.3552 C   0  0  0  0  0  0
  -21.9913   -9.0228   20.4659 C   0  0  0  0  0  0
  -22.7233  -10.2110   20.3065 C   0  0  0  0  0  0
  -21.6849   -6.0718   22.5283 C   0  0  0  0  0  0
  -21.3996   -6.5634   23.8208 C   0  0  0  0  0  0
  -21.3666   -5.6798   24.9182 C   0  0  0  0  0  0
  -21.6043   -4.3057   24.7242 C   0  0  0  0  0  0
  -21.8818   -3.8143   23.4366 C   0  0  0  0  0  0
  -21.9194   -4.6951   22.3418 C   0  0  0  0  0  0
  -22.7826  -13.5217   21.1858 C   0  0  0  0  0  0
  -22.1665   -4.2131   21.0998 F   0  0  0  0  0  0
  -21.5645   -3.4540   25.7759 F   0  0  0  0  0  0
  -30.0273  -13.3409   20.4248 N   0  0  0  0  0  0
  -26.2974  -12.9311   20.3355 N   0  0  0  0  0  0
  -25.9305  -11.6475   20.5807 N   0  0  0  0  0  0
  -22.0460  -12.8202   22.0412 N   0  0  0  0  0  0
  -25.4253  -15.1880   20.4066 N   0  0  0  0  0  0
  -31.8813  -14.6186   20.1253 O   0  0  0  0  0  0
  -21.6648   -6.8850   21.4233 O   0  0  0  0  0  0
  -22.3501  -14.5510   20.6699 O   0  0  0  0  0  0
  -24.6180  -31.8680   23.2115 C   0  0  0  0  0  0
  -25.9062  -32.4815   23.8434 C   0  0  1  0  0  0
  -27.2275  -27.4040   20.0912 C   0  0  0  0  0  0
  -25.5886  -33.8623   24.2349 N   0  0  0  0  0  0
  -23.4069  -30.4972   21.5519 C   0  0  2  0  0  0
  -24.8475  -28.9662   20.1111 C   0  0  0  0  0  0
  -22.7437  -29.4690   22.4979 C   0  0  0  0  0  0
  -18.0300  -28.1371   22.8510 C   0  0  0  0  0  0
  -24.1486  -36.7312   23.2642 C   0  0  0  0  0  0
  -25.9427  -30.8210   21.3748 C   0  0  0  0  0  0
  -26.0119  -29.4592   20.7115 C   0  0  0  0  0  0
  -27.2006  -28.6872   20.6975 C   0  0  0  0  0  0
  -26.0392  -26.9504   19.4641 C   0  0  0  0  0  0
  -24.8590  -27.7123   19.4846 C   0  0  0  0  0  0
  -23.6129  -29.8368   20.1646 C   0  0  0  0  0  0
  -25.4103  -36.3125   24.0350 C   0  0  1  0  0  0
  -20.5897  -28.3679   23.1287 C   0  0  2  0  0  0
  -20.6764  -26.9405   22.5409 C   0  0  0  0  0  0
  -19.5749  -26.6411   21.5196 C   0  0  0  0  0  0
  -18.1952  -26.7899   22.1667 C   0  0  0  0  0  0
  -19.1556  -28.8844   23.2910 C   0  0  0  0  0  0
  -18.9485  -30.1431   23.8959 C   0  0  0  0  0  0
  -17.6494  -30.6572   24.0634 C   0  0  0  0  0  0
  -25.9024  -34.9480   23.5150 C   0  0  0  0  0  0
  -16.5388  -29.9094   23.6354 C   0  0  0  0  0  0
  -16.7303  -28.6517   23.0366 C   0  0  0  0  0  0
  -26.4468  -31.6603   25.0782 C   0  0  0  0  0  0
  -25.3700  -31.3741   26.1509 C   0  0  0  0  0  0
  -27.0306  -30.3026   24.6219 C   0  0  0  0  0  0
  -27.6045  -32.4346   25.7523 C   0  0  0  0  0  0
  -27.5582  -37.1813   24.8467 C   0  0  0  0  0  0
  -21.4171  -29.3029   22.3662 N   0  0  0  0  0  0
  -26.4301  -37.3795   23.9394 N   0  0  0  0  0  0
  -24.6744  -31.0782   22.1021 N   0  0  0  0  0  0
  -23.4201  -28.8251   23.3048 O   0  0  0  0  0  0
  -28.3961  -26.6512   20.1438 O   0  0  0  0  0  0
  -26.5619  -34.8923   22.4735 O   0  0  0  0  0  0
  -23.5360  -32.1459   23.7470 O   0  0  0  0  0  0
  -27.5863  -18.9486   18.9274 C   0  0  0  0  0  0
  -29.5487  -19.3646   20.8613 C   0  0  0  0  0  0
  -28.5212  -17.9246   19.1862 C   0  0  0  0  0  0
  -27.6286  -20.1819   19.6042 C   0  0  0  0  0  0
  -29.4727  -18.0898   20.2306 C   0  0  0  0  0  0
  -28.6690  -20.4336   20.5322 C   0  0  0  0  0  0
  -28.4996  -16.7344   18.2397 C   0  0  0  0  0  0
  -26.5580  -21.2119   19.2808 C   0  0  0  0  0  0
  -30.4970  -17.0007   20.6296 C   0  0  0  0  0  0
  -28.8381  -21.8266   21.1776 C   0  0  0  0  0  0
  -29.1811  -24.3040   20.6734 C   0  0  0  0  0  0
  -28.3924  -25.2589   19.7337 C   0  0  0  0  0  0
  -30.0052  -15.6158   20.8304 N   0  0  0  0  0  0
  -29.1774  -22.8859   20.1843 N   0  3  0  0  0  0
  -31.4623  -12.3951   19.1367 H   0  0  0  0  0  0
  -30.3053  -11.3204   19.8703 H   0  0  0  0  0  0
  -29.7458  -11.7604   17.4469 H   0  0  0  0  0  0
  -29.6615  -13.4745   17.7661 H   0  0  0  0  0  0
  -27.8423  -11.2971   18.8437 H   0  0  0  0  0  0
  -27.3669  -12.6053   17.7893 H   0  0  0  0  0  0
  -27.6615  -14.2455   19.5437 H   0  0  0  0  0  0
  -28.6813  -12.0527   21.4105 H   0  0  0  0  0  0
  -28.4705  -13.7297   21.8264 H   0  0  0  0  0  0
  -25.2749   -9.5675   22.4784 H   0  0  0  0  0  0
  -24.0010   -7.4611   22.7497 H   0  0  0  0  0  0
  -21.0836   -8.8732   19.8980 H   0  0  0  0  0  0
  -22.3675  -10.9642   19.6181 H   0  0  0  0  0  0
  -21.1957   -7.6138   23.9690 H   0  0  0  0  0  0
  -21.1512   -6.0545   25.9085 H   0  0  0  0  0  0
  -22.0600   -2.7601   23.2878 H   0  0  0  0  0  0
  -22.4080  -11.9852   22.4768 H   0  0  0  0  0  0
  -21.1093  -13.1245   22.2666 H   0  0  0  0  0  0
  -24.6597  -15.8412   20.5289 H   0  0  0  0  0  0
  -26.2727  -15.6353   20.0801 H   0  0  0  0  0  0
  -26.7145  -32.5493   23.1203 H   0  0  0  0  0  0
  -25.0012  -33.9797   25.0481 H   0  0  0  0  0  0
  -22.6974  -31.3160   21.4165 H   0  0  0  0  0  0
  -23.3747  -35.9648   23.3329 H   0  0  0  0  0  0
  -24.3580  -36.8897   22.2051 H   0  0  0  0  0  0
  -23.7242  -37.6529   23.6635 H   0  0  0  0  0  0
  -26.0784  -31.5924   20.6153 H   0  0  0  0  0  0
  -26.8208  -30.8555   22.0088 H   0  0  0  0  0  0
  -28.0972  -29.0709   21.1636 H   0  0  0  0  0  0
  -25.9730  -26.0140   18.9353 H   0  0  0  0  0  0
  -23.9697  -27.3307   19.0027 H   0  0  0  0  0  0
  -23.7223  -30.6150   19.4084 H   0  0  0  0  0  0
  -22.7324  -29.2630   19.8709 H   0  0  0  0  0  0
  -25.1282  -36.2015   25.0848 H   0  0  0  0  0  0
  -21.0059  -28.3277   24.1380 H   0  0  0  0  0  0
  -20.5583  -26.2319   23.3621 H   0  0  0  0  0  0
  -21.6655  -26.7390   22.1263 H   0  0  0  0  0  0
  -19.6927  -25.6358   21.1156 H   0  0  0  0  0  0
  -19.6671  -27.3283   20.6766 H   0  0  0  0  0  0
  -17.4140  -26.6569   21.4163 H   0  0  0  0  0  0
  -18.0492  -26.0032   22.9097 H   0  0  0  0  0  0
  -19.7980  -30.7201   24.2380 H   0  0  0  0  0  0
  -17.5055  -31.6239   24.5281 H   0  0  0  0  0  0
  -15.5396  -30.3011   23.7678 H   0  0  0  0  0  0
  -15.8698  -28.0858   22.7089 H   0  0  0  0  0  0
  -24.5858  -30.7115   25.7827 H   0  0  0  0  0  0
  -24.8906  -32.2916   26.4940 H   0  0  0  0  0  0
  -25.7991  -30.8903   27.0289 H   0  0  0  0  0  0
  -26.2892  -29.6792   24.1202 H   0  0  0  0  0  0
  -27.3969  -29.7256   25.4720 H   0  0  0  0  0  0
  -27.8776  -30.4323   23.9473 H   0  0  0  0  0  0
  -27.2665  -33.3635   26.2130 H   0  0  0  0  0  0
  -28.3805  -32.6931   25.0308 H   0  0  0  0  0  0
  -28.0779  -31.8474   26.5405 H   0  0  0  0  0  0
  -28.2627  -38.0086   24.7491 H   0  0  0  0  0  0
  -28.1054  -36.2618   24.6324 H   0  0  0  0  0  0
  -27.2294  -37.1503   25.8871 H   0  0  0  0  0  0
  -20.9334  -29.8693   21.6828 H   0  0  0  0  0  0
  -26.0201  -38.2884   24.1357 H   0  0  0  0  0  0
  -26.8348  -18.7994   18.1635 H   0  0  0  0  0  0
  -30.3189  -19.5315   21.6033 H   0  0  0  0  0  0
  -29.1126  -16.9581   17.3667 H   0  0  0  0  0  0
  -27.4889  -16.5350   17.8844 H   0  0  0  0  0  0
  -28.8764  -15.8121   18.6584 H   0  0  0  0  0  0
  -25.6783  -20.7314   18.8510 H   0  0  0  0  0  0
  -26.9249  -21.9356   18.5540 H   0  0  0  0  0  0
  -26.2165  -21.7394   20.1716 H   0  0  0  0  0  0
  -30.9977  -17.3008   21.5511 H   0  0  0  0  0  0
  -31.2731  -17.0201   19.8618 H   0  0  0  0  0  0
  -29.6184  -21.7921   21.9370 H   0  0  0  0  0  0
  -27.9182  -22.0865   21.7026 H   0  0  0  0  0  0
  -30.2155  -24.6381   20.7701 H   0  0  0  0  0  0
  -28.7484  -24.3555   21.6732 H   0  0  0  0  0  0
  -27.3976  -24.8262   19.6952 H   0  0  0  0  0  0
  -28.7992  -25.2097   18.7226 H   0  0  0  0  0  0
  -29.0428  -15.4961   21.1040 H   0  0  0  0  0  0
  -30.0830  -22.6676   19.8002 H   0  0  0  0  0  0
  -28.5186  -22.8021   19.4277 H   0  0  0  0  0  0
  1 25  1  0  0  0
  1 30  2  0  0  0
  1 83  1  0  0  0
  2  3  1  0  0  0
  2 25  1  0  0  0
  2 85  1  0  0  0
  2 86  1  0  0  0
  3  4  1  0  0  0
  3 87  1  0  0  0
  3 88  1  0  0  0
  4  5  1  0  0  0
  4 89  1  0  0  0
  4 90  1  0  0  0
  5  6  1  0  0  0
  5 26  1  0  0  0
  5 91  1  0  0  0
  6 25  1  0  0  0
  6 92  1  0  0  0
  6 93  1  0  0  0
  7  8  2  0  0  0
  7 26  1  0  0  0
  7 29  1  0  0  0
  8  9  1  0  0  0
  8 22  1  0  0  0
  9 10  1  0  0  0
  9 27  2  0  0  0
 10 11  2  0  0  0
 10 15  1  0  0  0
 11 12  1  0  0  0
 11 94  1  0  0  0
 12 13  2  0  0  0
 12 95  1  0  0  0
 13 14  1  0  0  0
 13 31  1  0  0  0
 14 15  2  0  0  0
 14 96  1  0  0  0
 15 97  1  0  0  0
 16 17  2  0  0  0
 16 21  1  0  0  0
 16 31  1  0  0  0
 17 18  1  0  0  0
 17 98  1  0  0  0
 18 19  2  0  0  0
 18 99  1  0  0  0
 19 20  1  0  0  0
 19 24  1  0  0  0
 20 21  2  0  0  0
 20100  1  0  0  0
 21 23  1  0  0  0
 22 28  1  0  0  0
 22 32  2  0  0  0
 26 27  1  0  0  0
 28101  1  0  0  0
 28102  1  0  0  0
 29103  1  0  0  0
 29104  1  0  0  0
 33 34  1  0  0  0
 33 66  1  0  0  0
 33 70  2  0  0  0
 34 36  1  0  0  0
 34 59  1  0  0  0
 34105  1  0  0  0
 35 44  2  0  0  0
 35 45  1  0  0  0
 35 68  1  0  0  0
 36 56  1  0  0  0
 36106  1  0  0  0
 37 39  1  0  0  0
 37 47  1  0  0  0
 37 66  1  0  0  0
 37107  1  0  0  0
 38 43  2  0  0  0
 38 46  1  0  0  0
 38 47  1  0  0  0
 39 64  1  0  0  0
 39 67  2  0  0  0
 40 52  1  0  0  0
 40 53  2  0  0  0
 40 58  1  0  0  0
 41108  1  0  0  0
 41109  1  0  0  0
 41110  1  0  0  0
 41 48  1  0  0  0
 42 43  1  0  0  0
 42 66  1  0  0  0
 42111  1  0  0  0
 42112  1  0  0  0
 43 44  1  0  0  0
 44113  1  0  0  0
 45 46  2  0  0  0
 45114  1  0  0  0
 46115  1  0  0  0
 47116  1  0  0  0
 47117  1  0  0  0
 48 56  1  0  0  0
 48 65  1  0  0  0
 48118  1  0  0  0
 49 50  1  0  0  0
 49 53  1  0  0  0
 49 64  1  0  0  0
 49119  1  0  0  0
 50 51  1  0  0  0
 50120  1  0  0  0
 50121  1  0  0  0
 51 52  1  0  0  0
 51122  1  0  0  0
 51123  1  0  0  0
 52124  1  0  0  0
 52125  1  0  0  0
 53 54  1  0  0  0
 54 55  2  0  0  0
 54126  1  0  0  0
 55 57  1  0  0  0
 55127  1  0  0  0
 56 69  2  0  0  0
 57 58  2  0  0  0
 57128  1  0  0  0
 58129  1  0  0  0
 59 60  1  0  0  0
 59 61  1  0  0  0
 59 62  1  0  0  0
 60130  1  0  0  0
 60131  1  0  0  0
 60132  1  0  0  0
 61133  1  0  0  0
 61134  1  0  0  0
 61135  1  0  0  0
 62136  1  0  0  0
 62137  1  0  0  0
 62138  1  0  0  0
 63 65  1  0  0  0
 63139  1  0  0  0
 63140  1  0  0  0
 63141  1  0  0  0
 64142  1  0  0  0
 65143  1  0  0  0
 68 82  1  0  0  0
 71 73  2  0  0  0
 71 74  1  0  0  0
 71144  1  0  0  0
 72 75  2  0  0  0
 72 76  1  0  0  0
 72145  1  0  0  0
 73 75  1  0  0  0
 73 77  1  0  0  0
 74 76  2  0  0  0
 74 78  1  0  0  0
 75 79  1  0  0  0
 76 80  1  0  0  0
 77146  1  0  0  0
 77147  1  0  0  0
 77148  1  0  0  0
 78149  1  0  0  0
 78150  1  0  0  0
 78151  1  0  0  0
 79 83  1  0  0  0
 79152  1  0  0  0
 79153  1  0  0  0
 80 84  1  0  0  0
 80154  1  0  0  0
 80155  1  0  0  0
 81 82  1  0  0  0
 81 84  1  0  0  0
 81156  1  0  0  0
 81157  1  0  0  0
 82158  1  0  0  0
 82159  1  0  0  0
 83160  1  0  0  0
 84161  1  0  0  0
 84162  1  0  0  0
M  CHG  1  84   1
M  ISO  4   1 100  68 101  82 101  83 100
M  END
> <chiral flag>
0

> <version>
0

> <s_m_source_file>
/data/baiqing/PycharmProjects/Reinvent-master-3.2/result/LINK_invent/BTK/process_docking_weight1_custom_product_contain_oxygen_bond_distance_aromatic_linkinvent_7_9_3/rearranged_h_0038.sdf

> <i_m_source_file_index>
81

> <r_mmod_Potential_Energy-OPLS-2005>
-240.856491088867

> <r_mmod_Stretch_Energy-OPLS-2005>
46.8000602722168

> <r_mmod_Bend_Energy-OPLS-2005>
111.23348236084

> <r_mmod_Torsional_Energy-OPLS-2005>
204.439147949219

> <r_mmod_Improper_Torsional_Energy-OPLS-2005>
5.66542339324951

> <r_mmod_Van_der_Waal_Energy-OPLS-2005>
154.171005249023

> <r_mmod_Electrostatic_Energy-OPLS-2005>
-337.727844238281

> <r_mmod_Solvation_Energy-OPLS-2005>
-448.003601074219

> <b_mmod_Minimization_Converged-OPLS-2005>
0

> <r_mmod_RMS_Derivative-OPLS-2005>
2.43239498138428

$$$$
81
                    3D
 Structure written by MMmdl.
162170  0  0  1  0            999 V2000
  -30.6582  -14.4552   20.5536 C   0  0  0  0  0  0
  -30.4270  -12.2926   19.4060 C   0  0  0  0  0  0
  -29.4922  -12.5056   18.1968 C   0  0  0  0  0  0
  -28.0116  -12.3679   18.6077 C   0  0  0  0  0  0
  -27.6616  -13.1940   19.8729 C   0  0  2  0  0  0
  -28.7019  -12.9378   20.9862 C   0  0  0  0  0  0
  -25.2596  -13.8131   20.5667 C   0  0  0  0  0  0
  -24.1828  -13.0437   20.9166 C   0  0  0  0  0  0
  -24.6359  -11.6897   20.8727 C   0  0  0  0  0  0
  -23.9026  -10.4291   21.0408 C   0  0  0  0  0  0
  -24.3585   -9.4201   21.9183 C   0  0  0  0  0  0
  -23.6274   -8.2232   22.0744 C   0  0  0  0  0  0
  -22.4242   -8.0281   21.3545 C   0  0  0  0  0  0
  -21.9879   -9.0247   20.4650 C   0  0  0  0  0  0
  -22.7213  -10.2123   20.3066 C   0  0  0  0  0  0
  -21.6844   -6.0734   22.5280 C   0  0  0  0  0  0
  -21.4025   -6.5636   23.8214 C   0  0  0  0  0  0
  -21.3654   -5.6788   24.9173 C   0  0  0  0  0  0
  -21.6028   -4.3051   24.7217 C   0  0  0  0  0  0
  -21.8826   -3.8149   23.4344 C   0  0  0  0  0  0
  -21.9189   -4.6966   22.3402 C   0  0  0  0  0  0
  -22.7856  -13.5264   21.1849 C   0  0  0  0  0  0
  -22.1659   -4.2158   21.0974 F   0  0  0  0  0  0
  -21.5606   -3.4530   25.7727 F   0  0  0  0  0  0
  -30.0342  -13.2545   20.4426 N   0  0  0  0  0  0
  -26.3004  -12.9265   20.3337 N   0  0  0  0  0  0
  -25.9277  -11.6444   20.5727 N   0  0  0  0  0  0
  -22.0479  -12.8269   22.0397 N   0  0  0  0  0  0
  -25.4366  -15.1840   20.4082 N   0  0  0  0  0  0
  -31.8012  -14.6676   20.1371 O   0  0  0  0  0  0
  -21.6627   -6.8866   21.4237 O   0  0  0  0  0  0
  -22.3558  -14.5588   20.6720 O   0  0  0  0  0  0
  -24.6138  -31.8680   23.2091 C   0  0  0  0  0  0
  -25.9041  -32.4815   23.8383 C   0  0  1  0  0  0
  -27.2342  -27.4455   20.1035 C   0  0  0  0  0  0
  -25.5898  -33.8609   24.2317 N   0  0  0  0  0  0
  -23.3995  -30.4937   21.5480 C   0  0  2  0  0  0
  -24.8466  -28.9560   20.1166 C   0  0  0  0  0  0
  -22.7383  -29.4686   22.4968 C   0  0  0  0  0  0
  -18.0273  -28.1383   22.8485 C   0  0  0  0  0  0
  -24.1489  -36.7306   23.2636 C   0  0  0  0  0  0
  -25.9262  -30.8407   21.3584 C   0  0  0  0  0  0
  -26.0050  -29.4743   20.7090 C   0  0  0  0  0  0
  -27.2038  -28.7270   20.6958 C   0  0  0  0  0  0
  -26.0612  -26.9362   19.5054 C   0  0  0  0  0  0
  -24.8686  -27.6858   19.5122 C   0  0  0  0  0  0
  -23.6070  -29.8215   20.1642 C   0  0  0  0  0  0
  -25.4104  -36.3092   24.0335 C   0  0  1  0  0  0
  -20.5860  -28.3679   23.1297 C   0  0  2  0  0  0
  -20.6766  -26.9414   22.5410 C   0  0  0  0  0  0
  -19.5749  -26.6394   21.5201 C   0  0  0  0  0  0
  -18.1925  -26.7934   22.1608 C   0  0  0  0  0  0
  -19.1521  -28.8842   23.2901 C   0  0  0  0  0  0
  -18.9458  -30.1440   23.8929 C   0  0  0  0  0  0
  -17.6460  -30.6588   24.0569 C   0  0  0  0  0  0
  -25.9028  -34.9463   23.5121 C   0  0  0  0  0  0
  -16.5352  -29.9098   23.6320 C   0  0  0  0  0  0
  -16.7262  -28.6509   23.0353 C   0  0  0  0  0  0
  -26.4476  -31.6590   25.0701 C   0  0  0  0  0  0
  -25.3751  -31.3719   26.1459 C   0  0  0  0  0  0
  -27.0300  -30.3029   24.6079 C   0  0  0  0  0  0
  -27.6064  -32.4304   25.7448 C   0  0  0  0  0  0
  -27.5578  -37.1800   24.8463 C   0  0  0  0  0  0
  -21.4117  -29.3051   22.3699 N   0  0  0  0  0  0
  -26.4286  -37.3781   23.9407 N   0  0  0  0  0  0
  -24.6644  -31.0814   22.0978 N   0  0  0  0  0  0
  -23.4151  -28.8227   23.3008 O   0  0  0  0  0  0
  -28.4099  -26.7314   20.0782 O   0  0  0  0  0  0
  -26.5592  -34.8919   22.4680 O   0  0  0  0  0  0
  -23.5337  -32.1417   23.7509 O   0  0  0  0  0  0
  -30.5035  -18.9336   19.8181 C   0  0  0  0  0  0
  -30.3705  -19.6720   21.0136 C   0  0  0  0  0  0
  -29.9933  -18.9921   22.2039 C   0  0  0  0  0  0
  -29.8747  -17.5723   22.2035 C   0  0  0  0  0  0
  -30.0598  -16.8387   21.0001 C   0  0  0  0  0  0
  -30.3148  -17.5398   19.7912 C   0  0  0  0  0  0
  -29.7224  -19.7731   23.4872 C   0  0  0  0  0  0
  -29.5475  -16.8320   23.5009 C   0  0  0  0  0  0
  -30.7177  -21.1676   20.9843 C   0  0  0  0  0  0
  -29.0762  -24.4110   19.6125 C   0  0  0  0  0  0
  -30.1078  -23.4479   20.2607 C   0  0  0  0  0  0
  -28.3661  -25.3878   20.5809 C   0  0  0  0  0  0
  -29.8602  -15.4294   21.0247 N   0  0  0  0  0  0
  -29.6383  -22.0540   20.4861 N   0  3  0  0  0  0
  -30.3400  -16.7516   18.2495 Cl  0  0  0  0  0  0
  -31.4689  -12.4079   19.1027 H   0  0  0  0  0  0
  -30.3362  -11.2741   19.7852 H   0  0  0  0  0  0
  -29.7269  -11.7931   17.4055 H   0  0  0  0  0  0
  -29.6637  -13.4966   17.7717 H   0  0  0  0  0  0
  -27.8116  -11.3110   18.7907 H   0  0  0  0  0  0
  -27.3658  -12.6585   17.7791 H   0  0  0  0  0  0
  -27.7134  -14.2446   19.5854 H   0  0  0  0  0  0
  -28.6757  -11.8898   21.2893 H   0  0  0  0  0  0
  -28.4655  -13.5037   21.8892 H   0  0  0  0  0  0
  -25.2723   -9.5684   22.4772 H   0  0  0  0  0  0
  -23.9973   -7.4600   22.7452 H   0  0  0  0  0  0
  -21.0803   -8.8773   19.8951 H   0  0  0  0  0  0
  -22.3658  -10.9658   19.6179 H   0  0  0  0  0  0
  -21.2044   -7.6151   23.9731 H   0  0  0  0  0  0
  -21.1461   -6.0511   25.9070 H   0  0  0  0  0  0
  -22.0616   -2.7613   23.2853 H   0  0  0  0  0  0
  -22.4051  -11.9924   22.4813 H   0  0  0  0  0  0
  -21.1123  -13.1340   22.2621 H   0  0  0  0  0  0
  -24.6744  -15.8445   20.5218 H   0  0  0  0  0  0
  -26.2891  -15.6176   20.0799 H   0  0  0  0  0  0
  -26.7116  -32.5544   23.1156 H   0  0  0  0  0  0
  -25.0068  -33.9767   25.0477 H   0  0  0  0  0  0
  -22.6896  -31.3115   21.4073 H   0  0  0  0  0  0
  -23.3737  -35.9655   23.3321 H   0  0  0  0  0  0
  -24.3586  -36.8896   22.2046 H   0  0  0  0  0  0
  -23.7267  -37.6526   23.6641 H   0  0  0  0  0  0
  -26.0372  -31.6079   20.5906 H   0  0  0  0  0  0
  -26.8140  -30.8952   21.9763 H   0  0  0  0  0  0
  -28.1017  -29.1256   21.1482 H   0  0  0  0  0  0
  -26.0740  -25.9681   19.0253 H   0  0  0  0  0  0
  -23.9784  -27.2818   19.0499 H   0  0  0  0  0  0
  -23.7112  -30.5933   19.4007 H   0  0  0  0  0  0
  -22.7324  -29.2380   19.8709 H   0  0  0  0  0  0
  -25.1288  -36.1949   25.0828 H   0  0  0  0  0  0
  -20.9968  -28.3271   24.1409 H   0  0  0  0  0  0
  -20.5653  -26.2298   23.3605 H   0  0  0  0  0  0
  -21.6646  -26.7451   22.1222 H   0  0  0  0  0  0
  -19.6918  -25.6305   21.1238 H   0  0  0  0  0  0
  -19.6686  -27.3200   20.6726 H   0  0  0  0  0  0
  -17.4189  -26.6672   21.4019 H   0  0  0  0  0  0
  -18.0335  -26.0072   22.8998 H   0  0  0  0  0  0
  -19.7935  -30.7242   24.2324 H   0  0  0  0  0  0
  -17.5025  -31.6273   24.5164 H   0  0  0  0  0  0
  -15.5359  -30.3018   23.7628 H   0  0  0  0  0  0
  -15.8656  -28.0833   22.7071 H   0  0  0  0  0  0
  -24.5905  -30.7083   25.7812 H   0  0  0  0  0  0
  -24.8966  -32.2887   26.4912 H   0  0  0  0  0  0
  -25.8104  -30.8882   27.0211 H   0  0  0  0  0  0
  -26.2829  -29.6776   24.1176 H   0  0  0  0  0  0
  -27.4115  -29.7284   25.4533 H   0  0  0  0  0  0
  -27.8651  -30.4337   23.9190 H   0  0  0  0  0  0
  -27.2694  -33.3597   26.2053 H   0  0  0  0  0  0
  -28.3848  -32.6871   25.0250 H   0  0  0  0  0  0
  -28.0762  -31.8411   26.5333 H   0  0  0  0  0  0
  -28.2609  -38.0085   24.7494 H   0  0  0  0  0  0
  -28.1057  -36.2620   24.6299 H   0  0  0  0  0  0
  -27.2299  -37.1469   25.8866 H   0  0  0  0  0  0
  -20.9265  -29.8755   21.6916 H   0  0  0  0  0  0
  -26.0175  -38.2856   24.1407 H   0  0  0  0  0  0
  -30.7534  -19.4374   18.8952 H   0  0  0  0  0  0
  -29.3564  -20.7790   23.2887 H   0  0  0  0  0  0
  -30.6254  -19.8460   24.0946 H   0  0  0  0  0  0
  -28.9446  -19.3002   24.0877 H   0  0  0  0  0  0
  -30.0614  -17.2772   24.3532 H   0  0  0  0  0  0
  -29.8582  -15.7884   23.4900 H   0  0  0  0  0  0
  -28.4744  -16.8607   23.6912 H   0  0  0  0  0  0
  -31.5928  -21.2821   20.3423 H   0  0  0  0  0  0
  -31.0499  -21.5086   21.9652 H   0  0  0  0  0  0
  -28.3485  -23.8681   19.0090 H   0  0  0  0  0  0
  -29.6289  -25.0163   18.8933 H   0  0  0  0  0  0
  -30.4990  -23.8636   21.1905 H   0  0  0  0  0  0
  -30.9651  -23.3922   19.5879 H   0  0  0  0  0  0
  -28.8719  -25.4099   21.5462 H   0  0  0  0  0  0
  -27.3563  -25.0343   20.7939 H   0  0  0  0  0  0
  -28.9956  -15.1154   21.4336 H   0  0  0  0  0  0
  -28.8771  -22.0479   21.1449 H   0  0  0  0  0  0
  -29.3026  -21.6726   19.6166 H   0  0  0  0  0  0
  1 25  1  0  0  0
  1 30  2  0  0  0
  1 83  1  0  0  0
  2  3  1  0  0  0
  2 25  1  0  0  0
  2 86  1  0  0  0
  2 87  1  0  0  0
  3  4  1  0  0  0
  3 88  1  0  0  0
  3 89  1  0  0  0
  4  5  1  0  0  0
  4 90  1  0  0  0
  4 91  1  0  0  0
  5  6  1  0  0  0
  5 26  1  0  0  0
  5 92  1  0  0  0
  6 25  1  0  0  0
  6 93  1  0  0  0
  6 94  1  0  0  0
  7  8  2  0  0  0
  7 26  1  0  0  0
  7 29  1  0  0  0
  8  9  1  0  0  0
  8 22  1  0  0  0
  9 10  1  0  0  0
  9 27  2  0  0  0
 10 11  2  0  0  0
 10 15  1  0  0  0
 11 12  1  0  0  0
 11 95  1  0  0  0
 12 13  2  0  0  0
 12 96  1  0  0  0
 13 14  1  0  0  0
 13 31  1  0  0  0
 14 15  2  0  0  0
 14 97  1  0  0  0
 15 98  1  0  0  0
 16 17  2  0  0  0
 16 21  1  0  0  0
 16 31  1  0  0  0
 17 18  1  0  0  0
 17 99  1  0  0  0
 18 19  2  0  0  0
 18100  1  0  0  0
 19 20  1  0  0  0
 19 24  1  0  0  0
 20 21  2  0  0  0
 20101  1  0  0  0
 21 23  1  0  0  0
 22 28  1  0  0  0
 22 32  2  0  0  0
 26 27  1  0  0  0
 28102  1  0  0  0
 28103  1  0  0  0
 29104  1  0  0  0
 29105  1  0  0  0
 33 34  1  0  0  0
 33 66  1  0  0  0
 33 70  2  0  0  0
 34 36  1  0  0  0
 34 59  1  0  0  0
 34106  1  0  0  0
 35 44  2  0  0  0
 35 45  1  0  0  0
 35 68  1  0  0  0
 36 56  1  0  0  0
 36107  1  0  0  0
 37 39  1  0  0  0
 37 47  1  0  0  0
 37 66  1  0  0  0
 37108  1  0  0  0
 38 43  2  0  0  0
 38 46  1  0  0  0
 38 47  1  0  0  0
 39 64  1  0  0  0
 39 67  2  0  0  0
 40 52  1  0  0  0
 40 53  2  0  0  0
 40 58  1  0  0  0
 41109  1  0  0  0
 41110  1  0  0  0
 41111  1  0  0  0
 41 48  1  0  0  0
 42 43  1  0  0  0
 42 66  1  0  0  0
 42112  1  0  0  0
 42113  1  0  0  0
 43 44  1  0  0  0
 44114  1  0  0  0
 45 46  2  0  0  0
 45115  1  0  0  0
 46116  1  0  0  0
 47117  1  0  0  0
 47118  1  0  0  0
 48 56  1  0  0  0
 48 65  1  0  0  0
 48119  1  0  0  0
 49 50  1  0  0  0
 49 53  1  0  0  0
 49 64  1  0  0  0
 49120  1  0  0  0
 50 51  1  0  0  0
 50121  1  0  0  0
 50122  1  0  0  0
 51 52  1  0  0  0
 51123  1  0  0  0
 51124  1  0  0  0
 52125  1  0  0  0
 52126  1  0  0  0
 53 54  1  0  0  0
 54 55  2  0  0  0
 54127  1  0  0  0
 55 57  1  0  0  0
 55128  1  0  0  0
 56 69  2  0  0  0
 57 58  2  0  0  0
 57129  1  0  0  0
 58130  1  0  0  0
 59 60  1  0  0  0
 59 61  1  0  0  0
 59 62  1  0  0  0
 60131  1  0  0  0
 60132  1  0  0  0
 60133  1  0  0  0
 61134  1  0  0  0
 61135  1  0  0  0
 61136  1  0  0  0
 62137  1  0  0  0
 62138  1  0  0  0
 62139  1  0  0  0
 63 65  1  0  0  0
 63140  1  0  0  0
 63141  1  0  0  0
 63142  1  0  0  0
 64143  1  0  0  0
 65144  1  0  0  0
 68 82  1  0  0  0
 71 72  2  0  0  0
 71 76  1  0  0  0
 71145  1  0  0  0
 72 73  1  0  0  0
 72 79  1  0  0  0
 73 74  2  0  0  0
 73 77  1  0  0  0
 74 75  1  0  0  0
 74 78  1  0  0  0
 75 76  2  0  0  0
 75 83  1  0  0  0
 76 85  1  0  0  0
 77146  1  0  0  0
 77147  1  0  0  0
 77148  1  0  0  0
 78149  1  0  0  0
 78150  1  0  0  0
 78151  1  0  0  0
 79 84  1  0  0  0
 79152  1  0  0  0
 79153  1  0  0  0
 80 81  1  0  0  0
 80 82  1  0  0  0
 80154  1  0  0  0
 80155  1  0  0  0
 81 84  1  0  0  0
 81156  1  0  0  0
 81157  1  0  0  0
 82158  1  0  0  0
 82159  1  0  0  0
 83160  1  0  0  0
 84161  1  0  0  0
 84162  1  0  0  0
M  CHG  1  84   1
M  ISO  4   1 100  68 101  82 101  83 100
M  END
> <chiral flag>
0

> <version>
0

> <s_m_source_file>
/data/baiqing/PycharmProjects/Reinvent-master-3.2/result/LINK_invent/BTK/process_docking_weight1_custom_product_contain_oxygen_bond_distance_aromatic_linkinvent_7_9_3/rearranged_h_0038.sdf

> <i_m_source_file_index>
82

> <r_mmod_Potential_Energy-OPLS-2005>
-245.9658203125

> <r_mmod_Stretch_Energy-OPLS-2005>
37.7933006286621

> <r_mmod_Bend_Energy-OPLS-2005>
98.6880950927734

> <r_mmod_Torsional_Energy-OPLS-2005>
260.378204345703

> <r_mmod_Improper_Torsional_Energy-OPLS-2005>
4.0810694694519

> <r_mmod_Van_der_Waal_Energy-OPLS-2005>
162.333251953125

> <r_mmod_Electrostatic_Energy-OPLS-2005>
-338.997833251953

> <r_mmod_Solvation_Energy-OPLS-2005>
-481.926147460938

> <b_mmod_Minimization_Converged-OPLS-2005>
0

> <r_mmod_RMS_Derivative-OPLS-2005>
2.32729554176331

$$$$
82
                    3D
 Structure written by MMmdl.
164173  0  0  1  0            999 V2000
  -30.6286  -14.7270   20.4627 C   0  0  0  0  0  0
  -30.4261  -12.4429   19.4750 C   0  0  0  0  0  0
  -29.5057  -12.5009   18.2367 C   0  0  0  0  0  0
  -28.0324  -12.3295   18.6519 C   0  0  0  0  0  0
  -27.6410  -13.2311   19.8526 C   0  0  2  0  0  0
  -28.6857  -13.1691   20.9886 C   0  0  0  0  0  0
  -25.2491  -13.8185   20.5702 C   0  0  0  0  0  0
  -24.1801  -13.0438   20.9236 C   0  0  0  0  0  0
  -24.6389  -11.6915   20.8776 C   0  0  0  0  0  0
  -23.9072  -10.4293   21.0427 C   0  0  0  0  0  0
  -24.3623   -9.4204   21.9204 C   0  0  0  0  0  0
  -23.6299   -8.2239   22.0763 C   0  0  0  0  0  0
  -22.4283   -8.0281   21.3550 C   0  0  0  0  0  0
  -21.9921   -9.0259   20.4655 C   0  0  0  0  0  0
  -22.7245  -10.2137   20.3070 C   0  0  0  0  0  0
  -21.6847   -6.0739   22.5281 C   0  0  0  0  0  0
  -21.4010   -6.5644   23.8217 C   0  0  0  0  0  0
  -21.3657   -5.6801   24.9179 C   0  0  0  0  0  0
  -21.6044   -4.3062   24.7230 C   0  0  0  0  0  0
  -21.8815   -3.8155   23.4351 C   0  0  0  0  0  0
  -21.9193   -4.6969   22.3406 C   0  0  0  0  0  0
  -22.7823  -13.5217   21.1889 C   0  0  0  0  0  0
  -22.1661   -4.2156   21.0980 F   0  0  0  0  0  0
  -21.5631   -3.4544   25.7742 F   0  0  0  0  0  0
  -29.9869  -13.5112   20.4042 N   0  0  0  0  0  0
  -26.2930  -12.9407   20.3301 N   0  0  0  0  0  0
  -25.9319  -11.6553   20.5786 N   0  0  0  0  0  0
  -22.0464  -12.8205   22.0429 N   0  0  0  0  0  0
  -25.4143  -15.1904   20.4037 N   0  0  0  0  0  0
  -31.8151  -14.7855   20.1333 O   0  0  0  0  0  0
  -21.6639   -6.8881   21.4243 O   0  0  0  0  0  0
  -22.3518  -14.5531   20.6733 O   0  0  0  0  0  0
  -24.6283  -31.8544   23.1962 C   0  0  0  0  0  0
  -25.9110  -32.4731   23.8315 C   0  0  1  0  0  0
  -27.2415  -27.2806   20.1213 C   0  0  0  0  0  0
  -25.5917  -33.8538   24.2249 N   0  0  0  0  0  0
  -23.4256  -30.4724   21.5403 C   0  0  2  0  0  0
  -24.8773  -28.9185   20.1099 C   0  0  0  0  0  0
  -22.7489  -29.4577   22.4928 C   0  0  0  0  0  0
  -18.0290  -28.1366   22.8491 C   0  0  0  0  0  0
  -24.1496  -36.7280   23.2647 C   0  0  0  0  0  0
  -25.9682  -30.7711   21.3743 C   0  0  0  0  0  0
  -26.0436  -29.3940   20.7196 C   0  0  0  0  0  0
  -27.2218  -28.5857   20.7179 C   0  0  0  0  0  0
  -26.0466  -26.8604   19.4929 C   0  0  0  0  0  0
  -24.8837  -27.6598   19.4882 C   0  0  0  0  0  0
  -23.6429  -29.7993   20.1580 C   0  0  0  0  0  0
  -25.4110  -36.3054   24.0340 C   0  0  1  0  0  0
  -20.5892  -28.3681   23.1293 C   0  0  2  0  0  0
  -20.6772  -26.9397   22.5422 C   0  0  0  0  0  0
  -19.5747  -26.6373   21.5223 C   0  0  0  0  0  0
  -18.1925  -26.7908   22.1630 C   0  0  0  0  0  0
  -19.1541  -28.8840   23.2880 C   0  0  0  0  0  0
  -18.9455  -30.1441   23.8890 C   0  0  0  0  0  0
  -17.6453  -30.6570   24.0561 C   0  0  0  0  0  0
  -25.9056  -34.9427   23.5102 C   0  0  0  0  0  0
  -16.5347  -29.9063   23.6331 C   0  0  0  0  0  0
  -16.7277  -28.6483   23.0355 C   0  0  0  0  0  0
  -26.4493  -31.6540   25.0698 C   0  0  0  0  0  0
  -25.3724  -31.3671   26.1426 C   0  0  0  0  0  0
  -27.0358  -30.2965   24.6170 C   0  0  0  0  0  0
  -27.6064  -32.4278   25.7446 C   0  0  0  0  0  0
  -27.5578  -37.1780   24.8462 C   0  0  0  0  0  0
  -21.4201  -29.3023   22.3672 N   0  0  0  0  0  0
  -26.4283  -37.3751   23.9415 N   0  0  0  0  0  0
  -24.6928  -31.0512   22.0934 N   0  0  0  0  0  0
  -23.4190  -28.8132   23.3037 O   0  0  0  0  0  0
  -28.3839  -26.4534   20.2044 O   0  0  0  0  0  0
  -26.5632  -34.8905   22.4675 O   0  0  0  0  0  0
  -23.5437  -32.1375   23.7260 O   0  0  0  0  0  0
  -31.0793  -20.0993   20.6352 C   0  0  0  0  0  0
  -31.6023  -17.7037   20.7106 C   0  0  0  0  0  0
  -29.6917  -19.8493   20.5722 C   0  0  0  0  0  0
  -29.2861  -18.4414   20.5822 C   0  0  0  0  0  0
  -30.2380  -17.3282   20.6419 C   0  0  0  0  0  0
  -32.0124  -19.0498   20.7028 C   0  0  0  0  0  0
  -28.4638  -23.8339   20.6367 C   0  0  0  0  0  0
  -28.0302  -23.9435   21.9054 C   0  0  0  0  0  0
  -30.1667  -23.7424   18.1741 C   0  0  0  0  0  0
  -29.8756  -25.0536   18.9366 C   0  0  0  0  0  0
  -29.3421  -22.5268   18.6542 C   0  0  0  0  0  0
  -28.5078  -25.0697   19.6401 C   0  0  2  0  0  0
  -27.7955  -18.1380   20.5457 C   0  0  0  0  0  0
  -28.7023  -21.1115   20.6010 C   0  0  0  0  0  0
  -29.8726  -15.8783   20.6768 N   0  0  0  0  0  0
  -29.1671  -22.5087   20.1272 N   0  3  2  0  0  0
  -33.6936  -19.4242   20.8000 Cl  0  0  0  0  0  0
  -31.4681  -12.5529   19.1708 H   0  0  0  0  0  0
  -30.3602  -11.4680   19.9608 H   0  0  0  0  0  0
  -29.7844  -11.7271   17.5200 H   0  0  0  0  0  0
  -29.6348  -13.4543   17.7236 H   0  0  0  0  0  0
  -27.8872  -11.2814   18.9170 H   0  0  0  0  0  0
  -27.3750  -12.5217   17.8035 H   0  0  0  0  0  0
  -27.6356  -14.2520   19.4715 H   0  0  0  0  0  0
  -28.7190  -12.1744   21.4358 H   0  0  0  0  0  0
  -28.4257  -13.8581   21.7940 H   0  0  0  0  0  0
  -25.2758   -9.5681   22.4791 H   0  0  0  0  0  0
  -24.0004   -7.4627   22.7477 H   0  0  0  0  0  0
  -21.0860   -8.8783   19.8957 H   0  0  0  0  0  0
  -22.3709  -10.9688   19.6193 H   0  0  0  0  0  0
  -21.1996   -7.6151   23.9720 H   0  0  0  0  0  0
  -21.1484   -6.0532   25.9084 H   0  0  0  0  0  0
  -22.0594   -2.7617   23.2851 H   0  0  0  0  0  0
  -22.4076  -11.9855   22.4800 H   0  0  0  0  0  0
  -21.1087  -13.1236   22.2642 H   0  0  0  0  0  0
  -24.6331  -15.8310   20.4896 H   0  0  0  0  0  0
  -26.2286  -15.6140   19.9816 H   0  0  0  0  0  0
  -26.7173  -32.5383   23.1051 H   0  0  0  0  0  0
  -25.0059  -33.9667   25.0392 H   0  0  0  0  0  0
  -22.7224  -31.2938   21.3902 H   0  0  0  0  0  0
  -23.3756  -35.9612   23.3285 H   0  0  0  0  0  0
  -24.3605  -36.8925   22.2068 H   0  0  0  0  0  0
  -23.7254  -37.6480   23.6687 H   0  0  0  0  0  0
  -26.1046  -31.5304   20.6034 H   0  0  0  0  0  0
  -26.8467  -30.8229   22.0053 H   0  0  0  0  0  0
  -28.1150  -28.9485   21.2080 H   0  0  0  0  0  0
  -25.9669  -25.8939   19.0223 H   0  0  0  0  0  0
  -23.9886  -27.2878   19.0100 H   0  0  0  0  0  0
  -23.7579  -30.5738   19.3991 H   0  0  0  0  0  0
  -22.7643  -29.2260   19.8576 H   0  0  0  0  0  0
  -25.1278  -36.1911   25.0832 H   0  0  0  0  0  0
  -20.9985  -28.3254   24.1419 H   0  0  0  0  0  0
  -20.5697  -26.2276   23.3622 H   0  0  0  0  0  0
  -21.6635  -26.7413   22.1208 H   0  0  0  0  0  0
  -19.6922  -25.6291   21.1239 H   0  0  0  0  0  0
  -19.6696  -27.3202   20.6772 H   0  0  0  0  0  0
  -17.4205  -26.6686   21.4021 H   0  0  0  0  0  0
  -18.0301  -26.0028   22.9006 H   0  0  0  0  0  0
  -19.7924  -30.7263   24.2261 H   0  0  0  0  0  0
  -17.5001  -31.6254   24.5150 H   0  0  0  0  0  0
  -15.5345  -30.2959   23.7655 H   0  0  0  0  0  0
  -15.8679  -28.0800   22.7073 H   0  0  0  0  0  0
  -24.5927  -30.6981   25.7757 H   0  0  0  0  0  0
  -24.8875  -32.2831   26.4821 H   0  0  0  0  0  0
  -25.8059  -30.8882   27.0218 H   0  0  0  0  0  0
  -26.2953  -29.6680   24.1219 H   0  0  0  0  0  0
  -27.4093  -29.7239   25.4668 H   0  0  0  0  0  0
  -27.8791  -30.4242   23.9378 H   0  0  0  0  0  0
  -27.2698  -33.3605   26.1973 H   0  0  0  0  0  0
  -28.3877  -32.6783   25.0259 H   0  0  0  0  0  0
  -28.0721  -31.8431   26.5384 H   0  0  0  0  0  0
  -28.2557  -38.0108   24.7522 H   0  0  0  0  0  0
  -28.1110  -36.2639   24.6258 H   0  0  0  0  0  0
  -27.2307  -37.1389   25.8867 H   0  0  0  0  0  0
  -20.9391  -29.8732   21.6866 H   0  0  0  0  0  0
  -26.0167  -38.2829   24.1412 H   0  0  0  0  0  0
  -31.4631  -21.1082   20.6578 H   0  0  0  0  0  0
  -32.3869  -16.9693   20.7900 H   0  0  0  0  0  0
  -27.6310  -24.8828   22.2615 H   0  0  0  0  0  0
  -28.0781  -23.1346   22.6188 H   0  0  0  0  0  0
  -31.2324  -23.5200   18.2493 H   0  0  0  0  0  0
  -29.9748  -23.8861   17.1095 H   0  0  0  0  0  0
  -29.9749  -25.9071   18.2651 H   0  0  0  0  0  0
  -30.6477  -25.1925   19.6953 H   0  0  0  0  0  0
  -29.8216  -21.6092   18.3095 H   0  0  0  0  0  0
  -28.3542  -22.5446   18.1902 H   0  0  0  0  0  0
  -27.7640  -24.8998   18.8652 H   0  0  0  0  0  0
  -27.2790  -18.6619   21.3513 H   0  0  0  0  0  0
  -27.5755  -17.0788   20.6615 H   0  0  0  0  0  0
  -27.3677  -18.4625   19.5963 H   0  0  0  0  0  0
  -28.3825  -21.1891   21.6385 H   0  0  0  0  0  0
  -27.7995  -20.8645   20.0414 H   0  0  0  0  0  0
  -28.8965  -15.6885   20.8417 H   0  0  0  0  0  0
  -30.1085  -22.5529   20.4840 H   0  0  0  0  0  0
  1 25  1  0  0  0
  1 30  2  0  0  0
  1 85  1  0  0  0
  2  3  1  0  0  0
  2 25  1  0  0  0
  2 88  1  0  0  0
  2 89  1  0  0  0
  3  4  1  0  0  0
  3 90  1  0  0  0
  3 91  1  0  0  0
  4  5  1  0  0  0
  4 92  1  0  0  0
  4 93  1  0  0  0
  5  6  1  0  0  0
  5 26  1  0  0  0
  5 94  1  0  0  0
  6 25  1  0  0  0
  6 95  1  0  0  0
  6 96  1  0  0  0
  7  8  2  0  0  0
  7 26  1  0  0  0
  7 29  1  0  0  0
  8  9  1  0  0  0
  8 22  1  0  0  0
  9 10  1  0  0  0
  9 27  2  0  0  0
 10 11  2  0  0  0
 10 15  1  0  0  0
 11 12  1  0  0  0
 11 97  1  0  0  0
 12 13  2  0  0  0
 12 98  1  0  0  0
 13 14  1  0  0  0
 13 31  1  0  0  0
 14 15  2  0  0  0
 14 99  1  0  0  0
 15100  1  0  0  0
 16 17  2  0  0  0
 16 21  1  0  0  0
 16 31  1  0  0  0
 17 18  1  0  0  0
 17101  1  0  0  0
 18 19  2  0  0  0
 18102  1  0  0  0
 19 20  1  0  0  0
 19 24  1  0  0  0
 20 21  2  0  0  0
 20103  1  0  0  0
 21 23  1  0  0  0
 22 28  1  0  0  0
 22 32  2  0  0  0
 26 27  1  0  0  0
 28104  1  0  0  0
 28105  1  0  0  0
 29106  1  0  0  0
 29107  1  0  0  0
 33 34  1  0  0  0
 33 66  1  0  0  0
 33 70  2  0  0  0
 34 36  1  0  0  0
 34 59  1  0  0  0
 34108  1  0  0  0
 35 44  2  0  0  0
 35 45  1  0  0  0
 35 68  1  0  0  0
 36 56  1  0  0  0
 36109  1  0  0  0
 37 39  1  0  0  0
 37 47  1  0  0  0
 37 66  1  0  0  0
 37110  1  0  0  0
 38 43  2  0  0  0
 38 46  1  0  0  0
 38 47  1  0  0  0
 39 64  1  0  0  0
 39 67  2  0  0  0
 40 52  1  0  0  0
 40 53  2  0  0  0
 40 58  1  0  0  0
 41111  1  0  0  0
 41112  1  0  0  0
 41113  1  0  0  0
 41 48  1  0  0  0
 42 43  1  0  0  0
 42 66  1  0  0  0
 42114  1  0  0  0
 42115  1  0  0  0
 43 44  1  0  0  0
 44116  1  0  0  0
 45 46  2  0  0  0
 45117  1  0  0  0
 46118  1  0  0  0
 47119  1  0  0  0
 47120  1  0  0  0
 48 56  1  0  0  0
 48 65  1  0  0  0
 48121  1  0  0  0
 49 50  1  0  0  0
 49 53  1  0  0  0
 49 64  1  0  0  0
 49122  1  0  0  0
 50 51  1  0  0  0
 50123  1  0  0  0
 50124  1  0  0  0
 51 52  1  0  0  0
 51125  1  0  0  0
 51126  1  0  0  0
 52127  1  0  0  0
 52128  1  0  0  0
 53 54  1  0  0  0
 54 55  2  0  0  0
 54129  1  0  0  0
 55 57  1  0  0  0
 55130  1  0  0  0
 56 69  2  0  0  0
 57 58  2  0  0  0
 57131  1  0  0  0
 58132  1  0  0  0
 59 60  1  0  0  0
 59 61  1  0  0  0
 59 62  1  0  0  0
 60133  1  0  0  0
 60134  1  0  0  0
 60135  1  0  0  0
 61136  1  0  0  0
 61137  1  0  0  0
 61138  1  0  0  0
 62139  1  0  0  0
 62140  1  0  0  0
 62141  1  0  0  0
 63 65  1  0  0  0
 63142  1  0  0  0
 63143  1  0  0  0
 63144  1  0  0  0
 64145  1  0  0  0
 65146  1  0  0  0
 68 82  1  0  0  0
 71 73  2  0  0  0
 71 76  1  0  0  0
 71147  1  0  0  0
 72 75  1  0  0  0
 72 76  2  0  0  0
 72148  1  0  0  0
 73 74  1  0  0  0
 73 84  1  0  0  0
 74 75  2  0  0  0
 74 83  1  0  0  0
 75 85  1  0  0  0
 76 87  1  0  0  0
 77 78  2  0  0  0
 77 82  1  0  0  0
 77 86  1  0  0  0
 78149  1  0  0  0
 78150  1  0  0  0
 79 80  1  0  0  0
 79 81  1  0  0  0
 79151  1  0  0  0
 79152  1  0  0  0
 80 82  1  0  0  0
 80153  1  0  0  0
 80154  1  0  0  0
 81 86  1  0  0  0
 81155  1  0  0  0
 81156  1  0  0  0
 82157  1  0  0  0
 83158  1  0  0  0
 83159  1  0  0  0
 83160  1  0  0  0
 84161  1  0  0  0
 84162  1  0  0  0
 84 86  1  0  0  0
 85163  1  0  0  0
 86164  1  0  0  0
M  CHG  1  86   1
M  ISO  4   1 100  68 101  82 101  85 100
M  END
> <chiral flag>
0

> <version>
0

> <s_m_source_file>
/data/baiqing/PycharmProjects/Reinvent-master-3.2/result/LINK_invent/BTK/process_docking_weight1_custom_product_contain_oxygen_bond_distance_aromatic_linkinvent_7_9_3/rearranged_h_0038.sdf

> <i_m_source_file_index>
83

> <r_mmod_Potential_Energy-OPLS-2005>
50.5977020263672

> <r_mmod_Stretch_Energy-OPLS-2005>
134.245452880859

> <r_mmod_Bend_Energy-OPLS-2005>
176.450546264648

> <r_mmod_Torsional_Energy-OPLS-2005>
232.511001586914

> <r_mmod_Improper_Torsional_Energy-OPLS-2005>
5.7707085609436

> <r_mmod_Van_der_Waal_Energy-OPLS-2005>
145.766540527344

> <r_mmod_Electrostatic_Energy-OPLS-2005>
-269.683197021484

> <r_mmod_Solvation_Energy-OPLS-2005>
-447.823303222656

> <b_mmod_Minimization_Converged-OPLS-2005>
0

> <r_mmod_RMS_Derivative-OPLS-2005>
1.91768014431

$$$$
83
                    3D
 Structure written by MMmdl.
176185  0  0  1  0            999 V2000
  -30.7381  -14.5086   20.5845 C   0  0  0  0  0  0
  -30.4247  -12.3393   19.4265 C   0  0  0  0  0  0
  -29.4925  -12.5096   18.2092 C   0  0  0  0  0  0
  -28.0165  -12.3654   18.6253 C   0  0  0  0  0  0
  -27.6646  -13.2146   19.8748 C   0  0  2  0  0  0
  -28.7153  -13.0322   20.9969 C   0  0  0  0  0  0
  -25.2598  -13.8159   20.5712 C   0  0  0  0  0  0
  -24.1873  -13.0447   20.9186 C   0  0  0  0  0  0
  -24.6417  -11.6901   20.8742 C   0  0  0  0  0  0
  -23.9080  -10.4297   21.0383 C   0  0  0  0  0  0
  -24.3628   -9.4203   21.9164 C   0  0  0  0  0  0
  -23.6307   -8.2236   22.0734 C   0  0  0  0  0  0
  -22.4288   -8.0288   21.3526 C   0  0  0  0  0  0
  -21.9934   -9.0252   20.4624 C   0  0  0  0  0  0
  -22.7239  -10.2127   20.3028 C   0  0  0  0  0  0
  -21.6866   -6.0742   22.5273 C   0  0  0  0  0  0
  -21.4014   -6.5645   23.8196 C   0  0  0  0  0  0
  -21.3650   -5.6784   24.9166 C   0  0  0  0  0  0
  -21.6050   -4.3048   24.7209 C   0  0  0  0  0  0
  -21.8817   -3.8145   23.4332 C   0  0  0  0  0  0
  -21.9194   -4.6979   22.3392 C   0  0  0  0  0  0
  -22.7867  -13.5225   21.1850 C   0  0  0  0  0  0
  -22.1668   -4.2163   21.0971 F   0  0  0  0  0  0
  -21.5633   -3.4537   25.7721 F   0  0  0  0  0  0
  -30.0435  -13.3391   20.4396 N   0  0  0  0  0  0
  -26.3073  -12.9356   20.3405 N   0  0  0  0  0  0
  -25.9358  -11.6508   20.5798 N   0  0  0  0  0  0
  -22.0539  -12.8198   22.0399 N   0  0  0  0  0  0
  -25.4342  -15.1888   20.4106 N   0  0  0  0  0  0
  -31.8254  -14.6951   20.0386 O   0  0  0  0  0  0
  -21.6637   -6.8892   21.4231 O   0  0  0  0  0  0
  -22.3543  -14.5526   20.6699 O   0  0  0  0  0  0
  -24.6216  -31.8614   23.1986 C   0  0  0  0  0  0
  -25.9126  -32.4740   23.8262 C   0  0  1  0  0  0
  -27.2774  -27.3867   20.0921 C   0  0  0  0  0  0
  -25.5998  -33.8539   24.2192 N   0  0  0  0  0  0
  -23.4202  -30.4769   21.5358 C   0  0  2  0  0  0
  -24.8839  -28.9445   20.1145 C   0  0  0  0  0  0
  -22.7475  -29.4609   22.4922 C   0  0  0  0  0  0
  -18.0318  -28.1385   22.8490 C   0  0  0  0  0  0
  -24.1530  -36.7210   23.2638 C   0  0  0  0  0  0
  -25.9613  -30.7970   21.3855 C   0  0  0  0  0  0
  -26.0428  -29.4324   20.7305 C   0  0  0  0  0  0
  -27.2415  -28.6678   20.7157 C   0  0  0  0  0  0
  -26.0802  -26.9444   19.4675 C   0  0  0  0  0  0
  -24.9048  -27.7044   19.4705 C   0  0  0  0  0  0
  -23.6428  -29.8008   20.1563 C   0  0  0  0  0  0
  -25.4168  -36.3025   24.0311 C   0  0  1  0  0  0
  -20.5914  -28.3700   23.1313 C   0  0  2  0  0  0
  -20.6860  -26.9435   22.5421 C   0  0  0  0  0  0
  -19.5826  -26.6401   21.5239 C   0  0  0  0  0  0
  -18.1990  -26.7933   22.1621 C   0  0  0  0  0  0
  -19.1563  -28.8843   23.2903 C   0  0  0  0  0  0
  -18.9502  -30.1449   23.8918 C   0  0  0  0  0  0
  -17.6515  -30.6608   24.0552 C   0  0  0  0  0  0
  -25.9120  -34.9409   23.5026 C   0  0  0  0  0  0
  -16.5396  -29.9103   23.6333 C   0  0  0  0  0  0
  -16.7298  -28.6527   23.0335 C   0  0  0  0  0  0
  -26.4508  -31.6577   25.0644 C   0  0  0  0  0  0
  -25.3666  -31.3806   26.1304 C   0  0  0  0  0  0
  -27.0402  -30.3001   24.6181 C   0  0  0  0  0  0
  -27.6046  -32.4337   25.7397 C   0  0  0  0  0  0
  -27.5610  -37.1757   24.8464 C   0  0  0  0  0  0
  -21.4195  -29.3058   22.3687 N   0  0  0  0  0  0
  -26.4333  -37.3728   23.9404 N   0  0  0  0  0  0
  -24.6813  -31.0644   22.0924 N   0  0  0  0  0  0
  -23.4185  -28.8146   23.3007 O   0  0  0  0  0  0
  -28.4342  -26.5928   20.0895 O   0  0  0  0  0  0
  -26.5634  -34.8893   22.4576 O   0  0  0  0  0  0
  -23.5406  -32.1417   23.7334 O   0  0  0  0  0  0
  -31.0490  -19.4779   22.4454 C   0  0  0  0  0  0
  -31.8247  -18.4122   22.9126 C   0  0  0  0  0  0
  -30.0874  -19.3073   21.4289 C   0  0  0  0  0  0
  -31.6273  -17.1085   22.4301 C   0  0  0  0  0  0
  -29.7864  -17.9566   21.0264 C   0  0  0  0  0  0
  -30.5512  -16.8449   21.5330 C   0  0  0  0  0  0
  -29.6233  -23.2072   20.7784 C   0  0  0  0  0  0
  -29.4412  -23.6778   22.0303 C   0  0  0  0  0  0
  -31.7989  -23.7791   18.6322 C   0  0  0  0  0  0
  -32.3639  -22.8441   19.7219 C   0  0  0  0  0  0
  -30.7419  -24.7794   19.1354 C   0  0  0  0  0  0
  -31.5457  -21.5984   20.1519 C   0  0  0  0  0  0
  -29.4194  -24.1404   19.5656 C   0  0  2  0  0  0
  -32.5664  -16.0366   22.9672 C   0  0  0  0  0  0
  -28.6019  -17.7021   20.0906 C   0  0  0  0  0  0
  -29.5316  -23.0003   23.3739 C   0  0  0  0  0  0
  -29.3189  -20.5853   20.9362 C   0  0  0  0  0  0
  -28.2486  -25.1988   19.6915 C   0  0  0  0  0  0
  -30.1246  -15.4888   21.2920 N   0  0  0  0  0  0
  -30.0735  -21.7854   20.3669 N   0  3  1  0  0  0
  -31.4680  -12.4292   19.1216 H   0  0  0  0  0  0
  -30.3291  -11.3389   19.8471 H   0  0  0  0  0  0
  -29.7354  -11.7734   17.4415 H   0  0  0  0  0  0
  -29.6493  -13.4885   17.7543 H   0  0  0  0  0  0
  -27.8307  -11.3103   18.8325 H   0  0  0  0  0  0
  -27.3614  -12.6297   17.7932 H   0  0  0  0  0  0
  -27.6965  -14.2558   19.5561 H   0  0  0  0  0  0
  -28.7093  -12.0028   21.3582 H   0  0  0  0  0  0
  -28.4699  -13.6466   21.8633 H   0  0  0  0  0  0
  -25.2779   -9.5689   22.4726 H   0  0  0  0  0  0
  -24.0027   -7.4631   22.7447 H   0  0  0  0  0  0
  -21.0864   -8.8744   19.8930 H   0  0  0  0  0  0
  -22.3691  -10.9664   19.6133 H   0  0  0  0  0  0
  -21.1996   -7.6143   23.9715 H   0  0  0  0  0  0
  -21.1482   -6.0512   25.9067 H   0  0  0  0  0  0
  -22.0610   -2.7621   23.2813 H   0  0  0  0  0  0
  -22.4191  -11.9863   22.4759 H   0  0  0  0  0  0
  -21.1138  -13.1171   22.2611 H   0  0  0  0  0  0
  -24.6687  -15.8471   20.5135 H   0  0  0  0  0  0
  -26.2860  -15.6214   20.0796 H   0  0  0  0  0  0
  -26.7151  -32.5415   23.0958 H   0  0  0  0  0  0
  -25.0259  -33.9679   25.0408 H   0  0  0  0  0  0
  -22.7097  -31.2878   21.3736 H   0  0  0  0  0  0
  -23.3838  -35.9494   23.3297 H   0  0  0  0  0  0
  -24.3632  -36.8817   22.2056 H   0  0  0  0  0  0
  -23.7249  -37.6400   23.6653 H   0  0  0  0  0  0
  -26.1203  -31.5514   20.6172 H   0  0  0  0  0  0
  -26.8316  -30.8243   22.0306 H   0  0  0  0  0  0
  -28.1291  -29.0648   21.1925 H   0  0  0  0  0  0
  -25.9992  -26.0073   18.9437 H   0  0  0  0  0  0
  -24.0349  -27.3289   18.9486 H   0  0  0  0  0  0
  -23.7483  -30.5568   19.3773 H   0  0  0  0  0  0
  -22.7836  -29.1882   19.8764 H   0  0  0  0  0  0
  -25.1362  -36.1822   25.0804 H   0  0  0  0  0  0
  -21.0020  -28.3304   24.1427 H   0  0  0  0  0  0
  -20.5901  -26.2287   23.3598 H   0  0  0  0  0  0
  -21.6721  -26.7549   22.1117 H   0  0  0  0  0  0
  -19.7032  -25.6314   21.1272 H   0  0  0  0  0  0
  -19.6800  -27.3214   20.6767 H   0  0  0  0  0  0
  -17.4286  -26.6690   21.3991 H   0  0  0  0  0  0
  -18.0371  -26.0044   22.8982 H   0  0  0  0  0  0
  -19.7980  -30.7266   24.2312 H   0  0  0  0  0  0
  -17.5078  -31.6308   24.5136 H   0  0  0  0  0  0
  -15.5406  -30.3021   23.7703 H   0  0  0  0  0  0
  -15.8682  -28.0889   22.7006 H   0  0  0  0  0  0
  -24.5834  -30.7169   25.7613 H   0  0  0  0  0  0
  -24.8852  -32.3033   26.4566 H   0  0  0  0  0  0
  -25.7894  -30.9047   27.0156 H   0  0  0  0  0  0
  -26.3039  -29.6682   24.1205 H   0  0  0  0  0  0
  -27.4142  -29.7318   25.4713 H   0  0  0  0  0  0
  -27.8846  -30.4305   23.9405 H   0  0  0  0  0  0
  -27.2675  -33.3693   26.1862 H   0  0  0  0  0  0
  -28.3906  -32.6833   25.0247 H   0  0  0  0  0  0
  -28.0633  -31.8510   26.5391 H   0  0  0  0  0  0
  -28.2569  -38.0112   24.7622 H   0  0  0  0  0  0
  -28.1183  -36.2667   24.6183 H   0  0  0  0  0  0
  -27.2336  -37.1233   25.8861 H   0  0  0  0  0  0
  -20.9397  -29.8674   21.6797 H   0  0  0  0  0  0
  -26.0196  -38.2779   24.1467 H   0  0  0  0  0  0
  -31.2387  -20.4479   22.8759 H   0  0  0  0  0  0
  -32.5702  -18.6093   23.6702 H   0  0  0  0  0  0
  -29.1687  -24.7199   22.1242 H   0  0  0  0  0  0
  -31.4430  -23.2197   17.7667 H   0  0  0  0  0  0
  -32.6327  -24.3896   18.2761 H   0  0  0  0  0  0
  -32.5820  -23.4379   20.6069 H   0  0  0  0  0  0
  -33.3433  -22.4866   19.3944 H   0  0  0  0  0  0
  -30.5504  -25.5012   18.3399 H   0  0  0  0  0  0
  -31.1449  -25.3565   19.9665 H   0  0  0  0  0  0
  -32.0310  -21.2995   21.0752 H   0  0  0  0  0  0
  -31.7106  -20.7718   19.4553 H   0  0  0  0  0  0
  -29.0932  -23.4973   18.7455 H   0  0  0  0  0  0
  -33.5114  -16.4700   23.3000 H   0  0  0  0  0  0
  -32.8343  -15.3064   22.2129 H   0  0  0  0  0  0
  -32.1241  -15.5182   23.8130 H   0  0  0  0  0  0
  -28.7248  -18.2474   19.1556 H   0  0  0  0  0  0
  -27.6724  -18.0287   20.5604 H   0  0  0  0  0  0
  -28.4562  -16.6596   19.8139 H   0  0  0  0  0  0
  -29.8232  -21.9583   23.3349 H   0  0  0  0  0  0
  -28.5553  -23.0651   23.8569 H   0  0  0  0  0  0
  -30.2426  -23.5461   23.9947 H   0  0  0  0  0  0
  -28.6922  -20.8967   21.7703 H   0  0  0  0  0  0
  -28.5947  -20.3007   20.1744 H   0  0  0  0  0  0
  -27.4667  -24.7866   20.3330 H   0  0  0  0  0  0
  -27.8490  -25.2305   18.6794 H   0  0  0  0  0  0
  -29.1993  -15.2587   21.6165 H   0  0  0  0  0  0
  -29.7817  -21.7049   19.4044 H   0  0  0  0  0  0
  1 25  1  0  0  0
  1 30  2  0  0  0
  1 89  1  0  0  0
  2  3  1  0  0  0
  2 25  1  0  0  0
  2 91  1  0  0  0
  2 92  1  0  0  0
  3  4  1  0  0  0
  3 93  1  0  0  0
  3 94  1  0  0  0
  4  5  1  0  0  0
  4 95  1  0  0  0
  4 96  1  0  0  0
  5  6  1  0  0  0
  5 26  1  0  0  0
  5 97  1  0  0  0
  6 25  1  0  0  0
  6 98  1  0  0  0
  6 99  1  0  0  0
  7  8  2  0  0  0
  7 26  1  0  0  0
  7 29  1  0  0  0
  8  9  1  0  0  0
  8 22  1  0  0  0
  9 10  1  0  0  0
  9 27  2  0  0  0
 10 11  2  0  0  0
 10 15  1  0  0  0
 11 12  1  0  0  0
 11100  1  0  0  0
 12 13  2  0  0  0
 12101  1  0  0  0
 13 14  1  0  0  0
 13 31  1  0  0  0
 14 15  2  0  0  0
 14102  1  0  0  0
 15103  1  0  0  0
 16 17  2  0  0  0
 16 21  1  0  0  0
 16 31  1  0  0  0
 17 18  1  0  0  0
 17104  1  0  0  0
 18 19  2  0  0  0
 18105  1  0  0  0
 19 20  1  0  0  0
 19 24  1  0  0  0
 20 21  2  0  0  0
 20106  1  0  0  0
 21 23  1  0  0  0
 22 28  1  0  0  0
 22 32  2  0  0  0
 26 27  1  0  0  0
 28107  1  0  0  0
 28108  1  0  0  0
 29109  1  0  0  0
 29110  1  0  0  0
 33 34  1  0  0  0
 33 66  1  0  0  0
 33 70  2  0  0  0
 34 36  1  0  0  0
 34 59  1  0  0  0
 34111  1  0  0  0
 35 44  2  0  0  0
 35 45  1  0  0  0
 35 68  1  0  0  0
 36 56  1  0  0  0
 36112  1  0  0  0
 37 39  1  0  0  0
 37 47  1  0  0  0
 37 66  1  0  0  0
 37113  1  0  0  0
 38 43  2  0  0  0
 38 46  1  0  0  0
 38 47  1  0  0  0
 39 64  1  0  0  0
 39 67  2  0  0  0
 40 52  1  0  0  0
 40 53  2  0  0  0
 40 58  1  0  0  0
 41114  1  0  0  0
 41115  1  0  0  0
 41116  1  0  0  0
 41 48  1  0  0  0
 42 43  1  0  0  0
 42 66  1  0  0  0
 42117  1  0  0  0
 42118  1  0  0  0
 43 44  1  0  0  0
 44119  1  0  0  0
 45 46  2  0  0  0
 45120  1  0  0  0
 46121  1  0  0  0
 47122  1  0  0  0
 47123  1  0  0  0
 48 56  1  0  0  0
 48 65  1  0  0  0
 48124  1  0  0  0
 49 50  1  0  0  0
 49 53  1  0  0  0
 49 64  1  0  0  0
 49125  1  0  0  0
 50 51  1  0  0  0
 50126  1  0  0  0
 50127  1  0  0  0
 51 52  1  0  0  0
 51128  1  0  0  0
 51129  1  0  0  0
 52130  1  0  0  0
 52131  1  0  0  0
 53 54  1  0  0  0
 54 55  2  0  0  0
 54132  1  0  0  0
 55 57  1  0  0  0
 55133  1  0  0  0
 56 69  2  0  0  0
 57 58  2  0  0  0
 57134  1  0  0  0
 58135  1  0  0  0
 59 60  1  0  0  0
 59 61  1  0  0  0
 59 62  1  0  0  0
 60136  1  0  0  0
 60137  1  0  0  0
 60138  1  0  0  0
 61139  1  0  0  0
 61140  1  0  0  0
 61141  1  0  0  0
 62142  1  0  0  0
 62143  1  0  0  0
 62144  1  0  0  0
 63 65  1  0  0  0
 63145  1  0  0  0
 63146  1  0  0  0
 63147  1  0  0  0
 64148  1  0  0  0
 65149  1  0  0  0
 68 88  1  0  0  0
 71 72  2  0  0  0
 71 73  1  0  0  0
 71150  1  0  0  0
 72 74  1  0  0  0
 72151  1  0  0  0
 73 75  2  0  0  0
 73 87  1  0  0  0
 74 76  2  0  0  0
 74 84  1  0  0  0
 75 76  1  0  0  0
 75 85  1  0  0  0
 76 89  1  0  0  0
 77 78  2  0  0  0
 77 83  1  0  0  0
 77 90  1  0  0  0
 78 86  1  0  0  0
 78152  1  0  0  0
 79 80  1  0  0  0
 79 81  1  0  0  0
 79153  1  0  0  0
 79154  1  0  0  0
 80 82  1  0  0  0
 80155  1  0  0  0
 80156  1  0  0  0
 81 83  1  0  0  0
 81157  1  0  0  0
 81158  1  0  0  0
 82 90  1  0  0  0
 82159  1  0  0  0
 82160  1  0  0  0
 83 88  1  0  0  0
 83161  1  0  0  0
 84162  1  0  0  0
 84163  1  0  0  0
 84164  1  0  0  0
 85165  1  0  0  0
 85166  1  0  0  0
 85167  1  0  0  0
 86168  1  0  0  0
 86169  1  0  0  0
 86170  1  0  0  0
 87171  1  0  0  0
 87172  1  0  0  0
 87 90  1  0  0  0
 88173  1  0  0  0
 88174  1  0  0  0
 89175  1  0  0  0
 90176  1  0  0  0
M  CHG  1  90   1
M  ISO  4   1 100  68 101  88 101  89 100
M  END
> <chiral flag>
0

> <version>
0

> <s_m_source_file>
/data/baiqing/PycharmProjects/Reinvent-master-3.2/result/LINK_invent/BTK/process_docking_weight1_custom_product_contain_oxygen_bond_distance_aromatic_linkinvent_7_9_3/rearranged_h_0038.sdf

> <i_m_source_file_index>
84

> <r_mmod_Potential_Energy-OPLS-2005>
-2.47589516639709

> <r_mmod_Stretch_Energy-OPLS-2005>
74.9384689331055

> <r_mmod_Bend_Energy-OPLS-2005>
183.164855957031

> <r_mmod_Torsional_Energy-OPLS-2005>
267.368927001953

> <r_mmod_Improper_Torsional_Energy-OPLS-2005>
3.76941680908203

> <r_mmod_Van_der_Waal_Energy-OPLS-2005>
171.163284301758

> <r_mmod_Electrostatic_Energy-OPLS-2005>
-300.142333984375

> <r_mmod_Solvation_Energy-OPLS-2005>
-424.011169433594

> <b_mmod_Minimization_Converged-OPLS-2005>
0

> <r_mmod_RMS_Derivative-OPLS-2005>
7.50813913345337

$$$$
84
                    3D
 Structure written by MMmdl.
170179  0  0  1  0            999 V2000
  -30.6871  -14.4858   20.5106 C   0  0  0  0  0  0
  -30.4199  -12.3221   19.4087 C   0  0  0  0  0  0
  -29.4833  -12.4745   18.1939 C   0  0  0  0  0  0
  -28.0148  -12.3275   18.6294 C   0  0  0  0  0  0
  -27.6653  -13.1968   19.8677 C   0  0  2  0  0  0
  -28.7078  -12.9870   20.9862 C   0  0  0  0  0  0
  -25.2650  -13.8187   20.5573 C   0  0  0  0  0  0
  -24.1905  -13.0473   20.9171 C   0  0  0  0  0  0
  -24.6433  -11.6925   20.8736 C   0  0  0  0  0  0
  -23.9019  -10.4356   21.0476 C   0  0  0  0  0  0
  -24.3588   -9.4255   21.9240 C   0  0  0  0  0  0
  -23.6269   -8.2295   22.0777 C   0  0  0  0  0  0
  -22.4267   -8.0339   21.3604 C   0  0  0  0  0  0
  -21.9926   -9.0273   20.4701 C   0  0  0  0  0  0
  -22.7202  -10.2162   20.3088 C   0  0  0  0  0  0
  -21.6842   -6.0746   22.5225 C   0  0  0  0  0  0
  -21.4006   -6.5662   23.8150 C   0  0  0  0  0  0
  -21.3683   -5.6817   24.9138 C   0  0  0  0  0  0
  -21.6026   -4.3091   24.7214 C   0  0  0  0  0  0
  -21.8851   -3.8170   23.4336 C   0  0  0  0  0  0
  -21.9200   -4.6964   22.3390 C   0  0  0  0  0  0
  -22.7960  -13.5290   21.1855 C   0  0  0  0  0  0
  -22.1708   -4.2207   21.0940 F   0  0  0  0  0  0
  -21.5632   -3.4526   25.7696 F   0  0  0  0  0  0
  -30.0305  -13.3045   20.4197 N   0  0  0  0  0  0
  -26.3059  -12.9278   20.3352 N   0  0  0  0  0  0
  -25.9334  -11.6527   20.5786 N   0  0  0  0  0  0
  -22.0623  -12.8284   22.0392 N   0  0  0  0  0  0
  -25.4494  -15.1896   20.3995 N   0  0  0  0  0  0
  -31.8324  -14.6611   20.0841 O   0  0  0  0  0  0
  -21.6686   -6.8887   21.4231 O   0  0  0  0  0  0
  -22.3605  -14.5664   20.6722 O   0  0  0  0  0  0
  -24.6226  -31.8649   23.2068 C   0  0  0  0  0  0
  -25.9038  -32.4810   23.8429 C   0  0  1  0  0  0
  -27.1595  -27.3077   20.1310 C   0  0  0  0  0  0
  -25.5844  -33.8602   24.2278 N   0  0  0  0  0  0
  -23.4164  -30.4996   21.5449 C   0  0  2  0  0  0
  -24.8480  -28.9670   20.0993 C   0  0  0  0  0  0
  -22.7568  -29.4672   22.4857 C   0  0  0  0  0  0
  -18.0373  -28.1425   22.8578 C   0  0  0  0  0  0
  -24.1478  -36.7287   23.2641 C   0  0  0  0  0  0
  -25.9577  -30.7886   21.3845 C   0  0  0  0  0  0
  -26.0201  -29.4238   20.7191 C   0  0  0  0  0  0
  -27.1814  -28.5981   20.7380 C   0  0  0  0  0  0
  -25.9930  -26.9437   19.4183 C   0  0  0  0  0  0
  -24.8339  -27.7290   19.4464 C   0  0  0  0  0  0
  -23.6270  -29.8515   20.1539 C   0  0  0  0  0  0
  -25.4125  -36.3090   24.0331 C   0  0  1  0  0  0
  -20.6042  -28.3612   23.1122 C   0  0  2  0  0  0
  -20.6893  -26.9352   22.5146 C   0  0  0  0  0  0
  -19.5643  -26.6116   21.5353 C   0  0  0  0  0  0
  -18.1903  -26.7852   22.1983 C   0  0  0  0  0  0
  -19.1732  -28.8801   23.2850 C   0  0  0  0  0  0
  -18.9890  -30.1516   23.8728 C   0  0  0  0  0  0
  -17.6969  -30.6819   24.0515 C   0  0  0  0  0  0
  -25.9088  -34.9495   23.5167 C   0  0  0  0  0  0
  -16.5694  -29.9386   23.6485 C   0  0  0  0  0  0
  -16.7459  -28.6699   23.0577 C   0  0  0  0  0  0
  -26.4476  -31.6589   25.0804 C   0  0  0  0  0  0
  -25.3687  -31.3691   26.1519 C   0  0  0  0  0  0
  -27.0315  -30.3027   24.6196 C   0  0  0  0  0  0
  -27.6071  -32.4315   25.7519 C   0  0  0  0  0  0
  -27.5581  -37.1801   24.8470 C   0  0  0  0  0  0
  -21.4299  -29.2972   22.3520 N   0  0  0  0  0  0
  -26.4283  -37.3775   23.9440 N   0  0  0  0  0  0
  -24.6886  -31.0679   22.1034 N   0  0  0  0  0  0
  -23.4253  -28.8278   23.2993 O   0  0  0  0  0  0
  -28.2103  -26.4013   20.2926 O   0  0  0  0  0  0
  -26.5629  -34.8956   22.4721 O   0  0  0  0  0  0
  -23.5400  -32.1437   23.7396 O   0  0  0  0  0  0
  -27.0490  -18.4301   22.1762 C   0  0  0  0  0  0
  -28.2883  -17.7665   22.1725 C   0  0  0  0  0  0
  -26.6720  -19.2411   21.0864 C   0  0  0  0  0  0
  -29.1305  -17.8334   21.0336 C   0  0  0  0  0  0
  -27.6284  -19.5390   20.0892 C   0  0  0  0  0  0
  -28.7968  -18.7399   19.9889 C   0  0  0  0  0  0
  -26.3936  -23.0095   19.9127 C   0  0  0  0  0  0
  -25.2805  -22.8787   19.1628 C   0  0  0  0  0  0
  -26.7291  -24.2739   20.7065 C   0  0  0  0  0  0
  -29.1037  -24.0133   20.4588 C   0  0  0  0  0  0
  -28.9001  -22.5833   19.8507 C   0  0  0  0  0  0
  -27.9598  -24.9690   20.0475 C   0  0  1  0  0  0
  -28.6909  -16.9572   23.3956 C   0  0  0  0  0  0
  -25.2162  -19.6715   20.9202 C   0  0  0  0  0  0
  -30.3499  -16.9185   20.9485 C   0  0  0  0  0  0
  -27.3899  -20.7332   19.1693 C   0  0  0  0  0  0
  -29.9396  -15.5029   20.9496 N   0  0  0  0  0  0
  -27.5247  -21.9960   19.9760 N   0  3  2  0  0  0
  -29.7914  -18.8511   18.5710 Cl  0  0  0  0  0  0
  -31.4572  -12.4374   19.1004 H   0  0  0  0  0  0
  -30.3480  -11.3249   19.8361 H   0  0  0  0  0  0
  -29.7244  -11.7041   17.4613 H   0  0  0  0  0  0
  -29.6492  -13.4347   17.6977 H   0  0  0  0  0  0
  -27.8433  -11.2738   18.8570 H   0  0  0  0  0  0
  -27.3552  -12.5685   17.8077 H   0  0  0  0  0  0
  -27.7243  -14.2414   19.5585 H   0  0  0  0  0  0
  -28.6992  -11.9474   21.3111 H   0  0  0  0  0  0
  -28.4503  -13.5728   21.8687 H   0  0  0  0  0  0
  -25.2772   -9.5737   22.4756 H   0  0  0  0  0  0
  -24.0048   -7.4671   22.7456 H   0  0  0  0  0  0
  -21.0890   -8.8747   19.8926 H   0  0  0  0  0  0
  -22.3722  -10.9686   19.6138 H   0  0  0  0  0  0
  -21.2018   -7.6162   23.9685 H   0  0  0  0  0  0
  -21.1459   -6.0546   25.9046 H   0  0  0  0  0  0
  -22.0609   -2.7625   23.2780 H   0  0  0  0  0  0
  -22.4228  -11.9872   22.4683 H   0  0  0  0  0  0
  -21.1179  -13.1322   22.2388 H   0  0  0  0  0  0
  -24.6999  -15.8560   20.5300 H   0  0  0  0  0  0
  -26.3292  -15.6333   20.1616 H   0  0  0  0  0  0
  -26.7072  -32.5444   23.1142 H   0  0  0  0  0  0
  -25.0016  -33.9744   25.0446 H   0  0  0  0  0  0
  -22.7119  -31.3222   21.4080 H   0  0  0  0  0  0
  -23.3746  -35.9590   23.3320 H   0  0  0  0  0  0
  -24.3583  -36.8883   22.2040 H   0  0  0  0  0  0
  -23.7185  -37.6508   23.6640 H   0  0  0  0  0  0
  -26.0988  -31.5432   20.6056 H   0  0  0  0  0  0
  -26.8456  -30.8341   22.0116 H   0  0  0  0  0  0
  -28.0653  -28.9154   21.2759 H   0  0  0  0  0  0
  -25.9071  -26.0056   18.8892 H   0  0  0  0  0  0
  -23.9457  -27.3761   18.9450 H   0  0  0  0  0  0
  -23.7344  -30.6294   19.3968 H   0  0  0  0  0  0
  -22.7481  -29.2719   19.8612 H   0  0  0  0  0  0
  -25.1284  -36.2016   25.0791 H   0  0  0  0  0  0
  -21.0229  -28.3105   24.1234 H   0  0  0  0  0  0
  -20.6276  -26.2160   23.3297 H   0  0  0  0  0  0
  -21.6504  -26.7592   22.0293 H   0  0  0  0  0  0
  -19.6756  -25.5885   21.1650 H   0  0  0  0  0  0
  -19.6462  -27.2768   20.6803 H   0  0  0  0  0  0
  -17.3960  -26.6324   21.4625 H   0  0  0  0  0  0
  -18.0564  -26.0152   22.9643 H   0  0  0  0  0  0
  -19.8528  -30.7291   24.1878 H   0  0  0  0  0  0
  -17.5796  -31.6663   24.4891 H   0  0  0  0  0  0
  -15.5795  -30.3509   23.7894 H   0  0  0  0  0  0
  -15.8711  -28.1101   22.7481 H   0  0  0  0  0  0
  -24.5859  -30.7053   25.7818 H   0  0  0  0  0  0
  -24.8910  -32.2843   26.5019 H   0  0  0  0  0  0
  -25.8045  -30.8817   27.0228 H   0  0  0  0  0  0
  -26.2898  -29.6791   24.1203 H   0  0  0  0  0  0
  -27.4010  -29.7290   25.4677 H   0  0  0  0  0  0
  -27.8751  -30.4349   23.9435 H   0  0  0  0  0  0
  -27.2703  -33.3565   26.2173 H   0  0  0  0  0  0
  -28.3826  -32.6891   25.0304 H   0  0  0  0  0  0
  -28.0754  -31.8375   26.5343 H   0  0  0  0  0  0
  -28.2631  -38.0076   24.7582 H   0  0  0  0  0  0
  -28.1068  -36.2650   24.6253 H   0  0  0  0  0  0
  -27.2328  -37.1380   25.8869 H   0  0  0  0  0  0
  -20.9507  -29.8283   21.6393 H   0  0  0  0  0  0
  -26.0222  -38.2876   24.1407 H   0  0  0  0  0  0
  -26.3551  -18.3085   23.0004 H   0  0  0  0  0  0
  -24.5591  -23.6769   19.1445 H   0  0  0  0  0  0
  -25.0350  -22.0328   18.5360 H   0  0  0  0  0  0
  -26.9145  -24.0459   21.7581 H   0  0  0  0  0  0
  -25.8311  -24.8754   20.7548 H   0  0  0  0  0  0
  -30.0710  -24.4032   20.1564 H   0  0  0  0  0  0
  -29.1568  -23.9404   21.5422 H   0  0  0  0  0  0
  -29.5891  -21.8603   20.2935 H   0  0  0  0  0  0
  -29.1453  -22.6403   18.7897 H   0  0  0  0  0  0
  -27.8546  -24.8881   18.9586 H   0  0  0  0  0  0
  -29.4139  -17.5251   23.9785 H   0  0  0  0  0  0
  -29.1539  -16.0116   23.1463 H   0  0  0  0  0  0
  -27.8136  -16.7436   24.0108 H   0  0  0  0  0  0
  -25.0460  -20.7482   21.0057 H   0  0  0  0  0  0
  -24.5379  -19.1511   21.6047 H   0  0  0  0  0  0
  -24.9105  -19.3648   19.9115 H   0  0  0  0  0  0
  -30.9221  -17.1297   20.0505 H   0  0  0  0  0  0
  -31.0119  -17.1288   21.7953 H   0  0  0  0  0  0
  -26.4221  -20.5849   18.7027 H   0  0  0  0  0  0
  -28.0941  -20.7467   18.3337 H   0  0  0  0  0  0
  -28.9929  -15.3145   21.2593 H   0  0  0  0  0  0
  -27.4996  -21.6045   20.9085 H   0  0  0  0  0  0
  1 25  1  0  0  0
  1 30  2  0  0  0
  1 87  1  0  0  0
  2  3  1  0  0  0
  2 25  1  0  0  0
  2 90  1  0  0  0
  2 91  1  0  0  0
  3  4  1  0  0  0
  3 92  1  0  0  0
  3 93  1  0  0  0
  4  5  1  0  0  0
  4 94  1  0  0  0
  4 95  1  0  0  0
  5  6  1  0  0  0
  5 26  1  0  0  0
  5 96  1  0  0  0
  6 25  1  0  0  0
  6 97  1  0  0  0
  6 98  1  0  0  0
  7  8  2  0  0  0
  7 26  1  0  0  0
  7 29  1  0  0  0
  8  9  1  0  0  0
  8 22  1  0  0  0
  9 10  1  0  0  0
  9 27  2  0  0  0
 10 11  2  0  0  0
 10 15  1  0  0  0
 11 12  1  0  0  0
 11 99  1  0  0  0
 12 13  2  0  0  0
 12100  1  0  0  0
 13 14  1  0  0  0
 13 31  1  0  0  0
 14 15  2  0  0  0
 14101  1  0  0  0
 15102  1  0  0  0
 16 17  2  0  0  0
 16 21  1  0  0  0
 16 31  1  0  0  0
 17 18  1  0  0  0
 17103  1  0  0  0
 18 19  2  0  0  0
 18104  1  0  0  0
 19 20  1  0  0  0
 19 24  1  0  0  0
 20 21  2  0  0  0
 20105  1  0  0  0
 21 23  1  0  0  0
 22 28  1  0  0  0
 22 32  2  0  0  0
 26 27  1  0  0  0
 28106  1  0  0  0
 28107  1  0  0  0
 29108  1  0  0  0
 29109  1  0  0  0
 33 34  1  0  0  0
 33 66  1  0  0  0
 33 70  2  0  0  0
 34 36  1  0  0  0
 34 59  1  0  0  0
 34110  1  0  0  0
 35 44  2  0  0  0
 35 45  1  0  0  0
 35 68  1  0  0  0
 36 56  1  0  0  0
 36111  1  0  0  0
 37 39  1  0  0  0
 37 47  1  0  0  0
 37 66  1  0  0  0
 37112  1  0  0  0
 38 43  2  0  0  0
 38 46  1  0  0  0
 38 47  1  0  0  0
 39 64  1  0  0  0
 39 67  2  0  0  0
 40 52  1  0  0  0
 40 53  2  0  0  0
 40 58  1  0  0  0
 41113  1  0  0  0
 41114  1  0  0  0
 41115  1  0  0  0
 41 48  1  0  0  0
 42 43  1  0  0  0
 42 66  1  0  0  0
 42116  1  0  0  0
 42117  1  0  0  0
 43 44  1  0  0  0
 44118  1  0  0  0
 45 46  2  0  0  0
 45119  1  0  0  0
 46120  1  0  0  0
 47121  1  0  0  0
 47122  1  0  0  0
 48 56  1  0  0  0
 48 65  1  0  0  0
 48123  1  0  0  0
 49 50  1  0  0  0
 49 53  1  0  0  0
 49 64  1  0  0  0
 49124  1  0  0  0
 50 51  1  0  0  0
 50125  1  0  0  0
 50126  1  0  0  0
 51 52  1  0  0  0
 51127  1  0  0  0
 51128  1  0  0  0
 52129  1  0  0  0
 52130  1  0  0  0
 53 54  1  0  0  0
 54 55  2  0  0  0
 54131  1  0  0  0
 55 57  1  0  0  0
 55132  1  0  0  0
 56 69  2  0  0  0
 57 58  2  0  0  0
 57133  1  0  0  0
 58134  1  0  0  0
 59 60  1  0  0  0
 59 61  1  0  0  0
 59 62  1  0  0  0
 60135  1  0  0  0
 60136  1  0  0  0
 60137  1  0  0  0
 61138  1  0  0  0
 61139  1  0  0  0
 61140  1  0  0  0
 62141  1  0  0  0
 62142  1  0  0  0
 62143  1  0  0  0
 63 65  1  0  0  0
 63144  1  0  0  0
 63145  1  0  0  0
 63146  1  0  0  0
 64147  1  0  0  0
 65148  1  0  0  0
 68 82  1  0  0  0
 71 72  2  0  0  0
 71 73  1  0  0  0
 71149  1  0  0  0
 72 74  1  0  0  0
 72 83  1  0  0  0
 73 75  2  0  0  0
 73 84  1  0  0  0
 74 76  2  0  0  0
 74 85  1  0  0  0
 75 76  1  0  0  0
 75 86  1  0  0  0
 76 89  1  0  0  0
 77 78  2  0  0  0
 77 79  1  0  0  0
 77 88  1  0  0  0
 78150  1  0  0  0
 78151  1  0  0  0
 79 82  1  0  0  0
 79152  1  0  0  0
 79153  1  0  0  0
 80 81  1  0  0  0
 80 82  1  0  0  0
 80154  1  0  0  0
 80155  1  0  0  0
 81 88  1  0  0  0
 81156  1  0  0  0
 81157  1  0  0  0
 82158  1  0  0  0
 83159  1  0  0  0
 83160  1  0  0  0
 83161  1  0  0  0
 84162  1  0  0  0
 84163  1  0  0  0
 84164  1  0  0  0
 85 87  1  0  0  0
 85165  1  0  0  0
 85166  1  0  0  0
 86167  1  0  0  0
 86168  1  0  0  0
 86 88  1  0  0  0
 87169  1  0  0  0
 88170  1  0  0  0
M  CHG  1  88   1
M  ISO  4   1 100  68 101  82 101  87 100
M  END
> <chiral flag>
0

> <version>
0

> <s_m_source_file>
/data/baiqing/PycharmProjects/Reinvent-master-3.2/result/LINK_invent/BTK/process_docking_weight1_custom_product_contain_oxygen_bond_distance_aromatic_linkinvent_7_9_3/rearranged_h_0038.sdf

> <i_m_source_file_index>
85

> <r_mmod_Potential_Energy-OPLS-2005>
-50.939094543457

> <r_mmod_Stretch_Energy-OPLS-2005>
53.3875312805176

> <r_mmod_Bend_Energy-OPLS-2005>
137.397232055664

> <r_mmod_Torsional_Energy-OPLS-2005>
256.201721191406

> <r_mmod_Improper_Torsional_Energy-OPLS-2005>
4.38623666763306

> <r_mmod_Van_der_Waal_Energy-OPLS-2005>
187.996826171875

> <r_mmod_Electrostatic_Energy-OPLS-2005>
-315.428070068359

> <r_mmod_Solvation_Energy-OPLS-2005>
-425.586578369141

> <b_mmod_Minimization_Converged-OPLS-2005>
0

> <r_mmod_RMS_Derivative-OPLS-2005>
17.5600032806396

$$$$
85
                    3D
 Structure written by MMmdl.
162170  0  0  1  0            999 V2000
  -30.6628  -14.5246   20.4959 C   0  0  0  0  0  0
  -30.4231  -12.3149   19.4464 C   0  0  0  0  0  0
  -29.4992  -12.4712   18.2178 C   0  0  0  0  0  0
  -28.0179  -12.3369   18.6272 C   0  0  0  0  0  0
  -27.6516  -13.2048   19.8614 C   0  0  2  0  0  0
  -28.6925  -13.0333   20.9910 C   0  0  0  0  0  0
  -25.2567  -13.8166   20.5676 C   0  0  0  0  0  0
  -24.1819  -13.0440   20.9180 C   0  0  0  0  0  0
  -24.6373  -11.6908   20.8743 C   0  0  0  0  0  0
  -23.9045  -10.4291   21.0417 C   0  0  0  0  0  0
  -24.3604   -9.4209   21.9188 C   0  0  0  0  0  0
  -23.6285   -8.2242   22.0754 C   0  0  0  0  0  0
  -22.4275   -8.0277   21.3544 C   0  0  0  0  0  0
  -21.9902   -9.0247   20.4654 C   0  0  0  0  0  0
  -22.7221  -10.2133   20.3063 C   0  0  0  0  0  0
  -21.6846   -6.0739   22.5287 C   0  0  0  0  0  0
  -21.4008   -6.5641   23.8224 C   0  0  0  0  0  0
  -21.3658   -5.6795   24.9180 C   0  0  0  0  0  0
  -21.6045   -4.3058   24.7233 C   0  0  0  0  0  0
  -21.8816   -3.8152   23.4352 C   0  0  0  0  0  0
  -21.9190   -4.6966   22.3414 C   0  0  0  0  0  0
  -22.7846  -13.5249   21.1844 C   0  0  0  0  0  0
  -22.1657   -4.2153   21.0990 F   0  0  0  0  0  0
  -21.5626   -3.4546   25.7746 F   0  0  0  0  0  0
  -30.0178  -13.3299   20.4301 N   0  0  0  0  0  0
  -26.2968  -12.9316   20.3313 N   0  0  0  0  0  0
  -25.9289  -11.6485   20.5759 N   0  0  0  0  0  0
  -22.0495  -12.8247   22.0410 N   0  0  0  0  0  0
  -25.4319  -15.1884   20.4095 N   0  0  0  0  0  0
  -31.8671  -14.6286   20.2560 O   0  0  0  0  0  0
  -21.6635   -6.8881   21.4249 O   0  0  0  0  0  0
  -22.3547  -14.5557   20.6702 O   0  0  0  0  0  0
  -24.6172  -31.8670   23.2031 C   0  0  0  0  0  0
  -25.9052  -32.4819   23.8350 C   0  0  1  0  0  0
  -27.2358  -27.3934   20.1026 C   0  0  0  0  0  0
  -25.5888  -33.8616   24.2298 N   0  0  0  0  0  0
  -23.4075  -30.4832   21.5470 C   0  0  2  0  0  0
  -24.8545  -28.9475   20.1099 C   0  0  0  0  0  0
  -22.7425  -29.4628   22.4986 C   0  0  0  0  0  0
  -18.0226  -28.1356   22.8501 C   0  0  0  0  0  0
  -24.1472  -36.7321   23.2643 C   0  0  0  0  0  0
  -25.9397  -30.8200   21.3595 C   0  0  0  0  0  0
  -26.0161  -29.4511   20.7071 C   0  0  0  0  0  0
  -27.2068  -28.6824   20.6947 C   0  0  0  0  0  0
  -26.0503  -26.9136   19.4973 C   0  0  0  0  0  0
  -24.8715  -27.6836   19.4973 C   0  0  0  0  0  0
  -23.6144  -29.8128   20.1620 C   0  0  0  0  0  0
  -25.4100  -36.3123   24.0344 C   0  0  1  0  0  0
  -20.5840  -28.3602   23.1233 C   0  0  2  0  0  0
  -20.6690  -26.9350   22.5259 C   0  0  0  0  0  0
  -19.5605  -26.6398   21.5115 C   0  0  0  0  0  0
  -18.1860  -26.7862   22.1716 C   0  0  0  0  0  0
  -19.1512  -28.8812   23.2851 C   0  0  0  0  0  0
  -18.9460  -30.1409   23.8874 C   0  0  0  0  0  0
  -17.6466  -30.6548   24.0570 C   0  0  0  0  0  0
  -25.9048  -34.9487   23.5140 C   0  0  0  0  0  0
  -16.5331  -29.9081   23.6353 C   0  0  0  0  0  0
  -16.7221  -28.6501   23.0364 C   0  0  0  0  0  0
  -26.4431  -31.6614   25.0703 C   0  0  0  0  0  0
  -25.3648  -31.3754   26.1417 C   0  0  0  0  0  0
  -27.0264  -30.3042   24.6131 C   0  0  0  0  0  0
  -27.6012  -32.4339   25.7468 C   0  0  0  0  0  0
  -27.5580  -37.1810   24.8467 C   0  0  0  0  0  0
  -21.4163  -29.2941   22.3647 N   0  0  0  0  0  0
  -26.4292  -37.3805   23.9413 N   0  0  0  0  0  0
  -24.6736  -31.0716   22.0951 N   0  0  0  0  0  0
  -23.4159  -28.8277   23.3137 O   0  0  0  0  0  0
  -28.4166  -26.6640   20.1310 O   0  0  0  0  0  0
  -26.5628  -34.8948   22.4707 O   0  0  0  0  0  0
  -23.5361  -32.1444   23.7388 O   0  0  0  0  0  0
  -30.2259  -19.7054   19.3354 C   0  0  0  0  0  0
  -30.9204  -18.6988   18.6474 C   0  0  0  0  0  0
  -29.2986  -18.0080   20.8096 C   0  0  0  0  0  0
  -29.3608  -19.3729   20.3961 C   0  0  0  0  0  0
  -30.7823  -17.3403   18.9922 C   0  0  0  0  0  0
  -30.0260  -16.9695   20.1479 C   0  0  0  0  0  0
  -31.3983  -16.3511   18.0129 C   0  0  0  0  0  0
  -28.7935  -24.5192   22.2937 C   0  0  0  0  0  0
  -28.4295  -20.4462   21.0110 C   0  0  0  0  0  0
  -27.6534  -22.8333   20.7012 C   0  0  0  0  0  0
  -28.4387  -25.2395   19.8544 C   0  0  0  0  0  0
  -27.9312  -24.3467   21.0299 C   0  0  2  0  0  0
  -29.8515  -15.6079   20.6131 N   0  0  0  0  0  0
  -28.8082  -21.8800   20.7906 N   0  3  0  0  0  0
  -31.4697  -12.4150   19.1521 H   0  0  0  0  0  0
  -30.3252  -11.3164   19.8755 H   0  0  0  0  0  0
  -29.7467  -11.7209   17.4651 H   0  0  0  0  0  0
  -29.6613  -13.4403   17.7439 H   0  0  0  0  0  0
  -27.8351  -11.2848   18.8484 H   0  0  0  0  0  0
  -27.3691  -12.5833   17.7861 H   0  0  0  0  0  0
  -27.6785  -14.2409   19.5263 H   0  0  0  0  0  0
  -28.6767  -12.0110   21.3732 H   0  0  0  0  0  0
  -28.4622  -13.6744   21.8435 H   0  0  0  0  0  0
  -25.2754   -9.5690   22.4754 H   0  0  0  0  0  0
  -24.0003   -7.4633   22.7474 H   0  0  0  0  0  0
  -21.0832   -8.8765   19.8959 H   0  0  0  0  0  0
  -22.3680  -10.9667   19.6170 H   0  0  0  0  0  0
  -21.1995   -7.6152   23.9728 H   0  0  0  0  0  0
  -21.1480   -6.0528   25.9090 H   0  0  0  0  0  0
  -22.0595   -2.7615   23.2858 H   0  0  0  0  0  0
  -22.4094  -11.9890   22.4777 H   0  0  0  0  0  0
  -21.1125  -13.1289   22.2635 H   0  0  0  0  0  0
  -24.6664  -15.8455   20.5116 H   0  0  0  0  0  0
  -26.2852  -15.6260   20.0844 H   0  0  0  0  0  0
  -26.7146  -32.5515   23.1143 H   0  0  0  0  0  0
  -24.9943  -33.9754   25.0382 H   0  0  0  0  0  0
  -22.7002  -31.3018   21.4013 H   0  0  0  0  0  0
  -23.3740  -35.9654   23.3322 H   0  0  0  0  0  0
  -24.3547  -36.8915   22.2051 H   0  0  0  0  0  0
  -23.7213  -37.6531   23.6642 H   0  0  0  0  0  0
  -26.0563  -31.5850   20.5897 H   0  0  0  0  0  0
  -26.8268  -30.8810   21.9777 H   0  0  0  0  0  0
  -28.1060  -29.0681   21.1540 H   0  0  0  0  0  0
  -26.0105  -25.9488   19.0166 H   0  0  0  0  0  0
  -23.9795  -27.2962   19.0242 H   0  0  0  0  0  0
  -23.7212  -30.5853   19.4012 H   0  0  0  0  0  0
  -22.7395  -29.2310   19.8631 H   0  0  0  0  0  0
  -25.1267  -36.2006   25.0840 H   0  0  0  0  0  0
  -20.9923  -28.3082   24.1358 H   0  0  0  0  0  0
  -20.5589  -26.2158   23.3383 H   0  0  0  0  0  0
  -21.6544  -26.7375   22.1015 H   0  0  0  0  0  0
  -19.6727  -25.6342   21.1081 H   0  0  0  0  0  0
  -19.6412  -27.3284   20.6678 H   0  0  0  0  0  0
  -17.3993  -26.6427   21.4303 H   0  0  0  0  0  0
  -18.0506  -26.0065   22.9234 H   0  0  0  0  0  0
  -19.7952  -30.7151   24.2294 H   0  0  0  0  0  0
  -17.5030  -31.6205   24.5206 H   0  0  0  0  0  0
  -15.5329  -30.2993   23.7713 H   0  0  0  0  0  0
  -15.8588  -28.0849   22.7113 H   0  0  0  0  0  0
  -24.5820  -30.7130   25.7699 H   0  0  0  0  0  0
  -24.8828  -32.2927   26.4821 H   0  0  0  0  0  0
  -25.7926  -30.8906   27.0203 H   0  0  0  0  0  0
  -26.2839  -29.6839   24.1100 H   0  0  0  0  0  0
  -27.3908  -29.7251   25.4630 H   0  0  0  0  0  0
  -27.8725  -30.4324   23.9377 H   0  0  0  0  0  0
  -27.2639  -33.3644   26.2052 H   0  0  0  0  0  0
  -28.3804  -32.6906   25.0277 H   0  0  0  0  0  0
  -28.0713  -31.8463   26.5364 H   0  0  0  0  0  0
  -28.2611  -38.0090   24.7507 H   0  0  0  0  0  0
  -28.1059  -36.2627   24.6305 H   0  0  0  0  0  0
  -27.2298  -37.1481   25.8868 H   0  0  0  0  0  0
  -20.9411  -29.8443   21.6632 H   0  0  0  0  0  0
  -26.0196  -38.2902   24.1385 H   0  0  0  0  0  0
  -30.3320  -20.7222   18.9876 H   0  0  0  0  0  0
  -31.5279  -18.9787   17.7971 H   0  0  0  0  0  0
  -28.6431  -17.7453   21.6293 H   0  0  0  0  0  0
  -31.4660  -16.7813   17.0135 H   0  0  0  0  0  0
  -30.7909  -15.4537   17.9121 H   0  0  0  0  0  0
  -32.4087  -16.0777   18.3119 H   0  0  0  0  0  0
  -28.4033  -23.9431   23.1335 H   0  0  0  0  0  0
  -28.8190  -25.5615   22.6127 H   0  0  0  0  0  0
  -29.8266  -24.2171   22.1180 H   0  0  0  0  0  0
  -28.3374  -20.2711   22.0828 H   0  0  0  0  0  0
  -27.4390  -20.2703   20.5903 H   0  0  0  0  0  0
  -27.1855  -22.7443   19.7180 H   0  0  0  0  0  0
  -26.9003  -22.4923   21.4129 H   0  0  0  0  0  0
  -27.9203  -25.0061   18.9251 H   0  0  0  0  0  0
  -29.4782  -24.9770   19.6572 H   0  0  0  0  0  0
  -26.9474  -24.7499   21.2783 H   0  0  0  0  0  0
  -28.9367  -15.3921   20.9769 H   0  0  0  0  0  0
  -29.3452  -21.9422   19.9427 H   0  0  0  0  0  0
  -29.4058  -22.1468   21.5556 H   0  0  0  0  0  0
  1 25  1  0  0  0
  1 30  2  0  0  0
  1 83  1  0  0  0
  2  3  1  0  0  0
  2 25  1  0  0  0
  2 85  1  0  0  0
  2 86  1  0  0  0
  3  4  1  0  0  0
  3 87  1  0  0  0
  3 88  1  0  0  0
  4  5  1  0  0  0
  4 89  1  0  0  0
  4 90  1  0  0  0
  5  6  1  0  0  0
  5 26  1  0  0  0
  5 91  1  0  0  0
  6 25  1  0  0  0
  6 92  1  0  0  0
  6 93  1  0  0  0
  7  8  2  0  0  0
  7 26  1  0  0  0
  7 29  1  0  0  0
  8  9  1  0  0  0
  8 22  1  0  0  0
  9 10  1  0  0  0
  9 27  2  0  0  0
 10 11  2  0  0  0
 10 15  1  0  0  0
 11 12  1  0  0  0
 11 94  1  0  0  0
 12 13  2  0  0  0
 12 95  1  0  0  0
 13 14  1  0  0  0
 13 31  1  0  0  0
 14 15  2  0  0  0
 14 96  1  0  0  0
 15 97  1  0  0  0
 16 17  2  0  0  0
 16 21  1  0  0  0
 16 31  1  0  0  0
 17 18  1  0  0  0
 17 98  1  0  0  0
 18 19  2  0  0  0
 18 99  1  0  0  0
 19 20  1  0  0  0
 19 24  1  0  0  0
 20 21  2  0  0  0
 20100  1  0  0  0
 21 23  1  0  0  0
 22 28  1  0  0  0
 22 32  2  0  0  0
 26 27  1  0  0  0
 28101  1  0  0  0
 28102  1  0  0  0
 29103  1  0  0  0
 29104  1  0  0  0
 33 34  1  0  0  0
 33 66  1  0  0  0
 33 70  2  0  0  0
 34 36  1  0  0  0
 34 59  1  0  0  0
 34105  1  0  0  0
 35 44  2  0  0  0
 35 45  1  0  0  0
 35 68  1  0  0  0
 36 56  1  0  0  0
 36106  1  0  0  0
 37 39  1  0  0  0
 37 47  1  0  0  0
 37 66  1  0  0  0
 37107  1  0  0  0
 38 43  2  0  0  0
 38 46  1  0  0  0
 38 47  1  0  0  0
 39 64  1  0  0  0
 39 67  2  0  0  0
 40 52  1  0  0  0
 40 53  2  0  0  0
 40 58  1  0  0  0
 41108  1  0  0  0
 41109  1  0  0  0
 41110  1  0  0  0
 41 48  1  0  0  0
 42 43  1  0  0  0
 42 66  1  0  0  0
 42111  1  0  0  0
 42112  1  0  0  0
 43 44  1  0  0  0
 44113  1  0  0  0
 45 46  2  0  0  0
 45114  1  0  0  0
 46115  1  0  0  0
 47116  1  0  0  0
 47117  1  0  0  0
 48 56  1  0  0  0
 48 65  1  0  0  0
 48118  1  0  0  0
 49 50  1  0  0  0
 49 53  1  0  0  0
 49 64  1  0  0  0
 49119  1  0  0  0
 50 51  1  0  0  0
 50120  1  0  0  0
 50121  1  0  0  0
 51 52  1  0  0  0
 51122  1  0  0  0
 51123  1  0  0  0
 52124  1  0  0  0
 52125  1  0  0  0
 53 54  1  0  0  0
 54 55  2  0  0  0
 54126  1  0  0  0
 55 57  1  0  0  0
 55127  1  0  0  0
 56 69  2  0  0  0
 57 58  2  0  0  0
 57128  1  0  0  0
 58129  1  0  0  0
 59 60  1  0  0  0
 59 61  1  0  0  0
 59 62  1  0  0  0
 60130  1  0  0  0
 60131  1  0  0  0
 60132  1  0  0  0
 61133  1  0  0  0
 61134  1  0  0  0
 61135  1  0  0  0
 62136  1  0  0  0
 62137  1  0  0  0
 62138  1  0  0  0
 63 65  1  0  0  0
 63139  1  0  0  0
 63140  1  0  0  0
 63141  1  0  0  0
 64142  1  0  0  0
 65143  1  0  0  0
 68 81  1  0  0  0
 71 72  2  0  0  0
 71 74  1  0  0  0
 71144  1  0  0  0
 72 75  1  0  0  0
 72145  1  0  0  0
 73 74  2  0  0  0
 73 76  1  0  0  0
 73146  1  0  0  0
 74 79  1  0  0  0
 75 76  2  0  0  0
 75 77  1  0  0  0
 76 83  1  0  0  0
 77147  1  0  0  0
 77148  1  0  0  0
 77149  1  0  0  0
 78150  1  0  0  0
 78151  1  0  0  0
 78152  1  0  0  0
 78 82  1  0  0  0
 79 84  1  0  0  0
 79153  1  0  0  0
 79154  1  0  0  0
 80 82  1  0  0  0
 80 84  1  0  0  0
 80155  1  0  0  0
 80156  1  0  0  0
 81 82  1  0  0  0
 81157  1  0  0  0
 81158  1  0  0  0
 82159  1  0  0  0
 83160  1  0  0  0
 84161  1  0  0  0
 84162  1  0  0  0
M  CHG  1  84   1
M  ISO  4   1 100  68 101  81 101  83 100
M  END
> <chiral flag>
0

> <version>
0

> <s_m_source_file>
/data/baiqing/PycharmProjects/Reinvent-master-3.2/result/LINK_invent/BTK/process_docking_weight1_custom_product_contain_oxygen_bond_distance_aromatic_linkinvent_7_9_3/rearranged_h_0038.sdf

> <i_m_source_file_index>
86

> <r_mmod_Potential_Energy-OPLS-2005>
-179.53157043457

> <r_mmod_Stretch_Energy-OPLS-2005>
51.4061126708984

> <r_mmod_Bend_Energy-OPLS-2005>
125.520881652832

> <r_mmod_Torsional_Energy-OPLS-2005>
252.692260742188

> <r_mmod_Improper_Torsional_Energy-OPLS-2005>
6.25917291641235

> <r_mmod_Van_der_Waal_Energy-OPLS-2005>
151.666580200195

> <r_mmod_Electrostatic_Energy-OPLS-2005>
-317.967071533203

> <r_mmod_Solvation_Energy-OPLS-2005>
-475.811920166016

> <b_mmod_Minimization_Converged-OPLS-2005>
0

> <r_mmod_RMS_Derivative-OPLS-2005>
2.83464813232422

$$$$
86
                    3D
 Structure written by MMmdl.
166175  0  0  1  0            999 V2000
  -30.5676  -14.7553   20.3959 C   0  0  0  0  0  0
  -30.4468  -12.4333   19.4853 C   0  0  0  0  0  0
  -29.5196  -12.4147   18.2486 C   0  0  0  0  0  0
  -28.0327  -12.3202   18.6501 C   0  0  0  0  0  0
  -27.6461  -13.2227   19.8547 C   0  0  2  0  0  0
  -28.6922  -13.1411   20.9865 C   0  0  0  0  0  0
  -25.2553  -13.8199   20.5732 C   0  0  0  0  0  0
  -24.1811  -13.0449   20.9176 C   0  0  0  0  0  0
  -24.6388  -11.6923   20.8729 C   0  0  0  0  0  0
  -23.9062  -10.4304   21.0391 C   0  0  0  0  0  0
  -24.3615   -9.4221   21.9167 C   0  0  0  0  0  0
  -23.6284   -8.2262   22.0748 C   0  0  0  0  0  0
  -22.4266   -8.0291   21.3544 C   0  0  0  0  0  0
  -21.9902   -9.0260   20.4644 C   0  0  0  0  0  0
  -22.7232  -10.2136   20.3052 C   0  0  0  0  0  0
  -21.6866   -6.0738   22.5273 C   0  0  0  0  0  0
  -21.4026   -6.5646   23.8204 C   0  0  0  0  0  0
  -21.3658   -5.6796   24.9168 C   0  0  0  0  0  0
  -21.6048   -4.3060   24.7231 C   0  0  0  0  0  0
  -21.8812   -3.8149   23.4355 C   0  0  0  0  0  0
  -21.9196   -4.6964   22.3401 C   0  0  0  0  0  0
  -22.7840  -13.5238   21.1833 C   0  0  0  0  0  0
  -22.1661   -4.2143   21.0979 F   0  0  0  0  0  0
  -21.5623   -3.4548   25.7751 F   0  0  0  0  0  0
  -29.9867  -13.5049   20.3991 N   0  0  0  0  0  0
  -26.2961  -12.9381   20.3320 N   0  0  0  0  0  0
  -25.9313  -11.6533   20.5755 N   0  0  0  0  0  0
  -22.0500  -12.8220   22.0399 N   0  0  0  0  0  0
  -25.4289  -15.1925   20.4245 N   0  0  0  0  0  0
  -31.7553  -14.8788   20.0818 O   0  0  0  0  0  0
  -21.6649   -6.8881   21.4236 O   0  0  0  0  0  0
  -22.3516  -14.5534   20.6663 O   0  0  0  0  0  0
  -24.6291  -31.8559   23.1978 C   0  0  0  0  0  0
  -25.9132  -32.4754   23.8310 C   0  0  1  0  0  0
  -27.2221  -27.2730   20.1234 C   0  0  0  0  0  0
  -25.5945  -33.8562   24.2237 N   0  0  0  0  0  0
  -23.4240  -30.4785   21.5406 C   0  0  2  0  0  0
  -24.8691  -28.9225   20.1083 C   0  0  0  0  0  0
  -22.7496  -29.4608   22.4918 C   0  0  0  0  0  0
  -18.0292  -28.1398   22.8477 C   0  0  0  0  0  0
  -24.1502  -36.7296   23.2637 C   0  0  0  0  0  0
  -25.9663  -30.7735   21.3717 C   0  0  0  0  0  0
  -26.0374  -29.3952   20.7161 C   0  0  0  0  0  0
  -27.2113  -28.5809   20.7144 C   0  0  0  0  0  0
  -26.0255  -26.8579   19.4951 C   0  0  0  0  0  0
  -24.8682  -27.6630   19.4886 C   0  0  0  0  0  0
  -23.6397  -29.8096   20.1563 C   0  0  0  0  0  0
  -25.4123  -36.3065   24.0313 C   0  0  1  0  0  0
  -20.5900  -28.3704   23.1281 C   0  0  2  0  0  0
  -20.6805  -26.9433   22.5407 C   0  0  0  0  0  0
  -19.5774  -26.6387   21.5220 C   0  0  0  0  0  0
  -18.1946  -26.7937   22.1619 C   0  0  0  0  0  0
  -19.1552  -28.8865   23.2873 C   0  0  0  0  0  0
  -18.9475  -30.1470   23.8881 C   0  0  0  0  0  0
  -17.6474  -30.6596   24.0560 C   0  0  0  0  0  0
  -25.9065  -34.9434   23.5072 C   0  0  0  0  0  0
  -16.5361  -29.9092   23.6338 C   0  0  0  0  0  0
  -16.7278  -28.6521   23.0338 C   0  0  0  0  0  0
  -26.4510  -31.6590   25.0696 C   0  0  0  0  0  0
  -25.3716  -31.3730   26.1403 C   0  0  0  0  0  0
  -27.0376  -30.3021   24.6174 C   0  0  0  0  0  0
  -27.6057  -32.4339   25.7471 C   0  0  0  0  0  0
  -27.5584  -37.1804   24.8459 C   0  0  0  0  0  0
  -21.4208  -29.3045   22.3667 N   0  0  0  0  0  0
  -26.4300  -37.3761   23.9399 N   0  0  0  0  0  0
  -24.6926  -31.0538   22.0940 N   0  0  0  0  0  0
  -23.4213  -28.8144   23.3005 O   0  0  0  0  0  0
  -28.3543  -26.4351   20.2184 O   0  0  0  0  0  0
  -26.5639  -34.8914   22.4645 O   0  0  0  0  0  0
  -23.5448  -32.1378   23.7302 O   0  0  0  0  0  0
  -29.4001  -18.4437   20.4995 C   0  0  0  0  0  0
  -28.9686  -19.6716   19.8400 C   0  0  0  0  0  0
  -28.6128  -19.5406   18.4686 C   0  0  0  0  0  0
  -29.3926  -17.1771   18.4230 C   0  0  0  0  0  0
  -29.5847  -17.1587   19.8386 C   0  0  0  0  0  0
  -28.8987  -18.3407   17.7659 C   0  0  0  0  0  0
  -30.2348  -23.7888   18.2595 C   0  0  0  0  0  0
  -29.8618  -25.1149   18.9490 C   0  0  0  0  0  0
  -30.2471  -22.6014   19.2427 C   0  0  0  0  0  0
  -28.4650  -23.7271   20.5532 C   0  0  0  0  0  0
  -28.4842  -25.0606   19.6333 C   0  0  1  0  0  0
  -27.8670  -20.6511   17.7218 C   0  0  0  0  0  0
  -29.6089  -15.9270   17.5805 C   0  0  0  0  0  0
  -28.7832  -21.0693   20.6086 C   0  0  0  0  0  0
  -29.7455  -15.8648   20.5798 N   0  0  0  0  0  0
  -28.9123  -22.4173   19.8637 N   0  3  2  0  0  0
  -28.5801  -18.2928   16.0558 Cl  0  0  0  0  0  0
  -31.4829  -12.5760   19.1720 H   0  0  0  0  0  0
  -30.4203  -11.4671   19.9900 H   0  0  0  0  0  0
  -29.7745  -11.5647   17.6150 H   0  0  0  0  0  0
  -29.6966  -13.2879   17.6307 H   0  0  0  0  0  0
  -27.8383  -11.2773   18.9027 H   0  0  0  0  0  0
  -27.3961  -12.5418   17.7927 H   0  0  0  0  0  0
  -27.6447  -14.2476   19.4843 H   0  0  0  0  0  0
  -28.7302  -12.1331   21.4050 H   0  0  0  0  0  0
  -28.4362  -13.8041   21.8138 H   0  0  0  0  0  0
  -25.2772   -9.5706   22.4714 H   0  0  0  0  0  0
  -23.9999   -7.4674   22.7485 H   0  0  0  0  0  0
  -21.0825   -8.8785   19.8959 H   0  0  0  0  0  0
  -22.3692  -10.9666   19.6151 H   0  0  0  0  0  0
  -21.2021   -7.6152   23.9705 H   0  0  0  0  0  0
  -21.1478   -6.0535   25.9063 H   0  0  0  0  0  0
  -22.0583   -2.7615   23.2865 H   0  0  0  0  0  0
  -22.4124  -11.9855   22.4734 H   0  0  0  0  0  0
  -21.1127  -13.1245   22.2638 H   0  0  0  0  0  0
  -24.6668  -15.8485   20.5514 H   0  0  0  0  0  0
  -26.2889  -15.6390   20.1343 H   0  0  0  0  0  0
  -26.7187  -32.5409   23.1038 H   0  0  0  0  0  0
  -25.0112  -33.9708   25.0399 H   0  0  0  0  0  0
  -22.7192  -31.2996   21.3939 H   0  0  0  0  0  0
  -23.3763  -35.9630   23.3265 H   0  0  0  0  0  0
  -24.3596  -36.8968   22.2063 H   0  0  0  0  0  0
  -23.7273  -37.6487   23.6695 H   0  0  0  0  0  0
  -26.0991  -31.5333   20.5999 H   0  0  0  0  0  0
  -26.8477  -30.8261   21.9997 H   0  0  0  0  0  0
  -28.1067  -28.9405   21.2017 H   0  0  0  0  0  0
  -25.9370  -25.8917   19.0264 H   0  0  0  0  0  0
  -23.9696  -27.2950   19.0138 H   0  0  0  0  0  0
  -23.7641  -30.5847   19.3992 H   0  0  0  0  0  0
  -22.7574  -29.2444   19.8493 H   0  0  0  0  0  0
  -25.1316  -36.1897   25.0805 H   0  0  0  0  0  0
  -20.9989  -28.3282   24.1403 H   0  0  0  0  0  0
  -20.5772  -26.2305   23.3606 H   0  0  0  0  0  0
  -21.6665  -26.7500   22.1162 H   0  0  0  0  0  0
  -19.6958  -25.6295   21.1267 H   0  0  0  0  0  0
  -19.6723  -27.3187   20.6743 H   0  0  0  0  0  0
  -17.4233  -26.6691   21.4003 H   0  0  0  0  0  0
  -18.0328  -26.0074   22.9008 H   0  0  0  0  0  0
  -19.7941  -30.7301   24.2241 H   0  0  0  0  0  0
  -17.5017  -31.6274   24.5169 H   0  0  0  0  0  0
  -15.5368  -30.2990   23.7674 H   0  0  0  0  0  0
  -15.8676  -28.0856   22.7033 H   0  0  0  0  0  0
  -24.5875  -30.7121   25.7692 H   0  0  0  0  0  0
  -24.8930  -32.2902   26.4839 H   0  0  0  0  0  0
  -25.8005  -30.8867   27.0173 H   0  0  0  0  0  0
  -26.2959  -29.6746   24.1222 H   0  0  0  0  0  0
  -27.4111  -29.7311   25.4690 H   0  0  0  0  0  0
  -27.8797  -30.4330   23.9372 H   0  0  0  0  0  0
  -27.2666  -33.3656   26.2011 H   0  0  0  0  0  0
  -28.3872  -32.6890   25.0297 H   0  0  0  0  0  0
  -28.0706  -31.8487   26.5417 H   0  0  0  0  0  0
  -28.2570  -38.0129   24.7522 H   0  0  0  0  0  0
  -28.1116  -36.2660   24.6266 H   0  0  0  0  0  0
  -27.2298  -37.1419   25.8860 H   0  0  0  0  0  0
  -20.9409  -29.8748   21.6847 H   0  0  0  0  0  0
  -26.0171  -38.2831   24.1401 H   0  0  0  0  0  0
  -29.5528  -18.4847   21.5687 H   0  0  0  0  0  0
  -31.2202  -23.8862   17.8020 H   0  0  0  0  0  0
  -29.5417  -23.5900   17.4398 H   0  0  0  0  0  0
  -29.8747  -25.9239   18.2175 H   0  0  0  0  0  0
  -30.6216  -25.3628   19.6913 H   0  0  0  0  0  0
  -30.9960  -22.7586   20.0198 H   0  0  0  0  0  0
  -30.5466  -21.6982   18.7089 H   0  0  0  0  0  0
  -27.4636  -23.5921   20.9630 H   0  0  0  0  0  0
  -29.1182  -23.8880   21.4118 H   0  0  0  0  0  0
  -27.7578  -24.9182   18.8353 H   0  0  0  0  0  0
  -27.2172  -21.2281   18.3763 H   0  0  0  0  0  0
  -27.1807  -20.2523   16.9749 H   0  0  0  0  0  0
  -28.5563  -21.3160   17.2028 H   0  0  0  0  0  0
  -30.5125  -15.4024   17.8696 H   0  0  0  0  0  0
  -29.7594  -16.1206   16.5214 H   0  0  0  0  0  0
  -28.7418  -15.2762   17.6731 H   0  0  0  0  0  0
  -29.4862  -21.0826   21.4419 H   0  0  0  0  0  0
  -27.7929  -21.0435   21.0644 H   0  0  0  0  0  0
  -28.9261  -15.6244   21.1162 H   0  0  0  0  0  0
  -28.2728  -22.3040   19.0922 H   0  0  0  0  0  0
  1 25  1  0  0  0
  1 30  2  0  0  0
  1 85  1  0  0  0
  2  3  1  0  0  0
  2 25  1  0  0  0
  2 88  1  0  0  0
  2 89  1  0  0  0
  3  4  1  0  0  0
  3 90  1  0  0  0
  3 91  1  0  0  0
  4  5  1  0  0  0
  4 92  1  0  0  0
  4 93  1  0  0  0
  5  6  1  0  0  0
  5 26  1  0  0  0
  5 94  1  0  0  0
  6 25  1  0  0  0
  6 95  1  0  0  0
  6 96  1  0  0  0
  7  8  2  0  0  0
  7 26  1  0  0  0
  7 29  1  0  0  0
  8  9  1  0  0  0
  8 22  1  0  0  0
  9 10  1  0  0  0
  9 27  2  0  0  0
 10 11  2  0  0  0
 10 15  1  0  0  0
 11 12  1  0  0  0
 11 97  1  0  0  0
 12 13  2  0  0  0
 12 98  1  0  0  0
 13 14  1  0  0  0
 13 31  1  0  0  0
 14 15  2  0  0  0
 14 99  1  0  0  0
 15100  1  0  0  0
 16 17  2  0  0  0
 16 21  1  0  0  0
 16 31  1  0  0  0
 17 18  1  0  0  0
 17101  1  0  0  0
 18 19  2  0  0  0
 18102  1  0  0  0
 19 20  1  0  0  0
 19 24  1  0  0  0
 20 21  2  0  0  0
 20103  1  0  0  0
 21 23  1  0  0  0
 22 28  1  0  0  0
 22 32  2  0  0  0
 26 27  1  0  0  0
 28104  1  0  0  0
 28105  1  0  0  0
 29106  1  0  0  0
 29107  1  0  0  0
 33 34  1  0  0  0
 33 66  1  0  0  0
 33 70  2  0  0  0
 34 36  1  0  0  0
 34 59  1  0  0  0
 34108  1  0  0  0
 35 44  2  0  0  0
 35 45  1  0  0  0
 35 68  1  0  0  0
 36 56  1  0  0  0
 36109  1  0  0  0
 37 39  1  0  0  0
 37 47  1  0  0  0
 37 66  1  0  0  0
 37110  1  0  0  0
 38 43  2  0  0  0
 38 46  1  0  0  0
 38 47  1  0  0  0
 39 64  1  0  0  0
 39 67  2  0  0  0
 40 52  1  0  0  0
 40 53  2  0  0  0
 40 58  1  0  0  0
 41111  1  0  0  0
 41112  1  0  0  0
 41113  1  0  0  0
 41 48  1  0  0  0
 42 43  1  0  0  0
 42 66  1  0  0  0
 42114  1  0  0  0
 42115  1  0  0  0
 43 44  1  0  0  0
 44116  1  0  0  0
 45 46  2  0  0  0
 45117  1  0  0  0
 46118  1  0  0  0
 47119  1  0  0  0
 47120  1  0  0  0
 48 56  1  0  0  0
 48 65  1  0  0  0
 48121  1  0  0  0
 49 50  1  0  0  0
 49 53  1  0  0  0
 49 64  1  0  0  0
 49122  1  0  0  0
 50 51  1  0  0  0
 50123  1  0  0  0
 50124  1  0  0  0
 51 52  1  0  0  0
 51125  1  0  0  0
 51126  1  0  0  0
 52127  1  0  0  0
 52128  1  0  0  0
 53 54  1  0  0  0
 54 55  2  0  0  0
 54129  1  0  0  0
 55 57  1  0  0  0
 55130  1  0  0  0
 56 69  2  0  0  0
 57 58  2  0  0  0
 57131  1  0  0  0
 58132  1  0  0  0
 59 60  1  0  0  0
 59 61  1  0  0  0
 59 62  1  0  0  0
 60133  1  0  0  0
 60134  1  0  0  0
 60135  1  0  0  0
 61136  1  0  0  0
 61137  1  0  0  0
 61138  1  0  0  0
 62139  1  0  0  0
 62140  1  0  0  0
 62141  1  0  0  0
 63 65  1  0  0  0
 63142  1  0  0  0
 63143  1  0  0  0
 63144  1  0  0  0
 64145  1  0  0  0
 65146  1  0  0  0
 68 81  1  0  0  0
 71 72  2  0  0  0
 71 75  1  0  0  0
 71147  1  0  0  0
 72 73  1  0  0  0
 72 84  1  0  0  0
 73 76  2  0  0  0
 73 82  1  0  0  0
 74 75  2  0  0  0
 74 76  1  0  0  0
 74 83  1  0  0  0
 75 85  1  0  0  0
 76 87  1  0  0  0
 77 78  1  0  0  0
 77 79  1  0  0  0
 77148  1  0  0  0
 77149  1  0  0  0
 78 81  1  0  0  0
 78150  1  0  0  0
 78151  1  0  0  0
 79 86  1  0  0  0
 79152  1  0  0  0
 79153  1  0  0  0
 80 81  1  0  0  0
 80 86  1  0  0  0
 80154  1  0  0  0
 80155  1  0  0  0
 81156  1  0  0  0
 82157  1  0  0  0
 82158  1  0  0  0
 82159  1  0  0  0
 83160  1  0  0  0
 83161  1  0  0  0
 83162  1  0  0  0
 84163  1  0  0  0
 84164  1  0  0  0
 84 86  1  0  0  0
 85165  1  0  0  0
 86166  1  0  0  0
M  CHG  1  86   1
M  ISO  4   1 100  68 101  81 101  85 100
M  END
> <chiral flag>
0

> <version>
0

> <s_m_source_file>
/data/baiqing/PycharmProjects/Reinvent-master-3.2/result/LINK_invent/BTK/process_docking_weight1_custom_product_contain_oxygen_bond_distance_aromatic_linkinvent_7_9_3/rearranged_h_0038.sdf

> <i_m_source_file_index>
87

> <r_mmod_Potential_Energy-OPLS-2005>
153.155502319336

> <r_mmod_Stretch_Energy-OPLS-2005>
131.75146484375

> <r_mmod_Bend_Energy-OPLS-2005>
180.919067382812

> <r_mmod_Torsional_Energy-OPLS-2005>
284.720367431641

> <r_mmod_Improper_Torsional_Energy-OPLS-2005>
6.54377460479736

> <r_mmod_Van_der_Waal_Energy-OPLS-2005>
156.204620361328

> <r_mmod_Electrostatic_Energy-OPLS-2005>
-255.54280090332

> <r_mmod_Solvation_Energy-OPLS-2005>
-437.023040771484

> <b_mmod_Minimization_Converged-OPLS-2005>
0

> <r_mmod_RMS_Derivative-OPLS-2005>
2.32887244224548

$$$$
87
                    3D
 Structure written by MMmdl.
172181  0  0  1  0            999 V2000
  -30.6124  -14.6460   20.5094 C   0  0  0  0  0  0
  -30.4422  -12.3984   19.4526 C   0  0  0  0  0  0
  -29.5104  -12.5145   18.2251 C   0  0  0  0  0  0
  -28.0332  -12.3486   18.6362 C   0  0  0  0  0  0
  -27.6553  -13.2160   19.8661 C   0  0  2  0  0  0
  -28.6991  -13.0632   20.9956 C   0  0  0  0  0  0
  -25.2572  -13.8168   20.5685 C   0  0  0  0  0  0
  -24.1832  -13.0438   20.9182 C   0  0  0  0  0  0
  -24.6395  -11.6906   20.8731 C   0  0  0  0  0  0
  -23.9060  -10.4292   21.0401 C   0  0  0  0  0  0
  -24.3611   -9.4210   21.9182 C   0  0  0  0  0  0
  -23.6287   -8.2245   22.0755 C   0  0  0  0  0  0
  -22.4271   -8.0281   21.3545 C   0  0  0  0  0  0
  -21.9903   -9.0255   20.4650 C   0  0  0  0  0  0
  -22.7230  -10.2135   20.3055 C   0  0  0  0  0  0
  -21.6854   -6.0733   22.5279 C   0  0  0  0  0  0
  -21.4014   -6.5637   23.8212 C   0  0  0  0  0  0
  -21.3659   -5.6790   24.9174 C   0  0  0  0  0  0
  -21.6045   -4.3052   24.7226 C   0  0  0  0  0  0
  -21.8818   -3.8145   23.4346 C   0  0  0  0  0  0
  -21.9193   -4.6961   22.3402 C   0  0  0  0  0  0
  -22.7854  -13.5238   21.1846 C   0  0  0  0  0  0
  -22.1662   -4.2146   21.0980 F   0  0  0  0  0  0
  -21.5629   -3.4536   25.7738 F   0  0  0  0  0  0
  -30.0146  -13.4140   20.4362 N   0  0  0  0  0  0
  -26.2999  -12.9347   20.3324 N   0  0  0  0  0  0
  -25.9325  -11.6502   20.5748 N   0  0  0  0  0  0
  -22.0487  -12.8237   22.0400 N   0  0  0  0  0  0
  -25.4289  -15.1889   20.4112 N   0  0  0  0  0  0
  -31.7694  -14.8202   20.1135 O   0  0  0  0  0  0
  -21.6638   -6.8877   21.4242 O   0  0  0  0  0  0
  -22.3544  -14.5544   20.6690 O   0  0  0  0  0  0
  -24.6248  -31.8604   23.2037 C   0  0  0  0  0  0
  -25.9100  -32.4783   23.8365 C   0  0  1  0  0  0
  -27.2230  -27.3237   20.1323 C   0  0  0  0  0  0
  -25.5920  -33.8584   24.2290 N   0  0  0  0  0  0
  -23.4195  -30.4825   21.5452 C   0  0  2  0  0  0
  -24.8700  -28.9366   20.1131 C   0  0  0  0  0  0
  -22.7472  -29.4618   22.4939 C   0  0  0  0  0  0
  -18.0285  -28.1384   22.8485 C   0  0  0  0  0  0
  -24.1488  -36.7297   23.2638 C   0  0  0  0  0  0
  -25.9594  -30.7908   21.3775 C   0  0  0  0  0  0
  -26.0352  -29.4158   20.7274 C   0  0  0  0  0  0
  -27.2178  -28.6181   20.7337 C   0  0  0  0  0  0
  -26.0508  -26.9074   19.4685 C   0  0  0  0  0  0
  -24.8781  -27.6857   19.4756 C   0  0  0  0  0  0
  -23.6364  -29.8154   20.1610 C   0  0  0  0  0  0
  -25.4111  -36.3088   24.0333 C   0  0  1  0  0  0
  -20.5884  -28.3684   23.1286 C   0  0  2  0  0  0
  -20.6772  -26.9408   22.5412 C   0  0  0  0  0  0
  -19.5749  -26.6383   21.5212 C   0  0  0  0  0  0
  -18.1928  -26.7928   22.1622 C   0  0  0  0  0  0
  -19.1537  -28.8852   23.2880 C   0  0  0  0  0  0
  -18.9460  -30.1456   23.8892 C   0  0  0  0  0  0
  -17.6460  -30.6586   24.0563 C   0  0  0  0  0  0
  -25.9044  -34.9455   23.5110 C   0  0  0  0  0  0
  -16.5350  -29.9083   23.6332 C   0  0  0  0  0  0
  -16.7273  -28.6503   23.0349 C   0  0  0  0  0  0
  -26.4490  -31.6586   25.0727 C   0  0  0  0  0  0
  -25.3730  -31.3729   26.1461 C   0  0  0  0  0  0
  -27.0327  -30.3006   24.6177 C   0  0  0  0  0  0
  -27.6053  -32.4318   25.7493 C   0  0  0  0  0  0
  -27.5581  -37.1803   24.8463 C   0  0  0  0  0  0
  -21.4185  -29.3039   22.3683 N   0  0  0  0  0  0
  -26.4291  -37.3780   23.9408 N   0  0  0  0  0  0
  -24.6862  -31.0616   22.0990 N   0  0  0  0  0  0
  -23.4199  -28.8154   23.3013 O   0  0  0  0  0  0
  -28.3211  -26.4569   20.1163 O   0  0  0  0  0  0
  -26.5610  -34.8920   22.4674 O   0  0  0  0  0  0
  -23.5412  -32.1401   23.7365 O   0  0  0  0  0  0
  -30.0326  -19.2937   19.6040 C   0  0  0  0  0  0
  -29.8876  -20.0897   20.7717 C   0  0  0  0  0  0
  -30.0425  -17.8647   19.6248 C   0  0  0  0  0  0
  -29.7222  -19.3641   21.9947 C   0  0  0  0  0  0
  -29.7339  -17.9235   22.0254 C   0  0  0  0  0  0
  -29.9206  -17.1387   20.8456 C   0  0  0  0  0  0
  -26.6697  -23.4010   20.7111 C   0  0  0  0  0  0
  -27.0232  -24.6644   21.4992 C   0  0  0  0  0  0
  -27.7240  -22.3148   20.9746 C   0  0  0  0  0  0
  -28.3605  -25.2909   21.0382 C   0  0  1  0  0  0
  -29.4747  -24.1538   20.7761 C   0  0  2  0  0  0
  -30.1655  -17.1288   18.3012 C   0  0  0  0  0  0
  -29.5734  -20.1154   23.3173 C   0  0  0  0  0  0
  -29.5464  -17.2067   23.3638 C   0  0  0  0  0  0
  -30.5336  -24.6681   19.7805 C   0  0  0  0  0  0
  -30.1432  -21.6559   20.7044 C   0  0  0  0  0  0
  -29.7993  -15.6769   20.9057 N   0  0  0  0  0  0
  -29.0554  -22.7037   20.4496 N   0  3  1  0  0  0
  -31.4828  -12.5301   19.1504 H   0  0  0  0  0  0
  -30.3816  -11.4007   19.8898 H   0  0  0  0  0  0
  -29.7765  -11.7662   17.4773 H   0  0  0  0  0  0
  -29.6505  -13.4859   17.7483 H   0  0  0  0  0  0
  -27.8707  -11.2947   18.8650 H   0  0  0  0  0  0
  -27.3787  -12.5802   17.7951 H   0  0  0  0  0  0
  -27.6760  -14.2525   19.5292 H   0  0  0  0  0  0
  -28.7131  -12.0380   21.3682 H   0  0  0  0  0  0
  -28.4409  -13.6849   21.8543 H   0  0  0  0  0  0
  -25.2756   -9.5688   22.4754 H   0  0  0  0  0  0
  -23.9998   -7.4638   22.7473 H   0  0  0  0  0  0
  -21.0834   -8.8772   19.8958 H   0  0  0  0  0  0
  -22.3687  -10.9671   19.6161 H   0  0  0  0  0  0
  -21.2007   -7.6144   23.9713 H   0  0  0  0  0  0
  -21.1482   -6.0520   25.9077 H   0  0  0  0  0  0
  -22.0598   -2.7606   23.2846 H   0  0  0  0  0  0
  -22.4091  -11.9900   22.4798 H   0  0  0  0  0  0
  -21.1108  -13.1277   22.2598 H   0  0  0  0  0  0
  -24.6620  -15.8432   20.5223 H   0  0  0  0  0  0
  -26.2806  -15.6302   20.0877 H   0  0  0  0  0  0
  -26.7164  -32.5462   23.1113 H   0  0  0  0  0  0
  -25.0079  -33.9732   25.0442 H   0  0  0  0  0  0
  -22.7127  -31.3025   21.4011 H   0  0  0  0  0  0
  -23.3750  -35.9630   23.3300 H   0  0  0  0  0  0
  -24.3582  -36.8916   22.2052 H   0  0  0  0  0  0
  -23.7241  -37.6501   23.6655 H   0  0  0  0  0  0
  -26.0889  -31.5508   20.6056 H   0  0  0  0  0  0
  -26.8405  -30.8436   22.0051 H   0  0  0  0  0  0
  -28.1126  -28.9807   21.2197 H   0  0  0  0  0  0
  -26.0349  -25.9503   18.9667 H   0  0  0  0  0  0
  -23.9888  -27.3168   18.9831 H   0  0  0  0  0  0
  -23.7543  -30.5909   19.4032 H   0  0  0  0  0  0
  -22.7576  -29.2425   19.8595 H   0  0  0  0  0  0
  -25.1290  -36.1944   25.0826 H   0  0  0  0  0  0
  -20.9977  -28.3259   24.1407 H   0  0  0  0  0  0
  -20.5671  -26.2294   23.3610 H   0  0  0  0  0  0
  -21.6641  -26.7438   22.1208 H   0  0  0  0  0  0
  -19.6909  -25.6294   21.1243 H   0  0  0  0  0  0
  -19.6690  -27.3192   20.6740 H   0  0  0  0  0  0
  -17.4201  -26.6682   21.4020 H   0  0  0  0  0  0
  -18.0322  -26.0069   22.9016 H   0  0  0  0  0  0
  -19.7936  -30.7274   24.2257 H   0  0  0  0  0  0
  -17.5015  -31.6266   24.5164 H   0  0  0  0  0  0
  -15.5349  -30.2983   23.7659 H   0  0  0  0  0  0
  -15.8673  -28.0823   22.7061 H   0  0  0  0  0  0
  -24.5899  -30.7079   25.7798 H   0  0  0  0  0  0
  -24.8927  -32.2897   26.4886 H   0  0  0  0  0  0
  -25.8062  -30.8910   27.0234 H   0  0  0  0  0  0
  -26.2896  -29.6761   24.1203 H   0  0  0  0  0  0
  -27.4021  -29.7259   25.4679 H   0  0  0  0  0  0
  -27.8770  -30.4286   23.9400 H   0  0  0  0  0  0
  -27.2666  -33.3618   26.2071 H   0  0  0  0  0  0
  -28.3862  -32.6879   25.0320 H   0  0  0  0  0  0
  -28.0722  -31.8444   26.5409 H   0  0  0  0  0  0
  -28.2600  -38.0098   24.7510 H   0  0  0  0  0  0
  -28.1075  -36.2631   24.6286 H   0  0  0  0  0  0
  -27.2301  -37.1451   25.8867 H   0  0  0  0  0  0
  -20.9360  -29.8773   21.6904 H   0  0  0  0  0  0
  -26.0177  -38.2858   24.1405 H   0  0  0  0  0  0
  -30.1760  -19.7966   18.6573 H   0  0  0  0  0  0
  -26.5869  -23.6165   19.6451 H   0  0  0  0  0  0
  -25.6927  -23.0372   21.0306 H   0  0  0  0  0  0
  -27.1318  -24.3800   22.5469 H   0  0  0  0  0  0
  -26.1952  -25.3685   21.5111 H   0  0  0  0  0  0
  -27.4108  -21.3826   20.5020 H   0  0  0  0  0  0
  -27.7797  -22.1156   22.0435 H   0  0  0  0  0  0
  -28.7167  -25.8057   21.9326 H   0  0  0  0  0  0
  -29.9772  -24.0684   21.7412 H   0  0  0  0  0  0
  -30.0124  -17.7987   17.4550 H   0  0  0  0  0  0
  -29.4239  -16.3332   18.2272 H   0  0  0  0  0  0
  -31.1573  -16.6878   18.2029 H   0  0  0  0  0  0
  -29.4121  -21.1839   23.2114 H   0  0  0  0  0  0
  -30.4700  -19.9879   23.9247 H   0  0  0  0  0  0
  -28.7223  -19.7350   23.8831 H   0  0  0  0  0  0
  -30.1117  -17.6884   24.1605 H   0  0  0  0  0  0
  -29.8882  -16.1731   23.3526 H   0  0  0  0  0  0
  -28.4931  -17.2063   23.6445 H   0  0  0  0  0  0
  -30.1266  -24.7446   18.7718 H   0  0  0  0  0  0
  -31.4147  -24.0287   19.7414 H   0  0  0  0  0  0
  -30.8828  -25.6619   20.0641 H   0  0  0  0  0  0
  -30.8860  -21.7968   19.9193 H   0  0  0  0  0  0
  -30.6839  -21.9331   21.6081 H   0  0  0  0  0  0
  -28.9360  -15.3519   21.3126 H   0  0  0  0  0  0
  -28.9181  -22.6862   19.4497 H   0  0  0  0  0  0
  1 25  1  0  0  0
  1 30  2  0  0  0
  1 87  1  0  0  0
  2  3  1  0  0  0
  2 25  1  0  0  0
  2 89  1  0  0  0
  2 90  1  0  0  0
  3  4  1  0  0  0
  3 91  1  0  0  0
  3 92  1  0  0  0
  4  5  1  0  0  0
  4 93  1  0  0  0
  4 94  1  0  0  0
  5  6  1  0  0  0
  5 26  1  0  0  0
  5 95  1  0  0  0
  6 25  1  0  0  0
  6 96  1  0  0  0
  6 97  1  0  0  0
  7  8  2  0  0  0
  7 26  1  0  0  0
  7 29  1  0  0  0
  8  9  1  0  0  0
  8 22  1  0  0  0
  9 10  1  0  0  0
  9 27  2  0  0  0
 10 11  2  0  0  0
 10 15  1  0  0  0
 11 12  1  0  0  0
 11 98  1  0  0  0
 12 13  2  0  0  0
 12 99  1  0  0  0
 13 14  1  0  0  0
 13 31  1  0  0  0
 14 15  2  0  0  0
 14100  1  0  0  0
 15101  1  0  0  0
 16 17  2  0  0  0
 16 21  1  0  0  0
 16 31  1  0  0  0
 17 18  1  0  0  0
 17102  1  0  0  0
 18 19  2  0  0  0
 18103  1  0  0  0
 19 20  1  0  0  0
 19 24  1  0  0  0
 20 21  2  0  0  0
 20104  1  0  0  0
 21 23  1  0  0  0
 22 28  1  0  0  0
 22 32  2  0  0  0
 26 27  1  0  0  0
 28105  1  0  0  0
 28106  1  0  0  0
 29107  1  0  0  0
 29108  1  0  0  0
 33 34  1  0  0  0
 33 66  1  0  0  0
 33 70  2  0  0  0
 34 36  1  0  0  0
 34 59  1  0  0  0
 34109  1  0  0  0
 35 44  2  0  0  0
 35 45  1  0  0  0
 35 68  1  0  0  0
 36 56  1  0  0  0
 36110  1  0  0  0
 37 39  1  0  0  0
 37 47  1  0  0  0
 37 66  1  0  0  0
 37111  1  0  0  0
 38 43  2  0  0  0
 38 46  1  0  0  0
 38 47  1  0  0  0
 39 64  1  0  0  0
 39 67  2  0  0  0
 40 52  1  0  0  0
 40 53  2  0  0  0
 40 58  1  0  0  0
 41112  1  0  0  0
 41113  1  0  0  0
 41114  1  0  0  0
 41 48  1  0  0  0
 42 43  1  0  0  0
 42 66  1  0  0  0
 42115  1  0  0  0
 42116  1  0  0  0
 43 44  1  0  0  0
 44117  1  0  0  0
 45 46  2  0  0  0
 45118  1  0  0  0
 46119  1  0  0  0
 47120  1  0  0  0
 47121  1  0  0  0
 48 56  1  0  0  0
 48 65  1  0  0  0
 48122  1  0  0  0
 49 50  1  0  0  0
 49 53  1  0  0  0
 49 64  1  0  0  0
 49123  1  0  0  0
 50 51  1  0  0  0
 50124  1  0  0  0
 50125  1  0  0  0
 51 52  1  0  0  0
 51126  1  0  0  0
 51127  1  0  0  0
 52128  1  0  0  0
 52129  1  0  0  0
 53 54  1  0  0  0
 54 55  2  0  0  0
 54130  1  0  0  0
 55 57  1  0  0  0
 55131  1  0  0  0
 56 69  2  0  0  0
 57 58  2  0  0  0
 57132  1  0  0  0
 58133  1  0  0  0
 59 60  1  0  0  0
 59 61  1  0  0  0
 59 62  1  0  0  0
 60134  1  0  0  0
 60135  1  0  0  0
 60136  1  0  0  0
 61137  1  0  0  0
 61138  1  0  0  0
 61139  1  0  0  0
 62140  1  0  0  0
 62141  1  0  0  0
 62142  1  0  0  0
 63 65  1  0  0  0
 63143  1  0  0  0
 63144  1  0  0  0
 63145  1  0  0  0
 64146  1  0  0  0
 65147  1  0  0  0
 68 80  1  0  0  0
 71 72  2  0  0  0
 71 73  1  0  0  0
 71148  1  0  0  0
 72 74  1  0  0  0
 72 86  1  0  0  0
 73 76  2  0  0  0
 73 82  1  0  0  0
 74 75  2  0  0  0
 74 83  1  0  0  0
 75 76  1  0  0  0
 75 84  1  0  0  0
 76 87  1  0  0  0
 77 78  1  0  0  0
 77 79  1  0  0  0
 77149  1  0  0  0
 77150  1  0  0  0
 78 80  1  0  0  0
 78151  1  0  0  0
 78152  1  0  0  0
 79 88  1  0  0  0
 79153  1  0  0  0
 79154  1  0  0  0
 80 81  1  0  0  0
 80155  1  0  0  0
 81 85  1  0  0  0
 81 88  1  0  0  0
 81156  1  0  0  0
 82157  1  0  0  0
 82158  1  0  0  0
 82159  1  0  0  0
 83160  1  0  0  0
 83161  1  0  0  0
 83162  1  0  0  0
 84163  1  0  0  0
 84164  1  0  0  0
 84165  1  0  0  0
 85166  1  0  0  0
 85167  1  0  0  0
 85168  1  0  0  0
 86169  1  0  0  0
 86170  1  0  0  0
 86 88  1  0  0  0
 87171  1  0  0  0
 88172  1  0  0  0
M  CHG  1  88   1
M  ISO  4   1 100  68 101  80 101  87 100
M  END
> <chiral flag>
0

> <version>
0

> <s_m_source_file>
/data/baiqing/PycharmProjects/Reinvent-master-3.2/result/LINK_invent/BTK/process_docking_weight1_custom_product_contain_oxygen_bond_distance_aromatic_linkinvent_7_9_3/rearranged_h_0038.sdf

> <i_m_source_file_index>
88

> <r_mmod_Potential_Energy-OPLS-2005>
90.1779632568359

> <r_mmod_Stretch_Energy-OPLS-2005>
95.9518280029297

> <r_mmod_Bend_Energy-OPLS-2005>
176.589797973633

> <r_mmod_Torsional_Energy-OPLS-2005>
310.969940185547

> <r_mmod_Improper_Torsional_Energy-OPLS-2005>
5.30946493148804

> <r_mmod_Van_der_Waal_Energy-OPLS-2005>
150.36701965332

> <r_mmod_Electrostatic_Energy-OPLS-2005>
-290.065521240234

> <r_mmod_Solvation_Energy-OPLS-2005>
-407.636535644531

> <b_mmod_Minimization_Converged-OPLS-2005>
0

> <r_mmod_RMS_Derivative-OPLS-2005>
0.465152144432068

$$$$
88
                    3D
 Structure written by MMmdl.
167176  0  0  1  0            999 V2000
  -30.6486  -14.7063   20.4938 C   0  0  0  0  0  0
  -30.4279  -12.4375   19.4712 C   0  0  0  0  0  0
  -29.5079  -12.5100   18.2340 C   0  0  0  0  0  0
  -28.0340  -12.3373   18.6472 C   0  0  0  0  0  0
  -27.6441  -13.2315   19.8544 C   0  0  2  0  0  0
  -28.6893  -13.1570   20.9901 C   0  0  0  0  0  0
  -25.2510  -13.8188   20.5678 C   0  0  0  0  0  0
  -24.1808  -13.0440   20.9225 C   0  0  0  0  0  0
  -24.6400  -11.6918   20.8756 C   0  0  0  0  0  0
  -23.9081  -10.4292   21.0410 C   0  0  0  0  0  0
  -24.3624   -9.4207   21.9191 C   0  0  0  0  0  0
  -23.6298   -8.2245   22.0757 C   0  0  0  0  0  0
  -22.4283   -8.0279   21.3543 C   0  0  0  0  0  0
  -21.9922   -9.0259   20.4652 C   0  0  0  0  0  0
  -22.7253  -10.2138   20.3061 C   0  0  0  0  0  0
  -21.6854   -6.0737   22.5281 C   0  0  0  0  0  0
  -21.4015   -6.5639   23.8211 C   0  0  0  0  0  0
  -21.3659   -5.6791   24.9177 C   0  0  0  0  0  0
  -21.6043   -4.3055   24.7229 C   0  0  0  0  0  0
  -21.8819   -3.8150   23.4348 C   0  0  0  0  0  0
  -21.9196   -4.6965   22.3404 C   0  0  0  0  0  0
  -22.7829  -13.5229   21.1872 C   0  0  0  0  0  0
  -22.1662   -4.2146   21.0981 F   0  0  0  0  0  0
  -21.5631   -3.4541   25.7744 F   0  0  0  0  0  0
  -29.9949  -13.4975   20.4113 N   0  0  0  0  0  0
  -26.2947  -12.9397   20.3300 N   0  0  0  0  0  0
  -25.9333  -11.6541   20.5774 N   0  0  0  0  0  0
  -22.0473  -12.8211   22.0418 N   0  0  0  0  0  0
  -25.4177  -15.1900   20.4015 N   0  0  0  0  0  0
  -31.8261  -14.7744   20.1358 O   0  0  0  0  0  0
  -21.6640   -6.8882   21.4241 O   0  0  0  0  0  0
  -22.3519  -14.5540   20.6724 O   0  0  0  0  0  0
  -24.6309  -31.8548   23.1992 C   0  0  0  0  0  0
  -25.9141  -32.4742   23.8321 C   0  0  1  0  0  0
  -27.2122  -27.2602   20.1224 C   0  0  0  0  0  0
  -25.5957  -33.8539   24.2256 N   0  0  0  0  0  0
  -23.4266  -30.4793   21.5431 C   0  0  2  0  0  0
  -24.8735  -28.9343   20.1036 C   0  0  0  0  0  0
  -22.7496  -29.4598   22.4914 C   0  0  0  0  0  0
  -18.0298  -28.1377   22.8489 C   0  0  0  0  0  0
  -24.1504  -36.7272   23.2635 C   0  0  0  0  0  0
  -25.9738  -30.7640   21.3850 C   0  0  0  0  0  0
  -26.0431  -29.3890   20.7247 C   0  0  0  0  0  0
  -27.2114  -28.5608   20.7312 C   0  0  0  0  0  0
  -26.0287  -26.8956   19.4370 C   0  0  0  0  0  0
  -24.8733  -27.6968   19.4476 C   0  0  0  0  0  0
  -23.6426  -29.8163   20.1574 C   0  0  0  0  0  0
  -25.4123  -36.3049   24.0330 C   0  0  1  0  0  0
  -20.5892  -28.3688   23.1273 C   0  0  2  0  0  0
  -20.6789  -26.9404   22.5413 C   0  0  0  0  0  0
  -19.5764  -26.6374   21.5216 C   0  0  0  0  0  0
  -18.1940  -26.7925   22.1614 C   0  0  0  0  0  0
  -19.1548  -28.8856   23.2876 C   0  0  0  0  0  0
  -18.9462  -30.1461   23.8890 C   0  0  0  0  0  0
  -17.6458  -30.6581   24.0558 C   0  0  0  0  0  0
  -25.9059  -34.9421   23.5088 C   0  0  0  0  0  0
  -16.5354  -29.9069   23.6335 C   0  0  0  0  0  0
  -16.7284  -28.6486   23.0357 C   0  0  0  0  0  0
  -26.4512  -31.6555   25.0706 C   0  0  0  0  0  0
  -25.3735  -31.3696   26.1426 C   0  0  0  0  0  0
  -27.0368  -30.2968   24.6203 C   0  0  0  0  0  0
  -27.6086  -32.4287   25.7469 C   0  0  0  0  0  0
  -27.5593  -37.1776   24.8454 C   0  0  0  0  0  0
  -21.4198  -29.3039   22.3665 N   0  0  0  0  0  0
  -26.4288  -37.3761   23.9424 N   0  0  0  0  0  0
  -24.6957  -31.0514   22.0980 N   0  0  0  0  0  0
  -23.4200  -28.8126   23.3004 O   0  0  0  0  0  0
  -28.2978  -26.3543   20.2219 O   0  0  0  0  0  0
  -26.5615  -34.8903   22.4650 O   0  0  0  0  0  0
  -23.5458  -32.1381   23.7282 O   0  0  0  0  0  0
  -31.6623  -17.5935   21.1379 C   0  0  0  0  0  0
  -29.8313  -19.8217   21.0153 C   0  0  0  0  0  0
  -29.4011  -18.4281   20.8222 C   0  0  0  0  0  0
  -31.2100  -20.0071   21.3375 C   0  0  0  0  0  0
  -30.3107  -17.2839   20.8806 C   0  0  0  0  0  0
  -32.1022  -18.9076   21.3601 C   0  0  0  0  0  0
  -28.7073  -23.8153   20.9189 C   0  0  0  0  0  0
  -29.0728  -24.1074   22.1805 C   0  0  0  0  0  0
  -29.9141  -23.7780   18.4317 C   0  0  0  0  0  0
  -28.5920  -24.5831   18.4705 C   0  0  0  0  0  0
  -29.8063  -22.3806   19.1044 C   0  0  0  0  0  0
  -28.1206  -24.8863   19.9144 C   0  0  2  0  0  0
  -27.9204  -18.1404   20.6083 C   0  0  0  0  0  0
  -31.7863  -21.3604   21.7486 C   0  0  0  0  0  0
  -28.8290  -21.0809   21.1162 C   0  0  0  0  0  0
  -29.9083  -15.8511   20.7657 N   0  0  0  0  0  0
  -28.9008  -22.3870   20.2845 N   0  3  1  0  0  0
  -33.7808  -19.1361   21.7162 Cl  0  0  0  0  0  0
  -31.4712  -12.5461   19.1692 H   0  0  0  0  0  0
  -30.3589  -11.4585   19.9484 H   0  0  0  0  0  0
  -29.7871  -11.7428   17.5102 H   0  0  0  0  0  0
  -29.6380  -13.4692   17.7307 H   0  0  0  0  0  0
  -27.8874  -11.2867   18.9021 H   0  0  0  0  0  0
  -27.3769  -12.5378   17.7995 H   0  0  0  0  0  0
  -27.6436  -14.2559   19.4817 H   0  0  0  0  0  0
  -28.7169  -12.1581   21.4276 H   0  0  0  0  0  0
  -28.4287  -13.8361   21.8038 H   0  0  0  0  0  0
  -25.2767   -9.5680   22.4766 H   0  0  0  0  0  0
  -24.0010   -7.4633   22.7468 H   0  0  0  0  0  0
  -21.0860   -8.8778   19.8950 H   0  0  0  0  0  0
  -22.3718  -10.9675   19.6165 H   0  0  0  0  0  0
  -21.1997   -7.6143   23.9718 H   0  0  0  0  0  0
  -21.1482   -6.0522   25.9080 H   0  0  0  0  0  0
  -22.0597   -2.7611   23.2856 H   0  0  0  0  0  0
  -22.4092  -11.9871   22.4787 H   0  0  0  0  0  0
  -21.1089  -13.1220   22.2619 H   0  0  0  0  0  0
  -24.6377  -15.8339   20.4816 H   0  0  0  0  0  0
  -26.2382  -15.6126   19.9891 H   0  0  0  0  0  0
  -26.7213  -32.5385   23.1055 H   0  0  0  0  0  0
  -25.0160  -33.9682   25.0439 H   0  0  0  0  0  0
  -22.7244  -31.3027   21.3975 H   0  0  0  0  0  0
  -23.3780  -35.9590   23.3246 H   0  0  0  0  0  0
  -24.3605  -36.8928   22.2060 H   0  0  0  0  0  0
  -23.7245  -37.6458   23.6683 H   0  0  0  0  0  0
  -26.1189  -31.5237   20.6164 H   0  0  0  0  0  0
  -26.8509  -30.8063   22.0195 H   0  0  0  0  0  0
  -28.0996  -28.8945   21.2497 H   0  0  0  0  0  0
  -25.9557  -25.9728   18.8839 H   0  0  0  0  0  0
  -23.9838  -27.3559   18.9351 H   0  0  0  0  0  0
  -23.7595  -30.5928   19.4008 H   0  0  0  0  0  0
  -22.7636  -29.2429   19.8565 H   0  0  0  0  0  0
  -25.1295  -36.1890   25.0823 H   0  0  0  0  0  0
  -20.9990  -28.3267   24.1386 H   0  0  0  0  0  0
  -20.5706  -26.2283   23.3612 H   0  0  0  0  0  0
  -21.6654  -26.7437   22.1189 H   0  0  0  0  0  0
  -19.6927  -25.6285   21.1243 H   0  0  0  0  0  0
  -19.6710  -27.3191   20.6754 H   0  0  0  0  0  0
  -17.4214  -26.6696   21.4011 H   0  0  0  0  0  0
  -18.0321  -26.0060   22.8998 H   0  0  0  0  0  0
  -19.7936  -30.7296   24.2241 H   0  0  0  0  0  0
  -17.5003  -31.6261   24.5150 H   0  0  0  0  0  0
  -15.5353  -30.2958   23.7680 H   0  0  0  0  0  0
  -15.8677  -28.0806   22.7075 H   0  0  0  0  0  0
  -24.5955  -30.6988   25.7749 H   0  0  0  0  0  0
  -24.8875  -32.2855   26.4807 H   0  0  0  0  0  0
  -25.8055  -30.8918   27.0226 H   0  0  0  0  0  0
  -26.2958  -29.6700   24.1230 H   0  0  0  0  0  0
  -27.4048  -29.7238   25.4724 H   0  0  0  0  0  0
  -27.8827  -30.4229   23.9441 H   0  0  0  0  0  0
  -27.2734  -33.3619   26.2003 H   0  0  0  0  0  0
  -28.3915  -32.6781   25.0292 H   0  0  0  0  0  0
  -28.0732  -31.8424   26.5410 H   0  0  0  0  0  0
  -28.2544  -38.0132   24.7566 H   0  0  0  0  0  0
  -28.1146  -36.2664   24.6185 H   0  0  0  0  0  0
  -27.2308  -37.1300   25.8848 H   0  0  0  0  0  0
  -20.9385  -29.8754   21.6859 H   0  0  0  0  0  0
  -26.0151  -38.2823   24.1451 H   0  0  0  0  0  0
  -32.4058  -16.8172   21.2234 H   0  0  0  0  0  0
  -28.9468  -25.1125   22.5569 H   0  0  0  0  0  0
  -29.4928  -23.3846   22.8608 H   0  0  0  0  0  0
  -30.6922  -24.3617   18.9291 H   0  0  0  0  0  0
  -30.2555  -23.6608   17.4021 H   0  0  0  0  0  0
  -27.8188  -24.0170   17.9490 H   0  0  0  0  0  0
  -28.7020  -25.5131   17.9119 H   0  0  0  0  0  0
  -30.8045  -22.0393   19.3702 H   0  0  0  0  0  0
  -29.4195  -21.6520   18.3915 H   0  0  0  0  0  0
  -27.0633  -24.6417   19.9839 H   0  0  0  0  0  0
  -27.5922  -18.5215   19.6414 H   0  0  0  0  0  0
  -27.3171  -18.6005   21.3916 H   0  0  0  0  0  0
  -27.6885  -17.0774   20.6368 H   0  0  0  0  0  0
  -31.0549  -22.1493   21.8650 H   0  0  0  0  0  0
  -32.5246  -21.6974   21.0207 H   0  0  0  0  0  0
  -32.2894  -21.2714   22.7126 H   0  0  0  0  0  0
  -28.7835  -21.3453   22.1715 H   0  0  0  0  0  0
  -27.8241  -20.7219   20.9094 H   0  0  0  0  0  0
  -28.9262  -15.6682   20.8974 H   0  0  0  0  0  0
  -28.0273  -22.2513   19.7966 H   0  0  0  0  0  0
  1 25  1  0  0  0
  1 30  2  0  0  0
  1 86  1  0  0  0
  2  3  1  0  0  0
  2 25  1  0  0  0
  2 89  1  0  0  0
  2 90  1  0  0  0
  3  4  1  0  0  0
  3 91  1  0  0  0
  3 92  1  0  0  0
  4  5  1  0  0  0
  4 93  1  0  0  0
  4 94  1  0  0  0
  5  6  1  0  0  0
  5 26  1  0  0  0
  5 95  1  0  0  0
  6 25  1  0  0  0
  6 96  1  0  0  0
  6 97  1  0  0  0
  7  8  2  0  0  0
  7 26  1  0  0  0
  7 29  1  0  0  0
  8  9  1  0  0  0
  8 22  1  0  0  0
  9 10  1  0  0  0
  9 27  2  0  0  0
 10 11  2  0  0  0
 10 15  1  0  0  0
 11 12  1  0  0  0
 11 98  1  0  0  0
 12 13  2  0  0  0
 12 99  1  0  0  0
 13 14  1  0  0  0
 13 31  1  0  0  0
 14 15  2  0  0  0
 14100  1  0  0  0
 15101  1  0  0  0
 16 17  2  0  0  0
 16 21  1  0  0  0
 16 31  1  0  0  0
 17 18  1  0  0  0
 17102  1  0  0  0
 18 19  2  0  0  0
 18103  1  0  0  0
 19 20  1  0  0  0
 19 24  1  0  0  0
 20 21  2  0  0  0
 20104  1  0  0  0
 21 23  1  0  0  0
 22 28  1  0  0  0
 22 32  2  0  0  0
 26 27  1  0  0  0
 28105  1  0  0  0
 28106  1  0  0  0
 29107  1  0  0  0
 29108  1  0  0  0
 33 34  1  0  0  0
 33 66  1  0  0  0
 33 70  2  0  0  0
 34 36  1  0  0  0
 34 59  1  0  0  0
 34109  1  0  0  0
 35 44  2  0  0  0
 35 45  1  0  0  0
 35 68  1  0  0  0
 36 56  1  0  0  0
 36110  1  0  0  0
 37 39  1  0  0  0
 37 47  1  0  0  0
 37 66  1  0  0  0
 37111  1  0  0  0
 38 43  2  0  0  0
 38 46  1  0  0  0
 38 47  1  0  0  0
 39 64  1  0  0  0
 39 67  2  0  0  0
 40 52  1  0  0  0
 40 53  2  0  0  0
 40 58  1  0  0  0
 41112  1  0  0  0
 41113  1  0  0  0
 41114  1  0  0  0
 41 48  1  0  0  0
 42 43  1  0  0  0
 42 66  1  0  0  0
 42115  1  0  0  0
 42116  1  0  0  0
 43 44  1  0  0  0
 44117  1  0  0  0
 45 46  2  0  0  0
 45118  1  0  0  0
 46119  1  0  0  0
 47120  1  0  0  0
 47121  1  0  0  0
 48 56  1  0  0  0
 48 65  1  0  0  0
 48122  1  0  0  0
 49 50  1  0  0  0
 49 53  1  0  0  0
 49 64  1  0  0  0
 49123  1  0  0  0
 50 51  1  0  0  0
 50124  1  0  0  0
 50125  1  0  0  0
 51 52  1  0  0  0
 51126  1  0  0  0
 51127  1  0  0  0
 52128  1  0  0  0
 52129  1  0  0  0
 53 54  1  0  0  0
 54 55  2  0  0  0
 54130  1  0  0  0
 55 57  1  0  0  0
 55131  1  0  0  0
 56 69  2  0  0  0
 57 58  2  0  0  0
 57132  1  0  0  0
 58133  1  0  0  0
 59 60  1  0  0  0
 59 61  1  0  0  0
 59 62  1  0  0  0
 60134  1  0  0  0
 60135  1  0  0  0
 60136  1  0  0  0
 61137  1  0  0  0
 61138  1  0  0  0
 61139  1  0  0  0
 62140  1  0  0  0
 62141  1  0  0  0
 62142  1  0  0  0
 63 65  1  0  0  0
 63143  1  0  0  0
 63144  1  0  0  0
 63145  1  0  0  0
 64146  1  0  0  0
 65147  1  0  0  0
 68 82  1  0  0  0
 71 75  2  0  0  0
 71 76  1  0  0  0
 71148  1  0  0  0
 72 73  2  0  0  0
 72 74  1  0  0  0
 72 85  1  0  0  0
 73 75  1  0  0  0
 73 83  1  0  0  0
 74 76  2  0  0  0
 74 84  1  0  0  0
 75 86  1  0  0  0
 76 88  1  0  0  0
 77 78  2  0  0  0
 77 82  1  0  0  0
 77 87  1  0  0  0
 78149  1  0  0  0
 78150  1  0  0  0
 79 80  1  0  0  0
 79 81  1  0  0  0
 79151  1  0  0  0
 79152  1  0  0  0
 80 82  1  0  0  0
 80153  1  0  0  0
 80154  1  0  0  0
 81 87  1  0  0  0
 81155  1  0  0  0
 81156  1  0  0  0
 82157  1  0  0  0
 83158  1  0  0  0
 83159  1  0  0  0
 83160  1  0  0  0
 84161  1  0  0  0
 84162  1  0  0  0
 84163  1  0  0  0
 85164  1  0  0  0
 85165  1  0  0  0
 85 87  1  0  0  0
 86166  1  0  0  0
 87167  1  0  0  0
M  CHG  1  87   1
M  ISO  4   1 100  68 101  82 101  86 100
M  END
> <chiral flag>
0

> <version>
0

> <s_m_source_file>
/data/baiqing/PycharmProjects/Reinvent-master-3.2/result/LINK_invent/BTK/process_docking_weight1_custom_product_contain_oxygen_bond_distance_aromatic_linkinvent_7_9_3/rearranged_h_0038.sdf

> <i_m_source_file_index>
89

> <r_mmod_Potential_Energy-OPLS-2005>
102.528114318848

> <r_mmod_Stretch_Energy-OPLS-2005>
139.617401123047

> <r_mmod_Bend_Energy-OPLS-2005>
195.584701538086

> <r_mmod_Torsional_Energy-OPLS-2005>
244.877151489258

> <r_mmod_Improper_Torsional_Energy-OPLS-2005>
6.6774525642395

> <r_mmod_Van_der_Waal_Energy-OPLS-2005>
161.013732910156

> <r_mmod_Electrostatic_Energy-OPLS-2005>
-274.854156494141

> <r_mmod_Solvation_Energy-OPLS-2005>
-449.635437011719

> <b_mmod_Minimization_Converged-OPLS-2005>
0

> <r_mmod_RMS_Derivative-OPLS-2005>
1.89578008651733

$$$$
89
                    3D
 Structure written by MMmdl.
169178  0  0  1  0            999 V2000
  -30.6102  -14.7234   20.4391 C   0  0  0  0  0  0
  -30.4238  -12.4264   19.4923 C   0  0  0  0  0  0
  -29.5185  -12.5080   18.2425 C   0  0  0  0  0  0
  -28.0389  -12.3395   18.6422 C   0  0  0  0  0  0
  -27.6426  -13.2350   19.8474 C   0  0  2  0  0  0
  -28.6804  -13.1634   20.9899 C   0  0  0  0  0  0
  -25.2500  -13.8206   20.5647 C   0  0  0  0  0  0
  -24.1786  -13.0457   20.9162 C   0  0  0  0  0  0
  -24.6382  -11.6931   20.8710 C   0  0  0  0  0  0
  -23.9056  -10.4307   21.0388 C   0  0  0  0  0  0
  -24.3611   -9.4227   21.9173 C   0  0  0  0  0  0
  -23.6292   -8.2258   22.0749 C   0  0  0  0  0  0
  -22.4271   -8.0284   21.3534 C   0  0  0  0  0  0
  -21.9901   -9.0257   20.4641 C   0  0  0  0  0  0
  -22.7225  -10.2136   20.3044 C   0  0  0  0  0  0
  -21.6870   -6.0731   22.5279 C   0  0  0  0  0  0
  -21.4030   -6.5635   23.8209 C   0  0  0  0  0  0
  -21.3646   -5.6781   24.9168 C   0  0  0  0  0  0
  -21.6046   -4.3046   24.7215 C   0  0  0  0  0  0
  -21.8816   -3.8135   23.4334 C   0  0  0  0  0  0
  -21.9189   -4.6958   22.3388 C   0  0  0  0  0  0
  -22.7804  -13.5246   21.1804 C   0  0  0  0  0  0
  -22.1655   -4.2135   21.0972 F   0  0  0  0  0  0
  -21.5619   -3.4534   25.7729 F   0  0  0  0  0  0
  -29.9931  -13.4949   20.4226 N   0  0  0  0  0  0
  -26.2927  -12.9418   20.3227 N   0  0  0  0  0  0
  -25.9320  -11.6558   20.5722 N   0  0  0  0  0  0
  -22.0426  -12.8266   22.0370 N   0  0  0  0  0  0
  -25.4233  -15.1929   20.4061 N   0  0  0  0  0  0
  -31.7870  -14.8269   20.0754 O   0  0  0  0  0  0
  -21.6635   -6.8879   21.4235 O   0  0  0  0  0  0
  -22.3495  -14.5535   20.6621 O   0  0  0  0  0  0
  -24.6358  -31.8571   23.1965 C   0  0  0  0  0  0
  -25.9194  -32.4756   23.8300 C   0  0  1  0  0  0
  -27.2166  -27.2574   20.1131 C   0  0  0  0  0  0
  -25.5997  -33.8558   24.2244 N   0  0  0  0  0  0
  -23.4307  -30.4824   21.5406 C   0  0  2  0  0  0
  -24.8719  -28.9294   20.1093 C   0  0  0  0  0  0
  -22.7492  -29.4660   22.4890 C   0  0  0  0  0  0
  -18.0306  -28.1403   22.8485 C   0  0  0  0  0  0
  -24.1499  -36.7284   23.2632 C   0  0  0  0  0  0
  -25.9769  -30.7677   21.3751 C   0  0  0  0  0  0
  -26.0456  -29.3887   20.7175 C   0  0  0  0  0  0
  -27.2181  -28.5649   20.7137 C   0  0  0  0  0  0
  -26.0148  -26.8752   19.4706 C   0  0  0  0  0  0
  -24.8608  -27.6779   19.4798 C   0  0  0  0  0  0
  -23.6444  -29.8176   20.1561 C   0  0  0  0  0  0
  -25.4124  -36.3067   24.0317 C   0  0  1  0  0  0
  -20.5904  -28.3742   23.1246 C   0  0  2  0  0  0
  -20.6809  -26.9456   22.5400 C   0  0  0  0  0  0
  -19.5781  -26.6403   21.5212 C   0  0  0  0  0  0
  -18.1960  -26.7952   22.1614 C   0  0  0  0  0  0
  -19.1553  -28.8883   23.2870 C   0  0  0  0  0  0
  -18.9479  -30.1474   23.8897 C   0  0  0  0  0  0
  -17.6483  -30.6605   24.0569 C   0  0  0  0  0  0
  -25.9076  -34.9444   23.5072 C   0  0  0  0  0  0
  -16.5371  -29.9106   23.6323 C   0  0  0  0  0  0
  -16.7293  -28.6519   23.0346 C   0  0  0  0  0  0
  -26.4528  -31.6576   25.0699 C   0  0  0  0  0  0
  -25.3731  -31.3767   26.1406 C   0  0  0  0  0  0
  -27.0367  -30.2982   24.6205 C   0  0  0  0  0  0
  -27.6081  -32.4293   25.7493 C   0  0  0  0  0  0
  -27.5574  -37.1801   24.8456 C   0  0  0  0  0  0
  -21.4204  -29.3095   22.3622 N   0  0  0  0  0  0
  -26.4293  -37.3766   23.9402 N   0  0  0  0  0  0
  -24.7013  -31.0523   22.0944 N   0  0  0  0  0  0
  -23.4190  -28.8206   23.3000 O   0  0  0  0  0  0
  -28.3194  -26.3671   20.1837 O   0  0  0  0  0  0
  -26.5626  -34.8929   22.4626 O   0  0  0  0  0  0
  -23.5518  -32.1398   23.7261 O   0  0  0  0  0  0
  -29.4606  -18.4449   20.7181 C   0  0  0  0  0  0
  -29.7012  -19.6810   18.6346 C   0  0  0  0  0  0
  -30.2683  -17.2919   18.7335 C   0  0  0  0  0  0
  -29.3777  -19.7186   20.0089 C   0  0  0  0  0  0
  -29.8916  -17.1993   20.0931 C   0  0  0  0  0  0
  -30.1609  -18.5007   18.0177 C   0  0  0  0  0  0
  -29.9028  -25.0553   17.8377 C   0  0  0  0  0  0
  -30.9548  -23.9289   17.9243 C   0  0  0  0  0  0
  -28.4849  -24.7034   18.3310 C   0  0  0  0  0  0
  -31.5042  -23.6767   19.3416 C   0  0  0  0  0  0
  -28.8678  -23.7655   20.7725 C   0  0  0  0  0  0
  -28.1944  -24.8992   19.8387 C   0  0  2  0  0  0
  -30.9145  -22.4510   20.0750 C   0  0  1  0  0  0
  -31.5812  -22.2727   21.4566 C   0  0  0  0  0  0
  -28.8564  -21.0985   20.6274 C   0  0  0  0  0  0
  -29.8501  -15.8503   20.7176 N   0  0  0  0  0  0
  -29.4166  -22.4581   20.1435 N   0  3  1  0  0  0
  -30.5679  -18.5325   16.3421 Cl  0  0  0  0  0  0
  -31.4757  -12.5148   19.2161 H   0  0  0  0  0  0
  -30.3258  -11.4517   19.9722 H   0  0  0  0  0  0
  -29.8068  -11.7417   17.5222 H   0  0  0  0  0  0
  -29.6557  -13.4685   17.7455 H   0  0  0  0  0  0
  -27.8841  -11.2900   18.8942 H   0  0  0  0  0  0
  -27.3925  -12.5415   17.7870 H   0  0  0  0  0  0
  -27.6413  -14.2573   19.4670 H   0  0  0  0  0  0
  -28.6968  -12.1693   21.4362 H   0  0  0  0  0  0
  -28.4188  -13.8578   21.7898 H   0  0  0  0  0  0
  -25.2765   -9.5714   22.4736 H   0  0  0  0  0  0
  -23.9996   -7.4660   22.7493 H   0  0  0  0  0  0
  -21.0822   -8.8771   19.8976 H   0  0  0  0  0  0
  -22.3680  -10.9653   19.6134 H   0  0  0  0  0  0
  -21.2048   -7.6146   23.9712 H   0  0  0  0  0  0
  -21.1466   -6.0512   25.9071 H   0  0  0  0  0  0
  -22.0609   -2.7600   23.2833 H   0  0  0  0  0  0
  -22.4034  -11.9967   22.4815 H   0  0  0  0  0  0
  -21.1034  -13.1310   22.2518 H   0  0  0  0  0  0
  -24.6594  -15.8548   20.5002 H   0  0  0  0  0  0
  -26.2790  -15.6196   20.0758 H   0  0  0  0  0  0
  -26.7267  -32.5384   23.1041 H   0  0  0  0  0  0
  -25.0160  -33.9686   25.0407 H   0  0  0  0  0  0
  -22.7299  -31.3067   21.3929 H   0  0  0  0  0  0
  -23.3773  -35.9600   23.3270 H   0  0  0  0  0  0
  -24.3594  -36.8932   22.2047 H   0  0  0  0  0  0
  -23.7240  -37.6477   23.6674 H   0  0  0  0  0  0
  -26.1123  -31.5263   20.6033 H   0  0  0  0  0  0
  -26.8578  -30.8175   22.0033 H   0  0  0  0  0  0
  -28.1104  -28.9140   21.2134 H   0  0  0  0  0  0
  -25.9128  -25.9338   18.9553 H   0  0  0  0  0  0
  -23.9621  -27.3169   18.9999 H   0  0  0  0  0  0
  -23.7708  -30.5934   19.4001 H   0  0  0  0  0  0
  -22.7608  -29.2545   19.8506 H   0  0  0  0  0  0
  -25.1308  -36.1897   25.0809 H   0  0  0  0  0  0
  -21.0022  -28.3345   24.1357 H   0  0  0  0  0  0
  -20.5745  -26.2351   23.3621 H   0  0  0  0  0  0
  -21.6678  -26.7506   22.1174 H   0  0  0  0  0  0
  -19.6965  -25.6315   21.1258 H   0  0  0  0  0  0
  -19.6722  -27.3196   20.6735 H   0  0  0  0  0  0
  -17.4237  -26.6701   21.4012 H   0  0  0  0  0  0
  -18.0352  -26.0092   22.9004 H   0  0  0  0  0  0
  -19.7953  -30.7282   24.2273 H   0  0  0  0  0  0
  -17.5040  -31.6281   24.5177 H   0  0  0  0  0  0
  -15.5371  -30.3015   23.7662 H   0  0  0  0  0  0
  -15.8687  -28.0849   22.7058 H   0  0  0  0  0  0
  -24.5895  -30.7129   25.7738 H   0  0  0  0  0  0
  -24.8946  -32.2960   26.4786 H   0  0  0  0  0  0
  -25.8022  -30.8963   27.0204 H   0  0  0  0  0  0
  -26.2955  -29.6716   24.1232 H   0  0  0  0  0  0
  -27.4035  -29.7258   25.4733 H   0  0  0  0  0  0
  -27.8835  -30.4237   23.9457 H   0  0  0  0  0  0
  -27.2712  -33.3619   26.2022 H   0  0  0  0  0  0
  -28.3944  -32.6788   25.0362 H   0  0  0  0  0  0
  -28.0685  -31.8429   26.5452 H   0  0  0  0  0  0
  -28.2593  -38.0096   24.7501 H   0  0  0  0  0  0
  -28.1070  -36.2627   24.6289 H   0  0  0  0  0  0
  -27.2289  -37.1459   25.8858 H   0  0  0  0  0  0
  -20.9394  -29.8778   21.6787 H   0  0  0  0  0  0
  -26.0165  -38.2842   24.1389 H   0  0  0  0  0  0
  -29.1623  -18.4239   21.7587 H   0  0  0  0  0  0
  -29.6008  -20.5669   18.0239 H   0  0  0  0  0  0
  -30.5974  -16.4153   18.1943 H   0  0  0  0  0  0
  -29.8153  -25.3250   16.7828 H   0  0  0  0  0  0
  -30.2634  -25.9616   18.3266 H   0  0  0  0  0  0
  -31.7967  -24.2314   17.2989 H   0  0  0  0  0  0
  -30.5949  -23.0082   17.4611 H   0  0  0  0  0  0
  -28.2226  -23.6910   18.0241 H   0  0  0  0  0  0
  -27.7921  -25.3408   17.7845 H   0  0  0  0  0  0
  -31.4348  -24.5808   19.9468 H   0  0  0  0  0  0
  -32.5749  -23.4931   19.2464 H   0  0  0  0  0  0
  -28.1388  -23.4923   21.5367 H   0  0  0  0  0  0
  -29.6501  -24.2527   21.3500 H   0  0  0  0  0  0
  -27.1457  -24.6375   19.9645 H   0  0  0  0  0  0
  -31.2222  -21.5893   19.4844 H   0  0  0  0  0  0
  -31.3778  -23.0971   22.1391 H   0  0  0  0  0  0
  -32.6638  -22.2055   21.3492 H   0  0  0  0  0  0
  -31.2694  -21.3523   21.9466 H   0  0  0  0  0  0
  -28.9669  -21.0461   21.7106 H   0  0  0  0  0  0
  -27.7812  -21.1143   20.4459 H   0  0  0  0  0  0
  -28.9957  -15.6447   21.2138 H   0  0  0  0  0  0
  -29.1208  -22.5117   19.1798 H   0  0  0  0  0  0
  1 25  1  0  0  0
  1 30  2  0  0  0
  1 86  1  0  0  0
  2  3  1  0  0  0
  2 25  1  0  0  0
  2 89  1  0  0  0
  2 90  1  0  0  0
  3  4  1  0  0  0
  3 91  1  0  0  0
  3 92  1  0  0  0
  4  5  1  0  0  0
  4 93  1  0  0  0
  4 94  1  0  0  0
  5  6  1  0  0  0
  5 26  1  0  0  0
  5 95  1  0  0  0
  6 25  1  0  0  0
  6 96  1  0  0  0
  6 97  1  0  0  0
  7  8  2  0  0  0
  7 26  1  0  0  0
  7 29  1  0  0  0
  8  9  1  0  0  0
  8 22  1  0  0  0
  9 10  1  0  0  0
  9 27  2  0  0  0
 10 11  2  0  0  0
 10 15  1  0  0  0
 11 12  1  0  0  0
 11 98  1  0  0  0
 12 13  2  0  0  0
 12 99  1  0  0  0
 13 14  1  0  0  0
 13 31  1  0  0  0
 14 15  2  0  0  0
 14100  1  0  0  0
 15101  1  0  0  0
 16 17  2  0  0  0
 16 21  1  0  0  0
 16 31  1  0  0  0
 17 18  1  0  0  0
 17102  1  0  0  0
 18 19  2  0  0  0
 18103  1  0  0  0
 19 20  1  0  0  0
 19 24  1  0  0  0
 20 21  2  0  0  0
 20104  1  0  0  0
 21 23  1  0  0  0
 22 28  1  0  0  0
 22 32  2  0  0  0
 26 27  1  0  0  0
 28105  1  0  0  0
 28106  1  0  0  0
 29107  1  0  0  0
 29108  1  0  0  0
 33 34  1  0  0  0
 33 66  1  0  0  0
 33 70  2  0  0  0
 34 36  1  0  0  0
 34 59  1  0  0  0
 34109  1  0  0  0
 35 44  2  0  0  0
 35 45  1  0  0  0
 35 68  1  0  0  0
 36 56  1  0  0  0
 36110  1  0  0  0
 37 39  1  0  0  0
 37 47  1  0  0  0
 37 66  1  0  0  0
 37111  1  0  0  0
 38 43  2  0  0  0
 38 46  1  0  0  0
 38 47  1  0  0  0
 39 64  1  0  0  0
 39 67  2  0  0  0
 40 52  1  0  0  0
 40 53  2  0  0  0
 40 58  1  0  0  0
 41112  1  0  0  0
 41113  1  0  0  0
 41114  1  0  0  0
 41 48  1  0  0  0
 42 43  1  0  0  0
 42 66  1  0  0  0
 42115  1  0  0  0
 42116  1  0  0  0
 43 44  1  0  0  0
 44117  1  0  0  0
 45 46  2  0  0  0
 45118  1  0  0  0
 46119  1  0  0  0
 47120  1  0  0  0
 47121  1  0  0  0
 48 56  1  0  0  0
 48 65  1  0  0  0
 48122  1  0  0  0
 49 50  1  0  0  0
 49 53  1  0  0  0
 49 64  1  0  0  0
 49123  1  0  0  0
 50 51  1  0  0  0
 50124  1  0  0  0
 50125  1  0  0  0
 51 52  1  0  0  0
 51126  1  0  0  0
 51127  1  0  0  0
 52128  1  0  0  0
 52129  1  0  0  0
 53 54  1  0  0  0
 54 55  2  0  0  0
 54130  1  0  0  0
 55 57  1  0  0  0
 55131  1  0  0  0
 56 69  2  0  0  0
 57 58  2  0  0  0
 57132  1  0  0  0
 58133  1  0  0  0
 59 60  1  0  0  0
 59 61  1  0  0  0
 59 62  1  0  0  0
 60134  1  0  0  0
 60135  1  0  0  0
 60136  1  0  0  0
 61137  1  0  0  0
 61138  1  0  0  0
 61139  1  0  0  0
 62140  1  0  0  0
 62141  1  0  0  0
 62142  1  0  0  0
 63 65  1  0  0  0
 63143  1  0  0  0
 63144  1  0  0  0
 63145  1  0  0  0
 64146  1  0  0  0
 65147  1  0  0  0
 68 82  1  0  0  0
 71 74  2  0  0  0
 71 75  1  0  0  0
 71148  1  0  0  0
 72 74  1  0  0  0
 72 76  2  0  0  0
 72149  1  0  0  0
 73 75  2  0  0  0
 73 76  1  0  0  0
 73150  1  0  0  0
 74 85  1  0  0  0
 75 86  1  0  0  0
 76 88  1  0  0  0
 77 78  1  0  0  0
 77 79  1  0  0  0
 77151  1  0  0  0
 77152  1  0  0  0
 78 80  1  0  0  0
 78153  1  0  0  0
 78154  1  0  0  0
 79 82  1  0  0  0
 79155  1  0  0  0
 79156  1  0  0  0
 80 83  1  0  0  0
 80157  1  0  0  0
 80158  1  0  0  0
 81 82  1  0  0  0
 81 87  1  0  0  0
 81159  1  0  0  0
 81160  1  0  0  0
 82161  1  0  0  0
 83 84  1  0  0  0
 83 87  1  0  0  0
 83162  1  0  0  0
 84163  1  0  0  0
 84164  1  0  0  0
 84165  1  0  0  0
 85166  1  0  0  0
 85167  1  0  0  0
 85 87  1  0  0  0
 86168  1  0  0  0
 87169  1  0  0  0
M  CHG  1  87   1
M  ISO  4   1 100  68 101  82 101  86 100
M  END
> <chiral flag>
0

> <version>
0

> <s_m_source_file>
/data/baiqing/PycharmProjects/Reinvent-master-3.2/result/LINK_invent/BTK/process_docking_weight1_custom_product_contain_oxygen_bond_distance_aromatic_linkinvent_7_9_3/rearranged_h_0038.sdf

> <i_m_source_file_index>
90

> <r_mmod_Potential_Energy-OPLS-2005>
170.666427612305

> <r_mmod_Stretch_Energy-OPLS-2005>
129.866149902344

> <r_mmod_Bend_Energy-OPLS-2005>
181.061172485352

> <r_mmod_Torsional_Energy-OPLS-2005>
293.900909423828

> <r_mmod_Improper_Torsional_Energy-OPLS-2005>
5.13041734695435

> <r_mmod_Van_der_Waal_Energy-OPLS-2005>
142.105819702148

> <r_mmod_Electrostatic_Energy-OPLS-2005>
-234.734786987305

> <r_mmod_Solvation_Energy-OPLS-2005>
-428.584106445312

> <b_mmod_Minimization_Converged-OPLS-2005>
0

> <r_mmod_RMS_Derivative-OPLS-2005>
3.2537853717804

$$$$
90
                    3D
 Structure written by MMmdl.
169178  0  0  1  0            999 V2000
  -30.5768  -14.7586   20.4071 C   0  0  0  0  0  0
  -30.4480  -12.4305   19.5063 C   0  0  0  0  0  0
  -29.5349  -12.4004   18.2598 C   0  0  0  0  0  0
  -28.0402  -12.3264   18.6461 C   0  0  0  0  0  0
  -27.6452  -13.2274   19.8528 C   0  0  2  0  0  0
  -28.6872  -13.1567   20.9872 C   0  0  0  0  0  0
  -25.2510  -13.8227   20.5715 C   0  0  0  0  0  0
  -24.1791  -13.0461   20.9181 C   0  0  0  0  0  0
  -24.6371  -11.6943   20.8719 C   0  0  0  0  0  0
  -23.9047  -10.4318   21.0390 C   0  0  0  0  0  0
  -24.3592   -9.4252   21.9190 C   0  0  0  0  0  0
  -23.6288   -8.2275   22.0759 C   0  0  0  0  0  0
  -22.4265   -8.0307   21.3568 C   0  0  0  0  0  0
  -21.9899   -9.0266   20.4661 C   0  0  0  0  0  0
  -22.7196  -10.2160   20.3069 C   0  0  0  0  0  0
  -21.6852   -6.0739   22.5274 C   0  0  0  0  0  0
  -21.3997   -6.5639   23.8211 C   0  0  0  0  0  0
  -21.3668   -5.6789   24.9173 C   0  0  0  0  0  0
  -21.6068   -4.3058   24.7232 C   0  0  0  0  0  0
  -21.8797   -3.8157   23.4350 C   0  0  0  0  0  0
  -21.9178   -4.6971   22.3395 C   0  0  0  0  0  0
  -22.7801  -13.5231   21.1868 C   0  0  0  0  0  0
  -22.1611   -4.2150   21.0978 F   0  0  0  0  0  0
  -21.5681   -3.4545   25.7759 F   0  0  0  0  0  0
  -29.9853  -13.5138   20.4034 N   0  0  0  0  0  0
  -26.2949  -12.9410   20.3307 N   0  0  0  0  0  0
  -25.9309  -11.6557   20.5762 N   0  0  0  0  0  0
  -22.0462  -12.8202   22.0434 N   0  0  0  0  0  0
  -25.4229  -15.1962   20.4166 N   0  0  0  0  0  0
  -31.7619  -14.8745   20.0795 O   0  0  0  0  0  0
  -21.6660   -6.8884   21.4237 O   0  0  0  0  0  0
  -22.3474  -14.5530   20.6738 O   0  0  0  0  0  0
  -24.6329  -31.8538   23.1969 C   0  0  0  0  0  0
  -25.9159  -32.4757   23.8311 C   0  0  1  0  0  0
  -27.2235  -27.2658   20.1071 C   0  0  0  0  0  0
  -25.5959  -33.8563   24.2235 N   0  0  0  0  0  0
  -23.4282  -30.4772   21.5412 C   0  0  2  0  0  0
  -24.8722  -28.9231   20.1086 C   0  0  0  0  0  0
  -22.7515  -29.4587   22.4919 C   0  0  0  0  0  0
  -18.0307  -28.1403   22.8482 C   0  0  0  0  0  0
  -24.1498  -36.7295   23.2642 C   0  0  0  0  0  0
  -25.9735  -30.7687   21.3726 C   0  0  0  0  0  0
  -26.0435  -29.3909   20.7139 C   0  0  0  0  0  0
  -27.2169  -28.5727   20.7035 C   0  0  0  0  0  0
  -26.0189  -26.8575   19.4875 C   0  0  0  0  0  0
  -24.8650  -27.6652   19.4875 C   0  0  0  0  0  0
  -23.6440  -29.8126   20.1567 C   0  0  0  0  0  0
  -25.4122  -36.3061   24.0318 C   0  0  1  0  0  0
  -20.5912  -28.3708   23.1284 C   0  0  2  0  0  0
  -20.6814  -26.9434   22.5408 C   0  0  0  0  0  0
  -19.5772  -26.6385   21.5229 C   0  0  0  0  0  0
  -18.1947  -26.7943   22.1624 C   0  0  0  0  0  0
  -19.1564  -28.8873   23.2877 C   0  0  0  0  0  0
  -18.9478  -30.1486   23.8878 C   0  0  0  0  0  0
  -17.6471  -30.6598   24.0562 C   0  0  0  0  0  0
  -25.9059  -34.9440   23.5068 C   0  0  0  0  0  0
  -16.5366  -29.9087   23.6344 C   0  0  0  0  0  0
  -16.7291  -28.6523   23.0339 C   0  0  0  0  0  0
  -26.4525  -31.6612   25.0724 C   0  0  0  0  0  0
  -25.3713  -31.3743   26.1419 C   0  0  0  0  0  0
  -27.0405  -30.3048   24.6218 C   0  0  0  0  0  0
  -27.6071  -32.4369   25.7492 C   0  0  0  0  0  0
  -27.5579  -37.1800   24.8461 C   0  0  0  0  0  0
  -21.4222  -29.3051   22.3671 N   0  0  0  0  0  0
  -26.4288  -37.3760   23.9408 N   0  0  0  0  0  0
  -24.6977  -31.0496   22.0949 N   0  0  0  0  0  0
  -23.4228  -28.8125   23.3006 O   0  0  0  0  0  0
  -28.3561  -26.4210   20.1808 O   0  0  0  0  0  0
  -26.5615  -34.8919   22.4629 O   0  0  0  0  0  0
  -23.5481  -32.1373   23.7279 O   0  0  0  0  0  0
  -29.4417  -18.4514   20.5378 C   0  0  0  0  0  0
  -28.9158  -19.6516   19.9010 C   0  0  0  0  0  0
  -28.3540  -19.4599   18.6076 C   0  0  0  0  0  0
  -28.6087  -18.2596   17.8832 C   0  0  0  0  0  0
  -29.2615  -17.1488   18.4964 C   0  0  0  0  0  0
  -29.5718  -17.1576   19.8880 C   0  0  0  0  0  0
  -29.9520  -23.7102   18.0158 C   0  0  0  0  0  0
  -29.7121  -25.0609   18.7261 C   0  0  0  0  0  0
  -30.0904  -22.5349   19.0077 C   0  0  0  0  0  0
  -28.5555  -23.7288   20.5508 C   0  0  0  0  0  0
  -28.4460  -25.0354   19.6025 C   0  0  1  0  0  0
  -27.3970  -20.4948   18.0111 C   0  0  0  0  0  0
  -28.1092  -18.1084   16.4392 C   0  0  0  0  0  0
  -29.5368  -15.9091   17.6557 C   0  0  0  0  0  0
  -28.8295  -21.0748   20.6392 C   0  0  0  0  0  0
  -29.7732  -15.8720   20.6293 N   0  0  0  0  0  0
  -28.8669  -22.3945   19.8375 N   0  3  2  0  0  0
  -31.4908  -12.5581   19.2084 H   0  0  0  0  0  0
  -30.4051  -11.4736   20.0277 H   0  0  0  0  0  0
  -29.7904  -11.5266   17.6584 H   0  0  0  0  0  0
  -29.7425  -13.2507   17.6153 H   0  0  0  0  0  0
  -27.8354  -11.2844   18.8927 H   0  0  0  0  0  0
  -27.4187  -12.5582   17.7810 H   0  0  0  0  0  0
  -27.6364  -14.2535   19.4898 H   0  0  0  0  0  0
  -28.7231  -12.1558   21.4197 H   0  0  0  0  0  0
  -28.4264  -13.8328   21.8033 H   0  0  0  0  0  0
  -25.2743   -9.5736   22.4744 H   0  0  0  0  0  0
  -24.0034   -7.4636   22.7424 H   0  0  0  0  0  0
  -21.0860   -8.8714   19.8944 H   0  0  0  0  0  0
  -22.3621  -10.9666   19.6157 H   0  0  0  0  0  0
  -21.1937   -7.6135   23.9708 H   0  0  0  0  0  0
  -21.1531   -6.0532   25.9074 H   0  0  0  0  0  0
  -22.0581   -2.7626   23.2846 H   0  0  0  0  0  0
  -22.4081  -11.9833   22.4770 H   0  0  0  0  0  0
  -21.1103  -13.1265   22.2744 H   0  0  0  0  0  0
  -24.6537  -15.8514   20.5058 H   0  0  0  0  0  0
  -26.2792  -15.6400   20.1082 H   0  0  0  0  0  0
  -26.7231  -32.5398   23.1053 H   0  0  0  0  0  0
  -25.0153  -33.9701   25.0415 H   0  0  0  0  0  0
  -22.7248  -31.2998   21.3964 H   0  0  0  0  0  0
  -23.3757  -35.9624   23.3256 H   0  0  0  0  0  0
  -24.3596  -36.8975   22.2066 H   0  0  0  0  0  0
  -23.7263  -37.6487   23.6702 H   0  0  0  0  0  0
  -26.1085  -31.5279   20.6010 H   0  0  0  0  0  0
  -26.8533  -30.8174   22.0026 H   0  0  0  0  0  0
  -28.1174  -28.9296   21.1832 H   0  0  0  0  0  0
  -25.9105  -25.8983   19.0119 H   0  0  0  0  0  0
  -23.9637  -27.2994   19.0156 H   0  0  0  0  0  0
  -23.7710  -30.5918   19.4034 H   0  0  0  0  0  0
  -22.7608  -29.2508   19.8489 H   0  0  0  0  0  0
  -25.1308  -36.1879   25.0805 H   0  0  0  0  0  0
  -21.0005  -28.3273   24.1400 H   0  0  0  0  0  0
  -20.5798  -26.2291   23.3601 H   0  0  0  0  0  0
  -21.6667  -26.7504   22.1135 H   0  0  0  0  0  0
  -19.6935  -25.6282   21.1287 H   0  0  0  0  0  0
  -19.6724  -27.3180   20.6747 H   0  0  0  0  0  0
  -17.4229  -26.6737   21.4008 H   0  0  0  0  0  0
  -18.0309  -26.0087   22.9020 H   0  0  0  0  0  0
  -19.7947  -30.7347   24.2214 H   0  0  0  0  0  0
  -17.5008  -31.6276   24.5169 H   0  0  0  0  0  0
  -15.5368  -30.2981   23.7681 H   0  0  0  0  0  0
  -15.8695  -28.0864   22.7015 H   0  0  0  0  0  0
  -24.5879  -30.7142   25.7688 H   0  0  0  0  0  0
  -24.8928  -32.2915   26.4866 H   0  0  0  0  0  0
  -25.7988  -30.8865   27.0192 H   0  0  0  0  0  0
  -26.3008  -29.6772   24.1257 H   0  0  0  0  0  0
  -27.4131  -29.7348   25.4744 H   0  0  0  0  0  0
  -27.8838  -30.4370   23.9435 H   0  0  0  0  0  0
  -27.2689  -33.3688   26.2043 H   0  0  0  0  0  0
  -28.3883  -32.6936   25.0313 H   0  0  0  0  0  0
  -28.0750  -31.8528   26.5437 H   0  0  0  0  0  0
  -28.2554  -38.0134   24.7532 H   0  0  0  0  0  0
  -28.1123  -36.2670   24.6248 H   0  0  0  0  0  0
  -27.2304  -37.1387   25.8864 H   0  0  0  0  0  0
  -20.9410  -29.8773   21.6880 H   0  0  0  0  0  0
  -26.0159  -38.2825   24.1418 H   0  0  0  0  0  0
  -29.7068  -18.5218   21.5833 H   0  0  0  0  0  0
  -30.8565  -23.7768   17.4095 H   0  0  0  0  0  0
  -29.1361  -23.5093   17.3192 H   0  0  0  0  0  0
  -29.6252  -25.8540   17.9819 H   0  0  0  0  0  0
  -30.5764  -25.3091   19.3420 H   0  0  0  0  0  0
  -30.9579  -22.6809   19.6529 H   0  0  0  0  0  0
  -30.2756  -21.6161   18.4491 H   0  0  0  0  0  0
  -27.6298  -23.6226   21.1167 H   0  0  0  0  0  0
  -29.3392  -23.9027   21.2897 H   0  0  0  0  0  0
  -27.6283  -24.8496   18.9123 H   0  0  0  0  0  0
  -26.9255  -21.1221   18.7642 H   0  0  0  0  0  0
  -26.5482  -19.9970   17.5414 H   0  0  0  0  0  0
  -27.8827  -21.1190   17.2601 H   0  0  0  0  0  0
  -27.6100  -18.9751   16.0182 H   0  0  0  0  0  0
  -27.4055  -17.2752   16.3804 H   0  0  0  0  0  0
  -28.9345  -17.9172   15.7544 H   0  0  0  0  0  0
  -29.6010  -16.0888   16.5878 H   0  0  0  0  0  0
  -28.7558  -15.1723   17.8179 H   0  0  0  0  0  0
  -30.5097  -15.4869   17.8904 H   0  0  0  0  0  0
  -29.6296  -21.1176   21.3800 H   0  0  0  0  0  0
  -27.9029  -21.0686   21.2139 H   0  0  0  0  0  0
  -28.9559  -15.6178   21.1612 H   0  0  0  0  0  0
  -28.1140  -22.2702   19.1771 H   0  0  0  0  0  0
  1 25  1  0  0  0
  1 30  2  0  0  0
  1 86  1  0  0  0
  2  3  1  0  0  0
  2 25  1  0  0  0
  2 88  1  0  0  0
  2 89  1  0  0  0
  3  4  1  0  0  0
  3 90  1  0  0  0
  3 91  1  0  0  0
  4  5  1  0  0  0
  4 92  1  0  0  0
  4 93  1  0  0  0
  5  6  1  0  0  0
  5 26  1  0  0  0
  5 94  1  0  0  0
  6 25  1  0  0  0
  6 95  1  0  0  0
  6 96  1  0  0  0
  7  8  2  0  0  0
  7 26  1  0  0  0
  7 29  1  0  0  0
  8  9  1  0  0  0
  8 22  1  0  0  0
  9 10  1  0  0  0
  9 27  2  0  0  0
 10 11  2  0  0  0
 10 15  1  0  0  0
 11 12  1  0  0  0
 11 97  1  0  0  0
 12 13  2  0  0  0
 12 98  1  0  0  0
 13 14  1  0  0  0
 13 31  1  0  0  0
 14 15  2  0  0  0
 14 99  1  0  0  0
 15100  1  0  0  0
 16 17  2  0  0  0
 16 21  1  0  0  0
 16 31  1  0  0  0
 17 18  1  0  0  0
 17101  1  0  0  0
 18 19  2  0  0  0
 18102  1  0  0  0
 19 20  1  0  0  0
 19 24  1  0  0  0
 20 21  2  0  0  0
 20103  1  0  0  0
 21 23  1  0  0  0
 22 28  1  0  0  0
 22 32  2  0  0  0
 26 27  1  0  0  0
 28104  1  0  0  0
 28105  1  0  0  0
 29106  1  0  0  0
 29107  1  0  0  0
 33 34  1  0  0  0
 33 66  1  0  0  0
 33 70  2  0  0  0
 34 36  1  0  0  0
 34 59  1  0  0  0
 34108  1  0  0  0
 35 44  2  0  0  0
 35 45  1  0  0  0
 35 68  1  0  0  0
 36 56  1  0  0  0
 36109  1  0  0  0
 37 39  1  0  0  0
 37 47  1  0  0  0
 37 66  1  0  0  0
 37110  1  0  0  0
 38 43  2  0  0  0
 38 46  1  0  0  0
 38 47  1  0  0  0
 39 64  1  0  0  0
 39 67  2  0  0  0
 40 52  1  0  0  0
 40 53  2  0  0  0
 40 58  1  0  0  0
 41111  1  0  0  0
 41112  1  0  0  0
 41113  1  0  0  0
 41 48  1  0  0  0
 42 43  1  0  0  0
 42 66  1  0  0  0
 42114  1  0  0  0
 42115  1  0  0  0
 43 44  1  0  0  0
 44116  1  0  0  0
 45 46  2  0  0  0
 45117  1  0  0  0
 46118  1  0  0  0
 47119  1  0  0  0
 47120  1  0  0  0
 48 56  1  0  0  0
 48 65  1  0  0  0
 48121  1  0  0  0
 49 50  1  0  0  0
 49 53  1  0  0  0
 49 64  1  0  0  0
 49122  1  0  0  0
 50 51  1  0  0  0
 50123  1  0  0  0
 50124  1  0  0  0
 51 52  1  0  0  0
 51125  1  0  0  0
 51126  1  0  0  0
 52127  1  0  0  0
 52128  1  0  0  0
 53 54  1  0  0  0
 54 55  2  0  0  0
 54129  1  0  0  0
 55 57  1  0  0  0
 55130  1  0  0  0
 56 69  2  0  0  0
 57 58  2  0  0  0
 57131  1  0  0  0
 58132  1  0  0  0
 59 60  1  0  0  0
 59 61  1  0  0  0
 59 62  1  0  0  0
 60133  1  0  0  0
 60134  1  0  0  0
 60135  1  0  0  0
 61136  1  0  0  0
 61137  1  0  0  0
 61138  1  0  0  0
 62139  1  0  0  0
 62140  1  0  0  0
 62141  1  0  0  0
 63 65  1  0  0  0
 63142  1  0  0  0
 63143  1  0  0  0
 63144  1  0  0  0
 64145  1  0  0  0
 65146  1  0  0  0
 68 81  1  0  0  0
 71 72  2  0  0  0
 71 76  1  0  0  0
 71147  1  0  0  0
 72 73  1  0  0  0
 72 85  1  0  0  0
 73 74  2  0  0  0
 73 82  1  0  0  0
 74 75  1  0  0  0
 74 83  1  0  0  0
 75 76  2  0  0  0
 75 84  1  0  0  0
 76 86  1  0  0  0
 77 78  1  0  0  0
 77 79  1  0  0  0
 77148  1  0  0  0
 77149  1  0  0  0
 78 81  1  0  0  0
 78150  1  0  0  0
 78151  1  0  0  0
 79 87  1  0  0  0
 79152  1  0  0  0
 79153  1  0  0  0
 80 81  1  0  0  0
 80 87  1  0  0  0
 80154  1  0  0  0
 80155  1  0  0  0
 81156  1  0  0  0
 82157  1  0  0  0
 82158  1  0  0  0
 82159  1  0  0  0
 83160  1  0  0  0
 83161  1  0  0  0
 83162  1  0  0  0
 84163  1  0  0  0
 84164  1  0  0  0
 84165  1  0  0  0
 85166  1  0  0  0
 85167  1  0  0  0
 85 87  1  0  0  0
 86168  1  0  0  0
 87169  1  0  0  0
M  CHG  1  87   1
M  ISO  4   1 100  68 101  81 101  86 100
M  END
> <chiral flag>
0

> <version>
0

> <s_m_source_file>
/data/baiqing/PycharmProjects/Reinvent-master-3.2/result/LINK_invent/BTK/process_docking_weight1_custom_product_contain_oxygen_bond_distance_aromatic_linkinvent_7_9_3/rearranged_h_0038.sdf

> <i_m_source_file_index>
91

> <r_mmod_Potential_Energy-OPLS-2005>
147.442901611328

> <r_mmod_Stretch_Energy-OPLS-2005>
132.423263549805

> <r_mmod_Bend_Energy-OPLS-2005>
180.709442138672

> <r_mmod_Torsional_Energy-OPLS-2005>
299.032257080078

> <r_mmod_Improper_Torsional_Energy-OPLS-2005>
7.19068241119385

> <r_mmod_Van_der_Waal_Energy-OPLS-2005>
159.718399047852

> <r_mmod_Electrostatic_Energy-OPLS-2005>
-295.956634521484

> <r_mmod_Solvation_Energy-OPLS-2005>
-423.575866699219

> <b_mmod_Minimization_Converged-OPLS-2005>
0

> <r_mmod_RMS_Derivative-OPLS-2005>
3.30085945129395

$$$$
91
                    3D
 Structure written by MMmdl.
169178  0  0  1  0            999 V2000
  -30.6253  -14.6264   20.5397 C   0  0  0  0  0  0
  -30.4393  -12.3926   19.4545 C   0  0  0  0  0  0
  -29.5114  -12.5229   18.2262 C   0  0  0  0  0  0
  -28.0326  -12.3627   18.6318 C   0  0  0  0  0  0
  -27.6526  -13.2233   19.8679 C   0  0  2  0  0  0
  -28.6953  -13.0541   20.9949 C   0  0  0  0  0  0
  -25.2528  -13.8206   20.5680 C   0  0  0  0  0  0
  -24.1816  -13.0443   20.9224 C   0  0  0  0  0  0
  -24.6397  -11.6921   20.8762 C   0  0  0  0  0  0
  -23.9082  -10.4296   21.0416 C   0  0  0  0  0  0
  -24.3617   -9.4200   21.9197 C   0  0  0  0  0  0
  -23.6289   -8.2237   22.0734 C   0  0  0  0  0  0
  -22.4266   -8.0279   21.3520 C   0  0  0  0  0  0
  -21.9911   -9.0255   20.4627 C   0  0  0  0  0  0
  -22.7241  -10.2145   20.3059 C   0  0  0  0  0  0
  -21.6854   -6.0738   22.5284 C   0  0  0  0  0  0
  -21.4033   -6.5636   23.8227 C   0  0  0  0  0  0
  -21.3651   -5.6775   24.9176 C   0  0  0  0  0  0
  -21.6032   -4.3038   24.7223 C   0  0  0  0  0  0
  -21.8810   -3.8132   23.4345 C   0  0  0  0  0  0
  -21.9172   -4.6959   22.3400 C   0  0  0  0  0  0
  -22.7832  -13.5215   21.1884 C   0  0  0  0  0  0
  -22.1638   -4.2142   21.0985 F   0  0  0  0  0  0
  -21.5604   -3.4524   25.7732 F   0  0  0  0  0  0
  -30.0163  -13.4022   20.4450 N   0  0  0  0  0  0
  -26.2960  -12.9397   20.3293 N   0  0  0  0  0  0
  -25.9328  -11.6553   20.5746 N   0  0  0  0  0  0
  -22.0452  -12.8225   22.0443 N   0  0  0  0  0  0
  -25.4228  -15.1938   20.4127 N   0  0  0  0  0  0
  -31.7725  -14.8053   20.1200 O   0  0  0  0  0  0
  -21.6618   -6.8883   21.4244 O   0  0  0  0  0  0
  -22.3520  -14.5499   20.6689 O   0  0  0  0  0  0
  -24.6249  -31.8609   23.2019 C   0  0  0  0  0  0
  -25.9084  -32.4780   23.8358 C   0  0  1  0  0  0
  -27.2331  -27.3255   20.1172 C   0  0  0  0  0  0
  -25.5890  -33.8575   24.2277 N   0  0  0  0  0  0
  -23.4183  -30.4844   21.5455 C   0  0  2  0  0  0
  -24.8656  -28.9444   20.1121 C   0  0  0  0  0  0
  -22.7476  -29.4623   22.4929 C   0  0  0  0  0  0
  -18.0300  -28.1390   22.8476 C   0  0  0  0  0  0
  -24.1456  -36.7257   23.2643 C   0  0  0  0  0  0
  -25.9595  -30.7966   21.3716 C   0  0  0  0  0  0
  -26.0355  -29.4251   20.7124 C   0  0  0  0  0  0
  -27.2208  -28.6311   20.7018 C   0  0  0  0  0  0
  -26.0241  -26.8911   19.5174 C   0  0  0  0  0  0
  -24.8621  -27.6816   19.5068 C   0  0  0  0  0  0
  -23.6313  -29.8222   20.1605 C   0  0  0  0  0  0
  -25.4083  -36.3064   24.0341 C   0  0  1  0  0  0
  -20.5902  -28.3681   23.1267 C   0  0  2  0  0  0
  -20.6775  -26.9397   22.5415 C   0  0  0  0  0  0
  -19.5756  -26.6385   21.5206 C   0  0  0  0  0  0
  -18.1941  -26.7925   22.1627 C   0  0  0  0  0  0
  -19.1551  -28.8857   23.2873 C   0  0  0  0  0  0
  -18.9489  -30.1437   23.8907 C   0  0  0  0  0  0
  -17.6485  -30.6572   24.0597 C   0  0  0  0  0  0
  -25.9041  -34.9446   23.5111 C   0  0  0  0  0  0
  -16.5374  -29.9087   23.6326 C   0  0  0  0  0  0
  -16.7287  -28.6522   23.0328 C   0  0  0  0  0  0
  -26.4467  -31.6591   25.0727 C   0  0  0  0  0  0
  -25.3700  -31.3772   26.1464 C   0  0  0  0  0  0
  -27.0302  -30.3013   24.6177 C   0  0  0  0  0  0
  -27.6038  -32.4338   25.7461 C   0  0  0  0  0  0
  -27.5560  -37.1760   24.8455 C   0  0  0  0  0  0
  -21.4201  -29.3009   22.3641 N   0  0  0  0  0  0
  -26.4243  -37.3772   23.9441 N   0  0  0  0  0  0
  -24.6860  -31.0639   22.0967 N   0  0  0  0  0  0
  -23.4198  -28.8183   23.3036 O   0  0  0  0  0  0
  -28.3748  -26.5024   20.1561 O   0  0  0  0  0  0
  -26.5650  -34.8924   22.4702 O   0  0  0  0  0  0
  -23.5411  -32.1398   23.7360 O   0  0  0  0  0  0
  -30.9156  -17.8476   20.3147 C   0  0  0  0  0  0
  -30.9539  -19.2755   20.3173 C   0  0  0  0  0  0
  -28.9121  -19.3200   21.6236 C   0  0  0  0  0  0
  -29.9395  -20.0623   20.9595 C   0  0  0  0  0  0
  -28.8859  -17.8797   21.6159 C   0  0  0  0  0  0
  -29.8993  -17.1064   20.9670 C   0  0  0  0  0  0
  -27.8314  -23.1969   18.3048 C   0  0  0  0  0  0
  -28.2318  -24.6736   18.4707 C   0  0  0  0  0  0
  -28.8398  -22.2470   18.9861 C   0  0  0  0  0  0
  -29.3049  -24.0724   20.6383 C   0  0  0  0  0  0
  -28.2342  -25.0365   19.9689 C   0  0  1  0  0  0
  -32.1660  -19.9308   19.6656 C   0  0  0  0  0  0
  -27.8278  -20.0570   22.4082 C   0  0  0  0  0  0
  -27.7694  -17.1446   22.3693 C   0  0  0  0  0  0
  -30.0616  -21.6456   21.0781 C   0  0  0  0  0  0
  -29.8335  -15.6425   21.0097 N   0  0  0  0  0  0
  -29.0543  -22.5758   20.4216 N   0  3  2  0  0  0
  -31.4821  -12.5171   19.1554 H   0  0  0  0  0  0
  -30.3692  -11.3921   19.8856 H   0  0  0  0  0  0
  -29.7722  -11.7817   17.4687 H   0  0  0  0  0  0
  -29.6576  -13.5018   17.7647 H   0  0  0  0  0  0
  -27.8623  -11.3082   18.8529 H   0  0  0  0  0  0
  -27.3839  -12.6038   17.7896 H   0  0  0  0  0  0
  -27.6743  -14.2640   19.5431 H   0  0  0  0  0  0
  -28.6985  -12.0210   21.3449 H   0  0  0  0  0  0
  -28.4342  -13.6577   21.8668 H   0  0  0  0  0  0
  -25.2768   -9.5650   22.4797 H   0  0  0  0  0  0
  -23.9961   -7.4612   22.7454 H   0  0  0  0  0  0
  -21.0827   -8.8808   19.8943 H   0  0  0  0  0  0
  -22.3712  -10.9693   19.6180 H   0  0  0  0  0  0
  -21.2079   -7.6152   23.9750 H   0  0  0  0  0  0
  -21.1465   -6.0498   25.9081 H   0  0  0  0  0  0
  -22.0593   -2.7589   23.2861 H   0  0  0  0  0  0
  -22.4035  -11.9891   22.4872 H   0  0  0  0  0  0
  -21.1081  -13.1287   22.2649 H   0  0  0  0  0  0
  -24.6673  -15.8513   20.5666 H   0  0  0  0  0  0
  -26.2498  -15.6279   20.0245 H   0  0  0  0  0  0
  -26.7152  -32.5461   23.1111 H   0  0  0  0  0  0
  -24.9955  -33.9717   25.0365 H   0  0  0  0  0  0
  -22.7101  -31.3037   21.4046 H   0  0  0  0  0  0
  -23.3718  -35.9585   23.3312 H   0  0  0  0  0  0
  -24.3531  -36.8866   22.2049 H   0  0  0  0  0  0
  -23.7208  -37.6458   23.6667 H   0  0  0  0  0  0
  -26.0915  -31.5633   20.6063 H   0  0  0  0  0  0
  -26.8385  -30.8424   22.0027 H   0  0  0  0  0  0
  -28.1181  -29.0021   21.1776 H   0  0  0  0  0  0
  -25.9271  -25.9216   19.0590 H   0  0  0  0  0  0
  -23.9641  -27.3015   19.0382 H   0  0  0  0  0  0
  -23.7440  -30.5993   19.4040 H   0  0  0  0  0  0
  -22.7518  -29.2508   19.8586 H   0  0  0  0  0  0
  -25.1251  -36.1896   25.0832 H   0  0  0  0  0  0
  -21.0004  -28.3281   24.1382 H   0  0  0  0  0  0
  -20.5625  -26.2310   23.3626 H   0  0  0  0  0  0
  -21.6654  -26.7388   22.1245 H   0  0  0  0  0  0
  -19.6915  -25.6305   21.1205 H   0  0  0  0  0  0
  -19.6687  -27.3222   20.6756 H   0  0  0  0  0  0
  -17.4198  -26.6650   21.4044 H   0  0  0  0  0  0
  -18.0353  -26.0075   22.9033 H   0  0  0  0  0  0
  -19.7965  -30.7252   24.2288 H   0  0  0  0  0  0
  -17.5040  -31.6227   24.5243 H   0  0  0  0  0  0
  -15.5372  -30.3001   23.7640 H   0  0  0  0  0  0
  -15.8690  -28.0848   22.7018 H   0  0  0  0  0  0
  -24.5837  -30.7150   25.7814 H   0  0  0  0  0  0
  -24.8937  -32.2971   26.4883 H   0  0  0  0  0  0
  -25.8007  -30.8948   27.0247 H   0  0  0  0  0  0
  -26.2871  -29.6762   24.1209 H   0  0  0  0  0  0
  -27.4010  -29.7277   25.4682 H   0  0  0  0  0  0
  -27.8738  -30.4312   23.9391 H   0  0  0  0  0  0
  -27.2657  -33.3654   26.2017 H   0  0  0  0  0  0
  -28.3823  -32.6875   25.0253 H   0  0  0  0  0  0
  -28.0715  -31.8480   26.5379 H   0  0  0  0  0  0
  -28.2569  -38.0068   24.7528 H   0  0  0  0  0  0
  -28.1057  -36.2605   24.6213 H   0  0  0  0  0  0
  -27.2298  -37.1328   25.8863 H   0  0  0  0  0  0
  -20.9393  -29.8674   21.6789 H   0  0  0  0  0  0
  -26.0107  -38.2819   24.1534 H   0  0  0  0  0  0
  -31.7110  -17.3149   19.8137 H   0  0  0  0  0  0
  -27.7567  -22.9529   17.2449 H   0  0  0  0  0  0
  -26.8332  -23.0389   18.7195 H   0  0  0  0  0  0
  -27.5668  -25.3054   17.8878 H   0  0  0  0  0  0
  -29.2241  -24.8378   18.0473 H   0  0  0  0  0  0
  -29.7928  -22.2821   18.4566 H   0  0  0  0  0  0
  -28.4750  -21.2209   18.9071 H   0  0  0  0  0  0
  -29.3530  -24.2739   21.7093 H   0  0  0  0  0  0
  -30.2915  -24.3190   20.2416 H   0  0  0  0  0  0
  -27.2794  -24.7544   20.4152 H   0  0  0  0  0  0
  -32.8583  -19.1921   19.2602 H   0  0  0  0  0  0
  -32.7342  -20.5044   20.3989 H   0  0  0  0  0  0
  -31.8785  -20.5929   18.8482 H   0  0  0  0  0  0
  -27.9825  -21.1287   22.5003 H   0  0  0  0  0  0
  -27.7713  -19.6715   23.4273 H   0  0  0  0  0  0
  -26.8554  -19.9130   21.9367 H   0  0  0  0  0  0
  -28.0436  -17.0206   23.4184 H   0  0  0  0  0  0
  -27.5688  -16.1555   21.9603 H   0  0  0  0  0  0
  -26.8127  -17.6662   22.3367 H   0  0  0  0  0  0
  -31.0373  -21.9647   20.7197 H   0  0  0  0  0  0
  -30.0960  -21.8817   22.1422 H   0  0  0  0  0  0
  -28.9692  -15.2887   21.3845 H   0  0  0  0  0  0
  -28.1772  -22.3819   20.8800 H   0  0  0  0  0  0
  1 25  1  0  0  0
  1 30  2  0  0  0
  1 86  1  0  0  0
  2  3  1  0  0  0
  2 25  1  0  0  0
  2 88  1  0  0  0
  2 89  1  0  0  0
  3  4  1  0  0  0
  3 90  1  0  0  0
  3 91  1  0  0  0
  4  5  1  0  0  0
  4 92  1  0  0  0
  4 93  1  0  0  0
  5  6  1  0  0  0
  5 26  1  0  0  0
  5 94  1  0  0  0
  6 25  1  0  0  0
  6 95  1  0  0  0
  6 96  1  0  0  0
  7  8  2  0  0  0
  7 26  1  0  0  0
  7 29  1  0  0  0
  8  9  1  0  0  0
  8 22  1  0  0  0
  9 10  1  0  0  0
  9 27  2  0  0  0
 10 11  2  0  0  0
 10 15  1  0  0  0
 11 12  1  0  0  0
 11 97  1  0  0  0
 12 13  2  0  0  0
 12 98  1  0  0  0
 13 14  1  0  0  0
 13 31  1  0  0  0
 14 15  2  0  0  0
 14 99  1  0  0  0
 15100  1  0  0  0
 16 17  2  0  0  0
 16 21  1  0  0  0
 16 31  1  0  0  0
 17 18  1  0  0  0
 17101  1  0  0  0
 18 19  2  0  0  0
 18102  1  0  0  0
 19 20  1  0  0  0
 19 24  1  0  0  0
 20 21  2  0  0  0
 20103  1  0  0  0
 21 23  1  0  0  0
 22 28  1  0  0  0
 22 32  2  0  0  0
 26 27  1  0  0  0
 28104  1  0  0  0
 28105  1  0  0  0
 29106  1  0  0  0
 29107  1  0  0  0
 33 34  1  0  0  0
 33 66  1  0  0  0
 33 70  2  0  0  0
 34 36  1  0  0  0
 34 59  1  0  0  0
 34108  1  0  0  0
 35 44  2  0  0  0
 35 45  1  0  0  0
 35 68  1  0  0  0
 36 56  1  0  0  0
 36109  1  0  0  0
 37 39  1  0  0  0
 37 47  1  0  0  0
 37 66  1  0  0  0
 37110  1  0  0  0
 38 43  2  0  0  0
 38 46  1  0  0  0
 38 47  1  0  0  0
 39 64  1  0  0  0
 39 67  2  0  0  0
 40 52  1  0  0  0
 40 53  2  0  0  0
 40 58  1  0  0  0
 41111  1  0  0  0
 41112  1  0  0  0
 41113  1  0  0  0
 41 48  1  0  0  0
 42 43  1  0  0  0
 42 66  1  0  0  0
 42114  1  0  0  0
 42115  1  0  0  0
 43 44  1  0  0  0
 44116  1  0  0  0
 45 46  2  0  0  0
 45117  1  0  0  0
 46118  1  0  0  0
 47119  1  0  0  0
 47120  1  0  0  0
 48 56  1  0  0  0
 48 65  1  0  0  0
 48121  1  0  0  0
 49 50  1  0  0  0
 49 53  1  0  0  0
 49 64  1  0  0  0
 49122  1  0  0  0
 50 51  1  0  0  0
 50123  1  0  0  0
 50124  1  0  0  0
 51 52  1  0  0  0
 51125  1  0  0  0
 51126  1  0  0  0
 52127  1  0  0  0
 52128  1  0  0  0
 53 54  1  0  0  0
 54 55  2  0  0  0
 54129  1  0  0  0
 55 57  1  0  0  0
 55130  1  0  0  0
 56 69  2  0  0  0
 57 58  2  0  0  0
 57131  1  0  0  0
 58132  1  0  0  0
 59 60  1  0  0  0
 59 61  1  0  0  0
 59 62  1  0  0  0
 60133  1  0  0  0
 60134  1  0  0  0
 60135  1  0  0  0
 61136  1  0  0  0
 61137  1  0  0  0
 61138  1  0  0  0
 62139  1  0  0  0
 62140  1  0  0  0
 62141  1  0  0  0
 63 65  1  0  0  0
 63142  1  0  0  0
 63143  1  0  0  0
 63144  1  0  0  0
 64145  1  0  0  0
 65146  1  0  0  0
 68 81  1  0  0  0
 71 72  2  0  0  0
 71 76  1  0  0  0
 71147  1  0  0  0
 72 74  1  0  0  0
 72 82  1  0  0  0
 73 74  2  0  0  0
 73 75  1  0  0  0
 73 83  1  0  0  0
 74 85  1  0  0  0
 75 76  2  0  0  0
 75 84  1  0  0  0
 76 86  1  0  0  0
 77 78  1  0  0  0
 77 79  1  0  0  0
 77148  1  0  0  0
 77149  1  0  0  0
 78 81  1  0  0  0
 78150  1  0  0  0
 78151  1  0  0  0
 79 87  1  0  0  0
 79152  1  0  0  0
 79153  1  0  0  0
 80 81  1  0  0  0
 80 87  1  0  0  0
 80154  1  0  0  0
 80155  1  0  0  0
 81156  1  0  0  0
 82157  1  0  0  0
 82158  1  0  0  0
 82159  1  0  0  0
 83160  1  0  0  0
 83161  1  0  0  0
 83162  1  0  0  0
 84163  1  0  0  0
 84164  1  0  0  0
 84165  1  0  0  0
 85166  1  0  0  0
 85167  1  0  0  0
 85 87  1  0  0  0
 86168  1  0  0  0
 87169  1  0  0  0
M  CHG  1  87   1
M  ISO  4   1 100  68 101  81 101  86 100
M  END
> <chiral flag>
0

> <version>
0

> <s_m_source_file>
/data/baiqing/PycharmProjects/Reinvent-master-3.2/result/LINK_invent/BTK/process_docking_weight1_custom_product_contain_oxygen_bond_distance_aromatic_linkinvent_7_9_3/rearranged_h_0038.sdf

> <i_m_source_file_index>
92

> <r_mmod_Potential_Energy-OPLS-2005>
-16.7444686889648

> <r_mmod_Stretch_Energy-OPLS-2005>
90.8226089477539

> <r_mmod_Bend_Energy-OPLS-2005>
150.422927856445

> <r_mmod_Torsional_Energy-OPLS-2005>
226.137329101562

> <r_mmod_Improper_Torsional_Energy-OPLS-2005>
4.02406644821167

> <r_mmod_Van_der_Waal_Energy-OPLS-2005>
159.769348144531

> <r_mmod_Electrostatic_Energy-OPLS-2005>
-273.334716796875

> <r_mmod_Solvation_Energy-OPLS-2005>
-417.593017578125

> <b_mmod_Minimization_Converged-OPLS-2005>
0

> <r_mmod_RMS_Derivative-OPLS-2005>
3.76779317855835

$$$$
92
                    3D
 Structure written by MMmdl.
156164  0  0  1  0            999 V2000
  -30.6295  -14.7297   20.4897 C   0  0  0  0  0  0
  -30.4372  -12.4539   19.4701 C   0  0  0  0  0  0
  -29.5108  -12.5082   18.2364 C   0  0  0  0  0  0
  -28.0391  -12.3257   18.6539 C   0  0  0  0  0  0
  -27.6444  -13.2279   19.8530 C   0  0  2  0  0  0
  -28.6900  -13.1592   20.9885 C   0  0  0  0  0  0
  -25.2533  -13.8191   20.5693 C   0  0  0  0  0  0
  -24.1824  -13.0448   20.9217 C   0  0  0  0  0  0
  -24.6399  -11.6919   20.8758 C   0  0  0  0  0  0
  -23.9069  -10.4301   21.0410 C   0  0  0  0  0  0
  -24.3620   -9.4214   21.9185 C   0  0  0  0  0  0
  -23.6298   -8.2250   22.0744 C   0  0  0  0  0  0
  -22.4283   -8.0284   21.3535 C   0  0  0  0  0  0
  -21.9921   -9.0256   20.4638 C   0  0  0  0  0  0
  -22.7244  -10.2138   20.3055 C   0  0  0  0  0  0
  -21.6855   -6.0748   22.5279 C   0  0  0  0  0  0
  -21.4010   -6.5645   23.8208 C   0  0  0  0  0  0
  -21.3669   -5.6796   24.9172 C   0  0  0  0  0  0
  -21.6046   -4.3052   24.7219 C   0  0  0  0  0  0
  -21.8825   -3.8152   23.4335 C   0  0  0  0  0  0
  -21.9186   -4.6977   22.3396 C   0  0  0  0  0  0
  -22.7840  -13.5234   21.1876 C   0  0  0  0  0  0
  -22.1662   -4.2165   21.0972 F   0  0  0  0  0  0
  -21.5631   -3.4527   25.7731 F   0  0  0  0  0  0
  -29.9918  -13.5112   20.4038 N   0  0  0  0  0  0
  -26.2959  -12.9398   20.3287 N   0  0  0  0  0  0
  -25.9327  -11.6544   20.5760 N   0  0  0  0  0  0
  -22.0468  -12.8217   22.0414 N   0  0  0  0  0  0
  -25.4228  -15.1920   20.4103 N   0  0  0  0  0  0
  -31.8126  -14.8274   20.1529 O   0  0  0  0  0  0
  -21.6638   -6.8888   21.4243 O   0  0  0  0  0  0
  -22.3524  -14.5552   20.6733 O   0  0  0  0  0  0
  -24.6305  -31.8547   23.1991 C   0  0  0  0  0  0
  -25.9121  -32.4759   23.8350 C   0  0  1  0  0  0
  -27.2239  -27.2666   20.1455 C   0  0  0  0  0  0
  -25.5934  -33.8559   24.2262 N   0  0  0  0  0  0
  -23.4298  -30.4749   21.5409 C   0  0  2  0  0  0
  -24.8794  -28.9197   20.1151 C   0  0  0  0  0  0
  -22.7516  -29.4557   22.4907 C   0  0  0  0  0  0
  -18.0296  -28.1383   22.8462 C   0  0  0  0  0  0
  -24.1492  -36.7285   23.2644 C   0  0  0  0  0  0
  -25.9738  -30.7737   21.3759 C   0  0  0  0  0  0
  -26.0494  -29.3926   20.7248 C   0  0  0  0  0  0
  -27.2273  -28.5792   20.7233 C   0  0  0  0  0  0
  -26.0333  -26.8577   19.5073 C   0  0  0  0  0  0
  -24.8754  -27.6603   19.4940 C   0  0  0  0  0  0
  -23.6521  -29.8099   20.1556 C   0  0  0  0  0  0
  -25.4121  -36.3066   24.0331 C   0  0  1  0  0  0
  -20.5911  -28.3683   23.1260 C   0  0  2  0  0  0
  -20.6783  -26.9405   22.5399 C   0  0  0  0  0  0
  -19.5764  -26.6384   21.5194 C   0  0  0  0  0  0
  -18.1933  -26.7919   22.1598 C   0  0  0  0  0  0
  -19.1557  -28.8850   23.2852 C   0  0  0  0  0  0
  -18.9475  -30.1450   23.8881 C   0  0  0  0  0  0
  -17.6473  -30.6588   24.0545 C   0  0  0  0  0  0
  -25.9050  -34.9440   23.5102 C   0  0  0  0  0  0
  -16.5356  -29.9082   23.6321 C   0  0  0  0  0  0
  -16.7278  -28.6504   23.0336 C   0  0  0  0  0  0
  -26.4490  -31.6604   25.0738 C   0  0  0  0  0  0
  -25.3719  -31.3746   26.1467 C   0  0  0  0  0  0
  -27.0360  -30.3038   24.6214 C   0  0  0  0  0  0
  -27.6056  -32.4345   25.7489 C   0  0  0  0  0  0
  -27.5568  -37.1806   24.8464 C   0  0  0  0  0  0
  -21.4218  -29.3033   22.3652 N   0  0  0  0  0  0
  -26.4287  -37.3767   23.9403 N   0  0  0  0  0  0
  -24.6969  -31.0529   22.0964 N   0  0  0  0  0  0
  -23.4215  -28.8067   23.2985 O   0  0  0  0  0  0
  -28.3269  -26.3884   20.1588 O   0  0  0  0  0  0
  -26.5603  -34.8890   22.4656 O   0  0  0  0  0  0
  -23.5445  -32.1343   23.7291 O   0  0  0  0  0  0
  -30.9087  -20.0162   21.6157 C   0  0  0  0  0  0
  -31.5336  -18.9366   22.2661 C   0  0  0  0  0  0
  -29.5734  -18.4166   20.3674 C   0  0  0  0  0  0
  -29.8953  -19.8086   20.6601 C   0  0  0  0  0  0
  -31.1977  -17.5913   21.9918 C   0  0  0  0  0  0
  -30.2304  -17.2736   20.9958 C   0  0  0  0  0  0
  -31.8883  -16.5315   22.8373 C   0  0  0  0  0  0
  -29.3348  -21.0947   19.8960 C   0  0  0  0  0  0
  -28.8662  -23.7189   19.9335 C   0  0  0  0  0  0
  -28.1407  -24.9781   20.6483 C   0  0  0  0  0  0
  -29.8586  -15.8575   20.7347 N   0  0  0  0  0  0
  -28.9008  -22.3544   20.6622 N   0  3  0  0  0  0
  -31.4767  -12.5824   19.1636 H   0  0  0  0  0  0
  -30.3839  -11.4772   19.9534 H   0  0  0  0  0  0
  -29.7965  -11.7378   17.5203 H   0  0  0  0  0  0
  -29.6336  -13.4627   17.7222 H   0  0  0  0  0  0
  -27.9031  -11.2779   18.9216 H   0  0  0  0  0  0
  -27.3795  -12.5091   17.8058 H   0  0  0  0  0  0
  -27.6398  -14.2489   19.4715 H   0  0  0  0  0  0
  -28.7251  -12.1616   21.4283 H   0  0  0  0  0  0
  -28.4233  -13.8383   21.7999 H   0  0  0  0  0  0
  -25.2760   -9.5700   22.4757 H   0  0  0  0  0  0
  -24.0013   -7.4643   22.7453 H   0  0  0  0  0  0
  -21.0854   -8.8787   19.8924 H   0  0  0  0  0  0
  -22.3710  -10.9687   19.6168 H   0  0  0  0  0  0
  -21.2006   -7.6148   23.9730 H   0  0  0  0  0  0
  -21.1486   -6.0509   25.9081 H   0  0  0  0  0  0
  -22.0593   -2.7610   23.2825 H   0  0  0  0  0  0
  -22.4076  -11.9867   22.4800 H   0  0  0  0  0  0
  -21.1084  -13.1244   22.2627 H   0  0  0  0  0  0
  -24.6521  -15.8433   20.5138 H   0  0  0  0  0  0
  -26.2660  -15.6292   20.0641 H   0  0  0  0  0  0
  -26.7197  -32.5408   23.1101 H   0  0  0  0  0  0
  -25.0116  -33.9710   25.0424 H   0  0  0  0  0  0
  -22.7251  -31.2963   21.3940 H   0  0  0  0  0  0
  -23.3738  -35.9625   23.3310 H   0  0  0  0  0  0
  -24.3592  -36.8899   22.2054 H   0  0  0  0  0  0
  -23.7244  -37.6494   23.6668 H   0  0  0  0  0  0
  -26.1096  -31.5350   20.6063 H   0  0  0  0  0  0
  -26.8514  -30.8266   22.0087 H   0  0  0  0  0  0
  -28.1291  -28.9363   21.2016 H   0  0  0  0  0  0
  -25.9912  -25.8966   19.0151 H   0  0  0  0  0  0
  -23.9821  -27.2978   19.0035 H   0  0  0  0  0  0
  -23.7855  -30.5881   19.4021 H   0  0  0  0  0  0
  -22.7697  -29.2479   19.8433 H   0  0  0  0  0  0
  -25.1304  -36.1918   25.0827 H   0  0  0  0  0  0
  -20.9994  -28.3269   24.1387 H   0  0  0  0  0  0
  -20.5687  -26.2292   23.3602 H   0  0  0  0  0  0
  -21.6642  -26.7415   22.1197 H   0  0  0  0  0  0
  -19.6923  -25.6292   21.1246 H   0  0  0  0  0  0
  -19.6718  -27.3166   20.6701 H   0  0  0  0  0  0
  -17.4197  -26.6646   21.4008 H   0  0  0  0  0  0
  -18.0340  -26.0066   22.9006 H   0  0  0  0  0  0
  -19.7959  -30.7256   24.2258 H   0  0  0  0  0  0
  -17.5032  -31.6271   24.5142 H   0  0  0  0  0  0
  -15.5364  -30.2971   23.7692 H   0  0  0  0  0  0
  -15.8659  -28.0840   22.7047 H   0  0  0  0  0  0
  -24.5911  -30.7072   25.7798 H   0  0  0  0  0  0
  -24.8889  -32.2916   26.4867 H   0  0  0  0  0  0
  -25.8050  -30.8959   27.0257 H   0  0  0  0  0  0
  -26.2956  -29.6765   24.1233 H   0  0  0  0  0  0
  -27.4064  -29.7311   25.4724 H   0  0  0  0  0  0
  -27.8813  -30.4345   23.9440 H   0  0  0  0  0  0
  -27.2707  -33.3665   26.2040 H   0  0  0  0  0  0
  -28.3877  -32.6869   25.0321 H   0  0  0  0  0  0
  -28.0707  -31.8484   26.5426 H   0  0  0  0  0  0
  -28.2592  -38.0085   24.7501 H   0  0  0  0  0  0
  -28.1061  -36.2632   24.6324 H   0  0  0  0  0  0
  -27.2296  -37.1480   25.8863 H   0  0  0  0  0  0
  -20.9380  -29.8792   21.6899 H   0  0  0  0  0  0
  -26.0161  -38.2834   24.1420 H   0  0  0  0  0  0
  -31.2349  -21.0196   21.8543 H   0  0  0  0  0  0
  -32.2946  -19.1567   23.0023 H   0  0  0  0  0  0
  -28.8255  -18.2193   19.6128 H   0  0  0  0  0  0
  -32.1792  -16.9384   23.8068 H   0  0  0  0  0  0
  -32.7924  -16.1761   22.3422 H   0  0  0  0  0  0
  -31.2369  -15.6834   23.0437 H   0  0  0  0  0  0
  -28.5193  -20.7895   19.2400 H   0  0  0  0  0  0
  -30.1386  -21.4053   19.2273 H   0  0  0  0  0  0
  -29.8995  -24.0034   19.7292 H   0  0  0  0  0  0
  -28.4003  -23.5708   18.9590 H   0  0  0  0  0  0
  -27.0780  -24.7434   20.7297 H   0  0  0  0  0  0
  -28.4861  -24.9957   21.6816 H   0  0  0  0  0  0
  -28.8697  -15.6661   20.7823 H   0  0  0  0  0  0
  -27.9835  -22.1557   21.0303 H   0  0  0  0  0  0
  -29.5142  -22.4446   21.4562 H   0  0  0  0  0  0
  1 25  1  0  0  0
  1 30  2  0  0  0
  1 81  1  0  0  0
  2  3  1  0  0  0
  2 25  1  0  0  0
  2 83  1  0  0  0
  2 84  1  0  0  0
  3  4  1  0  0  0
  3 85  1  0  0  0
  3 86  1  0  0  0
  4  5  1  0  0  0
  4 87  1  0  0  0
  4 88  1  0  0  0
  5  6  1  0  0  0
  5 26  1  0  0  0
  5 89  1  0  0  0
  6 25  1  0  0  0
  6 90  1  0  0  0
  6 91  1  0  0  0
  7  8  2  0  0  0
  7 26  1  0  0  0
  7 29  1  0  0  0
  8  9  1  0  0  0
  8 22  1  0  0  0
  9 10  1  0  0  0
  9 27  2  0  0  0
 10 11  2  0  0  0
 10 15  1  0  0  0
 11 12  1  0  0  0
 11 92  1  0  0  0
 12 13  2  0  0  0
 12 93  1  0  0  0
 13 14  1  0  0  0
 13 31  1  0  0  0
 14 15  2  0  0  0
 14 94  1  0  0  0
 15 95  1  0  0  0
 16 17  2  0  0  0
 16 21  1  0  0  0
 16 31  1  0  0  0
 17 18  1  0  0  0
 17 96  1  0  0  0
 18 19  2  0  0  0
 18 97  1  0  0  0
 19 20  1  0  0  0
 19 24  1  0  0  0
 20 21  2  0  0  0
 20 98  1  0  0  0
 21 23  1  0  0  0
 22 28  1  0  0  0
 22 32  2  0  0  0
 26 27  1  0  0  0
 28 99  1  0  0  0
 28100  1  0  0  0
 29101  1  0  0  0
 29102  1  0  0  0
 33 34  1  0  0  0
 33 66  1  0  0  0
 33 70  2  0  0  0
 34 36  1  0  0  0
 34 59  1  0  0  0
 34103  1  0  0  0
 35 44  2  0  0  0
 35 45  1  0  0  0
 35 68  1  0  0  0
 36 56  1  0  0  0
 36104  1  0  0  0
 37 39  1  0  0  0
 37 47  1  0  0  0
 37 66  1  0  0  0
 37105  1  0  0  0
 38 43  2  0  0  0
 38 46  1  0  0  0
 38 47  1  0  0  0
 39 64  1  0  0  0
 39 67  2  0  0  0
 40 52  1  0  0  0
 40 53  2  0  0  0
 40 58  1  0  0  0
 41106  1  0  0  0
 41107  1  0  0  0
 41108  1  0  0  0
 41 48  1  0  0  0
 42 43  1  0  0  0
 42 66  1  0  0  0
 42109  1  0  0  0
 42110  1  0  0  0
 43 44  1  0  0  0
 44111  1  0  0  0
 45 46  2  0  0  0
 45112  1  0  0  0
 46113  1  0  0  0
 47114  1  0  0  0
 47115  1  0  0  0
 48 56  1  0  0  0
 48 65  1  0  0  0
 48116  1  0  0  0
 49 50  1  0  0  0
 49 53  1  0  0  0
 49 64  1  0  0  0
 49117  1  0  0  0
 50 51  1  0  0  0
 50118  1  0  0  0
 50119  1  0  0  0
 51 52  1  0  0  0
 51120  1  0  0  0
 51121  1  0  0  0
 52122  1  0  0  0
 52123  1  0  0  0
 53 54  1  0  0  0
 54 55  2  0  0  0
 54124  1  0  0  0
 55 57  1  0  0  0
 55125  1  0  0  0
 56 69  2  0  0  0
 57 58  2  0  0  0
 57126  1  0  0  0
 58127  1  0  0  0
 59 60  1  0  0  0
 59 61  1  0  0  0
 59 62  1  0  0  0
 60128  1  0  0  0
 60129  1  0  0  0
 60130  1  0  0  0
 61131  1  0  0  0
 61132  1  0  0  0
 61133  1  0  0  0
 62134  1  0  0  0
 62135  1  0  0  0
 62136  1  0  0  0
 63 65  1  0  0  0
 63137  1  0  0  0
 63138  1  0  0  0
 63139  1  0  0  0
 64140  1  0  0  0
 65141  1  0  0  0
 68 80  1  0  0  0
 71 72  2  0  0  0
 71 74  1  0  0  0
 71142  1  0  0  0
 72 75  1  0  0  0
 72143  1  0  0  0
 73 74  2  0  0  0
 73 76  1  0  0  0
 73144  1  0  0  0
 74 78  1  0  0  0
 75 76  2  0  0  0
 75 77  1  0  0  0
 76 81  1  0  0  0
 77145  1  0  0  0
 77146  1  0  0  0
 77147  1  0  0  0
 78 82  1  0  0  0
 78148  1  0  0  0
 78149  1  0  0  0
 79 80  1  0  0  0
 79 82  1  0  0  0
 79150  1  0  0  0
 79151  1  0  0  0
 80152  1  0  0  0
 80153  1  0  0  0
 81154  1  0  0  0
 82155  1  0  0  0
 82156  1  0  0  0
M  CHG  1  82   1
M  ISO  4   1 100  68 101  80 101  81 100
M  END
> <chiral flag>
0

> <version>
0

> <s_m_source_file>
/data/baiqing/PycharmProjects/Reinvent-master-3.2/result/LINK_invent/BTK/process_docking_weight1_custom_product_contain_oxygen_bond_distance_aromatic_linkinvent_7_9_3/rearranged_h_0038.sdf

> <i_m_source_file_index>
93

> <r_mmod_Potential_Energy-OPLS-2005>
-25.3458137512207

> <r_mmod_Stretch_Energy-OPLS-2005>
120.310928344727

> <r_mmod_Bend_Energy-OPLS-2005>
155.562118530273

> <r_mmod_Torsional_Energy-OPLS-2005>
241.301834106445

> <r_mmod_Improper_Torsional_Energy-OPLS-2005>
5.85196733474731

> <r_mmod_Van_der_Waal_Energy-OPLS-2005>
137.241470336914

> <r_mmod_Electrostatic_Energy-OPLS-2005>
-297.775299072266

> <r_mmod_Solvation_Energy-OPLS-2005>
-466.368591308594

> <b_mmod_Minimization_Converged-OPLS-2005>
0

> <r_mmod_RMS_Derivative-OPLS-2005>
2.86271786689758

$$$$
93
                    3D
 Structure written by MMmdl.
156164  0  0  1  0            999 V2000
  -30.5983  -14.7468   20.4348 C   0  0  0  0  0  0
  -30.4336  -12.4533   19.4493 C   0  0  0  0  0  0
  -29.5002  -12.5005   18.2193 C   0  0  0  0  0  0
  -28.0288  -12.3218   18.6450 C   0  0  0  0  0  0
  -27.6394  -13.2279   19.8428 C   0  0  2  0  0  0
  -28.6922  -13.1690   20.9703 C   0  0  0  0  0  0
  -25.2523  -13.8194   20.5748 C   0  0  0  0  0  0
  -24.1810  -13.0445   20.9258 C   0  0  0  0  0  0
  -24.6408  -11.6922   20.8799 C   0  0  0  0  0  0
  -23.9105  -10.4287   21.0437 C   0  0  0  0  0  0
  -24.3646   -9.4198   21.9211 C   0  0  0  0  0  0
  -23.6314   -8.2242   22.0757 C   0  0  0  0  0  0
  -22.4300   -8.0285   21.3543 C   0  0  0  0  0  0
  -21.9937   -9.0272   20.4659 C   0  0  0  0  0  0
  -22.7281  -10.2147   20.3076 C   0  0  0  0  0  0
  -21.6839   -6.0747   22.5289 C   0  0  0  0  0  0
  -21.4008   -6.5656   23.8224 C   0  0  0  0  0  0
  -21.3662   -5.6812   24.9186 C   0  0  0  0  0  0
  -21.6032   -4.3074   24.7237 C   0  0  0  0  0  0
  -21.8812   -3.8163   23.4361 C   0  0  0  0  0  0
  -21.9182   -4.6975   22.3415 C   0  0  0  0  0  0
  -22.7828  -13.5225   21.1909 C   0  0  0  0  0  0
  -22.1645   -4.2157   21.0992 F   0  0  0  0  0  0
  -21.5635   -3.4561   25.7752 F   0  0  0  0  0  0
  -29.9880  -13.5179   20.3728 N   0  0  0  0  0  0
  -26.2943  -12.9392   20.3305 N   0  0  0  0  0  0
  -25.9335  -11.6547   20.5800 N   0  0  0  0  0  0
  -22.0453  -12.8197   22.0445 N   0  0  0  0  0  0
  -25.4243  -15.1914   20.4177 N   0  0  0  0  0  0
  -31.8084  -14.8547   20.2144 O   0  0  0  0  0  0
  -21.6639   -6.8897   21.4249 O   0  0  0  0  0  0
  -22.3512  -14.5532   20.6752 O   0  0  0  0  0  0
  -24.6313  -31.8580   23.1991 C   0  0  0  0  0  0
  -25.9141  -32.4777   23.8321 C   0  0  1  0  0  0
  -27.2122  -27.2576   20.1225 C   0  0  0  0  0  0
  -25.5945  -33.8579   24.2257 N   0  0  0  0  0  0
  -23.4266  -30.4830   21.5450 C   0  0  2  0  0  0
  -24.8722  -28.9379   20.1049 C   0  0  0  0  0  0
  -22.7506  -29.4616   22.4922 C   0  0  0  0  0  0
  -18.0288  -28.1390   22.8483 C   0  0  0  0  0  0
  -24.1485  -36.7283   23.2632 C   0  0  0  0  0  0
  -25.9748  -30.7689   21.3812 C   0  0  0  0  0  0
  -26.0460  -29.3932   20.7188 C   0  0  0  0  0  0
  -27.2177  -28.5663   20.7198 C   0  0  0  0  0  0
  -26.0156  -26.8867   19.4600 C   0  0  0  0  0  0
  -24.8646  -27.6938   19.4610 C   0  0  0  0  0  0
  -23.6417  -29.8241   20.1602 C   0  0  0  0  0  0
  -25.4117  -36.3097   24.0330 C   0  0  1  0  0  0
  -20.5895  -28.3721   23.1276 C   0  0  2  0  0  0
  -20.6795  -26.9431   22.5421 C   0  0  0  0  0  0
  -19.5760  -26.6348   21.5250 C   0  0  0  0  0  0
  -18.1936  -26.7906   22.1661 C   0  0  0  0  0  0
  -19.1537  -28.8876   23.2863 C   0  0  0  0  0  0
  -18.9453  -30.1472   23.8879 C   0  0  0  0  0  0
  -17.6456  -30.6594   24.0560 C   0  0  0  0  0  0
  -25.9069  -34.9466   23.5085 C   0  0  0  0  0  0
  -16.5353  -29.9088   23.6334 C   0  0  0  0  0  0
  -16.7274  -28.6500   23.0346 C   0  0  0  0  0  0
  -26.4497  -31.6593   25.0711 C   0  0  0  0  0  0
  -25.3685  -31.3737   26.1408 C   0  0  0  0  0  0
  -27.0333  -30.3013   24.6166 C   0  0  0  0  0  0
  -27.6064  -32.4318   25.7472 C   0  0  0  0  0  0
  -27.5579  -37.1797   24.8465 C   0  0  0  0  0  0
  -21.4208  -29.3064   22.3668 N   0  0  0  0  0  0
  -26.4301  -37.3794   23.9406 N   0  0  0  0  0  0
  -24.6965  -31.0545   22.0967 N   0  0  0  0  0  0
  -23.4195  -28.8135   23.3014 O   0  0  0  0  0  0
  -28.2883  -26.3341   20.1994 O   0  0  0  0  0  0
  -26.5640  -34.8929   22.4665 O   0  0  0  0  0  0
  -23.5478  -32.1404   23.7296 O   0  0  0  0  0  0
  -30.1968  -20.1096   21.3326 C   0  0  0  0  0  0
  -30.9436  -17.7637   21.5458 C   0  0  0  0  0  0
  -29.2348  -19.7750   20.3596 C   0  0  0  0  0  0
  -29.1721  -18.3495   19.9772 C   0  0  0  0  0  0
  -29.9860  -17.3167   20.6097 C   0  0  0  0  0  0
  -31.0482  -19.1305   21.8932 C   0  0  0  0  0  0
  -28.2697  -20.8817   19.8788 C   0  0  0  0  0  0
  -28.2467  -17.8755   18.8550 C   0  0  0  0  0  0
  -28.9035  -23.5772   20.3127 C   0  0  0  0  0  0
  -27.9818  -24.8745   19.9659 C   0  0  0  0  0  0
  -27.1027  -20.4590   19.4047 N   0  0  0  0  0  0
  -29.7628  -15.8550   20.4215 N   0  0  0  0  0  0
  -28.2534  -22.2725   19.8421 N   0  3  0  0  0  0
  -32.2141  -19.6046   23.0755 Cl  0  0  0  0  0  0
  -31.4718  -12.5803   19.1386 H   0  0  0  0  0  0
  -30.3758  -11.4788   19.9378 H   0  0  0  0  0  0
  -29.7792  -11.7282   17.5013 H   0  0  0  0  0  0
  -29.6172  -13.4539   17.7005 H   0  0  0  0  0  0
  -27.8907  -11.2751   18.9183 H   0  0  0  0  0  0
  -27.3616  -12.4994   17.8003 H   0  0  0  0  0  0
  -27.6269  -14.2454   19.4539 H   0  0  0  0  0  0
  -28.7319  -12.1784   21.4252 H   0  0  0  0  0  0
  -28.4295  -13.8644   21.7690 H   0  0  0  0  0  0
  -25.2779   -9.5651   22.4811 H   0  0  0  0  0  0
  -24.0013   -7.4620   22.7471 H   0  0  0  0  0  0
  -21.0861   -8.8814   19.8972 H   0  0  0  0  0  0
  -22.3755  -10.9701   19.6209 H   0  0  0  0  0  0
  -21.1994   -7.6161   23.9730 H   0  0  0  0  0  0
  -21.1499   -6.0542   25.9091 H   0  0  0  0  0  0
  -22.0586   -2.7619   23.2868 H   0  0  0  0  0  0
  -22.4037  -11.9833   22.4805 H   0  0  0  0  0  0
  -21.1097  -13.1263   22.2700 H   0  0  0  0  0  0
  -24.6607  -15.8480   20.5351 H   0  0  0  0  0  0
  -26.2754  -15.6303   20.0959 H   0  0  0  0  0  0
  -26.7193  -32.5415   23.1043 H   0  0  0  0  0  0
  -25.0097  -33.9716   25.0410 H   0  0  0  0  0  0
  -22.7227  -31.3070   21.4078 H   0  0  0  0  0  0
  -23.3769  -35.9594   23.3307 H   0  0  0  0  0  0
  -24.3562  -36.8898   22.2040 H   0  0  0  0  0  0
  -23.7210  -37.6473   23.6652 H   0  0  0  0  0  0
  -26.1167  -31.5293   20.6135 H   0  0  0  0  0  0
  -26.8522  -30.8136   22.0142 H   0  0  0  0  0  0
  -28.1101  -28.9073   21.2248 H   0  0  0  0  0  0
  -25.9239  -25.9438   18.9430 H   0  0  0  0  0  0
  -23.9706  -27.3485   18.9609 H   0  0  0  0  0  0
  -23.7612  -30.6064   19.4100 H   0  0  0  0  0  0
  -22.7570  -29.2607   19.8564 H   0  0  0  0  0  0
  -25.1289  -36.1941   25.0824 H   0  0  0  0  0  0
  -20.9962  -28.3291   24.1404 H   0  0  0  0  0  0
  -20.5723  -26.2323   23.3626 H   0  0  0  0  0  0
  -21.6652  -26.7456   22.1205 H   0  0  0  0  0  0
  -19.6917  -25.6233   21.1309 H   0  0  0  0  0  0
  -19.6680  -27.3121   20.6744 H   0  0  0  0  0  0
  -17.4182  -26.6589   21.4099 H   0  0  0  0  0  0
  -18.0382  -26.0085   22.9101 H   0  0  0  0  0  0
  -19.7927  -30.7293   24.2222 H   0  0  0  0  0  0
  -17.5012  -31.6277   24.5162 H   0  0  0  0  0  0
  -15.5350  -30.2986   23.7678 H   0  0  0  0  0  0
  -15.8659  -28.0832   22.7058 H   0  0  0  0  0  0
  -24.5865  -30.7095   25.7695 H   0  0  0  0  0  0
  -24.8863  -32.2905   26.4809 H   0  0  0  0  0  0
  -25.7968  -30.8898   27.0191 H   0  0  0  0  0  0
  -26.2913  -29.6769   24.1170 H   0  0  0  0  0  0
  -27.4016  -29.7274   25.4675 H   0  0  0  0  0  0
  -27.8793  -30.4319   23.9414 H   0  0  0  0  0  0
  -27.2697  -33.3627   26.2041 H   0  0  0  0  0  0
  -28.3863  -32.6849   25.0278 H   0  0  0  0  0  0
  -28.0726  -31.8425   26.5372 H   0  0  0  0  0  0
  -28.2612  -38.0082   24.7525 H   0  0  0  0  0  0
  -28.1071  -36.2619   24.6298 H   0  0  0  0  0  0
  -27.2299  -37.1450   25.8871 H   0  0  0  0  0  0
  -20.9378  -29.8784   21.6894 H   0  0  0  0  0  0
  -26.0185  -38.2874   24.1411 H   0  0  0  0  0  0
  -30.2792  -21.1327   21.6706 H   0  0  0  0  0  0
  -31.5835  -17.0534   22.0493 H   0  0  0  0  0  0
  -27.2212  -17.7495   19.2038 H   0  0  0  0  0  0
  -28.5685  -16.9293   18.4210 H   0  0  0  0  0  0
  -28.2605  -18.5754   18.0188 H   0  0  0  0  0  0
  -29.0680  -23.5188   21.3905 H   0  0  0  0  0  0
  -29.8845  -23.6815   19.8509 H   0  0  0  0  0  0
  -27.0401  -24.6701   20.4782 H   0  0  0  0  0  0
  -27.7710  -24.7934   18.8990 H   0  0  0  0  0  0
  -26.9848  -19.4638   19.2987 H   0  0  0  0  0  0
  -26.2739  -21.0311   19.3689 H   0  0  0  0  0  0
  -28.7963  -15.6009   20.2954 H   0  0  0  0  0  0
  -27.6213  -22.5477   19.1049 H   0  0  0  0  0  0
  1 25  1  0  0  0
  1 30  2  0  0  0
  1 82  1  0  0  0
  2  3  1  0  0  0
  2 25  1  0  0  0
  2 85  1  0  0  0
  2 86  1  0  0  0
  3  4  1  0  0  0
  3 87  1  0  0  0
  3 88  1  0  0  0
  4  5  1  0  0  0
  4 89  1  0  0  0
  4 90  1  0  0  0
  5  6  1  0  0  0
  5 26  1  0  0  0
  5 91  1  0  0  0
  6 25  1  0  0  0
  6 92  1  0  0  0
  6 93  1  0  0  0
  7  8  2  0  0  0
  7 26  1  0  0  0
  7 29  1  0  0  0
  8  9  1  0  0  0
  8 22  1  0  0  0
  9 10  1  0  0  0
  9 27  2  0  0  0
 10 11  2  0  0  0
 10 15  1  0  0  0
 11 12  1  0  0  0
 11 94  1  0  0  0
 12 13  2  0  0  0
 12 95  1  0  0  0
 13 14  1  0  0  0
 13 31  1  0  0  0
 14 15  2  0  0  0
 14 96  1  0  0  0
 15 97  1  0  0  0
 16 17  2  0  0  0
 16 21  1  0  0  0
 16 31  1  0  0  0
 17 18  1  0  0  0
 17 98  1  0  0  0
 18 19  2  0  0  0
 18 99  1  0  0  0
 19 20  1  0  0  0
 19 24  1  0  0  0
 20 21  2  0  0  0
 20100  1  0  0  0
 21 23  1  0  0  0
 22 28  1  0  0  0
 22 32  2  0  0  0
 26 27  1  0  0  0
 28101  1  0  0  0
 28102  1  0  0  0
 29103  1  0  0  0
 29104  1  0  0  0
 33 34  1  0  0  0
 33 66  1  0  0  0
 33 70  2  0  0  0
 34 36  1  0  0  0
 34 59  1  0  0  0
 34105  1  0  0  0
 35 44  2  0  0  0
 35 45  1  0  0  0
 35 68  1  0  0  0
 36 56  1  0  0  0
 36106  1  0  0  0
 37 39  1  0  0  0
 37 47  1  0  0  0
 37 66  1  0  0  0
 37107  1  0  0  0
 38 43  2  0  0  0
 38 46  1  0  0  0
 38 47  1  0  0  0
 39 64  1  0  0  0
 39 67  2  0  0  0
 40 52  1  0  0  0
 40 53  2  0  0  0
 40 58  1  0  0  0
 41108  1  0  0  0
 41109  1  0  0  0
 41110  1  0  0  0
 41 48  1  0  0  0
 42 43  1  0  0  0
 42 66  1  0  0  0
 42111  1  0  0  0
 42112  1  0  0  0
 43 44  1  0  0  0
 44113  1  0  0  0
 45 46  2  0  0  0
 45114  1  0  0  0
 46115  1  0  0  0
 47116  1  0  0  0
 47117  1  0  0  0
 48 56  1  0  0  0
 48 65  1  0  0  0
 48118  1  0  0  0
 49 50  1  0  0  0
 49 53  1  0  0  0
 49 64  1  0  0  0
 49119  1  0  0  0
 50 51  1  0  0  0
 50120  1  0  0  0
 50121  1  0  0  0
 51 52  1  0  0  0
 51122  1  0  0  0
 51123  1  0  0  0
 52124  1  0  0  0
 52125  1  0  0  0
 53 54  1  0  0  0
 54 55  2  0  0  0
 54126  1  0  0  0
 55 57  1  0  0  0
 55127  1  0  0  0
 56 69  2  0  0  0
 57 58  2  0  0  0
 57128  1  0  0  0
 58129  1  0  0  0
 59 60  1  0  0  0
 59 61  1  0  0  0
 59 62  1  0  0  0
 60130  1  0  0  0
 60131  1  0  0  0
 60132  1  0  0  0
 61133  1  0  0  0
 61134  1  0  0  0
 61135  1  0  0  0
 62136  1  0  0  0
 62137  1  0  0  0
 62138  1  0  0  0
 63 65  1  0  0  0
 63139  1  0  0  0
 63140  1  0  0  0
 63141  1  0  0  0
 64142  1  0  0  0
 65143  1  0  0  0
 68 80  1  0  0  0
 71 73  2  0  0  0
 71 76  1  0  0  0
 71144  1  0  0  0
 72 75  1  0  0  0
 72 76  2  0  0  0
 72145  1  0  0  0
 73 74  1  0  0  0
 73 77  1  0  0  0
 74 75  2  0  0  0
 74 78  1  0  0  0
 75 82  1  0  0  0
 76 84  1  0  0  0
 77 81  1  0  0  0
 77 83  2  0  0  0
 78146  1  0  0  0
 78147  1  0  0  0
 78148  1  0  0  0
 79 80  1  0  0  0
 79 83  1  0  0  0
 79149  1  0  0  0
 79150  1  0  0  0
 80151  1  0  0  0
 80152  1  0  0  0
 81153  1  0  0  0
 81154  1  0  0  0
 82155  1  0  0  0
 83156  1  0  0  0
M  CHG  1  83   1
M  ISO  4   1 100  68 101  80 101  82 100
M  END
> <chiral flag>
0

> <version>
0

> <s_m_source_file>
/data/baiqing/PycharmProjects/Reinvent-master-3.2/result/LINK_invent/BTK/process_docking_weight1_custom_product_contain_oxygen_bond_distance_aromatic_linkinvent_7_9_3/rearranged_h_0038.sdf

> <i_m_source_file_index>
94

> <r_mmod_Potential_Energy-OPLS-2005>
5.51816606521606

> <r_mmod_Stretch_Energy-OPLS-2005>
129.627380371094

> <r_mmod_Bend_Energy-OPLS-2005>
235.669494628906

> <r_mmod_Torsional_Energy-OPLS-2005>
238.227432250977

> <r_mmod_Improper_Torsional_Energy-OPLS-2005>
9.85153579711914

> <r_mmod_Van_der_Waal_Energy-OPLS-2005>
147.694061279297

> <r_mmod_Electrostatic_Energy-OPLS-2005>
-402.270568847656

> <r_mmod_Solvation_Energy-OPLS-2005>
-446.777282714844

> <b_mmod_Minimization_Converged-OPLS-2005>
0

> <r_mmod_RMS_Derivative-OPLS-2005>
3.36771464347839

$$$$
94
                    3D
 Structure written by MMmdl.
170179  0  0  1  0            999 V2000
  -30.5693  -14.7774   20.4029 C   0  0  0  0  0  0
  -30.4421  -12.4576   19.4786 C   0  0  0  0  0  0
  -29.5142  -12.4255   18.2417 C   0  0  0  0  0  0
  -28.0317  -12.3169   18.6483 C   0  0  0  0  0  0
  -27.6406  -13.2281   19.8454 C   0  0  2  0  0  0
  -28.6843  -13.1687   20.9776 C   0  0  0  0  0  0
  -25.2512  -13.8207   20.5698 C   0  0  0  0  0  0
  -24.1791  -13.0452   20.9187 C   0  0  0  0  0  0
  -24.6375  -11.6923   20.8716 C   0  0  0  0  0  0
  -23.9057  -10.4295   21.0383 C   0  0  0  0  0  0
  -24.3599   -9.4213   21.9165 C   0  0  0  0  0  0
  -23.6275   -8.2247   22.0749 C   0  0  0  0  0  0
  -22.4251   -8.0273   21.3549 C   0  0  0  0  0  0
  -21.9885   -9.0249   20.4663 C   0  0  0  0  0  0
  -22.7217  -10.2128   20.3054 C   0  0  0  0  0  0
  -21.6859   -6.0716   22.5264 C   0  0  0  0  0  0
  -21.4035   -6.5624   23.8197 C   0  0  0  0  0  0
  -21.3661   -5.6773   24.9158 C   0  0  0  0  0  0
  -21.6034   -4.3035   24.7216 C   0  0  0  0  0  0
  -21.8821   -3.8129   23.4333 C   0  0  0  0  0  0
  -21.9196   -4.6952   22.3394 C   0  0  0  0  0  0
  -22.7813  -13.5232   21.1836 C   0  0  0  0  0  0
  -22.1661   -4.2141   21.0969 F   0  0  0  0  0  0
  -21.5629   -3.4516   25.7725 F   0  0  0  0  0  0
  -29.9785  -13.5320   20.3899 N   0  0  0  0  0  0
  -26.2933  -12.9404   20.3266 N   0  0  0  0  0  0
  -25.9304  -11.6554   20.5719 N   0  0  0  0  0  0
  -22.0446  -12.8228   22.0394 N   0  0  0  0  0  0
  -25.4202  -15.1930   20.4179 N   0  0  0  0  0  0
  -31.7706  -14.8747   20.1264 O   0  0  0  0  0  0
  -21.6642   -6.8858   21.4224 O   0  0  0  0  0  0
  -22.3507  -14.5539   20.6683 O   0  0  0  0  0  0
  -24.6310  -31.8564   23.1974 C   0  0  0  0  0  0
  -25.9126  -32.4769   23.8337 C   0  0  1  0  0  0
  -27.2229  -27.2714   20.1534 C   0  0  0  0  0  0
  -25.5906  -33.8566   24.2260 N   0  0  0  0  0  0
  -23.4286  -30.4775   21.5389 C   0  0  2  0  0  0
  -24.8758  -28.9172   20.1175 C   0  0  0  0  0  0
  -22.7506  -29.4599   22.4892 C   0  0  0  0  0  0
  -18.0295  -28.1409   22.8483 C   0  0  0  0  0  0
  -24.1467  -36.7287   23.2640 C   0  0  0  0  0  0
  -25.9712  -30.7773   21.3706 C   0  0  0  0  0  0
  -26.0455  -29.3958   20.7223 C   0  0  0  0  0  0
  -27.2244  -28.5877   20.7222 C   0  0  0  0  0  0
  -26.0327  -26.8459   19.5292 C   0  0  0  0  0  0
  -24.8734  -27.6493   19.5108 C   0  0  0  0  0  0
  -23.6498  -29.8090   20.1559 C   0  0  0  0  0  0
  -25.4091  -36.3076   24.0331 C   0  0  1  0  0  0
  -20.5901  -28.3711   23.1271 C   0  0  2  0  0  0
  -20.6779  -26.9423   22.5416 C   0  0  0  0  0  0
  -19.5753  -26.6397   21.5215 C   0  0  0  0  0  0
  -18.1935  -26.7946   22.1628 C   0  0  0  0  0  0
  -19.1553  -28.8873   23.2875 C   0  0  0  0  0  0
  -18.9473  -30.1464   23.8919 C   0  0  0  0  0  0
  -17.6471  -30.6596   24.0583 C   0  0  0  0  0  0
  -25.9043  -34.9444   23.5105 C   0  0  0  0  0  0
  -16.5361  -29.9107   23.6324 C   0  0  0  0  0  0
  -16.7284  -28.6524   23.0347 C   0  0  0  0  0  0
  -26.4484  -31.6598   25.0738 C   0  0  0  0  0  0
  -25.3700  -31.3765   26.1462 C   0  0  0  0  0  0
  -27.0316  -30.3015   24.6212 C   0  0  0  0  0  0
  -27.6030  -32.4329   25.7520 C   0  0  0  0  0  0
  -27.5563  -37.1802   24.8455 C   0  0  0  0  0  0
  -21.4212  -29.3058   22.3645 N   0  0  0  0  0  0
  -26.4259  -37.3781   23.9413 N   0  0  0  0  0  0
  -24.6962  -31.0546   22.0934 N   0  0  0  0  0  0
  -23.4203  -28.8139   23.2991 O   0  0  0  0  0  0
  -28.3410  -26.4142   20.1534 O   0  0  0  0  0  0
  -26.5633  -34.8924   22.4688 O   0  0  0  0  0  0
  -23.5458  -32.1365   23.7273 O   0  0  0  0  0  0
  -29.3715  -18.5129   20.3688 C   0  0  0  0  0  0
  -29.2948  -19.7720   19.6235 C   0  0  0  0  0  0
  -29.7427  -19.7104   18.2737 C   0  0  0  0  0  0
  -30.1853  -18.4892   17.6982 C   0  0  0  0  0  0
  -30.0763  -17.2630   18.4070 C   0  0  0  0  0  0
  -29.7876  -17.2304   19.8009 C   0  0  0  0  0  0
  -28.6278  -23.8499   19.6068 C   0  0  0  0  0  0
  -28.5739  -24.1055   18.2867 C   0  0  0  0  0  0
  -29.3252  -23.5123   22.4225 C   0  0  0  0  0  0
  -29.0774  -24.9412   21.9215 C   0  0  0  0  0  0
  -30.1002  -22.7019   21.3714 C   0  0  0  0  0  0
  -28.2337  -24.9934   20.6345 C   0  0  1  0  0  0
  -29.6404  -20.9465   17.3869 C   0  0  0  0  0  0
  -30.7378  -18.4815   16.2720 C   0  0  0  0  0  0
  -30.0953  -15.9710   17.6026 C   0  0  0  0  0  0
  -28.5893  -21.1324   20.1514 C   0  0  0  0  0  0
  -29.7583  -15.9119   20.5227 N   0  0  0  0  0  0
  -29.3055  -22.5053   20.1369 N   0  3  1  0  0  0
  -31.4749  -12.6071   19.1597 H   0  0  0  0  0  0
  -30.4285  -11.4946   19.9904 H   0  0  0  0  0  0
  -29.7724  -11.5769   17.6071 H   0  0  0  0  0  0
  -29.6789  -13.2961   17.6147 H   0  0  0  0  0  0
  -27.8488  -11.2730   18.9085 H   0  0  0  0  0  0
  -27.3912  -12.5283   17.7915 H   0  0  0  0  0  0
  -27.6315  -14.2482   19.4587 H   0  0  0  0  0  0
  -28.7269  -12.1700   21.4154 H   0  0  0  0  0  0
  -28.4174  -13.8463   21.7902 H   0  0  0  0  0  0
  -25.2747   -9.5693   22.4749 H   0  0  0  0  0  0
  -23.9990   -7.4632   22.7462 H   0  0  0  0  0  0
  -21.0818   -8.8758   19.8956 H   0  0  0  0  0  0
  -22.3654  -10.9662   19.6165 H   0  0  0  0  0  0
  -21.2030   -7.6126   23.9694 H   0  0  0  0  0  0
  -21.1490   -6.0506   25.9059 H   0  0  0  0  0  0
  -22.0602   -2.7590   23.2839 H   0  0  0  0  0  0
  -22.4035  -11.9901   22.4824 H   0  0  0  0  0  0
  -21.1061  -13.1263   22.2582 H   0  0  0  0  0  0
  -24.6477  -15.8422   20.5274 H   0  0  0  0  0  0
  -26.2705  -15.6421   20.1060 H   0  0  0  0  0  0
  -26.7213  -32.5421   23.1095 H   0  0  0  0  0  0
  -25.0011  -33.9703   25.0380 H   0  0  0  0  0  0
  -22.7240  -31.2986   21.3901 H   0  0  0  0  0  0
  -23.3737  -35.9610   23.3283 H   0  0  0  0  0  0
  -24.3562  -36.8939   22.2058 H   0  0  0  0  0  0
  -23.7205  -37.6473   23.6687 H   0  0  0  0  0  0
  -26.1018  -31.5354   20.5973 H   0  0  0  0  0  0
  -26.8519  -30.8360   21.9979 H   0  0  0  0  0  0
  -28.1246  -28.9543   21.1948 H   0  0  0  0  0  0
  -25.9957  -25.8737   19.0581 H   0  0  0  0  0  0
  -23.9779  -27.2784   19.0307 H   0  0  0  0  0  0
  -23.7847  -30.5856   19.4019 H   0  0  0  0  0  0
  -22.7675  -29.2486   19.8431 H   0  0  0  0  0  0
  -25.1261  -36.1920   25.0822 H   0  0  0  0  0  0
  -21.0008  -28.3307   24.1386 H   0  0  0  0  0  0
  -20.5668  -26.2327   23.3628 H   0  0  0  0  0  0
  -21.6651  -26.7437   22.1224 H   0  0  0  0  0  0
  -19.6917  -25.6308   21.1253 H   0  0  0  0  0  0
  -19.6690  -27.3200   20.6738 H   0  0  0  0  0  0
  -17.4199  -26.6691   21.4038 H   0  0  0  0  0  0
  -18.0329  -26.0096   22.9032 H   0  0  0  0  0  0
  -19.7944  -30.7266   24.2316 H   0  0  0  0  0  0
  -17.5027  -31.6275   24.5183 H   0  0  0  0  0  0
  -15.5366  -30.3023   23.7627 H   0  0  0  0  0  0
  -15.8679  -28.0843   22.7068 H   0  0  0  0  0  0
  -24.5832  -30.7173   25.7783 H   0  0  0  0  0  0
  -24.8961  -32.2965   26.4906 H   0  0  0  0  0  0
  -25.8013  -30.8907   27.0231 H   0  0  0  0  0  0
  -26.2917  -29.6794   24.1184 H   0  0  0  0  0  0
  -27.3940  -29.7239   25.4726 H   0  0  0  0  0  0
  -27.8809  -30.4281   23.9493 H   0  0  0  0  0  0
  -27.2642  -33.3637   26.2078 H   0  0  0  0  0  0
  -28.3874  -32.6882   25.0384 H   0  0  0  0  0  0
  -28.0673  -31.8478   26.5471 H   0  0  0  0  0  0
  -28.2561  -38.0115   24.7512 H   0  0  0  0  0  0
  -28.1075  -36.2653   24.6245 H   0  0  0  0  0  0
  -27.2306  -37.1418   25.8864 H   0  0  0  0  0  0
  -20.9388  -29.8771   21.6847 H   0  0  0  0  0  0
  -26.0138  -38.2848   24.1434 H   0  0  0  0  0  0
  -29.0330  -18.5144   21.3946 H   0  0  0  0  0  0
  -28.1905  -25.0561   17.9445 H   0  0  0  0  0  0
  -28.9112  -23.4357   17.5182 H   0  0  0  0  0  0
  -28.3825  -23.0230   22.6721 H   0  0  0  0  0  0
  -29.9072  -23.5518   23.3445 H   0  0  0  0  0  0
  -30.0403  -25.4206   21.7389 H   0  0  0  0  0  0
  -28.5949  -25.5316   22.7016 H   0  0  0  0  0  0
  -30.4199  -21.7418   21.7788 H   0  0  0  0  0  0
  -31.0185  -23.2284   21.1115 H   0  0  0  0  0  0
  -27.2003  -24.7834   20.9149 H   0  0  0  0  0  0
  -28.6327  -21.3506   17.4489 H   0  0  0  0  0  0
  -29.7757  -20.7671   16.3235 H   0  0  0  0  0  0
  -30.3741  -21.6971   17.6795 H   0  0  0  0  0  0
  -31.4034  -19.3296   16.1079 H   0  0  0  0  0  0
  -29.9272  -18.5173   15.5435 H   0  0  0  0  0  0
  -31.3484  -17.6065   16.0594 H   0  0  0  0  0  0
  -29.8407  -16.1025   16.5520 H   0  0  0  0  0  0
  -29.3001  -15.3348   17.9825 H   0  0  0  0  0  0
  -31.0544  -15.4587   17.6616 H   0  0  0  0  0  0
  -28.2118  -20.9571   21.1597 H   0  0  0  0  0  0
  -27.6795  -21.2531   19.5641 H   0  0  0  0  0  0
  -28.8942  -15.7337   21.0132 H   0  0  0  0  0  0
  -30.0314  -22.3103   19.4654 H   0  0  0  0  0  0
  1 25  1  0  0  0
  1 30  2  0  0  0
  1 87  1  0  0  0
  2  3  1  0  0  0
  2 25  1  0  0  0
  2 89  1  0  0  0
  2 90  1  0  0  0
  3  4  1  0  0  0
  3 91  1  0  0  0
  3 92  1  0  0  0
  4  5  1  0  0  0
  4 93  1  0  0  0
  4 94  1  0  0  0
  5  6  1  0  0  0
  5 26  1  0  0  0
  5 95  1  0  0  0
  6 25  1  0  0  0
  6 96  1  0  0  0
  6 97  1  0  0  0
  7  8  2  0  0  0
  7 26  1  0  0  0
  7 29  1  0  0  0
  8  9  1  0  0  0
  8 22  1  0  0  0
  9 10  1  0  0  0
  9 27  2  0  0  0
 10 11  2  0  0  0
 10 15  1  0  0  0
 11 12  1  0  0  0
 11 98  1  0  0  0
 12 13  2  0  0  0
 12 99  1  0  0  0
 13 14  1  0  0  0
 13 31  1  0  0  0
 14 15  2  0  0  0
 14100  1  0  0  0
 15101  1  0  0  0
 16 17  2  0  0  0
 16 21  1  0  0  0
 16 31  1  0  0  0
 17 18  1  0  0  0
 17102  1  0  0  0
 18 19  2  0  0  0
 18103  1  0  0  0
 19 20  1  0  0  0
 19 24  1  0  0  0
 20 21  2  0  0  0
 20104  1  0  0  0
 21 23  1  0  0  0
 22 28  1  0  0  0
 22 32  2  0  0  0
 26 27  1  0  0  0
 28105  1  0  0  0
 28106  1  0  0  0
 29107  1  0  0  0
 29108  1  0  0  0
 33 34  1  0  0  0
 33 66  1  0  0  0
 33 70  2  0  0  0
 34 36  1  0  0  0
 34 59  1  0  0  0
 34109  1  0  0  0
 35 44  2  0  0  0
 35 45  1  0  0  0
 35 68  1  0  0  0
 36 56  1  0  0  0
 36110  1  0  0  0
 37 39  1  0  0  0
 37 47  1  0  0  0
 37 66  1  0  0  0
 37111  1  0  0  0
 38 43  2  0  0  0
 38 46  1  0  0  0
 38 47  1  0  0  0
 39 64  1  0  0  0
 39 67  2  0  0  0
 40 52  1  0  0  0
 40 53  2  0  0  0
 40 58  1  0  0  0
 41112  1  0  0  0
 41113  1  0  0  0
 41114  1  0  0  0
 41 48  1  0  0  0
 42 43  1  0  0  0
 42 66  1  0  0  0
 42115  1  0  0  0
 42116  1  0  0  0
 43 44  1  0  0  0
 44117  1  0  0  0
 45 46  2  0  0  0
 45118  1  0  0  0
 46119  1  0  0  0
 47120  1  0  0  0
 47121  1  0  0  0
 48 56  1  0  0  0
 48 65  1  0  0  0
 48122  1  0  0  0
 49 50  1  0  0  0
 49 53  1  0  0  0
 49 64  1  0  0  0
 49123  1  0  0  0
 50 51  1  0  0  0
 50124  1  0  0  0
 50125  1  0  0  0
 51 52  1  0  0  0
 51126  1  0  0  0
 51127  1  0  0  0
 52128  1  0  0  0
 52129  1  0  0  0
 53 54  1  0  0  0
 54 55  2  0  0  0
 54130  1  0  0  0
 55 57  1  0  0  0
 55131  1  0  0  0
 56 69  2  0  0  0
 57 58  2  0  0  0
 57132  1  0  0  0
 58133  1  0  0  0
 59 60  1  0  0  0
 59 61  1  0  0  0
 59 62  1  0  0  0
 60134  1  0  0  0
 60135  1  0  0  0
 60136  1  0  0  0
 61137  1  0  0  0
 61138  1  0  0  0
 61139  1  0  0  0
 62140  1  0  0  0
 62141  1  0  0  0
 62142  1  0  0  0
 63 65  1  0  0  0
 63143  1  0  0  0
 63144  1  0  0  0
 63145  1  0  0  0
 64146  1  0  0  0
 65147  1  0  0  0
 68 82  1  0  0  0
 71 72  2  0  0  0
 71 76  1  0  0  0
 71148  1  0  0  0
 72 73  1  0  0  0
 72 86  1  0  0  0
 73 74  2  0  0  0
 73 83  1  0  0  0
 74 75  1  0  0  0
 74 84  1  0  0  0
 75 76  2  0  0  0
 75 85  1  0  0  0
 76 87  1  0  0  0
 77 78  2  0  0  0
 77 82  1  0  0  0
 77 88  1  0  0  0
 78149  1  0  0  0
 78150  1  0  0  0
 79 80  1  0  0  0
 79 81  1  0  0  0
 79151  1  0  0  0
 79152  1  0  0  0
 80 82  1  0  0  0
 80153  1  0  0  0
 80154  1  0  0  0
 81 88  1  0  0  0
 81155  1  0  0  0
 81156  1  0  0  0
 82157  1  0  0  0
 83158  1  0  0  0
 83159  1  0  0  0
 83160  1  0  0  0
 84161  1  0  0  0
 84162  1  0  0  0
 84163  1  0  0  0
 85164  1  0  0  0
 85165  1  0  0  0
 85166  1  0  0  0
 86167  1  0  0  0
 86168  1  0  0  0
 86 88  1  0  0  0
 87169  1  0  0  0
 88170  1  0  0  0
M  CHG  1  88   1
M  ISO  4   1 100  68 101  82 101  87 100
M  END
> <chiral flag>
0

> <version>
0

> <s_m_source_file>
/data/baiqing/PycharmProjects/Reinvent-master-3.2/result/LINK_invent/BTK/process_docking_weight1_custom_product_contain_oxygen_bond_distance_aromatic_linkinvent_7_9_3/rearranged_h_0038.sdf

> <i_m_source_file_index>
95

> <r_mmod_Potential_Energy-OPLS-2005>
135.594635009766

> <r_mmod_Stretch_Energy-OPLS-2005>
149.572814941406

> <r_mmod_Bend_Energy-OPLS-2005>
185.561279296875

> <r_mmod_Torsional_Energy-OPLS-2005>
294.2841796875

> <r_mmod_Improper_Torsional_Energy-OPLS-2005>
7.77399444580078

> <r_mmod_Van_der_Waal_Energy-OPLS-2005>
158.688613891602

> <r_mmod_Electrostatic_Energy-OPLS-2005>
-317.445678710938

> <r_mmod_Solvation_Energy-OPLS-2005>
-433.331665039062

> <b_mmod_Minimization_Converged-OPLS-2005>
0

> <r_mmod_RMS_Derivative-OPLS-2005>
3.10233426094055

$$$$
95
                    3D
 Structure written by MMmdl.
166175  0  0  1  0            999 V2000
  -30.6029  -14.7147   20.4676 C   0  0  0  0  0  0
  -30.4284  -12.4357   19.4708 C   0  0  0  0  0  0
  -29.5080  -12.5232   18.2319 C   0  0  0  0  0  0
  -28.0299  -12.3617   18.6356 C   0  0  0  0  0  0
  -27.6471  -13.2287   19.8643 C   0  0  2  0  0  0
  -28.6925  -13.1238   20.9983 C   0  0  0  0  0  0
  -25.2540  -13.8193   20.5665 C   0  0  0  0  0  0
  -24.1807  -13.0458   20.9165 C   0  0  0  0  0  0
  -24.6368  -11.6924   20.8677 C   0  0  0  0  0  0
  -23.9005  -10.4324   21.0364 C   0  0  0  0  0  0
  -24.3585   -9.4266   21.9157 C   0  0  0  0  0  0
  -23.6276   -8.2290   22.0731 C   0  0  0  0  0  0
  -22.4276   -8.0282   21.3525 C   0  0  0  0  0  0
  -21.9874   -9.0228   20.4627 C   0  0  0  0  0  0
  -22.7168  -10.2137   20.3021 C   0  0  0  0  0  0
  -21.6858   -6.0737   22.5275 C   0  0  0  0  0  0
  -21.4027   -6.5636   23.8212 C   0  0  0  0  0  0
  -21.3688   -5.6799   24.9169 C   0  0  0  0  0  0
  -21.6051   -4.3054   24.7223 C   0  0  0  0  0  0
  -21.8803   -3.8146   23.4333 C   0  0  0  0  0  0
  -21.9205   -4.6958   22.3399 C   0  0  0  0  0  0
  -22.7848  -13.5252   21.1840 C   0  0  0  0  0  0
  -22.1652   -4.2153   21.0963 F   0  0  0  0  0  0
  -21.5642   -3.4543   25.7728 F   0  0  0  0  0  0
  -30.0008  -13.4782   20.4339 N   0  0  0  0  0  0
  -26.2957  -12.9375   20.3322 N   0  0  0  0  0  0
  -25.9305  -11.6524   20.5739 N   0  0  0  0  0  0
  -22.0494  -12.8242   22.0397 N   0  0  0  0  0  0
  -25.4302  -15.1913   20.4092 N   0  0  0  0  0  0
  -31.7538  -14.8544   20.0425 O   0  0  0  0  0  0
  -21.6648   -6.8860   21.4242 O   0  0  0  0  0  0
  -22.3552  -14.5579   20.6707 O   0  0  0  0  0  0
  -24.6324  -31.8549   23.1952 C   0  0  0  0  0  0
  -25.9158  -32.4748   23.8283 C   0  0  1  0  0  0
  -27.2150  -27.2500   20.1164 C   0  0  0  0  0  0
  -25.5971  -33.8552   24.2216 N   0  0  0  0  0  0
  -23.4283  -30.4759   21.5387 C   0  0  2  0  0  0
  -24.8735  -28.9233   20.1052 C   0  0  0  0  0  0
  -22.7505  -29.4598   22.4892 C   0  0  0  0  0  0
  -18.0320  -28.1388   22.8470 C   0  0  0  0  0  0
  -24.1526  -36.7296   23.2643 C   0  0  0  0  0  0
  -25.9753  -30.7586   21.3804 C   0  0  0  0  0  0
  -26.0441  -29.3832   20.7178 C   0  0  0  0  0  0
  -27.2149  -28.5601   20.7114 C   0  0  0  0  0  0
  -26.0140  -26.8568   19.4833 C   0  0  0  0  0  0
  -24.8647  -27.6712   19.4757 C   0  0  0  0  0  0
  -23.6461  -29.8098   20.1536 C   0  0  0  0  0  0
  -25.4152  -36.3060   24.0314 C   0  0  1  0  0  0
  -20.5911  -28.3707   23.1275 C   0  0  2  0  0  0
  -20.6830  -26.9429   22.5405 C   0  0  0  0  0  0
  -19.5799  -26.6367   21.5229 C   0  0  0  0  0  0
  -18.1970  -26.7926   22.1608 C   0  0  0  0  0  0
  -19.1564  -28.8870   23.2875 C   0  0  0  0  0  0
  -18.9483  -30.1473   23.8891 C   0  0  0  0  0  0
  -17.6486  -30.6592   24.0560 C   0  0  0  0  0  0
  -25.9082  -34.9438   23.5062 C   0  0  0  0  0  0
  -16.5380  -29.9082   23.6336 C   0  0  0  0  0  0
  -16.7303  -28.6503   23.0334 C   0  0  0  0  0  0
  -26.4507  -31.6612   25.0701 C   0  0  0  0  0  0
  -25.3690  -31.3776   26.1389 C   0  0  0  0  0  0
  -27.0374  -30.3038   24.6218 C   0  0  0  0  0  0
  -27.6040  -32.4385   25.7458 C   0  0  0  0  0  0
  -27.5605  -37.1807   24.8462 C   0  0  0  0  0  0
  -21.4211  -29.3060   22.3659 N   0  0  0  0  0  0
  -26.4327  -37.3751   23.9395 N   0  0  0  0  0  0
  -24.6975  -31.0492   22.0942 N   0  0  0  0  0  0
  -23.4216  -28.8138   23.2989 O   0  0  0  0  0  0
  -28.3331  -26.3840   20.2056 O   0  0  0  0  0  0
  -26.5624  -34.8908   22.4612 O   0  0  0  0  0  0
  -23.5479  -32.1366   23.7254 O   0  0  0  0  0  0
  -29.5050  -18.4024   20.6873 C   0  0  0  0  0  0
  -29.1119  -16.9241   18.8102 C   0  0  0  0  0  0
  -28.9622  -19.5580   19.9840 C   0  0  0  0  0  0
  -28.5441  -17.9971   18.0886 C   0  0  0  0  0  0
  -28.3954  -19.2851   18.6972 C   0  0  0  0  0  0
  -29.5563  -17.0601   20.1365 C   0  0  0  0  0  0
  -29.8929  -23.6650   18.0297 C   0  0  0  0  0  0
  -29.6647  -25.0111   18.7459 C   0  0  0  0  0  0
  -30.0729  -22.4997   19.0228 C   0  0  0  0  0  0
  -28.5323  -23.6687   20.5804 C   0  0  0  0  0  0
  -28.4119  -24.9865   19.6401 C   0  0  1  0  0  0
  -27.5537  -20.3428   17.9820 C   0  0  0  0  0  0
  -28.8867  -21.0141   20.6754 C   0  0  0  0  0  0
  -28.0499  -17.6950   16.6634 C   0  0  0  0  0  0
  -29.8602  -15.8120   20.8740 N   0  0  0  0  0  0
  -28.8615  -22.3320   19.8652 N   0  3  2  0  0  0
  -28.5618  -16.5550   16.1906 F   0  0  0  0  0  0
  -26.7212  -17.5738   16.6434 F   0  0  0  0  0  0
  -28.4095  -18.6635   15.8192 F   0  0  0  0  0  0
  -31.4707  -12.5552   19.1715 H   0  0  0  0  0  0
  -30.3631  -11.4461   19.9258 H   0  0  0  0  0  0
  -29.7797  -11.7606   17.5030 H   0  0  0  0  0  0
  -29.6544  -13.4808   17.7315 H   0  0  0  0  0  0
  -27.8613  -11.3078   18.8567 H   0  0  0  0  0  0
  -27.3759  -12.6005   17.7953 H   0  0  0  0  0  0
  -27.6530  -14.2603   19.5149 H   0  0  0  0  0  0
  -28.7235  -12.1110   21.4032 H   0  0  0  0  0  0
  -28.4310  -13.7750   21.8326 H   0  0  0  0  0  0
  -25.2726   -9.5778   22.4738 H   0  0  0  0  0  0
  -24.0019   -7.4690   22.7426 H   0  0  0  0  0  0
  -21.0805   -8.8660   19.8939 H   0  0  0  0  0  0
  -22.3547  -10.9631   19.6120 H   0  0  0  0  0  0
  -21.2011   -7.6144   23.9714 H   0  0  0  0  0  0
  -21.1537   -6.0522   25.9070 H   0  0  0  0  0  0
  -22.0569   -2.7601   23.2817 H   0  0  0  0  0  0
  -22.4103  -11.9852   22.4684 H   0  0  0  0  0  0
  -21.1123  -13.1249   22.2651 H   0  0  0  0  0  0
  -24.6664  -15.8490   20.5131 H   0  0  0  0  0  0
  -26.2836  -15.6226   20.0785 H   0  0  0  0  0  0
  -26.7202  -32.5358   23.0992 H   0  0  0  0  0  0
  -25.0191  -33.9710   25.0409 H   0  0  0  0  0  0
  -22.7265  -31.2987   21.3886 H   0  0  0  0  0  0
  -23.3801  -35.9620   23.3256 H   0  0  0  0  0  0
  -24.3618  -36.8955   22.2065 H   0  0  0  0  0  0
  -23.7254  -37.6473   23.6697 H   0  0  0  0  0  0
  -26.1273  -31.5206   20.6146 H   0  0  0  0  0  0
  -26.8518  -30.7973   22.0173 H   0  0  0  0  0  0
  -28.1123  -28.9105   21.2009 H   0  0  0  0  0  0
  -25.8995  -25.8973   19.0039 H   0  0  0  0  0  0
  -23.9667  -27.3124   18.9930 H   0  0  0  0  0  0
  -23.7727  -30.5864   19.3979 H   0  0  0  0  0  0
  -22.7644  -29.2426   19.8464 H   0  0  0  0  0  0
  -25.1345  -36.1879   25.0802 H   0  0  0  0  0  0
  -21.0013  -28.3279   24.1392 H   0  0  0  0  0  0
  -20.5806  -26.2305   23.3604 H   0  0  0  0  0  0
  -21.6682  -26.7492   22.1136 H   0  0  0  0  0  0
  -19.6983  -25.6269   21.1289 H   0  0  0  0  0  0
  -19.6766  -27.3163   20.6747 H   0  0  0  0  0  0
  -17.4259  -26.6705   21.3989 H   0  0  0  0  0  0
  -18.0350  -26.0066   22.8988 H   0  0  0  0  0  0
  -19.7960  -30.7302   24.2222 H   0  0  0  0  0  0
  -17.5031  -31.6261   24.5159 H   0  0  0  0  0  0
  -15.5373  -30.2979   23.7674 H   0  0  0  0  0  0
  -15.8687  -28.0830   22.7035 H   0  0  0  0  0  0
  -24.5844  -30.7187   25.7650 H   0  0  0  0  0  0
  -24.8933  -32.2973   26.4808 H   0  0  0  0  0  0
  -25.7946  -30.8887   27.0160 H   0  0  0  0  0  0
  -26.2974  -29.6764   24.1255 H   0  0  0  0  0  0
  -27.4073  -29.7318   25.4736 H   0  0  0  0  0  0
  -27.8820  -30.4331   23.9453 H   0  0  0  0  0  0
  -27.2636  -33.3701   26.1987 H   0  0  0  0  0  0
  -28.3849  -32.6935   25.0282 H   0  0  0  0  0  0
  -28.0720  -31.8562   26.5403 H   0  0  0  0  0  0
  -28.2579  -38.0150   24.7524 H   0  0  0  0  0  0
  -28.1141  -36.2665   24.6261 H   0  0  0  0  0  0
  -27.2315  -37.1394   25.8865 H   0  0  0  0  0  0
  -20.9416  -29.8742   21.6812 H   0  0  0  0  0  0
  -26.0202  -38.2819   24.1384 H   0  0  0  0  0  0
  -29.8558  -18.5466   21.7017 H   0  0  0  0  0  0
  -29.1361  -15.9467   18.3505 H   0  0  0  0  0  0
  -30.7754  -23.7398   17.3929 H   0  0  0  0  0  0
  -29.0547  -23.4549   17.3631 H   0  0  0  0  0  0
  -29.5705  -25.8039   18.0038 H   0  0  0  0  0  0
  -30.5365  -25.2593   19.3527 H   0  0  0  0  0  0
  -30.9396  -22.6785   19.6616 H   0  0  0  0  0  0
  -30.2891  -21.5795   18.4745 H   0  0  0  0  0  0
  -27.6044  -23.5530   21.1392 H   0  0  0  0  0  0
  -29.3054  -23.8463   21.3293 H   0  0  0  0  0  0
  -27.5867  -24.8005   18.9617 H   0  0  0  0  0  0
  -27.0065  -20.9654   18.6886 H   0  0  0  0  0  0
  -26.7736  -19.8951   17.3666 H   0  0  0  0  0  0
  -28.1644  -20.9637   17.3254 H   0  0  0  0  0  0
  -29.7197  -21.0825   21.3768 H   0  0  0  0  0  0
  -27.9893  -21.0057   21.2934 H   0  0  0  0  0  0
  -29.1238  -15.5542   21.5153 H   0  0  0  0  0  0
  -28.0965  -22.1882   19.2233 H   0  0  0  0  0  0
  1 25  1  0  0  0
  1 30  2  0  0  0
  1 85  1  0  0  0
  2  3  1  0  0  0
  2 25  1  0  0  0
  2 90  1  0  0  0
  2 91  1  0  0  0
  3  4  1  0  0  0
  3 92  1  0  0  0
  3 93  1  0  0  0
  4  5  1  0  0  0
  4 94  1  0  0  0
  4 95  1  0  0  0
  5  6  1  0  0  0
  5 26  1  0  0  0
  5 96  1  0  0  0
  6 25  1  0  0  0
  6 97  1  0  0  0
  6 98  1  0  0  0
  7  8  2  0  0  0
  7 26  1  0  0  0
  7 29  1  0  0  0
  8  9  1  0  0  0
  8 22  1  0  0  0
  9 10  1  0  0  0
  9 27  2  0  0  0
 10 11  2  0  0  0
 10 15  1  0  0  0
 11 12  1  0  0  0
 11 99  1  0  0  0
 12 13  2  0  0  0
 12100  1  0  0  0
 13 14  1  0  0  0
 13 31  1  0  0  0
 14 15  2  0  0  0
 14101  1  0  0  0
 15102  1  0  0  0
 16 17  2  0  0  0
 16 21  1  0  0  0
 16 31  1  0  0  0
 17 18  1  0  0  0
 17103  1  0  0  0
 18 19  2  0  0  0
 18104  1  0  0  0
 19 20  1  0  0  0
 19 24  1  0  0  0
 20 21  2  0  0  0
 20105  1  0  0  0
 21 23  1  0  0  0
 22 28  1  0  0  0
 22 32  2  0  0  0
 26 27  1  0  0  0
 28106  1  0  0  0
 28107  1  0  0  0
 29108  1  0  0  0
 29109  1  0  0  0
 33 34  1  0  0  0
 33 66  1  0  0  0
 33 70  2  0  0  0
 34 36  1  0  0  0
 34 59  1  0  0  0
 34110  1  0  0  0
 35 44  2  0  0  0
 35 45  1  0  0  0
 35 68  1  0  0  0
 36 56  1  0  0  0
 36111  1  0  0  0
 37 39  1  0  0  0
 37 47  1  0  0  0
 37 66  1  0  0  0
 37112  1  0  0  0
 38 43  2  0  0  0
 38 46  1  0  0  0
 38 47  1  0  0  0
 39 64  1  0  0  0
 39 67  2  0  0  0
 40 52  1  0  0  0
 40 53  2  0  0  0
 40 58  1  0  0  0
 41113  1  0  0  0
 41114  1  0  0  0
 41115  1  0  0  0
 41 48  1  0  0  0
 42 43  1  0  0  0
 42 66  1  0  0  0
 42116  1  0  0  0
 42117  1  0  0  0
 43 44  1  0  0  0
 44118  1  0  0  0
 45 46  2  0  0  0
 45119  1  0  0  0
 46120  1  0  0  0
 47121  1  0  0  0
 47122  1  0  0  0
 48 56  1  0  0  0
 48 65  1  0  0  0
 48123  1  0  0  0
 49 50  1  0  0  0
 49 53  1  0  0  0
 49 64  1  0  0  0
 49124  1  0  0  0
 50 51  1  0  0  0
 50125  1  0  0  0
 50126  1  0  0  0
 51 52  1  0  0  0
 51127  1  0  0  0
 51128  1  0  0  0
 52129  1  0  0  0
 52130  1  0  0  0
 53 54  1  0  0  0
 54 55  2  0  0  0
 54131  1  0  0  0
 55 57  1  0  0  0
 55132  1  0  0  0
 56 69  2  0  0  0
 57 58  2  0  0  0
 57133  1  0  0  0
 58134  1  0  0  0
 59 60  1  0  0  0
 59 61  1  0  0  0
 59 62  1  0  0  0
 60135  1  0  0  0
 60136  1  0  0  0
 60137  1  0  0  0
 61138  1  0  0  0
 61139  1  0  0  0
 61140  1  0  0  0
 62141  1  0  0  0
 62142  1  0  0  0
 62143  1  0  0  0
 63 65  1  0  0  0
 63144  1  0  0  0
 63145  1  0  0  0
 63146  1  0  0  0
 64147  1  0  0  0
 65148  1  0  0  0
 68 81  1  0  0  0
 71 73  2  0  0  0
 71 76  1  0  0  0
 71149  1  0  0  0
 72 74  1  0  0  0
 72 76  2  0  0  0
 72150  1  0  0  0
 73 75  1  0  0  0
 73 83  1  0  0  0
 74 75  2  0  0  0
 74 84  1  0  0  0
 75 82  1  0  0  0
 76 85  1  0  0  0
 77 78  1  0  0  0
 77 79  1  0  0  0
 77151  1  0  0  0
 77152  1  0  0  0
 78 81  1  0  0  0
 78153  1  0  0  0
 78154  1  0  0  0
 79 86  1  0  0  0
 79155  1  0  0  0
 79156  1  0  0  0
 80 81  1  0  0  0
 80 86  1  0  0  0
 80157  1  0  0  0
 80158  1  0  0  0
 81159  1  0  0  0
 82160  1  0  0  0
 82161  1  0  0  0
 82162  1  0  0  0
 83163  1  0  0  0
 83164  1  0  0  0
 83 86  1  0  0  0
 84 87  1  0  0  0
 84 88  1  0  0  0
 84 89  1  0  0  0
 85165  1  0  0  0
 86166  1  0  0  0
M  CHG  1  86   1
M  ISO  4   1 100  68 101  81 101  85 100
M  END
> <chiral flag>
0

> <version>
0

> <s_m_source_file>
/data/baiqing/PycharmProjects/Reinvent-master-3.2/result/LINK_invent/BTK/process_docking_weight1_custom_product_contain_oxygen_bond_distance_aromatic_linkinvent_7_9_3/rearranged_h_0038.sdf

> <i_m_source_file_index>
96

> <r_mmod_Potential_Energy-OPLS-2005>
178.73405456543

> <r_mmod_Stretch_Energy-OPLS-2005>
132.515182495117

> <r_mmod_Bend_Energy-OPLS-2005>
180.322311401367

> <r_mmod_Torsional_Energy-OPLS-2005>
279.505035400391

> <r_mmod_Improper_Torsional_Energy-OPLS-2005>
6.44999313354492

> <r_mmod_Van_der_Waal_Energy-OPLS-2005>
142.684371948242

> <r_mmod_Electrostatic_Energy-OPLS-2005>
-195.76579284668

> <r_mmod_Solvation_Energy-OPLS-2005>
-445.647583007812

> <b_mmod_Minimization_Converged-OPLS-2005>
0

> <r_mmod_RMS_Derivative-OPLS-2005>
3.99334311485291

$$$$
