0
                    3D
 Structure written by MMmdl.
162171  0  0  1  0            999 V2000
  -30.5258  -14.8255   20.4426 C   0  0  0  0  0  0
  -30.4425  -12.5011   19.4965 C   0  0  0  0  0  0
  -29.5228  -12.5253   18.2555 C   0  0  0  0  0  0
  -28.0449  -12.3368   18.6583 C   0  0  0  0  0  0
  -27.6364  -13.2339   19.8596 C   0  0  2  0  0  0
  -28.6769  -13.1674   20.9990 C   0  0  0  0  0  0
  -25.2414  -13.8075   20.5820 C   0  0  0  0  0  0
  -24.1685  -13.0300   20.9214 C   0  0  0  0  0  0
  -24.6335  -11.6815   20.8696 C   0  0  0  0  0  0
  -23.9057  -10.4208   21.0385 C   0  0  0  0  0  0
  -24.3601   -9.4164   21.9176 C   0  0  0  0  0  0
  -23.6296   -8.2194   22.0744 C   0  0  0  0  0  0
  -22.4280   -8.0232   21.3537 C   0  0  0  0  0  0
  -21.9902   -9.0222   20.4621 C   0  0  0  0  0  0
  -22.7218  -10.2086   20.3050 C   0  0  0  0  0  0
  -21.6832   -6.0718   22.5302 C   0  0  0  0  0  0
  -21.4017   -6.5625   23.8237 C   0  0  0  0  0  0
  -21.3668   -5.6780   24.9184 C   0  0  0  0  0  0
  -21.6042   -4.3053   24.7234 C   0  0  0  0  0  0
  -21.8823   -3.8146   23.4339 C   0  0  0  0  0  0
  -21.9193   -4.6961   22.3404 C   0  0  0  0  0  0
  -22.7734  -13.5143   21.1893 C   0  0  0  0  0  0
  -22.1653   -4.2160   21.0988 F   0  0  0  0  0  0
  -21.5642   -3.4521   25.7739 F   0  0  0  0  0  0
  -29.9726  -13.5596   20.4246 N   0  0  0  0  0  0
  -26.2880  -12.9361   20.3317 N   0  0  0  0  0  0
  -25.9289  -11.6499   20.5718 N   0  0  0  0  0  0
  -22.0365  -12.8172   22.0473 N   0  0  0  0  0  0
  -25.4056  -15.1828   20.4660 N   0  0  0  0  0  0
  -31.7025  -14.9737   20.0909 O   0  0  0  0  0  0
  -21.6594   -6.8843   21.4258 O   0  0  0  0  0  0
  -22.3496  -14.5489   20.6746 O   0  0  0  0  0  0
  -24.6305  -31.8522   23.1955 C   0  0  0  0  0  0
  -25.9121  -32.4708   23.8303 C   0  0  1  0  0  0
  -27.2263  -27.2436   20.1528 C   0  0  0  0  0  0
  -25.5918  -33.8519   24.2243 N   0  0  0  0  0  0
  -23.4283  -30.4692   21.5366 C   0  0  2  0  0  0
  -24.8813  -28.9068   20.1175 C   0  0  0  0  0  0
  -22.7492  -29.4568   22.4900 C   0  0  0  0  0  0
  -18.0297  -28.1359   22.8489 C   0  0  0  0  0  0
  -24.1493  -36.7287   23.2639 C   0  0  0  0  0  0
  -25.9753  -30.7618   21.3787 C   0  0  0  0  0  0
  -26.0509  -29.3809   20.7242 C   0  0  0  0  0  0
  -27.2287  -28.5634   20.7259 C   0  0  0  0  0  0
  -26.0358  -26.8305   19.5244 C   0  0  0  0  0  0
  -24.8794  -27.6391   19.5063 C   0  0  0  0  0  0
  -23.6510  -29.7942   20.1559 C   0  0  0  0  0  0
  -25.4108  -36.3044   24.0328 C   0  0  1  0  0  0
  -20.5890  -28.3679   23.1251 C   0  0  2  0  0  0
  -20.6780  -26.9383   22.5416 C   0  0  0  0  0  0
  -19.5763  -26.6370   21.5201 C   0  0  0  0  0  0
  -18.1941  -26.7909   22.1599 C   0  0  0  0  0  0
  -19.1541  -28.8842   23.2875 C   0  0  0  0  0  0
  -18.9469  -30.1450   23.8897 C   0  0  0  0  0  0
  -17.6463  -30.6588   24.0546 C   0  0  0  0  0  0
  -25.9052  -34.9394   23.5074 C   0  0  0  0  0  0
  -16.5366  -29.9083   23.6306 C   0  0  0  0  0  0
  -16.7270  -28.6484   23.0345 C   0  0  0  0  0  0
  -26.4475  -31.6521   25.0714 C   0  0  0  0  0  0
  -25.3715  -31.3772   26.1472 C   0  0  0  0  0  0
  -27.0246  -30.2893   24.6198 C   0  0  0  0  0  0
  -27.6058  -32.4219   25.7482 C   0  0  0  0  0  0
  -27.5567  -37.1801   24.8450 C   0  0  0  0  0  0
  -21.4215  -29.3039   22.3664 N   0  0  0  0  0  0
  -26.4275  -37.3738   23.9403 N   0  0  0  0  0  0
  -24.6958  -31.0484   22.0921 N   0  0  0  0  0  0
  -23.4186  -28.8100   23.3016 O   0  0  0  0  0  0
  -28.3417  -26.3748   20.1181 O   0  0  0  0  0  0
  -26.5631  -34.8878   22.4656 O   0  0  0  0  0  0
  -23.5457  -32.1347   23.7257 O   0  0  0  0  0  0
  -28.9254  -19.9035   19.0181 C   0  0  0  0  0  0
  -29.6249  -18.5590   20.9291 C   0  0  0  0  0  0
  -29.1032  -17.4356   18.8572 C   0  0  0  0  0  0
  -29.3517  -19.8913   20.3572 C   0  0  0  0  0  0
  -28.7892  -18.6985   18.2903 C   0  0  0  0  0  0
  -29.5435  -17.2951   20.1980 C   0  0  0  0  0  0
  -29.7075  -21.2197   21.0545 C   0  0  0  0  0  0
  -29.8826  -24.9904   21.2387 C   0  0  0  0  0  0
  -30.1651  -23.5665   21.7335 C   0  0  0  0  0  0
  -28.3852  -23.5313   20.1690 C   0  0  0  0  0  0
  -28.4137  -25.0354   20.8306 C   0  0  1  0  0  0
  -27.5294  -25.1117   22.0972 C   0  0  0  0  0  0
  -29.3546  -22.6015   20.9416 N   0  0  0  0  0  0
  -28.3415  -18.7696   16.9697 N   0  0  0  0  0  0
  -29.6947  -15.9060   20.7595 N   0  0  0  0  0  0
  -30.6489  -20.9625   21.9637 N   0  3  0  0  0  0
  -31.4794  -12.6525   19.2058 H   0  0  0  0  0  0
  -30.4188  -11.5244   19.9841 H   0  0  0  0  0  0
  -29.8189  -11.7481   17.5529 H   0  0  0  0  0  0
  -29.6359  -13.4777   17.7326 H   0  0  0  0  0  0
  -27.9002  -11.2875   18.9141 H   0  0  0  0  0  0
  -27.3943  -12.5317   17.8038 H   0  0  0  0  0  0
  -27.6147  -14.2542   19.4802 H   0  0  0  0  0  0
  -28.7296  -12.1552   21.4186 H   0  0  0  0  0  0
  -28.3936  -13.8263   21.8246 H   0  0  0  0  0  0
  -25.2753   -9.5656   22.4697 H   0  0  0  0  0  0
  -24.0035   -7.4595   22.7455 H   0  0  0  0  0  0
  -21.0817   -8.8700   19.8924 H   0  0  0  0  0  0
  -22.3689  -10.9596   19.6145 H   0  0  0  0  0  0
  -21.2001   -7.6140   23.9750 H   0  0  0  0  0  0
  -21.1503   -6.0481   25.9079 H   0  0  0  0  0  0
  -22.0606   -2.7605   23.2827 H   0  0  0  0  0  0
  -22.3904  -11.9836   22.4890 H   0  0  0  0  0  0
  -21.0998  -13.1210   22.2677 H   0  0  0  0  0  0
  -24.6542  -15.7713   20.8105 H   0  0  0  0  0  0
  -26.3189  -15.6126   20.5521 H   0  0  0  0  0  0
  -26.7199  -32.5365   23.1066 H   0  0  0  0  0  0
  -25.0043  -33.9668   25.0374 H   0  0  0  0  0  0
  -22.7270  -31.2916   21.3846 H   0  0  0  0  0  0
  -23.3731  -35.9643   23.3305 H   0  0  0  0  0  0
  -24.3584  -36.8924   22.2047 H   0  0  0  0  0  0
  -23.7281  -37.6506   23.6666 H   0  0  0  0  0  0
  -26.1139  -31.5206   20.6070 H   0  0  0  0  0  0
  -26.8512  -30.8095   22.0171 H   0  0  0  0  0  0
  -28.1264  -28.9299   21.1994 H   0  0  0  0  0  0
  -26.0028  -25.8570   19.0530 H   0  0  0  0  0  0
  -23.9865  -27.2688   19.0237 H   0  0  0  0  0  0
  -23.7775  -30.5656   19.3957 H   0  0  0  0  0  0
  -22.7723  -29.2210   19.8538 H   0  0  0  0  0  0
  -25.1305  -36.1879   25.0819 H   0  0  0  0  0  0
  -20.9954  -28.3228   24.1365 H   0  0  0  0  0  0
  -20.5589  -26.2279   23.3621 H   0  0  0  0  0  0
  -21.6656  -26.7371   22.1226 H   0  0  0  0  0  0
  -19.6897  -25.6275   21.1241 H   0  0  0  0  0  0
  -19.6692  -27.3164   20.6716 H   0  0  0  0  0  0
  -17.4190  -26.6639   21.4028 H   0  0  0  0  0  0
  -18.0357  -26.0077   22.9017 H   0  0  0  0  0  0
  -19.7957  -30.7265   24.2249 H   0  0  0  0  0  0
  -17.5031  -31.6257   24.5160 H   0  0  0  0  0  0
  -15.5357  -30.2973   23.7669 H   0  0  0  0  0  0
  -15.8670  -28.0812   22.7043 H   0  0  0  0  0  0
  -24.9100  -32.3030   26.4935 H   0  0  0  0  0  0
  -25.8001  -30.8860   27.0209 H   0  0  0  0  0  0
  -24.5747  -30.7255   25.7831 H   0  0  0  0  0  0
  -26.2804  -29.6713   24.1204 H   0  0  0  0  0  0
  -27.3844  -29.7169   25.4753 H   0  0  0  0  0  0
  -27.8791  -30.4070   23.9510 H   0  0  0  0  0  0
  -27.2687  -33.3617   26.1908 H   0  0  0  0  0  0
  -28.3956  -32.6620   25.0363 H   0  0  0  0  0  0
  -28.0590  -31.8413   26.5508 H   0  0  0  0  0  0
  -28.2563  -38.0111   24.7468 H   0  0  0  0  0  0
  -28.1078  -36.2635   24.6293 H   0  0  0  0  0  0
  -27.2297  -37.1473   25.8858 H   0  0  0  0  0  0
  -20.9385  -29.8797   21.6925 H   0  0  0  0  0  0
  -26.0160  -38.2826   24.1380 H   0  0  0  0  0  0
  -28.7143  -20.8543   18.5531 H   0  0  0  0  0  0
  -29.9197  -18.4973   21.9678 H   0  0  0  0  0  0
  -28.9660  -16.5469   18.2552 H   0  0  0  0  0  0
  -30.5206  -25.2002   20.3802 H   0  0  0  0  0  0
  -30.1211  -25.7301   22.0020 H   0  0  0  0  0  0
  -29.9094  -23.4745   22.7907 H   0  0  0  0  0  0
  -31.2371  -23.3736   21.6319 H   0  0  0  0  0  0
  -28.6974  -23.5853   19.1252 H   0  0  0  0  0  0
  -27.3663  -23.1377   20.1742 H   0  0  0  0  0  0
  -27.6652  -24.2502   22.7512 H   0  0  0  0  0  0
  -26.4713  -25.1491   21.8435 H   0  0  0  0  0  0
  -27.7560  -26.0000   22.6850 H   0  0  0  0  0  0
  -27.8725  -19.6200   16.6747 H   0  0  0  0  0  0
  -27.8908  -17.9447   16.5825 H   0  0  0  0  0  0
  -28.8419  -15.5684   21.1730 H   0  0  0  0  0  0
  -31.0332  -20.0310   21.9858 H   0  0  0  0  0  0
  -31.0185  -21.6550   22.5887 H   0  0  0  0  0  0
  1 25  1  0  0  0
  1 30  2  0  0  0
  1 85  1  0  0  0
  2  3  1  0  0  0
  2 25  1  0  0  0
  2 87  1  0  0  0
  2 88  1  0  0  0
  3  4  1  0  0  0
  3 89  1  0  0  0
  3 90  1  0  0  0
  4  5  1  0  0  0
  4 91  1  0  0  0
  4 92  1  0  0  0
  5  6  1  0  0  0
  5 26  1  0  0  0
  5 93  1  0  0  0
  6 25  1  0  0  0
  6 94  1  0  0  0
  6 95  1  0  0  0
  7  8  2  0  0  0
  7 26  1  0  0  0
  7 29  1  0  0  0
  8  9  1  0  0  0
  8 22  1  0  0  0
  9 10  1  0  0  0
  9 27  2  0  0  0
 10 11  2  0  0  0
 10 15  1  0  0  0
 11 12  1  0  0  0
 11 96  1  0  0  0
 12 13  2  0  0  0
 12 97  1  0  0  0
 13 14  1  0  0  0
 13 31  1  0  0  0
 14 15  2  0  0  0
 14 98  1  0  0  0
 15 99  1  0  0  0
 16 17  2  0  0  0
 16 21  1  0  0  0
 16 31  1  0  0  0
 17 18  1  0  0  0
 17100  1  0  0  0
 18 19  2  0  0  0
 18101  1  0  0  0
 19 20  1  0  0  0
 19 24  1  0  0  0
 20 21  2  0  0  0
 20102  1  0  0  0
 21 23  1  0  0  0
 22 28  1  0  0  0
 22 32  2  0  0  0
 26 27  1  0  0  0
 28103  1  0  0  0
 28104  1  0  0  0
 29105  1  0  0  0
 29106  1  0  0  0
 33 34  1  0  0  0
 33 66  1  0  0  0
 33 70  2  0  0  0
 34 36  1  0  0  0
 34 59  1  0  0  0
 34107  1  0  0  0
 35 44  2  0  0  0
 35 45  1  0  0  0
 35 68  1  0  0  0
 36 56  1  0  0  0
 36108  1  0  0  0
 37 39  1  0  0  0
 37 47  1  0  0  0
 37 66  1  0  0  0
 37109  1  0  0  0
 38 43  2  0  0  0
 38 46  1  0  0  0
 38 47  1  0  0  0
 39 64  1  0  0  0
 39 67  2  0  0  0
 40 52  1  0  0  0
 40 53  2  0  0  0
 40 58  1  0  0  0
 41110  1  0  0  0
 41111  1  0  0  0
 41112  1  0  0  0
 41 48  1  0  0  0
 42 43  1  0  0  0
 42 66  1  0  0  0
 42113  1  0  0  0
 42114  1  0  0  0
 43 44  1  0  0  0
 44115  1  0  0  0
 45 46  2  0  0  0
 45116  1  0  0  0
 46117  1  0  0  0
 47118  1  0  0  0
 47119  1  0  0  0
 48 56  1  0  0  0
 48 65  1  0  0  0
 48120  1  0  0  0
 49 50  1  0  0  0
 49 53  1  0  0  0
 49 64  1  0  0  0
 49121  1  0  0  0
 50 51  1  0  0  0
 50122  1  0  0  0
 50123  1  0  0  0
 51 52  1  0  0  0
 51124  1  0  0  0
 51125  1  0  0  0
 52126  1  0  0  0
 52127  1  0  0  0
 53 54  1  0  0  0
 54 55  2  0  0  0
 54128  1  0  0  0
 55 57  1  0  0  0
 55129  1  0  0  0
 56 69  2  0  0  0
 57 58  2  0  0  0
 57130  1  0  0  0
 58131  1  0  0  0
 59 60  1  0  0  0
 59 61  1  0  0  0
 59 62  1  0  0  0
 60132  1  0  0  0
 60133  1  0  0  0
 60134  1  0  0  0
 61135  1  0  0  0
 61136  1  0  0  0
 61137  1  0  0  0
 62138  1  0  0  0
 62139  1  0  0  0
 62140  1  0  0  0
 63 65  1  0  0  0
 63141  1  0  0  0
 63142  1  0  0  0
 63143  1  0  0  0
 64144  1  0  0  0
 65145  1  0  0  0
 68 81  1  0  0  0
 71 74  2  0  0  0
 71 75  1  0  0  0
 71146  1  0  0  0
 72 74  1  0  0  0
 72 76  2  0  0  0
 72147  1  0  0  0
 73 75  2  0  0  0
 73 76  1  0  0  0
 73148  1  0  0  0
 74 77  1  0  0  0
 75 84  1  0  0  0
 76 85  1  0  0  0
 77 83  1  0  0  0
 77 86  2  0  0  0
 78 79  1  0  0  0
 78 81  1  0  0  0
 78149  1  0  0  0
 78150  1  0  0  0
 79 83  1  0  0  0
 79151  1  0  0  0
 79152  1  0  0  0
 80 81  1  0  0  0
 80 83  1  0  0  0
 80153  1  0  0  0
 80154  1  0  0  0
 81 82  1  0  0  0
 82155  1  0  0  0
 82156  1  0  0  0
 82157  1  0  0  0
 84158  1  0  0  0
 84159  1  0  0  0
 85160  1  0  0  0
 86161  1  0  0  0
 86162  1  0  0  0
M  CHG  1  86   1
M  ISO  4   1 100  68 101  81 101  85 100
M  END
> <chiral flag>
0

> <version>
0

> <s_m_source_file>
/data/baiqing/PycharmProjects/Reinvent-master-3.2/result/LINK_invent/BTK/process_docking_weight1_custom_product_contain_oxygen_bond_distance_aromatic_linkinvent_7_9_3/rearranged_h_0153.sdf

> <i_m_source_file_index>
1

> <r_mmod_Potential_Energy-OPLS-2005>
215.389450073242

> <r_mmod_Stretch_Energy-OPLS-2005>
160.738082885742

> <r_mmod_Bend_Energy-OPLS-2005>
285.666931152344

> <r_mmod_Torsional_Energy-OPLS-2005>
343.791107177734

> <r_mmod_Improper_Torsional_Energy-OPLS-2005>
13.0174760818481

> <r_mmod_Van_der_Waal_Energy-OPLS-2005>
143.028213500977

> <r_mmod_Electrostatic_Energy-OPLS-2005>
-410.177032470703

> <r_mmod_Solvation_Energy-OPLS-2005>
-429.711486816406

> <b_mmod_Minimization_Converged-OPLS-2005>
0

> <r_mmod_RMS_Derivative-OPLS-2005>
7.43399238586426

$$$$
1
                    3D
 Structure written by MMmdl.
155164  0  0  1  0            999 V2000
  -30.5953  -14.7984   20.4351 C   0  0  0  0  0  0
  -30.4336  -12.4849   19.4831 C   0  0  0  0  0  0
  -29.5114  -12.5207   18.2429 C   0  0  0  0  0  0
  -28.0394  -12.3356   18.6547 C   0  0  0  0  0  0
  -27.6411  -13.2374   19.8536 C   0  0  2  0  0  0
  -28.6872  -13.1885   20.9894 C   0  0  0  0  0  0
  -25.2512  -13.8205   20.5721 C   0  0  0  0  0  0
  -24.1807  -13.0444   20.9220 C   0  0  0  0  0  0
  -24.6399  -11.6923   20.8746 C   0  0  0  0  0  0
  -23.9075  -10.4295   21.0401 C   0  0  0  0  0  0
  -24.3634   -9.4207   21.9173 C   0  0  0  0  0  0
  -23.6314   -8.2241   22.0743 C   0  0  0  0  0  0
  -22.4294   -8.0273   21.3539 C   0  0  0  0  0  0
  -21.9931   -9.0241   20.4636 C   0  0  0  0  0  0
  -22.7251  -10.2127   20.3048 C   0  0  0  0  0  0
  -21.6864   -6.0744   22.5283 C   0  0  0  0  0  0
  -21.4009   -6.5653   23.8216 C   0  0  0  0  0  0
  -21.3664   -5.6799   24.9178 C   0  0  0  0  0  0
  -21.6046   -4.3060   24.7230 C   0  0  0  0  0  0
  -21.8821   -3.8158   23.4350 C   0  0  0  0  0  0
  -21.9193   -4.6969   22.3402 C   0  0  0  0  0  0
  -22.7821  -13.5212   21.1879 C   0  0  0  0  0  0
  -22.1662   -4.2156   21.0977 F   0  0  0  0  0  0
  -21.5634   -3.4544   25.7747 F   0  0  0  0  0  0
  -29.9867  -13.5565   20.4090 N   0  0  0  0  0  0
  -26.2943  -12.9415   20.3310 N   0  0  0  0  0  0
  -25.9335  -11.6552   20.5775 N   0  0  0  0  0  0
  -22.0482  -12.8172   22.0431 N   0  0  0  0  0  0
  -25.4204  -15.1929   20.4136 N   0  0  0  0  0  0
  -31.7763  -14.8870   20.0881 O   0  0  0  0  0  0
  -21.6652   -6.8876   21.4239 O   0  0  0  0  0  0
  -22.3489  -14.5510   20.6734 O   0  0  0  0  0  0
  -24.6347  -31.8523   23.1965 C   0  0  0  0  0  0
  -25.9152  -32.4743   23.8335 C   0  0  1  0  0  0
  -27.2282  -27.2248   20.1328 C   0  0  0  0  0  0
  -25.5937  -33.8549   24.2255 N   0  0  0  0  0  0
  -23.4350  -30.4720   21.5395 C   0  0  2  0  0  0
  -24.8853  -28.9148   20.1082 C   0  0  0  0  0  0
  -22.7524  -29.4580   22.4896 C   0  0  0  0  0  0
  -18.0300  -28.1392   22.8492 C   0  0  0  0  0  0
  -24.1484  -36.7267   23.2643 C   0  0  0  0  0  0
  -25.9841  -30.7505   21.3859 C   0  0  0  0  0  0
  -26.0564  -29.3696   20.7265 C   0  0  0  0  0  0
  -27.2271  -28.5371   20.7291 C   0  0  0  0  0  0
  -26.0374  -26.8607   19.4623 C   0  0  0  0  0  0
  -24.8840  -27.6700   19.4635 C   0  0  0  0  0  0
  -23.6568  -29.8048   20.1560 C   0  0  0  0  0  0
  -25.4116  -36.3070   24.0331 C   0  0  1  0  0  0
  -20.5901  -28.3703   23.1260 C   0  0  2  0  0  0
  -20.6779  -26.9415   22.5409 C   0  0  0  0  0  0
  -19.5751  -26.6381   21.5212 C   0  0  0  0  0  0
  -18.1930  -26.7935   22.1628 C   0  0  0  0  0  0
  -19.1554  -28.8867   23.2869 C   0  0  0  0  0  0
  -18.9477  -30.1467   23.8886 C   0  0  0  0  0  0
  -17.6474  -30.6591   24.0563 C   0  0  0  0  0  0
  -25.9063  -34.9437   23.5100 C   0  0  0  0  0  0
  -16.5366  -29.9084   23.6338 C   0  0  0  0  0  0
  -16.7288  -28.6502   23.0364 C   0  0  0  0  0  0
  -26.4505  -31.6585   25.0744 C   0  0  0  0  0  0
  -25.3730  -31.3730   26.1466 C   0  0  0  0  0  0
  -27.0370  -30.3005   24.6265 C   0  0  0  0  0  0
  -27.6059  -32.4326   25.7517 C   0  0  0  0  0  0
  -27.5586  -37.1787   24.8467 C   0  0  0  0  0  0
  -21.4229  -29.3041   22.3640 N   0  0  0  0  0  0
  -26.4286  -37.3777   23.9422 N   0  0  0  0  0  0
  -24.7031  -31.0445   22.0965 N   0  0  0  0  0  0
  -23.4200  -28.8127   23.3019 O   0  0  0  0  0  0
  -28.3130  -26.3027   20.2173 O   0  0  0  0  0  0
  -26.5642  -34.8916   22.4674 O   0  0  0  0  0  0
  -23.5485  -32.1355   23.7234 O   0  0  0  0  0  0
  -29.3899  -18.4785   20.9334 C   0  0  0  0  0  0
  -29.7720  -19.7963   20.3605 C   0  0  0  0  0  0
  -29.9957  -17.3118   20.3983 C   0  0  0  0  0  0
  -30.6806  -19.6000   19.3435 C   0  0  0  0  0  0
  -28.7931  -23.7518   20.9684 C   0  0  0  0  0  0
  -29.4083  -21.1940   20.9472 C   0  0  0  0  0  0
  -28.5430  -24.2029   18.6688 C   0  0  0  0  0  0
  -28.7408  -22.6621   18.8904 C   0  0  0  0  0  0
  -28.0962  -24.8028   20.0113 C   0  0  2  0  0  0
  -29.0373  -22.4192   20.3211 N   0  0  0  0  0  0
  -31.3901  -20.5270   18.5887 N   0  0  0  0  0  0
  -29.8285  -15.9362   20.7168 N   0  0  0  0  0  0
  -29.5060  -21.2044   22.2914 N   0  3  0  0  0  0
  -29.0409  -23.9735   22.1636 O   0  0  0  0  0  0
  -31.0315  -17.8810   19.0943 S   0  0  0  0  0  0
  -31.4747  -12.6064   19.1792 H   0  0  0  0  0  0
  -30.3793  -11.5122   19.9749 H   0  0  0  0  0  0
  -29.8007  -11.7452   17.5314 H   0  0  0  0  0  0
  -29.6292  -13.4726   17.7222 H   0  0  0  0  0  0
  -27.9018  -11.2853   18.9154 H   0  0  0  0  0  0
  -27.3827  -12.5251   17.8047 H   0  0  0  0  0  0
  -27.6279  -14.2574   19.4680 H   0  0  0  0  0  0
  -28.7333  -12.1925   21.4335 H   0  0  0  0  0  0
  -28.4139  -13.8677   21.7982 H   0  0  0  0  0  0
  -25.2787   -9.5680   22.4740 H   0  0  0  0  0  0
  -24.0033   -7.4642   22.7463 H   0  0  0  0  0  0
  -21.0872   -8.8760   19.8935 H   0  0  0  0  0  0
  -22.3721  -10.9666   19.6154 H   0  0  0  0  0  0
  -21.1993   -7.6161   23.9719 H   0  0  0  0  0  0
  -21.1488   -6.0536   25.9080 H   0  0  0  0  0  0
  -22.0595   -2.7618   23.2859 H   0  0  0  0  0  0
  -22.4154  -11.9851   22.4801 H   0  0  0  0  0  0
  -21.1068  -13.1124   22.2633 H   0  0  0  0  0  0
  -24.6511  -15.8452   20.5199 H   0  0  0  0  0  0
  -26.2660  -15.6314   20.0718 H   0  0  0  0  0  0
  -26.7222  -32.5379   23.1079 H   0  0  0  0  0  0
  -25.0094  -33.9688   25.0411 H   0  0  0  0  0  0
  -22.7331  -31.2948   21.3890 H   0  0  0  0  0  0
  -23.3769  -35.9573   23.3290 H   0  0  0  0  0  0
  -24.3577  -36.8904   22.2058 H   0  0  0  0  0  0
  -23.7199  -37.6445   23.6680 H   0  0  0  0  0  0
  -26.1312  -31.5096   20.6161 H   0  0  0  0  0  0
  -26.8582  -30.7998   22.0243 H   0  0  0  0  0  0
  -28.1177  -28.8779   21.2382 H   0  0  0  0  0  0
  -25.9658  -25.9231   18.9338 H   0  0  0  0  0  0
  -23.9939  -27.3217   18.9578 H   0  0  0  0  0  0
  -23.7838  -30.5796   19.3990 H   0  0  0  0  0  0
  -22.7746  -29.2400   19.8497 H   0  0  0  0  0  0
  -25.1291  -36.1922   25.0825 H   0  0  0  0  0  0
  -21.0005  -28.3283   24.1381 H   0  0  0  0  0  0
  -20.5667  -26.2312   23.3621 H   0  0  0  0  0  0
  -21.6645  -26.7418   22.1209 H   0  0  0  0  0  0
  -19.6901  -25.6289   21.1248 H   0  0  0  0  0  0
  -19.6684  -27.3190   20.6744 H   0  0  0  0  0  0
  -17.4199  -26.6700   21.4031 H   0  0  0  0  0  0
  -18.0319  -26.0074   22.9021 H   0  0  0  0  0  0
  -19.7950  -30.7289   24.2245 H   0  0  0  0  0  0
  -17.5026  -31.6276   24.5161 H   0  0  0  0  0  0
  -15.5364  -30.2985   23.7664 H   0  0  0  0  0  0
  -15.8689  -28.0816   22.7091 H   0  0  0  0  0  0
  -24.5921  -30.7055   25.7804 H   0  0  0  0  0  0
  -24.8912  -32.2892   26.4889 H   0  0  0  0  0  0
  -25.8059  -30.8921   27.0251 H   0  0  0  0  0  0
  -26.2977  -29.6733   24.1277 H   0  0  0  0  0  0
  -27.4024  -29.7285   25.4800 H   0  0  0  0  0  0
  -27.8861  -30.4278   23.9550 H   0  0  0  0  0  0
  -27.2692  -33.3647   26.2070 H   0  0  0  0  0  0
  -28.3895  -32.6848   25.0362 H   0  0  0  0  0  0
  -28.0707  -31.8469   26.5457 H   0  0  0  0  0  0
  -28.2578  -38.0109   24.7567 H   0  0  0  0  0  0
  -28.1106  -36.2648   24.6234 H   0  0  0  0  0  0
  -27.2314  -37.1363   25.8869 H   0  0  0  0  0  0
  -20.9419  -29.8763   21.6841 H   0  0  0  0  0  0
  -26.0163  -38.2838   24.1464 H   0  0  0  0  0  0
  -28.6959  -18.4471   21.7589 H   0  0  0  0  0  0
  -27.8033  -24.3959   17.8924 H   0  0  0  0  0  0
  -29.4789  -24.6606   18.3447 H   0  0  0  0  0  0
  -29.5289  -22.2845   18.2439 H   0  0  0  0  0  0
  -27.8290  -22.1223   18.6343 H   0  0  0  0  0  0
  -27.0436  -24.5745   20.1694 H   0  0  0  0  0  0
  -31.7123  -21.3933   19.0068 H   0  0  0  0  0  0
  -32.1048  -20.1621   17.9650 H   0  0  0  0  0  0
  -28.9421  -15.7087   21.1443 H   0  0  0  0  0  0
  -29.8275  -20.3925   22.7956 H   0  0  0  0  0  0
  -29.3718  -22.0685   22.8064 H   0  0  0  0  0  0
  1 25  1  0  0  0
  1 30  2  0  0  0
  1 82  1  0  0  0
  2  3  1  0  0  0
  2 25  1  0  0  0
  2 86  1  0  0  0
  2 87  1  0  0  0
  3  4  1  0  0  0
  3 88  1  0  0  0
  3 89  1  0  0  0
  4  5  1  0  0  0
  4 90  1  0  0  0
  4 91  1  0  0  0
  5  6  1  0  0  0
  5 26  1  0  0  0
  5 92  1  0  0  0
  6 25  1  0  0  0
  6 93  1  0  0  0
  6 94  1  0  0  0
  7  8  2  0  0  0
  7 26  1  0  0  0
  7 29  1  0  0  0
  8  9  1  0  0  0
  8 22  1  0  0  0
  9 10  1  0  0  0
  9 27  2  0  0  0
 10 11  2  0  0  0
 10 15  1  0  0  0
 11 12  1  0  0  0
 11 95  1  0  0  0
 12 13  2  0  0  0
 12 96  1  0  0  0
 13 14  1  0  0  0
 13 31  1  0  0  0
 14 15  2  0  0  0
 14 97  1  0  0  0
 15 98  1  0  0  0
 16 17  2  0  0  0
 16 21  1  0  0  0
 16 31  1  0  0  0
 17 18  1  0  0  0
 17 99  1  0  0  0
 18 19  2  0  0  0
 18100  1  0  0  0
 19 20  1  0  0  0
 19 24  1  0  0  0
 20 21  2  0  0  0
 20101  1  0  0  0
 21 23  1  0  0  0
 22 28  1  0  0  0
 22 32  2  0  0  0
 26 27  1  0  0  0
 28102  1  0  0  0
 28103  1  0  0  0
 29104  1  0  0  0
 29105  1  0  0  0
 33 34  1  0  0  0
 33 66  1  0  0  0
 33 70  2  0  0  0
 34 36  1  0  0  0
 34 59  1  0  0  0
 34106  1  0  0  0
 35 44  2  0  0  0
 35 45  1  0  0  0
 35 68  1  0  0  0
 36 56  1  0  0  0
 36107  1  0  0  0
 37 39  1  0  0  0
 37 47  1  0  0  0
 37 66  1  0  0  0
 37108  1  0  0  0
 38 43  2  0  0  0
 38 46  1  0  0  0
 38 47  1  0  0  0
 39 64  1  0  0  0
 39 67  2  0  0  0
 40 52  1  0  0  0
 40 53  2  0  0  0
 40 58  1  0  0  0
 41109  1  0  0  0
 41110  1  0  0  0
 41111  1  0  0  0
 41 48  1  0  0  0
 42 43  1  0  0  0
 42 66  1  0  0  0
 42112  1  0  0  0
 42113  1  0  0  0
 43 44  1  0  0  0
 44114  1  0  0  0
 45 46  2  0  0  0
 45115  1  0  0  0
 46116  1  0  0  0
 47117  1  0  0  0
 47118  1  0  0  0
 48 56  1  0  0  0
 48 65  1  0  0  0
 48119  1  0  0  0
 49 50  1  0  0  0
 49 53  1  0  0  0
 49 64  1  0  0  0
 49120  1  0  0  0
 50 51  1  0  0  0
 50121  1  0  0  0
 50122  1  0  0  0
 51 52  1  0  0  0
 51123  1  0  0  0
 51124  1  0  0  0
 52125  1  0  0  0
 52126  1  0  0  0
 53 54  1  0  0  0
 54 55  2  0  0  0
 54127  1  0  0  0
 55 57  1  0  0  0
 55128  1  0  0  0
 56 69  2  0  0  0
 57 58  2  0  0  0
 57129  1  0  0  0
 58130  1  0  0  0
 59 60  1  0  0  0
 59 61  1  0  0  0
 59 62  1  0  0  0
 60131  1  0  0  0
 60132  1  0  0  0
 60133  1  0  0  0
 61134  1  0  0  0
 61135  1  0  0  0
 61136  1  0  0  0
 62137  1  0  0  0
 62138  1  0  0  0
 62139  1  0  0  0
 63 65  1  0  0  0
 63140  1  0  0  0
 63141  1  0  0  0
 63142  1  0  0  0
 64143  1  0  0  0
 65144  1  0  0  0
 68 79  1  0  0  0
 71 72  1  0  0  0
 71 73  2  0  0  0
 71145  1  0  0  0
 72 74  2  0  0  0
 72 76  1  0  0  0
 73 82  1  0  0  0
 73 85  1  0  0  0
 74 81  1  0  0  0
 74 85  1  0  0  0
 75 79  1  0  0  0
 75 80  1  0  0  0
 75 84  2  0  0  0
 76 80  1  0  0  0
 76 83  2  0  0  0
 77 78  1  0  0  0
 77 79  1  0  0  0
 77146  1  0  0  0
 77147  1  0  0  0
 78 80  1  0  0  0
 78148  1  0  0  0
 78149  1  0  0  0
 79150  1  0  0  0
 81151  1  0  0  0
 81152  1  0  0  0
 82153  1  0  0  0
 83154  1  0  0  0
 83155  1  0  0  0
M  CHG  1  83   1
M  ISO  4   1 100  68 101  79 101  82 100
M  END
> <chiral flag>
0

> <version>
0

> <s_m_source_file>
/data/baiqing/PycharmProjects/Reinvent-master-3.2/result/LINK_invent/BTK/process_docking_weight1_custom_product_contain_oxygen_bond_distance_aromatic_linkinvent_7_9_3/rearranged_h_0153.sdf

> <i_m_source_file_index>
2

> <r_mmod_Potential_Energy-OPLS-2005>
210.673736572266

> <r_mmod_Stretch_Energy-OPLS-2005>
149.125930786133

> <r_mmod_Bend_Energy-OPLS-2005>
227.673324584961

> <r_mmod_Torsional_Energy-OPLS-2005>
248.927108764648

> <r_mmod_Improper_Torsional_Energy-OPLS-2005>
9.25727939605713

> <r_mmod_Van_der_Waal_Energy-OPLS-2005>
120.890869140625

> <r_mmod_Electrostatic_Energy-OPLS-2005>
-170.680847167969

> <r_mmod_Solvation_Energy-OPLS-2005>
-484.058074951172

> <b_mmod_Minimization_Converged-OPLS-2005>
0

> <r_mmod_RMS_Derivative-OPLS-2005>
1.8917179107666

$$$$
2
                    3D
 Structure written by MMmdl.
152161  0  0  1  0            999 V2000
  -30.5974  -14.8198   20.4144 C   0  0  0  0  0  0
  -30.4338  -12.5038   19.4669 C   0  0  0  0  0  0
  -29.5078  -12.4794   18.2310 C   0  0  0  0  0  0
  -28.0362  -12.3088   18.6545 C   0  0  0  0  0  0
  -27.6315  -13.2365   19.8319 C   0  0  2  0  0  0
  -28.6805  -13.2311   20.9623 C   0  0  0  0  0  0
  -25.2499  -13.8219   20.5700 C   0  0  0  0  0  0
  -24.1793  -13.0455   20.9195 C   0  0  0  0  0  0
  -24.6395  -11.6933   20.8746 C   0  0  0  0  0  0
  -23.9080  -10.4303   21.0405 C   0  0  0  0  0  0
  -24.3635   -9.4213   21.9185 C   0  0  0  0  0  0
  -23.6314   -8.2249   22.0762 C   0  0  0  0  0  0
  -22.4289   -8.0288   21.3552 C   0  0  0  0  0  0
  -21.9926   -9.0253   20.4646 C   0  0  0  0  0  0
  -22.7258  -10.2137   20.3059 C   0  0  0  0  0  0
  -21.6854   -6.0748   22.5273 C   0  0  0  0  0  0
  -21.4006   -6.5646   23.8210 C   0  0  0  0  0  0
  -21.3659   -5.6805   24.9167 C   0  0  0  0  0  0
  -21.6040   -4.3063   24.7221 C   0  0  0  0  0  0
  -21.8826   -3.8162   23.4343 C   0  0  0  0  0  0
  -21.9192   -4.6977   22.3400 C   0  0  0  0  0  0
  -22.7810  -13.5219   21.1861 C   0  0  0  0  0  0
  -22.1661   -4.2165   21.0982 F   0  0  0  0  0  0
  -21.5623   -3.4552   25.7734 F   0  0  0  0  0  0
  -29.9626  -13.5942   20.3530 N   0  0  0  0  0  0
  -26.2901  -12.9421   20.3238 N   0  0  0  0  0  0
  -25.9323  -11.6557   20.5759 N   0  0  0  0  0  0
  -22.0470  -12.8205   22.0403 N   0  0  0  0  0  0
  -25.4230  -15.1947   20.4157 N   0  0  0  0  0  0
  -31.8223  -14.8579   20.2573 O   0  0  0  0  0  0
  -21.6649   -6.8888   21.4242 O   0  0  0  0  0  0
  -22.3490  -14.5526   20.6712 O   0  0  0  0  0  0
  -24.6321  -31.8557   23.1952 C   0  0  0  0  0  0
  -25.9146  -32.4757   23.8304 C   0  0  1  0  0  0
  -27.2189  -27.2470   20.1436 C   0  0  0  0  0  0
  -25.5944  -33.8559   24.2241 N   0  0  0  0  0  0
  -23.4286  -30.4760   21.5376 C   0  0  2  0  0  0
  -24.8792  -28.9125   20.1172 C   0  0  0  0  0  0
  -22.7484  -29.4612   22.4897 C   0  0  0  0  0  0
  -18.0284  -28.1382   22.8475 C   0  0  0  0  0  0
  -24.1503  -36.7273   23.2633 C   0  0  0  0  0  0
  -25.9751  -30.7656   21.3747 C   0  0  0  0  0  0
  -26.0510  -29.3825   20.7234 C   0  0  0  0  0  0
  -27.2278  -28.5635   20.7217 C   0  0  0  0  0  0
  -26.0263  -26.8389   19.5161 C   0  0  0  0  0  0
  -24.8714  -27.6476   19.5051 C   0  0  0  0  0  0
  -23.6512  -29.8041   20.1568 C   0  0  0  0  0  0
  -25.4127  -36.3063   24.0321 C   0  0  1  0  0  0
  -20.5886  -28.3711   23.1265 C   0  0  2  0  0  0
  -20.6784  -26.9419   22.5420 C   0  0  0  0  0  0
  -19.5770  -26.6371   21.5220 C   0  0  0  0  0  0
  -18.1931  -26.7914   22.1612 C   0  0  0  0  0  0
  -19.1533  -28.8854   23.2864 C   0  0  0  0  0  0
  -18.9467  -30.1430   23.8921 C   0  0  0  0  0  0
  -17.6481  -30.6588   24.0563 C   0  0  0  0  0  0
  -25.9066  -34.9436   23.5074 C   0  0  0  0  0  0
  -16.5371  -29.9094   23.6327 C   0  0  0  0  0  0
  -16.7272  -28.6502   23.0362 C   0  0  0  0  0  0
  -26.4526  -31.6566   25.0681 C   0  0  0  0  0  0
  -25.3739  -31.3715   26.1387 C   0  0  0  0  0  0
  -27.0372  -30.2984   24.6158 C   0  0  0  0  0  0
  -27.6087  -32.4293   25.7472 C   0  0  0  0  0  0
  -27.5593  -37.1773   24.8449 C   0  0  0  0  0  0
  -21.4193  -29.3061   22.3653 N   0  0  0  0  0  0
  -26.4298  -37.3765   23.9412 N   0  0  0  0  0  0
  -24.6977  -31.0502   22.0936 N   0  0  0  0  0  0
  -23.4173  -28.8168   23.3006 O   0  0  0  0  0  0
  -28.3132  -26.3534   20.1178 O   0  0  0  0  0  0
  -26.5619  -34.8914   22.4634 O   0  0  0  0  0  0
  -23.5466  -32.1421   23.7210 O   0  0  0  0  0  0
  -29.4441  -20.0345   21.1382 C   0  0  0  0  0  0
  -29.4295  -18.6720   20.5558 C   0  0  0  0  0  0
  -28.9107  -18.7409   19.3010 C   0  0  0  0  0  0
  -28.9526  -21.1077   20.3577 C   0  0  0  0  0  0
  -28.3843  -23.6262   20.0396 C   0  0  0  0  0  0
  -29.8682  -17.2467   21.1207 C   0  0  0  0  0  0
  -28.7594  -17.5232   18.4477 C   0  0  0  0  0  0
  -29.8103  -16.4313   18.7947 C   0  0  0  0  0  0
  -28.2197  -25.0259   20.8349 C   0  0  0  0  0  0
  -29.8461  -15.9975   20.2165 N   0  0  0  0  0  0
  -28.8211  -22.4753   20.7047 N   0  0  0  0  0  0
  -28.0886  -23.6017   18.8418 O   0  0  0  0  0  0
  -28.4854  -20.3921   18.8149 S   0  0  0  0  0  0
  -31.4666  -12.6524   19.1508 H   0  0  0  0  0  0
  -30.4140  -11.5460   19.9891 H   0  0  0  0  0  0
  -29.7964  -11.6677   17.5624 H   0  0  0  0  0  0
  -29.6241  -13.3945   17.6522 H   0  0  0  0  0  0
  -27.9014  -11.2656   18.9439 H   0  0  0  0  0  0
  -27.3767  -12.4721   17.8003 H   0  0  0  0  0  0
  -27.6060  -14.2452   19.4190 H   0  0  0  0  0  0
  -28.7392  -12.2551   21.4461 H   0  0  0  0  0  0
  -28.4081  -13.9501   21.7362 H   0  0  0  0  0  0
  -25.2778   -9.5683   22.4762 H   0  0  0  0  0  0
  -24.0012   -7.4645   22.7493 H   0  0  0  0  0  0
  -21.0855   -8.8780   19.8953 H   0  0  0  0  0  0
  -22.3719  -10.9677   19.6171 H   0  0  0  0  0  0
  -21.2001   -7.6154   23.9714 H   0  0  0  0  0  0
  -21.1461   -6.0532   25.9072 H   0  0  0  0  0  0
  -22.0605   -2.7626   23.2844 H   0  0  0  0  0  0
  -22.4123  -11.9864   22.4764 H   0  0  0  0  0  0
  -21.1081  -13.1199   22.2625 H   0  0  0  0  0  0
  -24.6659  -15.8558   20.5473 H   0  0  0  0  0  0
  -26.2885  -15.6341   20.1306 H   0  0  0  0  0  0
  -26.7200  -32.5430   23.1027 H   0  0  0  0  0  0
  -25.0130  -33.9702   25.0424 H   0  0  0  0  0  0
  -22.7254  -31.2977   21.3816 H   0  0  0  0  0  0
  -23.3800  -35.9571   23.3272 H   0  0  0  0  0  0
  -24.3619  -36.8940   22.2056 H   0  0  0  0  0  0
  -23.7222  -37.6445   23.6699 H   0  0  0  0  0  0
  -26.1014  -31.5242   20.6016 H   0  0  0  0  0  0
  -26.8550  -30.8255   22.0030 H   0  0  0  0  0  0
  -28.1271  -28.9231   21.2032 H   0  0  0  0  0  0
  -25.9854  -25.8688   19.0409 H   0  0  0  0  0  0
  -23.9732  -27.2804   19.0271 H   0  0  0  0  0  0
  -23.7820  -30.5793   19.4002 H   0  0  0  0  0  0
  -22.7715  -29.2371   19.8484 H   0  0  0  0  0  0
  -25.1310  -36.1911   25.0819 H   0  0  0  0  0  0
  -20.9958  -28.3305   24.1400 H   0  0  0  0  0  0
  -20.5699  -26.2325   23.3641 H   0  0  0  0  0  0
  -21.6647  -26.7448   22.1214 H   0  0  0  0  0  0
  -19.6951  -25.6282   21.1251 H   0  0  0  0  0  0
  -19.6719  -27.3185   20.6761 H   0  0  0  0  0  0
  -17.4209  -26.6685   21.3991 H   0  0  0  0  0  0
  -18.0293  -26.0045   22.8998 H   0  0  0  0  0  0
  -19.7948  -30.7190   24.2346 H   0  0  0  0  0  0
  -17.5052  -31.6277   24.5131 H   0  0  0  0  0  0
  -15.5373  -30.3021   23.7619 H   0  0  0  0  0  0
  -15.8671  -28.0821   22.7109 H   0  0  0  0  0  0
  -24.5970  -30.7004   25.7712 H   0  0  0  0  0  0
  -24.8868  -32.2876   26.4730 H   0  0  0  0  0  0
  -25.8040  -30.8965   27.0212 H   0  0  0  0  0  0
  -26.2943  -29.6712   24.1211 H   0  0  0  0  0  0
  -27.4102  -29.7261   25.4664 H   0  0  0  0  0  0
  -27.8805  -30.4274   23.9369 H   0  0  0  0  0  0
  -27.2722  -33.3621   26.2010 H   0  0  0  0  0  0
  -28.3929  -32.6790   25.0312 H   0  0  0  0  0  0
  -28.0717  -31.8429   26.5421 H   0  0  0  0  0  0
  -28.2534  -38.0136   24.7559 H   0  0  0  0  0  0
  -28.1151  -36.2658   24.6193 H   0  0  0  0  0  0
  -27.2311  -37.1317   25.8847 H   0  0  0  0  0  0
  -20.9376  -29.8814   21.6905 H   0  0  0  0  0  0
  -26.0178  -38.2830   24.1484 H   0  0  0  0  0  0
  -29.8188  -20.1858   22.1414 H   0  0  0  0  0  0
  -29.2155  -17.0036   21.9603 H   0  0  0  0  0  0
  -30.8646  -17.3294   21.5553 H   0  0  0  0  0  0
  -28.8410  -17.7932   17.3934 H   0  0  0  0  0  0
  -27.7560  -17.1179   18.5788 H   0  0  0  0  0  0
  -30.8016  -16.8152   18.5414 H   0  0  0  0  0  0
  -29.6472  -15.5784   18.1377 H   0  0  0  0  0  0
  -29.0152  -25.0419   21.5788 H   0  0  0  0  0  0
  -27.2952  -24.9895   21.4116 H   0  0  0  0  0  0
  -29.0738  -22.6760   21.6626 H   0  0  0  0  0  0
  1 25  1  0  0  0
  1 30  2  0  0  0
  1 80  1  0  0  0
  2  3  1  0  0  0
  2 25  1  0  0  0
  2 84  1  0  0  0
  2 85  1  0  0  0
  3  4  1  0  0  0
  3 86  1  0  0  0
  3 87  1  0  0  0
  4  5  1  0  0  0
  4 88  1  0  0  0
  4 89  1  0  0  0
  5  6  1  0  0  0
  5 26  1  0  0  0
  5 90  1  0  0  0
  6 25  1  0  0  0
  6 91  1  0  0  0
  6 92  1  0  0  0
  7  8  2  0  0  0
  7 26  1  0  0  0
  7 29  1  0  0  0
  8  9  1  0  0  0
  8 22  1  0  0  0
  9 10  1  0  0  0
  9 27  2  0  0  0
 10 11  2  0  0  0
 10 15  1  0  0  0
 11 12  1  0  0  0
 11 93  1  0  0  0
 12 13  2  0  0  0
 12 94  1  0  0  0
 13 14  1  0  0  0
 13 31  1  0  0  0
 14 15  2  0  0  0
 14 95  1  0  0  0
 15 96  1  0  0  0
 16 17  2  0  0  0
 16 21  1  0  0  0
 16 31  1  0  0  0
 17 18  1  0  0  0
 17 97  1  0  0  0
 18 19  2  0  0  0
 18 98  1  0  0  0
 19 20  1  0  0  0
 19 24  1  0  0  0
 20 21  2  0  0  0
 20 99  1  0  0  0
 21 23  1  0  0  0
 22 28  1  0  0  0
 22 32  2  0  0  0
 26 27  1  0  0  0
 28100  1  0  0  0
 28101  1  0  0  0
 29102  1  0  0  0
 29103  1  0  0  0
 33 34  1  0  0  0
 33 66  1  0  0  0
 33 70  2  0  0  0
 34 36  1  0  0  0
 34 59  1  0  0  0
 34104  1  0  0  0
 35 44  2  0  0  0
 35 45  1  0  0  0
 35 68  1  0  0  0
 36 56  1  0  0  0
 36105  1  0  0  0
 37 39  1  0  0  0
 37 47  1  0  0  0
 37 66  1  0  0  0
 37106  1  0  0  0
 38 43  2  0  0  0
 38 46  1  0  0  0
 38 47  1  0  0  0
 39 64  1  0  0  0
 39 67  2  0  0  0
 40 52  1  0  0  0
 40 53  2  0  0  0
 40 58  1  0  0  0
 41107  1  0  0  0
 41108  1  0  0  0
 41109  1  0  0  0
 41 48  1  0  0  0
 42 43  1  0  0  0
 42 66  1  0  0  0
 42110  1  0  0  0
 42111  1  0  0  0
 43 44  1  0  0  0
 44112  1  0  0  0
 45 46  2  0  0  0
 45113  1  0  0  0
 46114  1  0  0  0
 47115  1  0  0  0
 47116  1  0  0  0
 48 56  1  0  0  0
 48 65  1  0  0  0
 48117  1  0  0  0
 49 50  1  0  0  0
 49 53  1  0  0  0
 49 64  1  0  0  0
 49118  1  0  0  0
 50 51  1  0  0  0
 50119  1  0  0  0
 50120  1  0  0  0
 51 52  1  0  0  0
 51121  1  0  0  0
 51122  1  0  0  0
 52123  1  0  0  0
 52124  1  0  0  0
 53 54  1  0  0  0
 54 55  2  0  0  0
 54125  1  0  0  0
 55 57  1  0  0  0
 55126  1  0  0  0
 56 69  2  0  0  0
 57 58  2  0  0  0
 57127  1  0  0  0
 58128  1  0  0  0
 59 60  1  0  0  0
 59 61  1  0  0  0
 59 62  1  0  0  0
 60129  1  0  0  0
 60130  1  0  0  0
 60131  1  0  0  0
 61132  1  0  0  0
 61133  1  0  0  0
 61134  1  0  0  0
 62135  1  0  0  0
 62136  1  0  0  0
 62137  1  0  0  0
 63 65  1  0  0  0
 63138  1  0  0  0
 63139  1  0  0  0
 63140  1  0  0  0
 64141  1  0  0  0
 65142  1  0  0  0
 68 79  1  0  0  0
 71 72  1  0  0  0
 71 74  2  0  0  0
 71143  1  0  0  0
 72 73  2  0  0  0
 72 76  1  0  0  0
 73 77  1  0  0  0
 73 83  1  0  0  0
 74 81  1  0  0  0
 74 83  1  0  0  0
 75 79  1  0  0  0
 75 81  1  0  0  0
 75 82  2  0  0  0
 76 80  1  0  0  0
 76144  1  0  0  0
 76145  1  0  0  0
 77 78  1  0  0  0
 77146  1  0  0  0
 77147  1  0  0  0
 78 80  1  0  0  0
 78148  1  0  0  0
 78149  1  0  0  0
 79150  1  0  0  0
 79151  1  0  0  0
 81152  1  0  0  0
M  ISO  4   1 100  68 101  79 101  80 100
M  END
> <chiral flag>
0

> <version>
0

> <s_m_source_file>
/data/baiqing/PycharmProjects/Reinvent-master-3.2/result/LINK_invent/BTK/process_docking_weight1_custom_product_contain_oxygen_bond_distance_aromatic_linkinvent_7_9_3/rearranged_h_0153.sdf

> <i_m_source_file_index>
3

> <r_mmod_Potential_Energy-OPLS-2005>
337.126007080078

> <r_mmod_Stretch_Energy-OPLS-2005>
139.611389160156

> <r_mmod_Bend_Energy-OPLS-2005>
192.847778320312

> <r_mmod_Torsional_Energy-OPLS-2005>
321.474731445312

> <r_mmod_Improper_Torsional_Energy-OPLS-2005>
16.0421257019043

> <r_mmod_Van_der_Waal_Energy-OPLS-2005>
110.946060180664

> <r_mmod_Electrostatic_Energy-OPLS-2005>
-322.807678222656

> <r_mmod_Solvation_Energy-OPLS-2005>
-233.504119873047

> <b_mmod_Minimization_Converged-OPLS-2005>
0

> <r_mmod_RMS_Derivative-OPLS-2005>
3.35100889205933

$$$$
3
                    3D
 Structure written by MMmdl.
155164  0  0  1  0            999 V2000
  -30.6936  -14.4767   20.5826 C   0  0  0  0  0  0
  -30.4275  -12.3147   19.4197 C   0  0  0  0  0  0
  -29.4997  -12.5242   18.2035 C   0  0  0  0  0  0
  -28.0171  -12.3847   18.6088 C   0  0  0  0  0  0
  -27.6646  -13.2040   19.8800 C   0  0  2  0  0  0
  -28.7079  -12.9482   20.9900 C   0  0  0  0  0  0
  -25.2608  -13.8153   20.5685 C   0  0  0  0  0  0
  -24.1845  -13.0441   20.9167 C   0  0  0  0  0  0
  -24.6387  -11.6903   20.8719 C   0  0  0  0  0  0
  -23.9048  -10.4297   21.0404 C   0  0  0  0  0  0
  -24.3605   -9.4218   21.9181 C   0  0  0  0  0  0
  -23.6298   -8.2244   22.0750 C   0  0  0  0  0  0
  -22.4280   -8.0279   21.3548 C   0  0  0  0  0  0
  -21.9906   -9.0248   20.4651 C   0  0  0  0  0  0
  -22.7222  -10.2133   20.3061 C   0  0  0  0  0  0
  -21.6849   -6.0739   22.5281 C   0  0  0  0  0  0
  -21.4004   -6.5638   23.8214 C   0  0  0  0  0  0
  -21.3665   -5.6790   24.9177 C   0  0  0  0  0  0
  -21.6049   -4.3054   24.7221 C   0  0  0  0  0  0
  -21.8818   -3.8150   23.4343 C   0  0  0  0  0  0
  -21.9193   -4.6965   22.3401 C   0  0  0  0  0  0
  -22.7878  -13.5254   21.1836 C   0  0  0  0  0  0
  -22.1665   -4.2152   21.0978 F   0  0  0  0  0  0
  -21.5643   -3.4537   25.7736 F   0  0  0  0  0  0
  -30.0319  -13.2909   20.4485 N   0  0  0  0  0  0
  -26.3039  -12.9313   20.3378 N   0  0  0  0  0  0
  -25.9308  -11.6475   20.5742 N   0  0  0  0  0  0
  -22.0500  -12.8265   22.0397 N   0  0  0  0  0  0
  -25.4393  -15.1868   20.4114 N   0  0  0  0  0  0
  -31.8194  -14.6515   20.0995 O   0  0  0  0  0  0
  -21.6640   -6.8876   21.4241 O   0  0  0  0  0  0
  -22.3582  -14.5560   20.6685 O   0  0  0  0  0  0
  -24.6149  -31.8682   23.2087 C   0  0  0  0  0  0
  -25.9038  -32.4824   23.8393 C   0  0  1  0  0  0
  -27.2395  -27.4394   20.0959 C   0  0  0  0  0  0
  -25.5894  -33.8621   24.2321 N   0  0  0  0  0  0
  -23.4044  -30.4899   21.5494 C   0  0  2  0  0  0
  -24.8530  -28.9535   20.1148 C   0  0  0  0  0  0
  -22.7415  -29.4662   22.4997 C   0  0  0  0  0  0
  -18.0273  -28.1380   22.8493 C   0  0  0  0  0  0
  -24.1482  -36.7329   23.2634 C   0  0  0  0  0  0
  -25.9333  -30.8330   21.3639 C   0  0  0  0  0  0
  -26.0133  -29.4676   20.7099 C   0  0  0  0  0  0
  -27.2123  -28.7187   20.6964 C   0  0  0  0  0  0
  -26.0670  -26.9374   19.4950 C   0  0  0  0  0  0
  -24.8744  -27.6866   19.5048 C   0  0  0  0  0  0
  -23.6132  -29.8187   20.1651 C   0  0  0  0  0  0
  -25.4098  -36.3118   24.0336 C   0  0  1  0  0  0
  -20.5862  -28.3663   23.1331 C   0  0  2  0  0  0
  -20.6755  -26.9401   22.5425 C   0  0  0  0  0  0
  -19.5736  -26.6382   21.5219 C   0  0  0  0  0  0
  -18.1917  -26.7931   22.1620 C   0  0  0  0  0  0
  -19.1523  -28.8834   23.2905 C   0  0  0  0  0  0
  -18.9447  -30.1443   23.8905 C   0  0  0  0  0  0
  -17.6449  -30.6583   24.0562 C   0  0  0  0  0  0
  -25.9033  -34.9485   23.5130 C   0  0  0  0  0  0
  -16.5342  -29.9085   23.6325 C   0  0  0  0  0  0
  -16.7261  -28.6505   23.0343 C   0  0  0  0  0  0
  -26.4454  -31.6608   25.0734 C   0  0  0  0  0  0
  -25.3717  -31.3749   26.1496 C   0  0  0  0  0  0
  -27.0263  -30.3029   24.6136 C   0  0  0  0  0  0
  -27.6043  -32.4320   25.7491 C   0  0  0  0  0  0
  -27.5590  -37.1802   24.8447 C   0  0  0  0  0  0
  -21.4141  -29.3033   22.3738 N   0  0  0  0  0  0
  -26.4284  -37.3809   23.9423 N   0  0  0  0  0  0
  -24.6685  -31.0775   22.0990 N   0  0  0  0  0  0
  -23.4186  -28.8214   23.3046 O   0  0  0  0  0  0
  -28.3859  -26.6777   20.0869 O   0  0  0  0  0  0
  -26.5606  -34.8942   22.4698 O   0  0  0  0  0  0
  -23.5334  -32.1441   23.7464 O   0  0  0  0  0  0
  -30.3913  -19.9662   20.0468 C   0  0  0  0  0  0
  -30.2261  -21.3897   20.0096 C   0  0  0  0  0  0
  -29.4197  -19.3189   20.7694 C   0  0  0  0  0  0
  -29.1277  -21.8442   20.7070 C   0  0  0  0  0  0
  -29.0055  -24.2823   20.3625 C   0  0  0  0  0  0
  -29.5458  -17.3840   22.4497 C   0  0  0  0  0  0
  -29.5525  -15.8546   22.3191 C   0  0  0  0  0  0
  -30.0104  -16.8292   20.1985 C   0  0  0  0  0  0
  -29.2196  -17.8453   21.0384 C   0  0  2  0  0  0
  -28.3266  -25.5349   20.9621 C   0  0  0  0  0  0
  -29.9333  -15.5492   20.9314 N   0  0  0  0  0  0
  -28.6642  -23.1075   20.9325 N   0  0  0  0  0  0
  -29.7996  -24.3844   19.4220 O   0  0  0  0  0  0
  -28.2864  -20.4816   21.4161 S   0  0  0  0  0  0
  -31.4732  -12.4156   19.1252 H   0  0  0  0  0  0
  -30.3312  -11.2989   19.8061 H   0  0  0  0  0  0
  -29.7439  -11.8112   17.4151 H   0  0  0  0  0  0
  -29.6704  -13.5157   17.7787 H   0  0  0  0  0  0
  -27.8171  -11.3269   18.7825 H   0  0  0  0  0  0
  -27.3730  -12.6823   17.7808 H   0  0  0  0  0  0
  -27.7159  -14.2582   19.6059 H   0  0  0  0  0  0
  -28.6958  -11.8951   21.2753 H   0  0  0  0  0  0
  -28.4648  -13.4808   21.9034 H   0  0  0  0  0  0
  -25.2757   -9.5704   22.4747 H   0  0  0  0  0  0
  -24.0024   -7.4631   22.7459 H   0  0  0  0  0  0
  -21.0844   -8.8761   19.8955 H   0  0  0  0  0  0
  -22.3685  -10.9666   19.6166 H   0  0  0  0  0  0
  -21.1974   -7.6144   23.9723 H   0  0  0  0  0  0
  -21.1500   -6.0515   25.9083 H   0  0  0  0  0  0
  -22.0590   -2.7612   23.2831 H   0  0  0  0  0  0
  -22.4109  -11.9916   22.4782 H   0  0  0  0  0  0
  -21.1117  -13.1315   22.2571 H   0  0  0  0  0  0
  -24.6827  -15.8527   20.5243 H   0  0  0  0  0  0
  -26.3064  -15.6171   20.1163 H   0  0  0  0  0  0
  -26.7123  -32.5528   23.1171 H   0  0  0  0  0  0
  -25.0009  -33.9779   25.0442 H   0  0  0  0  0  0
  -22.6937  -31.3064   21.4080 H   0  0  0  0  0  0
  -23.3751  -35.9652   23.3273 H   0  0  0  0  0  0
  -24.3582  -36.8968   22.2054 H   0  0  0  0  0  0
  -23.7218  -37.6520   23.6661 H   0  0  0  0  0  0
  -26.0487  -31.5994   20.5960 H   0  0  0  0  0  0
  -26.8194  -30.8837   21.9851 H   0  0  0  0  0  0
  -28.1090  -29.1112   21.1556 H   0  0  0  0  0  0
  -26.0773  -25.9650   19.0229 H   0  0  0  0  0  0
  -23.9851  -27.2848   19.0397 H   0  0  0  0  0  0
  -23.7194  -30.5918   19.4034 H   0  0  0  0  0  0
  -22.7391  -29.2345   19.8715 H   0  0  0  0  0  0
  -25.1270  -36.1984   25.0827 H   0  0  0  0  0  0
  -20.9947  -28.3220   24.1454 H   0  0  0  0  0  0
  -20.5658  -26.2270   23.3610 H   0  0  0  0  0  0
  -21.6630  -26.7439   22.1225 H   0  0  0  0  0  0
  -19.6893  -25.6291   21.1252 H   0  0  0  0  0  0
  -19.6693  -27.3191   20.6752 H   0  0  0  0  0  0
  -17.4199  -26.6700   21.4012 H   0  0  0  0  0  0
  -18.0298  -26.0064   22.9000 H   0  0  0  0  0  0
  -19.7925  -30.7255   24.2285 H   0  0  0  0  0  0
  -17.5008  -31.6272   24.5150 H   0  0  0  0  0  0
  -15.5345  -30.2985   23.7641 H   0  0  0  0  0  0
  -15.8667  -28.0827   22.7041 H   0  0  0  0  0  0
  -24.5847  -30.7148   25.7835 H   0  0  0  0  0  0
  -24.8960  -32.2923   26.4970 H   0  0  0  0  0  0
  -25.8053  -30.8882   27.0241 H   0  0  0  0  0  0
  -26.2814  -29.6831   24.1134 H   0  0  0  0  0  0
  -27.3936  -29.7239   25.4619 H   0  0  0  0  0  0
  -27.8701  -30.4317   23.9355 H   0  0  0  0  0  0
  -27.2663  -33.3587   26.2144 H   0  0  0  0  0  0
  -28.3811  -32.6939   25.0296 H   0  0  0  0  0  0
  -28.0773  -31.8407   26.5343 H   0  0  0  0  0  0
  -28.2581  -38.0128   24.7542 H   0  0  0  0  0  0
  -28.1113  -36.2667   24.6193 H   0  0  0  0  0  0
  -27.2334  -37.1361   25.8854 H   0  0  0  0  0  0
  -20.9299  -29.8768   21.6975 H   0  0  0  0  0  0
  -26.0179  -38.2883   24.1448 H   0  0  0  0  0  0
  -31.2147  -19.4793   19.5443 H   0  0  0  0  0  0
  -30.9300  -22.0181   19.4829 H   0  0  0  0  0  0
  -30.5365  -17.7392   22.7394 H   0  0  0  0  0  0
  -28.8322  -17.7436   23.1918 H   0  0  0  0  0  0
  -28.5387  -15.5003   22.5038 H   0  0  0  0  0  0
  -30.2131  -15.3838   23.0498 H   0  0  0  0  0  0
  -31.0556  -17.1347   20.1202 H   0  0  0  0  0  0
  -29.6123  -16.7359   19.1873 H   0  0  0  0  0  0
  -28.1611  -17.6330   20.8725 H   0  0  0  0  0  0
  -28.8444  -25.7886   21.8873 H   0  0  0  0  0  0
  -27.3028  -25.2798   21.2431 H   0  0  0  0  0  0
  -27.9471  -23.1801   21.6413 H   0  0  0  0  0  0
  1 25  1  0  0  0
  1 30  2  0  0  0
  1 81  1  0  0  0
  2  3  1  0  0  0
  2 25  1  0  0  0
  2 85  1  0  0  0
  2 86  1  0  0  0
  3  4  1  0  0  0
  3 87  1  0  0  0
  3 88  1  0  0  0
  4  5  1  0  0  0
  4 89  1  0  0  0
  4 90  1  0  0  0
  5  6  1  0  0  0
  5 26  1  0  0  0
  5 91  1  0  0  0
  6 25  1  0  0  0
  6 92  1  0  0  0
  6 93  1  0  0  0
  7  8  2  0  0  0
  7 26  1  0  0  0
  7 29  1  0  0  0
  8  9  1  0  0  0
  8 22  1  0  0  0
  9 10  1  0  0  0
  9 27  2  0  0  0
 10 11  2  0  0  0
 10 15  1  0  0  0
 11 12  1  0  0  0
 11 94  1  0  0  0
 12 13  2  0  0  0
 12 95  1  0  0  0
 13 14  1  0  0  0
 13 31  1  0  0  0
 14 15  2  0  0  0
 14 96  1  0  0  0
 15 97  1  0  0  0
 16 17  2  0  0  0
 16 21  1  0  0  0
 16 31  1  0  0  0
 17 18  1  0  0  0
 17 98  1  0  0  0
 18 19  2  0  0  0
 18 99  1  0  0  0
 19 20  1  0  0  0
 19 24  1  0  0  0
 20 21  2  0  0  0
 20100  1  0  0  0
 21 23  1  0  0  0
 22 28  1  0  0  0
 22 32  2  0  0  0
 26 27  1  0  0  0
 28101  1  0  0  0
 28102  1  0  0  0
 29103  1  0  0  0
 29104  1  0  0  0
 33 34  1  0  0  0
 33 66  1  0  0  0
 33 70  2  0  0  0
 34 36  1  0  0  0
 34 59  1  0  0  0
 34105  1  0  0  0
 35 44  2  0  0  0
 35 45  1  0  0  0
 35 68  1  0  0  0
 36 56  1  0  0  0
 36106  1  0  0  0
 37 39  1  0  0  0
 37 47  1  0  0  0
 37 66  1  0  0  0
 37107  1  0  0  0
 38 43  2  0  0  0
 38 46  1  0  0  0
 38 47  1  0  0  0
 39 64  1  0  0  0
 39 67  2  0  0  0
 40 52  1  0  0  0
 40 53  2  0  0  0
 40 58  1  0  0  0
 41108  1  0  0  0
 41109  1  0  0  0
 41110  1  0  0  0
 41 48  1  0  0  0
 42 43  1  0  0  0
 42 66  1  0  0  0
 42111  1  0  0  0
 42112  1  0  0  0
 43 44  1  0  0  0
 44113  1  0  0  0
 45 46  2  0  0  0
 45114  1  0  0  0
 46115  1  0  0  0
 47116  1  0  0  0
 47117  1  0  0  0
 48 56  1  0  0  0
 48 65  1  0  0  0
 48118  1  0  0  0
 49 50  1  0  0  0
 49 53  1  0  0  0
 49 64  1  0  0  0
 49119  1  0  0  0
 50 51  1  0  0  0
 50120  1  0  0  0
 50121  1  0  0  0
 51 52  1  0  0  0
 51122  1  0  0  0
 51123  1  0  0  0
 52124  1  0  0  0
 52125  1  0  0  0
 53 54  1  0  0  0
 54 55  2  0  0  0
 54126  1  0  0  0
 55 57  1  0  0  0
 55127  1  0  0  0
 56 69  2  0  0  0
 57 58  2  0  0  0
 57128  1  0  0  0
 58129  1  0  0  0
 59 60  1  0  0  0
 59 61  1  0  0  0
 59 62  1  0  0  0
 60130  1  0  0  0
 60131  1  0  0  0
 60132  1  0  0  0
 61133  1  0  0  0
 61134  1  0  0  0
 61135  1  0  0  0
 62136  1  0  0  0
 62137  1  0  0  0
 62138  1  0  0  0
 63 65  1  0  0  0
 63139  1  0  0  0
 63140  1  0  0  0
 63141  1  0  0  0
 64142  1  0  0  0
 65143  1  0  0  0
 68 80  1  0  0  0
 71 72  1  0  0  0
 71 73  2  0  0  0
 71144  1  0  0  0
 72 74  2  0  0  0
 72145  1  0  0  0
 73 84  1  0  0  0
 73 79  1  0  0  0
 74 82  1  0  0  0
 74 84  1  0  0  0
 75 80  1  0  0  0
 75 82  1  0  0  0
 75 83  2  0  0  0
 76 77  1  0  0  0
 76 79  1  0  0  0
 76146  1  0  0  0
 76147  1  0  0  0
 77 81  1  0  0  0
 77148  1  0  0  0
 77149  1  0  0  0
 78 79  1  0  0  0
 78 81  1  0  0  0
 78150  1  0  0  0
 78151  1  0  0  0
 79152  1  0  0  0
 80153  1  0  0  0
 80154  1  0  0  0
 82155  1  0  0  0
M  ISO  4   1 100  68 101  80 101  81 100
M  END
> <chiral flag>
0

> <version>
0

> <s_m_source_file>
/data/baiqing/PycharmProjects/Reinvent-master-3.2/result/LINK_invent/BTK/process_docking_weight1_custom_product_contain_oxygen_bond_distance_aromatic_linkinvent_7_9_3/rearranged_h_0153.sdf

> <i_m_source_file_index>
4

> <r_mmod_Potential_Energy-OPLS-2005>
118.200759887695

> <r_mmod_Stretch_Energy-OPLS-2005>
37.4105834960938

> <r_mmod_Bend_Energy-OPLS-2005>
134.761932373047

> <r_mmod_Torsional_Energy-OPLS-2005>
332.498565673828

> <r_mmod_Improper_Torsional_Energy-OPLS-2005>
12.1946172714233

> <r_mmod_Van_der_Waal_Energy-OPLS-2005>
123.022758483887

> <r_mmod_Electrostatic_Energy-OPLS-2005>
-310.156219482422

> <r_mmod_Solvation_Energy-OPLS-2005>
-223.770721435547

> <b_mmod_Minimization_Converged-OPLS-2005>
0

> <r_mmod_RMS_Derivative-OPLS-2005>
1.55980658531189

$$$$
4
                    3D
 Structure written by MMmdl.
155164  0  0  1  0            999 V2000
  -30.7004  -14.5772   20.1856 C   0  0  0  0  0  0
  -30.3562  -12.2838   19.3600 C   0  0  0  0  0  0
  -29.3470  -12.2538   18.1832 C   0  0  0  0  0  0
  -27.9100  -12.1901   18.6892 C   0  0  0  0  0  0
  -27.6171  -13.1879   19.8357 C   0  0  2  0  0  0
  -28.7175  -13.1836   20.9249 C   0  0  0  0  0  0
  -25.2509  -13.8191   20.5930 C   0  0  0  0  0  0
  -24.1762  -13.0513   20.9364 C   0  0  0  0  0  0
  -24.6286  -11.6946   20.9033 C   0  0  0  0  0  0
  -23.8994  -10.4319   21.0553 C   0  0  0  0  0  0
  -24.3596   -9.4186   21.9242 C   0  0  0  0  0  0
  -23.6314   -8.2196   22.0743 C   0  0  0  0  0  0
  -22.4292   -8.0256   21.3530 C   0  0  0  0  0  0
  -21.9921   -9.0237   20.4624 C   0  0  0  0  0  0
  -22.7221  -10.2157   20.3101 C   0  0  0  0  0  0
  -21.6855   -6.0744   22.5275 C   0  0  0  0  0  0
  -21.4028   -6.5657   23.8210 C   0  0  0  0  0  0
  -21.3674   -5.6813   24.9170 C   0  0  0  0  0  0
  -21.6039   -4.3078   24.7217 C   0  0  0  0  0  0
  -21.8825   -3.8169   23.4347 C   0  0  0  0  0  0
  -21.9199   -4.6975   22.3401 C   0  0  0  0  0  0
  -22.7771  -13.5251   21.1929 C   0  0  0  0  0  0
  -22.1667   -4.2167   21.0977 F   0  0  0  0  0  0
  -21.5607   -3.4555   25.7730 F   0  0  0  0  0  0
  -30.0058  -13.4009   20.2510 N   0  0  0  0  0  0
  -26.2898  -12.9341   20.3718 N   0  0  0  0  0  0
  -25.9240  -11.6560   20.6392 N   0  0  0  0  0  0
  -22.0519  -12.8171   22.0457 N   0  0  0  0  0  0
  -25.4350  -15.1899   20.4194 N   0  0  0  0  0  0
  -31.9051  -14.6267   20.4236 O   0  0  0  0  0  0
  -21.6646   -6.8886   21.4227 O   0  0  0  0  0  0
  -22.3450  -14.5548   20.6749 O   0  0  0  0  0  0
  -24.6238  -31.8602   23.2086 C   0  0  0  0  0  0
  -25.9077  -32.4768   23.8432 C   0  0  1  0  0  0
  -27.2132  -27.3444   20.1130 C   0  0  0  0  0  0
  -25.5919  -33.8586   24.2348 N   0  0  0  0  0  0
  -23.4181  -30.4861   21.5479 C   0  0  2  0  0  0
  -24.8616  -28.9438   20.1204 C   0  0  0  0  0  0
  -22.7462  -29.4640   22.4964 C   0  0  0  0  0  0
  -18.0317  -28.1356   22.8545 C   0  0  0  0  0  0
  -24.1503  -36.7289   23.2644 C   0  0  0  0  0  0
  -25.9574  -30.7946   21.3822 C   0  0  0  0  0  0
  -26.0299  -29.4247   20.7283 C   0  0  0  0  0  0
  -27.2100  -28.6322   20.7213 C   0  0  0  0  0  0
  -26.0215  -26.9095   19.4852 C   0  0  0  0  0  0
  -24.8558  -27.6868   19.4980 C   0  0  0  0  0  0
  -23.6340  -29.8214   20.1652 C   0  0  0  0  0  0
  -25.4123  -36.3091   24.0350 C   0  0  1  0  0  0
  -20.5906  -28.3730   23.1327 C   0  0  2  0  0  0
  -20.6833  -26.9399   22.5537 C   0  0  0  0  0  0
  -19.5868  -26.6369   21.5279 C   0  0  0  0  0  0
  -18.2043  -26.7881   22.1686 C   0  0  0  0  0  0
  -19.1558  -28.8865   23.2926 C   0  0  0  0  0  0
  -18.9433  -30.1498   23.8880 C   0  0  0  0  0  0
  -17.6398  -30.6604   24.0520 C   0  0  0  0  0  0
  -25.9021  -34.9441   23.5128 C   0  0  0  0  0  0
  -16.5312  -29.9061   23.6333 C   0  0  0  0  0  0
  -16.7284  -28.6456   23.0402 C   0  0  0  0  0  0
  -26.4495  -31.6569   25.0776 C   0  0  0  0  0  0
  -25.3776  -31.3672   26.1536 C   0  0  0  0  0  0
  -27.0342  -30.3001   24.6206 C   0  0  0  0  0  0
  -27.6072  -32.4318   25.7523 C   0  0  0  0  0  0
  -27.5593  -37.1807   24.8476 C   0  0  0  0  0  0
  -21.4192  -29.3067   22.3697 N   0  0  0  0  0  0
  -26.4315  -37.3750   23.9401 N   0  0  0  0  0  0
  -24.6853  -31.0629   22.1019 N   0  0  0  0  0  0
  -23.4188  -28.8169   23.3030 O   0  0  0  0  0  0
  -28.3366  -26.5207   20.1245 O   0  0  0  0  0  0
  -26.5580  -34.8892   22.4693 O   0  0  0  0  0  0
  -23.5397  -32.1437   23.7407 O   0  0  0  0  0  0
  -29.5419  -17.7797   20.1682 C   0  0  0  0  0  0
  -29.8900  -16.7845   19.1856 C   0  0  0  0  0  0
  -29.9390  -17.2775   17.9318 C   0  0  0  0  0  0
  -29.3835  -19.0528   19.6003 C   0  0  0  0  0  0
  -28.8449  -21.4705   19.7630 C   0  0  0  0  0  0
  -30.3586  -16.3193   16.9056 C   0  0  0  0  0  0
  -30.9619  -15.2429   17.8358 C   0  0  0  0  0  0
  -29.1613  -22.6656   20.6999 C   0  0  0  0  0  0
  -29.2956  -24.1284   20.1234 C   0  0  0  0  0  0
  -28.1055  -25.0984   20.4083 C   0  0  0  0  0  0
  -30.2792  -15.3897   19.1622 N   0  0  0  0  0  0
  -29.1873  -20.2504   20.2484 N   0  0  0  0  0  0
  -28.2686  -21.6510   18.6844 O   0  0  0  0  0  0
  -29.6297  -18.9765   17.8507 S   0  0  0  0  0  0
  -31.3685  -12.3705   18.9632 H   0  0  0  0  0  0
  -30.3023  -11.3405   19.9072 H   0  0  0  0  0  0
  -29.5066  -11.3645   17.5691 H   0  0  0  0  0  0
  -29.4020  -13.1026   17.5141 H   0  0  0  0  0  0
  -27.7667  -11.1666   19.0397 H   0  0  0  0  0  0
  -27.1754  -12.3118   17.8854 H   0  0  0  0  0  0
  -27.5962  -14.1735   19.3704 H   0  0  0  0  0  0
  -28.7374  -12.2481   21.4884 H   0  0  0  0  0  0
  -28.5264  -13.9800   21.6473 H   0  0  0  0  0  0
  -25.2773   -9.5650   22.4779 H   0  0  0  0  0  0
  -24.0062   -7.4565   22.7432 H   0  0  0  0  0  0
  -21.0871   -8.8761   19.8886 H   0  0  0  0  0  0
  -22.3733  -10.9703   19.6193 H   0  0  0  0  0  0
  -21.2038   -7.6177   23.9700 H   0  0  0  0  0  0
  -21.1483   -6.0565   25.9075 H   0  0  0  0  0  0
  -22.0592   -2.7628   23.2839 H   0  0  0  0  0  0
  -22.4333  -11.9846   22.4728 H   0  0  0  0  0  0
  -21.1101  -13.1028   22.2745 H   0  0  0  0  0  0
  -24.6813  -15.8576   20.5282 H   0  0  0  0  0  0
  -26.3102  -15.6215   20.1452 H   0  0  0  0  0  0
  -26.7163  -32.5460   23.1201 H   0  0  0  0  0  0
  -25.0102  -33.9761   25.0520 H   0  0  0  0  0  0
  -22.7103  -31.3091   21.3991 H   0  0  0  0  0  0
  -23.3738  -35.9642   23.3311 H   0  0  0  0  0  0
  -24.3630  -36.8860   22.2058 H   0  0  0  0  0  0
  -23.7267  -37.6503   23.6647 H   0  0  0  0  0  0
  -26.0896  -31.5585   20.6186 H   0  0  0  0  0  0
  -26.8347  -30.8393   22.0141 H   0  0  0  0  0  0
  -28.1020  -28.9860   21.2169 H   0  0  0  0  0  0
  -25.9651  -25.9601   18.9732 H   0  0  0  0  0  0
  -23.9592  -27.3095   19.0266 H   0  0  0  0  0  0
  -23.7635  -30.5903   19.4010 H   0  0  0  0  0  0
  -22.7586  -29.2463   19.8632 H   0  0  0  0  0  0
  -25.1300  -36.1962   25.0843 H   0  0  0  0  0  0
  -21.0064  -28.3356   24.1414 H   0  0  0  0  0  0
  -20.5809  -26.2268   23.3747 H   0  0  0  0  0  0
  -21.6719  -26.7496   22.1324 H   0  0  0  0  0  0
  -19.7198  -25.6282   21.1327 H   0  0  0  0  0  0
  -19.6879  -27.3156   20.6813 H   0  0  0  0  0  0
  -17.4301  -26.6544   21.4132 H   0  0  0  0  0  0
  -18.0492  -26.0073   22.9144 H   0  0  0  0  0  0
  -19.7852  -30.7422   24.2223 H   0  0  0  0  0  0
  -17.4961  -31.6313   24.5035 H   0  0  0  0  0  0
  -15.5314  -30.2991   23.7677 H   0  0  0  0  0  0
  -15.8728  -28.0715   22.7116 H   0  0  0  0  0  0
  -24.6008  -30.6928   25.7906 H   0  0  0  0  0  0
  -24.8906  -32.2790   26.5012 H   0  0  0  0  0  0
  -25.8180  -30.8884   27.0297 H   0  0  0  0  0  0
  -26.2917  -29.6724   24.1265 H   0  0  0  0  0  0
  -27.4053  -29.7288   25.4729 H   0  0  0  0  0  0
  -27.8781  -30.4271   23.9426 H   0  0  0  0  0  0
  -27.2710  -33.3642   26.2113 H   0  0  0  0  0  0
  -28.3871  -32.6845   25.0313 H   0  0  0  0  0  0
  -28.0761  -31.8433   26.5427 H   0  0  0  0  0  0
  -28.2606  -38.0094   24.7481 H   0  0  0  0  0  0
  -28.1085  -36.2626   24.6364 H   0  0  0  0  0  0
  -27.2313  -37.1509   25.8871 H   0  0  0  0  0  0
  -20.9481  -29.8786   21.6842 H   0  0  0  0  0  0
  -26.0190  -38.2822   24.1367 H   0  0  0  0  0  0
  -29.4711  -17.5514   21.2202 H   0  0  0  0  0  0
  -31.0745  -16.7325   16.1928 H   0  0  0  0  0  0
  -29.4842  -15.9505   16.3635 H   0  0  0  0  0  0
  -32.0143  -15.4979   17.9669 H   0  0  0  0  0  0
  -31.0189  -14.2580   17.3811 H   0  0  0  0  0  0
  -30.1324  -22.4059   21.1283 H   0  0  0  0  0  0
  -28.4560  -22.6478   21.5309 H   0  0  0  0  0  0
  -29.5229  -24.0992   19.0568 H   0  0  0  0  0  0
  -30.1767  -24.5707   20.5894 H   0  0  0  0  0  0
  -27.8500  -25.0251   21.4696 H   0  0  0  0  0  0
  -27.2593  -24.6754   19.8714 H   0  0  0  0  0  0
  -29.4828  -20.2784   21.2154 H   0  0  0  0  0  0
  1 25  1  0  0  0
  1 30  2  0  0  0
  1 81  1  0  0  0
  2  3  1  0  0  0
  2 25  1  0  0  0
  2 85  1  0  0  0
  2 86  1  0  0  0
  3  4  1  0  0  0
  3 87  1  0  0  0
  3 88  1  0  0  0
  4  5  1  0  0  0
  4 89  1  0  0  0
  4 90  1  0  0  0
  5  6  1  0  0  0
  5 26  1  0  0  0
  5 91  1  0  0  0
  6 25  1  0  0  0
  6 92  1  0  0  0
  6 93  1  0  0  0
  7  8  2  0  0  0
  7 26  1  0  0  0
  7 29  1  0  0  0
  8  9  1  0  0  0
  8 22  1  0  0  0
  9 10  1  0  0  0
  9 27  2  0  0  0
 10 11  2  0  0  0
 10 15  1  0  0  0
 11 12  1  0  0  0
 11 94  1  0  0  0
 12 13  2  0  0  0
 12 95  1  0  0  0
 13 14  1  0  0  0
 13 31  1  0  0  0
 14 15  2  0  0  0
 14 96  1  0  0  0
 15 97  1  0  0  0
 16 17  2  0  0  0
 16 21  1  0  0  0
 16 31  1  0  0  0
 17 18  1  0  0  0
 17 98  1  0  0  0
 18 19  2  0  0  0
 18 99  1  0  0  0
 19 20  1  0  0  0
 19 24  1  0  0  0
 20 21  2  0  0  0
 20100  1  0  0  0
 21 23  1  0  0  0
 22 28  1  0  0  0
 22 32  2  0  0  0
 26 27  1  0  0  0
 28101  1  0  0  0
 28102  1  0  0  0
 29103  1  0  0  0
 29104  1  0  0  0
 33 34  1  0  0  0
 33 66  1  0  0  0
 33 70  2  0  0  0
 34 36  1  0  0  0
 34 59  1  0  0  0
 34105  1  0  0  0
 35 44  2  0  0  0
 35 45  1  0  0  0
 35 68  1  0  0  0
 36 56  1  0  0  0
 36106  1  0  0  0
 37 39  1  0  0  0
 37 47  1  0  0  0
 37 66  1  0  0  0
 37107  1  0  0  0
 38 43  2  0  0  0
 38 46  1  0  0  0
 38 47  1  0  0  0
 39 64  1  0  0  0
 39 67  2  0  0  0
 40 52  1  0  0  0
 40 53  2  0  0  0
 40 58  1  0  0  0
 41108  1  0  0  0
 41109  1  0  0  0
 41110  1  0  0  0
 41 48  1  0  0  0
 42 43  1  0  0  0
 42 66  1  0  0  0
 42111  1  0  0  0
 42112  1  0  0  0
 43 44  1  0  0  0
 44113  1  0  0  0
 45 46  2  0  0  0
 45114  1  0  0  0
 46115  1  0  0  0
 47116  1  0  0  0
 47117  1  0  0  0
 48 56  1  0  0  0
 48 65  1  0  0  0
 48118  1  0  0  0
 49 50  1  0  0  0
 49 53  1  0  0  0
 49 64  1  0  0  0
 49119  1  0  0  0
 50 51  1  0  0  0
 50120  1  0  0  0
 50121  1  0  0  0
 51 52  1  0  0  0
 51122  1  0  0  0
 51123  1  0  0  0
 52124  1  0  0  0
 52125  1  0  0  0
 53 54  1  0  0  0
 54 55  2  0  0  0
 54126  1  0  0  0
 55 57  1  0  0  0
 55127  1  0  0  0
 56 69  2  0  0  0
 57 58  2  0  0  0
 57128  1  0  0  0
 58129  1  0  0  0
 59 60  1  0  0  0
 59 61  1  0  0  0
 59 62  1  0  0  0
 60130  1  0  0  0
 60131  1  0  0  0
 60132  1  0  0  0
 61133  1  0  0  0
 61134  1  0  0  0
 61135  1  0  0  0
 62136  1  0  0  0
 62137  1  0  0  0
 62138  1  0  0  0
 63 65  1  0  0  0
 63139  1  0  0  0
 63140  1  0  0  0
 63141  1  0  0  0
 64142  1  0  0  0
 65143  1  0  0  0
 68 80  1  0  0  0
 71 72  1  0  0  0
 71 74  2  0  0  0
 71144  1  0  0  0
 72 73  2  0  0  0
 72 81  1  0  0  0
 73 76  1  0  0  0
 73 84  1  0  0  0
 74 82  1  0  0  0
 74 84  1  0  0  0
 75 78  1  0  0  0
 75 82  1  0  0  0
 75 83  2  0  0  0
 76 77  1  0  0  0
 76145  1  0  0  0
 76146  1  0  0  0
 77 81  1  0  0  0
 77147  1  0  0  0
 77148  1  0  0  0
 78 79  1  0  0  0
 78149  1  0  0  0
 78150  1  0  0  0
 79 80  1  0  0  0
 79151  1  0  0  0
 79152  1  0  0  0
 80153  1  0  0  0
 80154  1  0  0  0
 82155  1  0  0  0
M  ISO  4   1 100  68 101  80 101  81 100
M  END
> <chiral flag>
0

> <version>
0

> <s_m_source_file>
/data/baiqing/PycharmProjects/Reinvent-master-3.2/result/LINK_invent/BTK/process_docking_weight1_custom_product_contain_oxygen_bond_distance_aromatic_linkinvent_7_9_3/rearranged_h_0153.sdf

> <i_m_source_file_index>
5

> <r_mmod_Potential_Energy-OPLS-2005>
321.971557617188

> <r_mmod_Stretch_Energy-OPLS-2005>
61.1652946472168

> <r_mmod_Bend_Energy-OPLS-2005>
245.269714355469

> <r_mmod_Torsional_Energy-OPLS-2005>
332.700317382812

> <r_mmod_Improper_Torsional_Energy-OPLS-2005>
35.0366058349609

> <r_mmod_Van_der_Waal_Energy-OPLS-2005>
128.31770324707

> <r_mmod_Electrostatic_Energy-OPLS-2005>
-348.8310546875

> <r_mmod_Solvation_Energy-OPLS-2005>
-226.288833618164

> <b_mmod_Minimization_Converged-OPLS-2005>
0

> <r_mmod_RMS_Derivative-OPLS-2005>
8.20397758483887

$$$$
5
                    3D
 Structure written by MMmdl.
158167  0  0  1  0            999 V2000
  -30.5109  -14.8364   20.4649 C   0  0  0  0  0  0
  -30.4545  -12.5098   19.4925 C   0  0  0  0  0  0
  -29.5268  -12.5309   18.2539 C   0  0  0  0  0  0
  -28.0522  -12.3307   18.6603 C   0  0  0  0  0  0
  -27.6455  -13.2252   19.8606 C   0  0  2  0  0  0
  -28.6861  -13.1462   20.9985 C   0  0  0  0  0  0
  -25.2532  -13.8172   20.5702 C   0  0  0  0  0  0
  -24.1805  -13.0431   20.9183 C   0  0  0  0  0  0
  -24.6390  -11.6898   20.8713 C   0  0  0  0  0  0
  -23.9069  -10.4285   21.0392 C   0  0  0  0  0  0
  -24.3618   -9.4190   21.9167 C   0  0  0  0  0  0
  -23.6286   -8.2230   22.0737 C   0  0  0  0  0  0
  -22.4268   -8.0276   21.3532 C   0  0  0  0  0  0
  -21.9909   -9.0239   20.4632 C   0  0  0  0  0  0
  -22.7238  -10.2117   20.3033 C   0  0  0  0  0  0
  -21.6855   -6.0727   22.5279 C   0  0  0  0  0  0
  -21.4025   -6.5634   23.8212 C   0  0  0  0  0  0
  -21.3660   -5.6788   24.9170 C   0  0  0  0  0  0
  -21.6045   -4.3046   24.7222 C   0  0  0  0  0  0
  -21.8819   -3.8138   23.4339 C   0  0  0  0  0  0
  -21.9193   -4.6961   22.3395 C   0  0  0  0  0  0
  -22.7829  -13.5206   21.1852 C   0  0  0  0  0  0
  -22.1658   -4.2144   21.0976 F   0  0  0  0  0  0
  -21.5624   -3.4535   25.7733 F   0  0  0  0  0  0
  -29.9803  -13.5569   20.4320 N   0  0  0  0  0  0
  -26.2954  -12.9359   20.3299 N   0  0  0  0  0  0
  -25.9324  -11.6505   20.5743 N   0  0  0  0  0  0
  -22.0513  -12.8164   22.0420 N   0  0  0  0  0  0
  -25.4237  -15.1901   20.4166 N   0  0  0  0  0  0
  -31.6738  -15.0183   20.0835 O   0  0  0  0  0  0
  -21.6627   -6.8865   21.4232 O   0  0  0  0  0  0
  -22.3497  -14.5513   20.6726 O   0  0  0  0  0  0
  -24.6339  -31.8498   23.1910 C   0  0  0  0  0  0
  -25.9149  -32.4723   23.8272 C   0  0  1  0  0  0
  -27.2315  -27.2085   20.1299 C   0  0  0  0  0  0
  -25.5933  -33.8540   24.2183 N   0  0  0  0  0  0
  -23.4354  -30.4706   21.5329 C   0  0  2  0  0  0
  -24.8867  -28.9044   20.1063 C   0  0  0  0  0  0
  -22.7527  -29.4560   22.4835 C   0  0  0  0  0  0
  -18.0289  -28.1389   22.8463 C   0  0  0  0  0  0
  -24.1499  -36.7263   23.2644 C   0  0  0  0  0  0
  -25.9848  -30.7438   21.3833 C   0  0  0  0  0  0
  -26.0582  -29.3614   20.7223 C   0  0  0  0  0  0
  -27.2259  -28.5269   20.7222 C   0  0  0  0  0  0
  -26.0303  -26.8254   19.4905 C   0  0  0  0  0  0
  -24.8814  -27.6478   19.4808 C   0  0  0  0  0  0
  -23.6620  -29.8001   20.1505 C   0  0  0  0  0  0
  -25.4127  -36.3043   24.0312 C   0  0  1  0  0  0
  -20.5904  -28.3707   23.1244 C   0  0  2  0  0  0
  -20.6791  -26.9418   22.5407 C   0  0  0  0  0  0
  -19.5780  -26.6368   21.5204 C   0  0  0  0  0  0
  -18.1933  -26.7913   22.1596 C   0  0  0  0  0  0
  -19.1548  -28.8851   23.2847 C   0  0  0  0  0  0
  -18.9489  -30.1439   23.8881 C   0  0  0  0  0  0
  -17.6493  -30.6591   24.0550 C   0  0  0  0  0  0
  -25.9076  -34.9426   23.5046 C   0  0  0  0  0  0
  -16.5382  -29.9085   23.6343 C   0  0  0  0  0  0
  -16.7283  -28.6502   23.0339 C   0  0  0  0  0  0
  -26.4489  -31.6590   25.0706 C   0  0  0  0  0  0
  -25.3684  -31.3808   26.1418 C   0  0  0  0  0  0
  -27.0367  -30.2993   24.6259 C   0  0  0  0  0  0
  -27.6032  -32.4375   25.7476 C   0  0  0  0  0  0
  -27.5584  -37.1763   24.8445 C   0  0  0  0  0  0
  -21.4217  -29.3057   22.3620 N   0  0  0  0  0  0
  -26.4268  -37.3765   23.9425 N   0  0  0  0  0  0
  -24.7031  -31.0412   22.0914 N   0  0  0  0  0  0
  -23.4212  -28.8101   23.2947 O   0  0  0  0  0  0
  -28.3423  -26.3173   20.2248 O   0  0  0  0  0  0
  -26.5649  -34.8921   22.4620 O   0  0  0  0  0  0
  -23.5478  -32.1340   23.7182 O   0  0  0  0  0  0
  -29.9762  -18.4724   19.9581 C   0  0  0  0  0  0
  -28.5904  -18.0146   21.6105 C   0  0  0  0  0  0
  -29.4872  -17.3709   20.7919 C   0  0  0  0  0  0
  -29.3402  -19.6916   20.3137 C   0  0  0  0  0  0
  -28.3118  -23.6073   20.6094 C   0  0  0  0  0  0
  -31.7841  -21.6421   19.7535 C   0  0  0  0  0  0
  -31.5788  -22.6666   20.8901 C   0  0  0  0  0  0
  -30.5266  -21.4696   18.8696 C   0  0  0  0  0  0
  -30.2296  -22.4705   21.6125 C   0  0  0  0  0  0
  -29.2741  -21.2055   19.7362 C   0  0  2  0  0  0
  -28.4402  -24.9033   19.6424 C   0  0  0  0  0  0
  -29.1539  -22.4744   20.6179 N   0  0  0  0  0  0
  -29.6337  -15.8652   20.8324 N   0  0  0  0  0  0
  -27.4640  -23.6973   21.5033 O   0  0  0  0  0  0
  -28.4968  -19.3721   21.3459 O   0  0  0  0  0  0
  -31.4914  -12.6741   19.1943 H   0  0  0  0  0  0
  -30.4341  -11.5309   19.9736 H   0  0  0  0  0  0
  -29.8281  -11.7613   17.5426 H   0  0  0  0  0  0
  -29.6332  -13.4857   17.7371 H   0  0  0  0  0  0
  -27.9203  -11.2804   18.9221 H   0  0  0  0  0  0
  -27.3963  -12.5157   17.8080 H   0  0  0  0  0  0
  -27.6408  -14.2479   19.4837 H   0  0  0  0  0  0
  -28.7458  -12.1334   21.3989 H   0  0  0  0  0  0
  -28.3959  -13.7797   21.8380 H   0  0  0  0  0  0
  -25.2777   -9.5660   22.4724 H   0  0  0  0  0  0
  -24.0006   -7.4613   22.7453 H   0  0  0  0  0  0
  -21.0841   -8.8748   19.8928 H   0  0  0  0  0  0
  -22.3706  -10.9641   19.6125 H   0  0  0  0  0  0
  -21.2024   -7.6144   23.9718 H   0  0  0  0  0  0
  -21.1488   -6.0513   25.9074 H   0  0  0  0  0  0
  -22.0599   -2.7608   23.2843 H   0  0  0  0  0  0
  -22.4172  -11.9828   22.4761 H   0  0  0  0  0  0
  -21.1127  -13.1146   22.2677 H   0  0  0  0  0  0
  -24.6521  -15.8408   20.5165 H   0  0  0  0  0  0
  -26.2725  -15.6353   20.0924 H   0  0  0  0  0  0
  -26.7198  -32.5337   23.0990 H   0  0  0  0  0  0
  -25.0101  -33.9690   25.0336 H   0  0  0  0  0  0
  -22.7336  -31.2920   21.3787 H   0  0  0  0  0  0
  -23.3789  -35.9568   23.3241 H   0  0  0  0  0  0
  -24.3593  -36.8948   22.2076 H   0  0  0  0  0  0
  -23.7214  -37.6424   23.6723 H   0  0  0  0  0  0
  -26.1347  -31.5042   20.6148 H   0  0  0  0  0  0
  -26.8574  -30.7876   22.0229 H   0  0  0  0  0  0
  -28.1196  -28.8749   21.2217 H   0  0  0  0  0  0
  -25.9369  -25.8593   19.0199 H   0  0  0  0  0  0
  -23.9821  -27.2899   18.9983 H   0  0  0  0  0  0
  -23.7981  -30.5766   19.3972 H   0  0  0  0  0  0
  -22.7784  -29.2445   19.8352 H   0  0  0  0  0  0
  -25.1294  -36.1854   25.0799 H   0  0  0  0  0  0
  -21.0003  -28.3294   24.1362 H   0  0  0  0  0  0
  -20.5678  -26.2322   23.3619 H   0  0  0  0  0  0
  -21.6650  -26.7398   22.1212 H   0  0  0  0  0  0
  -19.6964  -25.6266   21.1250 H   0  0  0  0  0  0
  -19.6744  -27.3168   20.6738 H   0  0  0  0  0  0
  -17.4226  -26.6668   21.3980 H   0  0  0  0  0  0
  -18.0322  -26.0033   22.8971 H   0  0  0  0  0  0
  -19.7979  -30.7240   24.2254 H   0  0  0  0  0  0
  -17.5075  -31.6278   24.5146 H   0  0  0  0  0  0
  -15.5392  -30.3005   23.7700 H   0  0  0  0  0  0
  -15.8659  -28.0851   22.7073 H   0  0  0  0  0  0
  -24.5869  -30.7128   25.7744 H   0  0  0  0  0  0
  -24.8882  -32.3042   26.4719 H   0  0  0  0  0  0
  -25.7974  -30.9073   27.0254 H   0  0  0  0  0  0
  -26.2987  -29.6727   24.1254 H   0  0  0  0  0  0
  -27.3987  -29.7273   25.4797 H   0  0  0  0  0  0
  -27.8858  -30.4232   23.9542 H   0  0  0  0  0  0
  -27.2613  -33.3715   26.1947 H   0  0  0  0  0  0
  -28.3888  -32.6875   25.0336 H   0  0  0  0  0  0
  -28.0633  -31.8578   26.5477 H   0  0  0  0  0  0
  -28.2509  -38.0147   24.7572 H   0  0  0  0  0  0
  -28.1155  -36.2672   24.6135 H   0  0  0  0  0  0
  -27.2321  -37.1235   25.8846 H   0  0  0  0  0  0
  -20.9431  -29.8797   21.6826 H   0  0  0  0  0  0
  -26.0126  -38.2796   24.1532 H   0  0  0  0  0  0
  -30.6706  -18.3793   19.1334 H   0  0  0  0  0  0
  -27.9271  -17.6776   22.3966 H   0  0  0  0  0  0
  -32.0517  -20.6771   20.1862 H   0  0  0  0  0  0
  -32.6365  -21.9369   19.1398 H   0  0  0  0  0  0
  -31.6290  -23.6776   20.4841 H   0  0  0  0  0  0
  -32.3978  -22.5921   21.6054 H   0  0  0  0  0  0
  -30.6766  -20.6679   18.1438 H   0  0  0  0  0  0
  -30.3763  -22.3754   18.2821 H   0  0  0  0  0  0
  -30.0926  -23.2561   22.3592 H   0  0  0  0  0  0
  -30.2212  -21.5306   22.1659 H   0  0  0  0  0  0
  -28.4116  -21.2366   19.0676 H   0  0  0  0  0  0
  -27.7456  -24.7762   18.8143 H   0  0  0  0  0  0
  -29.4236  -24.8346   19.1793 H   0  0  0  0  0  0
  -28.8258  -15.4329   21.2546 H   0  0  0  0  0  0
  1 25  1  0  0  0
  1 30  2  0  0  0
  1 83  1  0  0  0
  2  3  1  0  0  0
  2 25  1  0  0  0
  2 86  1  0  0  0
  2 87  1  0  0  0
  3  4  1  0  0  0
  3 88  1  0  0  0
  3 89  1  0  0  0
  4  5  1  0  0  0
  4 90  1  0  0  0
  4 91  1  0  0  0
  5  6  1  0  0  0
  5 26  1  0  0  0
  5 92  1  0  0  0
  6 25  1  0  0  0
  6 93  1  0  0  0
  6 94  1  0  0  0
  7  8  2  0  0  0
  7 26  1  0  0  0
  7 29  1  0  0  0
  8  9  1  0  0  0
  8 22  1  0  0  0
  9 10  1  0  0  0
  9 27  2  0  0  0
 10 11  2  0  0  0
 10 15  1  0  0  0
 11 12  1  0  0  0
 11 95  1  0  0  0
 12 13  2  0  0  0
 12 96  1  0  0  0
 13 14  1  0  0  0
 13 31  1  0  0  0
 14 15  2  0  0  0
 14 97  1  0  0  0
 15 98  1  0  0  0
 16 17  2  0  0  0
 16 21  1  0  0  0
 16 31  1  0  0  0
 17 18  1  0  0  0
 17 99  1  0  0  0
 18 19  2  0  0  0
 18100  1  0  0  0
 19 20  1  0  0  0
 19 24  1  0  0  0
 20 21  2  0  0  0
 20101  1  0  0  0
 21 23  1  0  0  0
 22 28  1  0  0  0
 22 32  2  0  0  0
 26 27  1  0  0  0
 28102  1  0  0  0
 28103  1  0  0  0
 29104  1  0  0  0
 29105  1  0  0  0
 33 34  1  0  0  0
 33 66  1  0  0  0
 33 70  2  0  0  0
 34 36  1  0  0  0
 34 59  1  0  0  0
 34106  1  0  0  0
 35 44  2  0  0  0
 35 45  1  0  0  0
 35 68  1  0  0  0
 36 56  1  0  0  0
 36107  1  0  0  0
 37 39  1  0  0  0
 37 47  1  0  0  0
 37 66  1  0  0  0
 37108  1  0  0  0
 38 43  2  0  0  0
 38 46  1  0  0  0
 38 47  1  0  0  0
 39 64  1  0  0  0
 39 67  2  0  0  0
 40 52  1  0  0  0
 40 53  2  0  0  0
 40 58  1  0  0  0
 41109  1  0  0  0
 41110  1  0  0  0
 41111  1  0  0  0
 41 48  1  0  0  0
 42 43  1  0  0  0
 42 66  1  0  0  0
 42112  1  0  0  0
 42113  1  0  0  0
 43 44  1  0  0  0
 44114  1  0  0  0
 45 46  2  0  0  0
 45115  1  0  0  0
 46116  1  0  0  0
 47117  1  0  0  0
 47118  1  0  0  0
 48 56  1  0  0  0
 48 65  1  0  0  0
 48119  1  0  0  0
 49 50  1  0  0  0
 49 53  1  0  0  0
 49 64  1  0  0  0
 49120  1  0  0  0
 50 51  1  0  0  0
 50121  1  0  0  0
 50122  1  0  0  0
 51 52  1  0  0  0
 51123  1  0  0  0
 51124  1  0  0  0
 52125  1  0  0  0
 52126  1  0  0  0
 53 54  1  0  0  0
 54 55  2  0  0  0
 54127  1  0  0  0
 55 57  1  0  0  0
 55128  1  0  0  0
 56 69  2  0  0  0
 57 58  2  0  0  0
 57129  1  0  0  0
 58130  1  0  0  0
 59 60  1  0  0  0
 59 61  1  0  0  0
 59 62  1  0  0  0
 60131  1  0  0  0
 60132  1  0  0  0
 60133  1  0  0  0
 61134  1  0  0  0
 61135  1  0  0  0
 61136  1  0  0  0
 62137  1  0  0  0
 62138  1  0  0  0
 62139  1  0  0  0
 63 65  1  0  0  0
 63140  1  0  0  0
 63141  1  0  0  0
 63142  1  0  0  0
 64143  1  0  0  0
 65144  1  0  0  0
 68 81  1  0  0  0
 71 73  1  0  0  0
 71 74  2  0  0  0
 71145  1  0  0  0
 72 73  2  0  0  0
 72 85  1  0  0  0
 72146  1  0  0  0
 73 83  1  0  0  0
 74 85  1  0  0  0
 74 80  1  0  0  0
 75 81  1  0  0  0
 75 82  1  0  0  0
 75 84  2  0  0  0
 76 77  1  0  0  0
 76 78  1  0  0  0
 76147  1  0  0  0
 76148  1  0  0  0
 77 79  1  0  0  0
 77149  1  0  0  0
 77150  1  0  0  0
 78 80  1  0  0  0
 78151  1  0  0  0
 78152  1  0  0  0
 79 82  1  0  0  0
 79153  1  0  0  0
 79154  1  0  0  0
 80 82  1  0  0  0
 80155  1  0  0  0
 81156  1  0  0  0
 81157  1  0  0  0
 83158  1  0  0  0
M  ISO  4   1 100  68 101  81 101  83 100
M  END
> <chiral flag>
0

> <version>
0

> <s_m_source_file>
/data/baiqing/PycharmProjects/Reinvent-master-3.2/result/LINK_invent/BTK/process_docking_weight1_custom_product_contain_oxygen_bond_distance_aromatic_linkinvent_7_9_3/rearranged_h_0153.sdf

> <i_m_source_file_index>
6

> <r_mmod_Potential_Energy-OPLS-2005>
465.301208496094

> <r_mmod_Stretch_Energy-OPLS-2005>
171.91291809082

> <r_mmod_Bend_Energy-OPLS-2005>
265.334045410156

> <r_mmod_Torsional_Energy-OPLS-2005>
342.147491455078

> <r_mmod_Improper_Torsional_Energy-OPLS-2005>
5.83139705657959

> <r_mmod_Van_der_Waal_Energy-OPLS-2005>
113.596046447754

> <r_mmod_Electrostatic_Energy-OPLS-2005>
-320.333526611328

> <r_mmod_Solvation_Energy-OPLS-2005>
-238.961486816406

> <b_mmod_Minimization_Converged-OPLS-2005>
0

> <r_mmod_RMS_Derivative-OPLS-2005>
3.11288523674011

$$$$
6
                    3D
 Structure written by MMmdl.
151159  0  0  1  0            999 V2000
  -30.6350  -14.7750   20.4333 C   0  0  0  0  0  0
  -30.4235  -12.4735   19.4718 C   0  0  0  0  0  0
  -29.5075  -12.5030   18.2319 C   0  0  0  0  0  0
  -28.0330  -12.3328   18.6456 C   0  0  0  0  0  0
  -27.6337  -13.2426   19.8397 C   0  0  2  0  0  0
  -28.6826  -13.2182   20.9720 C   0  0  0  0  0  0
  -25.2481  -13.8222   20.5741 C   0  0  0  0  0  0
  -24.1786  -13.0447   20.9226 C   0  0  0  0  0  0
  -24.6396  -11.6934   20.8760 C   0  0  0  0  0  0
  -23.9074  -10.4300   21.0410 C   0  0  0  0  0  0
  -24.3626   -9.4216   21.9182 C   0  0  0  0  0  0
  -23.6301   -8.2250   22.0754 C   0  0  0  0  0  0
  -22.4279   -8.0289   21.3546 C   0  0  0  0  0  0
  -21.9915   -9.0267   20.4649 C   0  0  0  0  0  0
  -22.7243  -10.2143   20.3055 C   0  0  0  0  0  0
  -21.6856   -6.0738   22.5278 C   0  0  0  0  0  0
  -21.4019   -6.5640   23.8215 C   0  0  0  0  0  0
  -21.3663   -5.6791   24.9175 C   0  0  0  0  0  0
  -21.6042   -4.3057   24.7223 C   0  0  0  0  0  0
  -21.8819   -3.8151   23.4338 C   0  0  0  0  0  0
  -21.9192   -4.6969   22.3400 C   0  0  0  0  0  0
  -22.7798  -13.5227   21.1875 C   0  0  0  0  0  0
  -22.1662   -4.2153   21.0979 F   0  0  0  0  0  0
  -21.5621   -3.4539   25.7732 F   0  0  0  0  0  0
  -29.9747  -13.5651   20.3690 N   0  0  0  0  0  0
  -26.2905  -12.9449   20.3261 N   0  0  0  0  0  0
  -25.9327  -11.6578   20.5737 N   0  0  0  0  0  0
  -22.0441  -12.8229   22.0437 N   0  0  0  0  0  0
  -25.4137  -15.1960   20.4219 N   0  0  0  0  0  0
  -31.8467  -14.7770   20.1967 O   0  0  0  0  0  0
  -21.6644   -6.8885   21.4238 O   0  0  0  0  0  0
  -22.3481  -14.5521   20.6698 O   0  0  0  0  0  0
  -24.6300  -31.8521   23.1937 C   0  0  0  0  0  0
  -25.9115  -32.4742   23.8306 C   0  0  1  0  0  0
  -27.2298  -27.2545   20.1456 C   0  0  0  0  0  0
  -25.5884  -33.8546   24.2225 N   0  0  0  0  0  0
  -23.4287  -30.4701   21.5369 C   0  0  2  0  0  0
  -24.8799  -28.9044   20.1172 C   0  0  0  0  0  0
  -22.7493  -29.4579   22.4909 C   0  0  0  0  0  0
  -18.0280  -28.1383   22.8484 C   0  0  0  0  0  0
  -24.1479  -36.7301   23.2644 C   0  0  0  0  0  0
  -25.9726  -30.7646   21.3723 C   0  0  0  0  0  0
  -26.0499  -29.3832   20.7213 C   0  0  0  0  0  0
  -27.2303  -28.5730   20.7154 C   0  0  0  0  0  0
  -26.0384  -26.8327   19.5233 C   0  0  0  0  0  0
  -24.8790  -27.6379   19.5072 C   0  0  0  0  0  0
  -23.6500  -29.7932   20.1570 C   0  0  0  0  0  0
  -25.4104  -36.3069   24.0323 C   0  0  1  0  0  0
  -20.5884  -28.3690   23.1270 C   0  0  2  0  0  0
  -20.6766  -26.9404   22.5410 C   0  0  0  0  0  0
  -19.5746  -26.6375   21.5210 C   0  0  0  0  0  0
  -18.1925  -26.7922   22.1624 C   0  0  0  0  0  0
  -19.1538  -28.8854   23.2870 C   0  0  0  0  0  0
  -18.9462  -30.1452   23.8883 C   0  0  0  0  0  0
  -17.6464  -30.6585   24.0562 C   0  0  0  0  0  0
  -25.9041  -34.9434   23.5089 C   0  0  0  0  0  0
  -16.5352  -29.9086   23.6329 C   0  0  0  0  0  0
  -16.7269  -28.6504   23.0350 C   0  0  0  0  0  0
  -26.4483  -31.6584   25.0706 C   0  0  0  0  0  0
  -25.3703  -31.3728   26.1424 C   0  0  0  0  0  0
  -27.0349  -30.3000   24.6200 C   0  0  0  0  0  0
  -27.6009  -32.4349   25.7490 C   0  0  0  0  0  0
  -27.5574  -37.1805   24.8455 C   0  0  0  0  0  0
  -21.4198  -29.3034   22.3660 N   0  0  0  0  0  0
  -26.4284  -37.3769   23.9403 N   0  0  0  0  0  0
  -24.6958  -31.0486   22.0910 N   0  0  0  0  0  0
  -23.4193  -28.8131   23.3019 O   0  0  0  0  0  0
  -28.3534  -26.3971   20.1275 O   0  0  0  0  0  0
  -26.5644  -34.8914   22.4675 O   0  0  0  0  0  0
  -23.5448  -32.1340   23.7230 O   0  0  0  0  0  0
  -29.8014  -19.9246   20.8014 C   0  0  0  0  0  0
  -28.4098  -18.6240   19.4944 C   0  0  0  0  0  0
  -29.5064  -18.5580   20.3231 C   0  0  0  0  0  0
  -28.9935  -20.9829   20.3458 C   0  0  0  0  0  0
  -30.3871  -17.2745   20.5727 C   0  0  0  0  0  0
  -27.3855  -24.9279   21.9250 C   0  0  0  0  0  0
  -28.4623  -23.6063   19.9385 C   0  0  0  0  0  0
  -28.3805  -25.0208   20.7562 C   0  0  2  0  0  0
  -29.0464  -22.4040   20.6769 N   0  0  0  0  0  0
  -29.9036  -15.9667   20.5053 N   0  0  0  0  0  0
  -31.5687  -17.4910   20.8601 O   0  0  0  0  0  0
  -27.7918  -20.2761   19.2847 S   0  0  0  0  0  0
  -31.4667  -12.5794   19.1669 H   0  0  0  0  0  0
  -30.3599  -11.5094   19.9791 H   0  0  0  0  0  0
  -29.7956  -11.7185   17.5307 H   0  0  0  0  0  0
  -29.6339  -13.4487   17.7028 H   0  0  0  0  0  0
  -27.8899  -11.2869   18.9163 H   0  0  0  0  0  0
  -27.3797  -12.5185   17.7924 H   0  0  0  0  0  0
  -27.6129  -14.2580   19.4425 H   0  0  0  0  0  0
  -28.7282  -12.2373   21.4465 H   0  0  0  0  0  0
  -28.4195  -13.9291   21.7570 H   0  0  0  0  0  0
  -25.2780   -9.5690   22.4752 H   0  0  0  0  0  0
  -24.0015   -7.4644   22.7474 H   0  0  0  0  0  0
  -21.0843   -8.8783   19.8966 H   0  0  0  0  0  0
  -22.3703  -10.9679   19.6164 H   0  0  0  0  0  0
  -21.2015   -7.6149   23.9717 H   0  0  0  0  0  0
  -21.1486   -6.0522   25.9076 H   0  0  0  0  0  0
  -22.0594   -2.7611   23.2838 H   0  0  0  0  0  0
  -22.4057  -11.9911   22.4856 H   0  0  0  0  0  0
  -21.1046  -13.1244   22.2611 H   0  0  0  0  0  0
  -24.6459  -15.8454   20.5527 H   0  0  0  0  0  0
  -26.2608  -15.6473   20.1073 H   0  0  0  0  0  0
  -26.7176  -32.5401   23.1043 H   0  0  0  0  0  0
  -24.9989  -33.9675   25.0339 H   0  0  0  0  0  0
  -22.7257  -31.2919   21.3844 H   0  0  0  0  0  0
  -23.3730  -35.9647   23.3297 H   0  0  0  0  0  0
  -24.3560  -36.8936   22.2061 H   0  0  0  0  0  0
  -23.7240  -37.6495   23.6690 H   0  0  0  0  0  0
  -26.1098  -31.5224   20.5999 H   0  0  0  0  0  0
  -26.8502  -30.8201   22.0049 H   0  0  0  0  0  0
  -28.1343  -28.9429   21.1796 H   0  0  0  0  0  0
  -26.0015  -25.8579   19.0576 H   0  0  0  0  0  0
  -23.9832  -27.2635   19.0317 H   0  0  0  0  0  0
  -23.7774  -30.5639   19.3955 H   0  0  0  0  0  0
  -22.7692  -29.2240   19.8542 H   0  0  0  0  0  0
  -25.1289  -36.1912   25.0820 H   0  0  0  0  0  0
  -20.9979  -28.3270   24.1392 H   0  0  0  0  0  0
  -20.5645  -26.2304   23.3618 H   0  0  0  0  0  0
  -21.6640  -26.7419   22.1218 H   0  0  0  0  0  0
  -19.6900  -25.6281   21.1249 H   0  0  0  0  0  0
  -19.6677  -27.3180   20.6735 H   0  0  0  0  0  0
  -17.4191  -26.6657   21.4027 H   0  0  0  0  0  0
  -18.0330  -26.0067   22.9025 H   0  0  0  0  0  0
  -19.7940  -30.7271   24.2245 H   0  0  0  0  0  0
  -17.5019  -31.6260   24.5173 H   0  0  0  0  0  0
  -15.5352  -30.2990   23.7649 H   0  0  0  0  0  0
  -15.8671  -28.0821   22.7071 H   0  0  0  0  0  0
  -24.5866  -30.7093   25.7745 H   0  0  0  0  0  0
  -24.8912  -32.2898   26.4869 H   0  0  0  0  0  0
  -25.8028  -30.8896   27.0199 H   0  0  0  0  0  0
  -26.2937  -29.6687   24.1281 H   0  0  0  0  0  0
  -27.4087  -29.7322   25.4726 H   0  0  0  0  0  0
  -27.8784  -30.4282   23.9405 H   0  0  0  0  0  0
  -27.2592  -33.3660   26.2028 H   0  0  0  0  0  0
  -28.3849  -32.6883   25.0336 H   0  0  0  0  0  0
  -28.0646  -31.8501   26.5441 H   0  0  0  0  0  0
  -28.2582  -38.0110   24.7511 H   0  0  0  0  0  0
  -28.1082  -36.2643   24.6277 H   0  0  0  0  0  0
  -27.2301  -37.1455   25.8859 H   0  0  0  0  0  0
  -20.9383  -29.8782   21.6883 H   0  0  0  0  0  0
  -26.0153  -38.2839   24.1407 H   0  0  0  0  0  0
  -30.6426  -20.0781   21.4615 H   0  0  0  0  0  0
  -27.9469  -17.8110   18.9486 H   0  0  0  0  0  0
  -26.3549  -24.8930   21.5735 H   0  0  0  0  0  0
  -27.4881  -25.7770   22.6013 H   0  0  0  0  0  0
  -27.5596  -24.0265   22.5128 H   0  0  0  0  0  0
  -29.0976  -23.7707   19.0657 H   0  0  0  0  0  0
  -27.4794  -23.3568   19.5379 H   0  0  0  0  0  0
  -29.3584  -25.0639   21.2373 H   0  0  0  0  0  0
  -29.6753  -22.6631   21.4335 H   0  0  0  0  0  0
  -28.9040  -15.8800   20.4587 H   0  0  0  0  0  0
  1 25  1  0  0  0
  1 30  2  0  0  0
  1 80  1  0  0  0
  2  3  1  0  0  0
  2 25  1  0  0  0
  2 83  1  0  0  0
  2 84  1  0  0  0
  3  4  1  0  0  0
  3 85  1  0  0  0
  3 86  1  0  0  0
  4  5  1  0  0  0
  4 87  1  0  0  0
  4 88  1  0  0  0
  5  6  1  0  0  0
  5 26  1  0  0  0
  5 89  1  0  0  0
  6 25  1  0  0  0
  6 90  1  0  0  0
  6 91  1  0  0  0
  7  8  2  0  0  0
  7 26  1  0  0  0
  7 29  1  0  0  0
  8  9  1  0  0  0
  8 22  1  0  0  0
  9 10  1  0  0  0
  9 27  2  0  0  0
 10 11  2  0  0  0
 10 15  1  0  0  0
 11 12  1  0  0  0
 11 92  1  0  0  0
 12 13  2  0  0  0
 12 93  1  0  0  0
 13 14  1  0  0  0
 13 31  1  0  0  0
 14 15  2  0  0  0
 14 94  1  0  0  0
 15 95  1  0  0  0
 16 17  2  0  0  0
 16 21  1  0  0  0
 16 31  1  0  0  0
 17 18  1  0  0  0
 17 96  1  0  0  0
 18 19  2  0  0  0
 18 97  1  0  0  0
 19 20  1  0  0  0
 19 24  1  0  0  0
 20 21  2  0  0  0
 20 98  1  0  0  0
 21 23  1  0  0  0
 22 28  1  0  0  0
 22 32  2  0  0  0
 26 27  1  0  0  0
 28 99  1  0  0  0
 28100  1  0  0  0
 29101  1  0  0  0
 29102  1  0  0  0
 33 34  1  0  0  0
 33 66  1  0  0  0
 33 70  2  0  0  0
 34 36  1  0  0  0
 34 59  1  0  0  0
 34103  1  0  0  0
 35 44  2  0  0  0
 35 45  1  0  0  0
 35 68  1  0  0  0
 36 56  1  0  0  0
 36104  1  0  0  0
 37 39  1  0  0  0
 37 47  1  0  0  0
 37 66  1  0  0  0
 37105  1  0  0  0
 38 43  2  0  0  0
 38 46  1  0  0  0
 38 47  1  0  0  0
 39 64  1  0  0  0
 39 67  2  0  0  0
 40 52  1  0  0  0
 40 53  2  0  0  0
 40 58  1  0  0  0
 41106  1  0  0  0
 41107  1  0  0  0
 41108  1  0  0  0
 41 48  1  0  0  0
 42 43  1  0  0  0
 42 66  1  0  0  0
 42109  1  0  0  0
 42110  1  0  0  0
 43 44  1  0  0  0
 44111  1  0  0  0
 45 46  2  0  0  0
 45112  1  0  0  0
 46113  1  0  0  0
 47114  1  0  0  0
 47115  1  0  0  0
 48 56  1  0  0  0
 48 65  1  0  0  0
 48116  1  0  0  0
 49 50  1  0  0  0
 49 53  1  0  0  0
 49 64  1  0  0  0
 49117  1  0  0  0
 50 51  1  0  0  0
 50118  1  0  0  0
 50119  1  0  0  0
 51 52  1  0  0  0
 51120  1  0  0  0
 51121  1  0  0  0
 52122  1  0  0  0
 52123  1  0  0  0
 53 54  1  0  0  0
 54 55  2  0  0  0
 54124  1  0  0  0
 55 57  1  0  0  0
 55125  1  0  0  0
 56 69  2  0  0  0
 57 58  2  0  0  0
 57126  1  0  0  0
 58127  1  0  0  0
 59 60  1  0  0  0
 59 61  1  0  0  0
 59 62  1  0  0  0
 60128  1  0  0  0
 60129  1  0  0  0
 60130  1  0  0  0
 61131  1  0  0  0
 61132  1  0  0  0
 61133  1  0  0  0
 62134  1  0  0  0
 62135  1  0  0  0
 62136  1  0  0  0
 63 65  1  0  0  0
 63137  1  0  0  0
 63138  1  0  0  0
 63139  1  0  0  0
 64140  1  0  0  0
 65141  1  0  0  0
 68 78  1  0  0  0
 71 73  1  0  0  0
 71 74  2  0  0  0
 71142  1  0  0  0
 72 73  2  0  0  0
 72 82  1  0  0  0
 72143  1  0  0  0
 73 75  1  0  0  0
 74 79  1  0  0  0
 74 82  1  0  0  0
 75 80  1  0  0  0
 75 81  2  0  0  0
 76144  1  0  0  0
 76145  1  0  0  0
 76146  1  0  0  0
 76 78  1  0  0  0
 77 78  1  0  0  0
 77 79  1  0  0  0
 77147  1  0  0  0
 77148  1  0  0  0
 78149  1  0  0  0
 79150  1  0  0  0
 80151  1  0  0  0
M  ISO  4   1 100  68 101  78 101  80 100
M  END
> <chiral flag>
0

> <version>
0

> <s_m_source_file>
/data/baiqing/PycharmProjects/Reinvent-master-3.2/result/LINK_invent/BTK/process_docking_weight1_custom_product_contain_oxygen_bond_distance_aromatic_linkinvent_7_9_3/rearranged_h_0153.sdf

> <i_m_source_file_index>
7

> <r_mmod_Potential_Energy-OPLS-2005>
55.1037940979004

> <r_mmod_Stretch_Energy-OPLS-2005>
128.361328125

> <r_mmod_Bend_Energy-OPLS-2005>
196.509048461914

> <r_mmod_Torsional_Energy-OPLS-2005>
239.358627319336

> <r_mmod_Improper_Torsional_Energy-OPLS-2005>
6.62987470626831

> <r_mmod_Van_der_Waal_Energy-OPLS-2005>
116.345222473145

> <r_mmod_Electrostatic_Energy-OPLS-2005>
-480.23291015625

> <r_mmod_Solvation_Energy-OPLS-2005>
-244.661026000977

> <b_mmod_Minimization_Converged-OPLS-2005>
0

> <r_mmod_RMS_Derivative-OPLS-2005>
1.91277527809143

$$$$
7
                    3D
 Structure written by MMmdl.
154163  0  0  1  0            999 V2000
  -30.6852  -14.5406   20.6374 C   0  0  0  0  0  0
  -30.4388  -12.3706   19.4517 C   0  0  0  0  0  0
  -29.5071  -12.5200   18.2291 C   0  0  0  0  0  0
  -28.0309  -12.3528   18.6393 C   0  0  0  0  0  0
  -27.6627  -13.2048   19.8824 C   0  0  2  0  0  0
  -28.6990  -12.9972   21.0075 C   0  0  0  0  0  0
  -25.2608  -13.8129   20.5681 C   0  0  0  0  0  0
  -24.1842  -13.0424   20.9124 C   0  0  0  0  0  0
  -24.6383  -11.6889   20.8719 C   0  0  0  0  0  0
  -23.9048  -10.4292   21.0386 C   0  0  0  0  0  0
  -24.3602   -9.4210   21.9172 C   0  0  0  0  0  0
  -23.6278   -8.2252   22.0766 C   0  0  0  0  0  0
  -22.4261   -8.0279   21.3555 C   0  0  0  0  0  0
  -21.9885   -9.0248   20.4656 C   0  0  0  0  0  0
  -22.7210  -10.2126   20.3047 C   0  0  0  0  0  0
  -21.6852   -6.0710   22.5268 C   0  0  0  0  0  0
  -21.4009   -6.5619   23.8194 C   0  0  0  0  0  0
  -21.3670   -5.6786   24.9168 C   0  0  0  0  0  0
  -21.6041   -4.3042   24.7225 C   0  0  0  0  0  0
  -21.8827   -3.8127   23.4351 C   0  0  0  0  0  0
  -21.9193   -4.6940   22.3400 C   0  0  0  0  0  0
  -22.7868  -13.5239   21.1798 C   0  0  0  0  0  0
  -22.1660   -4.2118   21.0979 F   0  0  0  0  0  0
  -21.5642   -3.4537   25.7744 F   0  0  0  0  0  0
  -30.0204  -13.3550   20.4703 N   0  0  0  0  0  0
  -26.3029  -12.9296   20.3386 N   0  0  0  0  0  0
  -25.9312  -11.6458   20.5782 N   0  0  0  0  0  0
  -22.0529  -12.8262   22.0380 N   0  0  0  0  0  0
  -25.4339  -15.1852   20.4106 N   0  0  0  0  0  0
  -31.8002  -14.7181   20.1306 O   0  0  0  0  0  0
  -21.6640   -6.8853   21.4229 O   0  0  0  0  0  0
  -22.3563  -14.5549   20.6638 O   0  0  0  0  0  0
  -24.6188  -31.8654   23.2064 C   0  0  0  0  0  0
  -25.9060  -32.4815   23.8372 C   0  0  1  0  0  0
  -27.2375  -27.3981   20.1218 C   0  0  0  0  0  0
  -25.5883  -33.8608   24.2308 N   0  0  0  0  0  0
  -23.4095  -30.4863   21.5470 C   0  0  2  0  0  0
  -24.8611  -28.9484   20.1149 C   0  0  0  0  0  0
  -22.7434  -29.4652   22.4969 C   0  0  0  0  0  0
  -18.0270  -28.1380   22.8479 C   0  0  0  0  0  0
  -24.1484  -36.7295   23.2638 C   0  0  0  0  0  0
  -25.9421  -30.8219   21.3655 C   0  0  0  0  0  0
  -26.0234  -29.4540   20.7111 C   0  0  0  0  0  0
  -27.2182  -28.6899   20.7049 C   0  0  0  0  0  0
  -26.0626  -26.9165   19.5079 C   0  0  0  0  0  0
  -24.8768  -27.6805   19.5057 C   0  0  0  0  0  0
  -23.6222  -29.8172   20.1629 C   0  0  0  0  0  0
  -25.4111  -36.3094   24.0331 C   0  0  1  0  0  0
  -20.5871  -28.3684   23.1296 C   0  0  2  0  0  0
  -20.6758  -26.9408   22.5415 C   0  0  0  0  0  0
  -19.5735  -26.6376   21.5208 C   0  0  0  0  0  0
  -18.1910  -26.7921   22.1611 C   0  0  0  0  0  0
  -19.1523  -28.8844   23.2876 C   0  0  0  0  0  0
  -18.9457  -30.1443   23.8900 C   0  0  0  0  0  0
  -17.6461  -30.6577   24.0579 C   0  0  0  0  0  0
  -25.9045  -34.9461   23.5122 C   0  0  0  0  0  0
  -16.5348  -29.9085   23.6349 C   0  0  0  0  0  0
  -16.7264  -28.6508   23.0360 C   0  0  0  0  0  0
  -26.4489  -31.6607   25.0719 C   0  0  0  0  0  0
  -25.3742  -31.3713   26.1471 C   0  0  0  0  0  0
  -27.0368  -30.3051   24.6131 C   0  0  0  0  0  0
  -27.6068  -32.4361   25.7467 C   0  0  0  0  0  0
  -27.5581  -37.1779   24.8459 C   0  0  0  0  0  0
  -21.4165  -29.3022   22.3686 N   0  0  0  0  0  0
  -26.4290  -37.3785   23.9414 N   0  0  0  0  0  0
  -24.6748  -31.0717   22.0981 N   0  0  0  0  0  0
  -23.4171  -28.8195   23.3050 O   0  0  0  0  0  0
  -28.3731  -26.6030   20.1372 O   0  0  0  0  0  0
  -26.5615  -34.8911   22.4689 O   0  0  0  0  0  0
  -23.5376  -32.1435   23.7425 O   0  0  0  0  0  0
  -29.1947  -20.5722   21.7718 C   0  0  0  0  0  0
  -29.3069  -19.4274   21.0077 C   0  0  0  0  0  0
  -29.1797  -21.6512   20.8260 C   0  0  0  0  0  0
  -28.8951  -24.1377   20.3972 C   0  0  0  0  0  0
  -29.5364  -17.4299   22.6817 C   0  0  0  0  0  0
  -29.6819  -15.8971   22.5169 C   0  0  0  0  0  0
  -30.0220  -16.9390   20.4253 C   0  0  0  0  0  0
  -29.1897  -17.9236   21.2814 C   0  0  2  0  0  0
  -28.3049  -25.4434   21.0182 C   0  0  0  0  0  0
  -29.3415  -21.1959   19.5910 N   0  0  0  0  0  0
  -29.9650  -15.6162   21.0938 N   0  0  0  0  0  0
  -28.9264  -23.0237   21.1802 N   0  0  0  0  0  0
  -29.3336  -24.1694   19.2414 O   0  0  0  0  0  0
  -29.3960  -19.7975   19.6987 O   0  0  0  0  0  0
  -31.4789  -12.4997   19.1465 H   0  0  0  0  0  0
  -30.3812  -11.3627   19.8624 H   0  0  0  0  0  0
  -29.7691  -11.7823   17.4683 H   0  0  0  0  0  0
  -29.6485  -13.5011   17.7724 H   0  0  0  0  0  0
  -27.8685  -11.2952   18.8565 H   0  0  0  0  0  0
  -27.3730  -12.5966   17.8039 H   0  0  0  0  0  0
  -27.7047  -14.2515   19.5802 H   0  0  0  0  0  0
  -28.7069  -11.9547   21.3303 H   0  0  0  0  0  0
  -28.4283  -13.5601   21.8953 H   0  0  0  0  0  0
  -25.2748   -9.5686   22.4739 H   0  0  0  0  0  0
  -23.9975   -7.4649   22.7508 H   0  0  0  0  0  0
  -21.0805   -8.8768   19.8966 H   0  0  0  0  0  0
  -22.3667  -10.9664   19.6164 H   0  0  0  0  0  0
  -21.2002   -7.6127   23.9685 H   0  0  0  0  0  0
  -21.1482   -6.0520   25.9067 H   0  0  0  0  0  0
  -22.0598   -2.7587   23.2865 H   0  0  0  0  0  0
  -22.4156  -11.9925   22.4756 H   0  0  0  0  0  0
  -21.1167  -13.1323   22.2633 H   0  0  0  0  0  0
  -24.6684  -15.8418   20.5200 H   0  0  0  0  0  0
  -26.2943  -15.6252   20.1102 H   0  0  0  0  0  0
  -26.7117  -32.5544   23.1130 H   0  0  0  0  0  0
  -25.0020  -33.9757   25.0436 H   0  0  0  0  0  0
  -22.7015  -31.3054   21.4045 H   0  0  0  0  0  0
  -23.3739  -35.9631   23.3325 H   0  0  0  0  0  0
  -24.3573  -36.8921   22.2049 H   0  0  0  0  0  0
  -23.7242  -37.6488   23.6680 H   0  0  0  0  0  0
  -26.0581  -31.5928   20.6011 H   0  0  0  0  0  0
  -26.8248  -30.8728   21.9905 H   0  0  0  0  0  0
  -28.1188  -29.0769   21.1622 H   0  0  0  0  0  0
  -26.0672  -25.9442   19.0371 H   0  0  0  0  0  0
  -23.9879  -27.2843   19.0364 H   0  0  0  0  0  0
  -23.7267  -30.5950   19.4046 H   0  0  0  0  0  0
  -22.7444  -29.2379   19.8708 H   0  0  0  0  0  0
  -25.1283  -36.1956   25.0822 H   0  0  0  0  0  0
  -20.9953  -28.3269   24.1417 H   0  0  0  0  0  0
  -20.5685  -26.2277   23.3605 H   0  0  0  0  0  0
  -21.6633  -26.7462   22.1197 H   0  0  0  0  0  0
  -19.6927  -25.6292   21.1238 H   0  0  0  0  0  0
  -19.6703  -27.3194   20.6750 H   0  0  0  0  0  0
  -17.4192  -26.6683   21.4002 H   0  0  0  0  0  0
  -18.0299  -26.0066   22.9012 H   0  0  0  0  0  0
  -19.7952  -30.7232   24.2274 H   0  0  0  0  0  0
  -17.5039  -31.6283   24.5143 H   0  0  0  0  0  0
  -15.5350  -30.2983   23.7680 H   0  0  0  0  0  0
  -15.8675  -28.0826   22.7076 H   0  0  0  0  0  0
  -24.5894  -30.7101   25.7784 H   0  0  0  0  0  0
  -24.8946  -32.2862   26.4974 H   0  0  0  0  0  0
  -25.8061  -30.8833   27.0216 H   0  0  0  0  0  0
  -26.2941  -29.6723   24.1263 H   0  0  0  0  0  0
  -27.4224  -29.7394   25.4616 H   0  0  0  0  0  0
  -27.8710  -30.4370   23.9240 H   0  0  0  0  0  0
  -27.2694  -33.3657   26.2058 H   0  0  0  0  0  0
  -28.3829  -32.6947   25.0257 H   0  0  0  0  0  0
  -28.0761  -31.8489   26.5366 H   0  0  0  0  0  0
  -28.2583  -38.0088   24.7536 H   0  0  0  0  0  0
  -28.1094  -36.2622   24.6261 H   0  0  0  0  0  0
  -27.2289  -37.1402   25.8855 H   0  0  0  0  0  0
  -20.9318  -29.8734   21.6907 H   0  0  0  0  0  0
  -26.0181  -38.2861   24.1441 H   0  0  0  0  0  0
  -29.0609  -20.6141   22.8439 H   0  0  0  0  0  0
  -30.4867  -17.8637   22.9973 H   0  0  0  0  0  0
  -28.7889  -17.7078   23.4264 H   0  0  0  0  0  0
  -28.7422  -15.4327   22.8087 H   0  0  0  0  0  0
  -30.4552  -15.5043   23.1798 H   0  0  0  0  0  0
  -31.0602  -17.2737   20.3804 H   0  0  0  0  0  0
  -29.6448  -16.8804   19.4039 H   0  0  0  0  0  0
  -28.1411  -17.6685   21.1166 H   0  0  0  0  0  0
  -28.8530  -25.6830   21.9304 H   0  0  0  0  0  0
  -27.2803  -25.2344   21.3301 H   0  0  0  0  0  0
  -28.6538  -23.1670   22.1414 H   0  0  0  0  0  0
  1 25  1  0  0  0
  1 30  2  0  0  0
  1 81  1  0  0  0
  2  3  1  0  0  0
  2 25  1  0  0  0
  2 85  1  0  0  0
  2 86  1  0  0  0
  3  4  1  0  0  0
  3 87  1  0  0  0
  3 88  1  0  0  0
  4  5  1  0  0  0
  4 89  1  0  0  0
  4 90  1  0  0  0
  5  6  1  0  0  0
  5 26  1  0  0  0
  5 91  1  0  0  0
  6 25  1  0  0  0
  6 92  1  0  0  0
  6 93  1  0  0  0
  7  8  2  0  0  0
  7 26  1  0  0  0
  7 29  1  0  0  0
  8  9  1  0  0  0
  8 22  1  0  0  0
  9 10  1  0  0  0
  9 27  2  0  0  0
 10 11  2  0  0  0
 10 15  1  0  0  0
 11 12  1  0  0  0
 11 94  1  0  0  0
 12 13  2  0  0  0
 12 95  1  0  0  0
 13 14  1  0  0  0
 13 31  1  0  0  0
 14 15  2  0  0  0
 14 96  1  0  0  0
 15 97  1  0  0  0
 16 17  2  0  0  0
 16 21  1  0  0  0
 16 31  1  0  0  0
 17 18  1  0  0  0
 17 98  1  0  0  0
 18 19  2  0  0  0
 18 99  1  0  0  0
 19 20  1  0  0  0
 19 24  1  0  0  0
 20 21  2  0  0  0
 20100  1  0  0  0
 21 23  1  0  0  0
 22 28  1  0  0  0
 22 32  2  0  0  0
 26 27  1  0  0  0
 28101  1  0  0  0
 28102  1  0  0  0
 29103  1  0  0  0
 29104  1  0  0  0
 33 34  1  0  0  0
 33 66  1  0  0  0
 33 70  2  0  0  0
 34 36  1  0  0  0
 34 59  1  0  0  0
 34105  1  0  0  0
 35 44  2  0  0  0
 35 45  1  0  0  0
 35 68  1  0  0  0
 36 56  1  0  0  0
 36106  1  0  0  0
 37 39  1  0  0  0
 37 47  1  0  0  0
 37 66  1  0  0  0
 37107  1  0  0  0
 38 43  2  0  0  0
 38 46  1  0  0  0
 38 47  1  0  0  0
 39 64  1  0  0  0
 39 67  2  0  0  0
 40 52  1  0  0  0
 40 53  2  0  0  0
 40 58  1  0  0  0
 41108  1  0  0  0
 41109  1  0  0  0
 41110  1  0  0  0
 41 48  1  0  0  0
 42 43  1  0  0  0
 42 66  1  0  0  0
 42111  1  0  0  0
 42112  1  0  0  0
 43 44  1  0  0  0
 44113  1  0  0  0
 45 46  2  0  0  0
 45114  1  0  0  0
 46115  1  0  0  0
 47116  1  0  0  0
 47117  1  0  0  0
 48 56  1  0  0  0
 48 65  1  0  0  0
 48118  1  0  0  0
 49 50  1  0  0  0
 49 53  1  0  0  0
 49 64  1  0  0  0
 49119  1  0  0  0
 50 51  1  0  0  0
 50120  1  0  0  0
 50121  1  0  0  0
 51 52  1  0  0  0
 51122  1  0  0  0
 51123  1  0  0  0
 52124  1  0  0  0
 52125  1  0  0  0
 53 54  1  0  0  0
 54 55  2  0  0  0
 54126  1  0  0  0
 55 57  1  0  0  0
 55127  1  0  0  0
 56 69  2  0  0  0
 57 58  2  0  0  0
 57128  1  0  0  0
 58129  1  0  0  0
 59 60  1  0  0  0
 59 61  1  0  0  0
 59 62  1  0  0  0
 60130  1  0  0  0
 60131  1  0  0  0
 60132  1  0  0  0
 61133  1  0  0  0
 61134  1  0  0  0
 61135  1  0  0  0
 62136  1  0  0  0
 62137  1  0  0  0
 62138  1  0  0  0
 63 65  1  0  0  0
 63139  1  0  0  0
 63140  1  0  0  0
 63141  1  0  0  0
 64142  1  0  0  0
 65143  1  0  0  0
 68 79  1  0  0  0
 71 72  2  0  0  0
 71 73  1  0  0  0
 71144  1  0  0  0
 72 84  1  0  0  0
 72 78  1  0  0  0
 73 80  2  0  0  0
 73 82  1  0  0  0
 74 79  1  0  0  0
 74 82  1  0  0  0
 74 83  2  0  0  0
 75 76  1  0  0  0
 75 78  1  0  0  0
 75145  1  0  0  0
 75146  1  0  0  0
 76 81  1  0  0  0
 76147  1  0  0  0
 76148  1  0  0  0
 77 78  1  0  0  0
 77 81  1  0  0  0
 77149  1  0  0  0
 77150  1  0  0  0
 78151  1  0  0  0
 79152  1  0  0  0
 79153  1  0  0  0
 80 84  1  0  0  0
 82154  1  0  0  0
M  ISO  4   1 100  68 101  79 101  81 100
M  END
> <chiral flag>
0

> <version>
0

> <s_m_source_file>
/data/baiqing/PycharmProjects/Reinvent-master-3.2/result/LINK_invent/BTK/process_docking_weight1_custom_product_contain_oxygen_bond_distance_aromatic_linkinvent_7_9_3/rearranged_h_0153.sdf

> <i_m_source_file_index>
8

> <r_mmod_Potential_Energy-OPLS-2005>
88.5694274902344

> <r_mmod_Stretch_Energy-OPLS-2005>
51.2605628967285

> <r_mmod_Bend_Energy-OPLS-2005>
137.872482299805

> <r_mmod_Torsional_Energy-OPLS-2005>
347.942840576172

> <r_mmod_Improper_Torsional_Energy-OPLS-2005>
11.6451034545898

> <r_mmod_Van_der_Waal_Energy-OPLS-2005>
118.568557739258

> <r_mmod_Electrostatic_Energy-OPLS-2005>
-336.943145751953

> <r_mmod_Solvation_Energy-OPLS-2005>
-263.570739746094

> <b_mmod_Minimization_Converged-OPLS-2005>
0

> <r_mmod_RMS_Derivative-OPLS-2005>
3.21938586235046

$$$$
8
                    3D
 Structure written by MMmdl.
157166  0  0  1  0            999 V2000
  -30.5498  -14.8365   20.4406 C   0  0  0  0  0  0
  -30.4488  -12.5164   19.4635 C   0  0  0  0  0  0
  -29.5148  -12.5072   18.2318 C   0  0  0  0  0  0
  -28.0437  -12.3108   18.6550 C   0  0  0  0  0  0
  -27.6345  -13.2280   19.8374 C   0  0  2  0  0  0
  -28.6840  -13.1993   20.9678 C   0  0  0  0  0  0
  -25.2489  -13.8178   20.5699 C   0  0  0  0  0  0
  -24.1785  -13.0424   20.9214 C   0  0  0  0  0  0
  -24.6374  -11.6905   20.8738 C   0  0  0  0  0  0
  -23.9049  -10.4287   21.0404 C   0  0  0  0  0  0
  -24.3604   -9.4204   21.9182 C   0  0  0  0  0  0
  -23.6283   -8.2236   22.0750 C   0  0  0  0  0  0
  -22.4264   -8.0272   21.3541 C   0  0  0  0  0  0
  -21.9896   -9.0246   20.4644 C   0  0  0  0  0  0
  -22.7220  -10.2128   20.3054 C   0  0  0  0  0  0
  -21.6852   -6.0724   22.5276 C   0  0  0  0  0  0
  -21.4015   -6.5629   23.8210 C   0  0  0  0  0  0
  -21.3661   -5.6782   24.9174 C   0  0  0  0  0  0
  -21.6044   -4.3046   24.7226 C   0  0  0  0  0  0
  -21.8820   -3.8138   23.4347 C   0  0  0  0  0  0
  -21.9191   -4.6953   22.3401 C   0  0  0  0  0  0
  -22.7804  -13.5210   21.1878 C   0  0  0  0  0  0
  -22.1660   -4.2136   21.0981 F   0  0  0  0  0  0
  -21.5631   -3.4532   25.7743 F   0  0  0  0  0  0
  -29.9673  -13.5858   20.3677 N   0  0  0  0  0  0
  -26.2900  -12.9374   20.3230 N   0  0  0  0  0  0
  -25.9302  -11.6524   20.5722 N   0  0  0  0  0  0
  -22.0447  -12.8209   22.0439 N   0  0  0  0  0  0
  -25.4157  -15.1915   20.4148 N   0  0  0  0  0  0
  -31.7658  -14.9478   20.2567 O   0  0  0  0  0  0
  -21.6633   -6.8865   21.4237 O   0  0  0  0  0  0
  -22.3488  -14.5511   20.6717 O   0  0  0  0  0  0
  -24.6352  -31.8505   23.1914 C   0  0  0  0  0  0
  -25.9148  -32.4732   23.8293 C   0  0  1  0  0  0
  -27.2271  -27.2064   20.1589 C   0  0  0  0  0  0
  -25.5913  -33.8533   24.2211 N   0  0  0  0  0  0
  -23.4352  -30.4671   21.5371 C   0  0  2  0  0  0
  -24.8842  -28.8879   20.1293 C   0  0  0  0  0  0
  -22.7517  -29.4578   22.4915 C   0  0  0  0  0  0
  -18.0293  -28.1389   22.8487 C   0  0  0  0  0  0
  -24.1486  -36.7278   23.2645 C   0  0  0  0  0  0
  -25.9834  -30.7459   21.3772 C   0  0  0  0  0  0
  -26.0577  -29.3562   20.7353 C   0  0  0  0  0  0
  -27.2350  -28.5319   20.7275 C   0  0  0  0  0  0
  -26.0279  -26.8042   19.5402 C   0  0  0  0  0  0
  -24.8753  -27.6205   19.5226 C   0  0  0  0  0  0
  -23.6587  -29.7854   20.1609 C   0  0  0  0  0  0
  -25.4117  -36.3057   24.0322 C   0  0  1  0  0  0
  -20.5897  -28.3703   23.1266 C   0  0  2  0  0  0
  -20.6775  -26.9416   22.5413 C   0  0  0  0  0  0
  -19.5753  -26.6383   21.5215 C   0  0  0  0  0  0
  -18.1933  -26.7929   22.1628 C   0  0  0  0  0  0
  -19.1547  -28.8864   23.2868 C   0  0  0  0  0  0
  -18.9467  -30.1462   23.8892 C   0  0  0  0  0  0
  -17.6466  -30.6591   24.0561 C   0  0  0  0  0  0
  -25.9059  -34.9429   23.5080 C   0  0  0  0  0  0
  -16.5357  -29.9088   23.6331 C   0  0  0  0  0  0
  -16.7278  -28.6502   23.0359 C   0  0  0  0  0  0
  -26.4496  -31.6582   25.0710 C   0  0  0  0  0  0
  -25.3697  -31.3758   26.1419 C   0  0  0  0  0  0
  -27.0355  -30.2995   24.6231 C   0  0  0  0  0  0
  -27.6034  -32.4345   25.7486 C   0  0  0  0  0  0
  -27.5577  -37.1794   24.8466 C   0  0  0  0  0  0
  -21.4220  -29.3044   22.3653 N   0  0  0  0  0  0
  -26.4291  -37.3761   23.9406 N   0  0  0  0  0  0
  -24.7039  -31.0415   22.0916 N   0  0  0  0  0  0
  -23.4193  -28.8136   23.3044 O   0  0  0  0  0  0
  -28.3556  -26.3578   20.0190 O   0  0  0  0  0  0
  -26.5657  -34.8917   22.4663 O   0  0  0  0  0  0
  -23.5488  -32.1347   23.7179 O   0  0  0  0  0  0
  -29.2319  -18.8100   22.7879 C   0  0  0  0  0  0
  -29.2499  -19.9939   22.0133 C   0  0  0  0  0  0
  -29.4630  -17.5322   22.2258 C   0  0  0  0  0  0
  -29.6953  -18.5999   20.0626 C   0  0  0  0  0  0
  -29.5056  -19.9500   20.6288 C   0  0  0  0  0  0
  -29.7003  -17.3564   20.8448 C   0  0  0  0  0  0
  -29.8590  -21.2825   19.9211 C   0  0  0  0  0  0
  -30.1508  -24.8908   20.6395 C   0  0  0  0  0  0
  -30.4165  -23.7230   19.6671 C   0  0  0  0  0  0
  -28.2242  -23.4863   20.4279 C   0  0  0  0  0  0
  -28.6265  -25.0501   20.7493 C   0  0  2  0  0  0
  -29.4562  -22.6499   20.0253 N   0  0  0  0  0  0
  -29.6941  -15.9423   20.3380 N   0  0  0  0  0  0
  -30.8668  -21.0900   19.0703 N   0  3  0  0  0  0
  -31.4811  -12.6855   19.1512 H   0  0  0  0  0  0
  -30.4382  -11.5499   19.9702 H   0  0  0  0  0  0
  -29.8127  -11.7192   17.5381 H   0  0  0  0  0  0
  -29.6162  -13.4475   17.6874 H   0  0  0  0  0  0
  -27.9234  -11.2666   18.9455 H   0  0  0  0  0  0
  -27.3793  -12.4671   17.8045 H   0  0  0  0  0  0
  -27.6111  -14.2384   19.4297 H   0  0  0  0  0  0
  -28.7475  -12.2090   21.4217 H   0  0  0  0  0  0
  -28.4084  -13.8886   21.7682 H   0  0  0  0  0  0
  -25.2756   -9.5684   22.4750 H   0  0  0  0  0  0
  -23.9996   -7.4627   22.7468 H   0  0  0  0  0  0
  -21.0824   -8.8762   19.8954 H   0  0  0  0  0  0
  -22.3674  -10.9665   19.6158 H   0  0  0  0  0  0
  -21.2012   -7.6139   23.9710 H   0  0  0  0  0  0
  -21.1479   -6.0513   25.9073 H   0  0  0  0  0  0
  -22.0599   -2.7598   23.2851 H   0  0  0  0  0  0
  -22.4053  -11.9879   22.4853 H   0  0  0  0  0  0
  -21.1061  -13.1241   22.2630 H   0  0  0  0  0  0
  -24.6451  -15.8394   20.5385 H   0  0  0  0  0  0
  -26.2568  -15.6445   20.0852 H   0  0  0  0  0  0
  -26.7213  -32.5370   23.1029 H   0  0  0  0  0  0
  -24.9998  -33.9655   25.0315 H   0  0  0  0  0  0
  -22.7344  -31.2900   21.3808 H   0  0  0  0  0  0
  -23.3746  -35.9613   23.3311 H   0  0  0  0  0  0
  -24.3567  -36.8906   22.2058 H   0  0  0  0  0  0
  -23.7245  -37.6479   23.6678 H   0  0  0  0  0  0
  -26.1224  -31.4960   20.5976 H   0  0  0  0  0  0
  -26.8606  -30.8063   22.0095 H   0  0  0  0  0  0
  -28.1480  -28.9042   21.1699 H   0  0  0  0  0  0
  -25.9856  -25.8400   19.0531 H   0  0  0  0  0  0
  -23.9772  -27.2574   19.0419 H   0  0  0  0  0  0
  -23.7909  -30.5526   19.3971 H   0  0  0  0  0  0
  -22.7753  -29.2203   19.8576 H   0  0  0  0  0  0
  -25.1302  -36.1897   25.0816 H   0  0  0  0  0  0
  -20.9989  -28.3284   24.1387 H   0  0  0  0  0  0
  -20.5666  -26.2315   23.3622 H   0  0  0  0  0  0
  -21.6643  -26.7428   22.1216 H   0  0  0  0  0  0
  -19.6912  -25.6292   21.1250 H   0  0  0  0  0  0
  -19.6687  -27.3187   20.6740 H   0  0  0  0  0  0
  -17.4200  -26.6678   21.4031 H   0  0  0  0  0  0
  -18.0333  -26.0072   22.9026 H   0  0  0  0  0  0
  -19.7942  -30.7277   24.2264 H   0  0  0  0  0  0
  -17.5020  -31.6271   24.5161 H   0  0  0  0  0  0
  -15.5358  -30.2990   23.7652 H   0  0  0  0  0  0
  -15.8678  -28.0814   22.7086 H   0  0  0  0  0  0
  -24.5846  -30.7145   25.7733 H   0  0  0  0  0  0
  -24.8917  -32.2943   26.4838 H   0  0  0  0  0  0
  -25.7982  -30.8918   27.0203 H   0  0  0  0  0  0
  -26.2957  -29.6733   24.1231 H   0  0  0  0  0  0
  -27.3998  -29.7273   25.4774 H   0  0  0  0  0  0
  -27.8847  -30.4266   23.9512 H   0  0  0  0  0  0
  -27.2621  -33.3644   26.2046 H   0  0  0  0  0  0
  -28.3843  -32.6915   25.0316 H   0  0  0  0  0  0
  -28.0704  -31.8490   26.5414 H   0  0  0  0  0  0
  -28.2599  -38.0087   24.7498 H   0  0  0  0  0  0
  -28.1068  -36.2614   24.6305 H   0  0  0  0  0  0
  -27.2292  -37.1460   25.8870 H   0  0  0  0  0  0
  -20.9424  -29.8745   21.6830 H   0  0  0  0  0  0
  -26.0165  -38.2836   24.1399 H   0  0  0  0  0  0
  -29.0526  -18.8829   23.8514 H   0  0  0  0  0  0
  -29.1343  -20.9503   22.5066 H   0  0  0  0  0  0
  -29.4140  -16.6692   22.8747 H   0  0  0  0  0  0
  -29.8740  -18.5197   18.9998 H   0  0  0  0  0  0
  -30.6402  -25.8044   20.3003 H   0  0  0  0  0  0
  -30.5757  -24.6496   21.6146 H   0  0  0  0  0  0
  -31.4604  -23.4173   19.7594 H   0  0  0  0  0  0
  -30.2513  -24.0366   18.6345 H   0  0  0  0  0  0
  -27.4699  -23.4422   19.6425 H   0  0  0  0  0  0
  -27.7746  -23.0378   21.3148 H   0  0  0  0  0  0
  -28.3702  -25.2486   21.7906 H   0  0  0  0  0  0
  -28.7593  -15.6249   20.1386 H   0  0  0  0  0  0
  -31.2910  -20.1762   19.0255 H   0  0  0  0  0  0
  -31.1528  -21.7897   18.4078 H   0  0  0  0  0  0
  1 25  1  0  0  0
  1 30  2  0  0  0
  1 83  1  0  0  0
  2  3  1  0  0  0
  2 25  1  0  0  0
  2 85  1  0  0  0
  2 86  1  0  0  0
  3  4  1  0  0  0
  3 87  1  0  0  0
  3 88  1  0  0  0
  4  5  1  0  0  0
  4 89  1  0  0  0
  4 90  1  0  0  0
  5  6  1  0  0  0
  5 26  1  0  0  0
  5 91  1  0  0  0
  6 25  1  0  0  0
  6 92  1  0  0  0
  6 93  1  0  0  0
  7  8  2  0  0  0
  7 26  1  0  0  0
  7 29  1  0  0  0
  8  9  1  0  0  0
  8 22  1  0  0  0
  9 10  1  0  0  0
  9 27  2  0  0  0
 10 11  2  0  0  0
 10 15  1  0  0  0
 11 12  1  0  0  0
 11 94  1  0  0  0
 12 13  2  0  0  0
 12 95  1  0  0  0
 13 14  1  0  0  0
 13 31  1  0  0  0
 14 15  2  0  0  0
 14 96  1  0  0  0
 15 97  1  0  0  0
 16 17  2  0  0  0
 16 21  1  0  0  0
 16 31  1  0  0  0
 17 18  1  0  0  0
 17 98  1  0  0  0
 18 19  2  0  0  0
 18 99  1  0  0  0
 19 20  1  0  0  0
 19 24  1  0  0  0
 20 21  2  0  0  0
 20100  1  0  0  0
 21 23  1  0  0  0
 22 28  1  0  0  0
 22 32  2  0  0  0
 26 27  1  0  0  0
 28101  1  0  0  0
 28102  1  0  0  0
 29103  1  0  0  0
 29104  1  0  0  0
 33 34  1  0  0  0
 33 66  1  0  0  0
 33 70  2  0  0  0
 34 36  1  0  0  0
 34 59  1  0  0  0
 34105  1  0  0  0
 35 44  2  0  0  0
 35 45  1  0  0  0
 35 68  1  0  0  0
 36 56  1  0  0  0
 36106  1  0  0  0
 37 39  1  0  0  0
 37 47  1  0  0  0
 37 66  1  0  0  0
 37107  1  0  0  0
 38 43  2  0  0  0
 38 46  1  0  0  0
 38 47  1  0  0  0
 39 64  1  0  0  0
 39 67  2  0  0  0
 40 52  1  0  0  0
 40 53  2  0  0  0
 40 58  1  0  0  0
 41108  1  0  0  0
 41109  1  0  0  0
 41110  1  0  0  0
 41 48  1  0  0  0
 42 43  1  0  0  0
 42 66  1  0  0  0
 42111  1  0  0  0
 42112  1  0  0  0
 43 44  1  0  0  0
 44113  1  0  0  0
 45 46  2  0  0  0
 45114  1  0  0  0
 46115  1  0  0  0
 47116  1  0  0  0
 47117  1  0  0  0
 48 56  1  0  0  0
 48 65  1  0  0  0
 48118  1  0  0  0
 49 50  1  0  0  0
 49 53  1  0  0  0
 49 64  1  0  0  0
 49119  1  0  0  0
 50 51  1  0  0  0
 50120  1  0  0  0
 50121  1  0  0  0
 51 52  1  0  0  0
 51122  1  0  0  0
 51123  1  0  0  0
 52124  1  0  0  0
 52125  1  0  0  0
 53 54  1  0  0  0
 54 55  2  0  0  0
 54126  1  0  0  0
 55 57  1  0  0  0
 55127  1  0  0  0
 56 69  2  0  0  0
 57 58  2  0  0  0
 57128  1  0  0  0
 58129  1  0  0  0
 59 60  1  0  0  0
 59 61  1  0  0  0
 59 62  1  0  0  0
 60130  1  0  0  0
 60131  1  0  0  0
 60132  1  0  0  0
 61133  1  0  0  0
 61134  1  0  0  0
 61135  1  0  0  0
 62136  1  0  0  0
 62137  1  0  0  0
 62138  1  0  0  0
 63 65  1  0  0  0
 63139  1  0  0  0
 63140  1  0  0  0
 63141  1  0  0  0
 64142  1  0  0  0
 65143  1  0  0  0
 68 81  1  0  0  0
 71 72  2  0  0  0
 71 73  1  0  0  0
 71144  1  0  0  0
 72 75  1  0  0  0
 72145  1  0  0  0
 73 76  2  0  0  0
 73146  1  0  0  0
 74 75  2  0  0  0
 74 76  1  0  0  0
 74147  1  0  0  0
 75 77  1  0  0  0
 76 83  1  0  0  0
 77 82  1  0  0  0
 77 84  2  0  0  0
 78 79  1  0  0  0
 78 81  1  0  0  0
 78148  1  0  0  0
 78149  1  0  0  0
 79 82  1  0  0  0
 79150  1  0  0  0
 79151  1  0  0  0
 80 81  1  0  0  0
 80 82  1  0  0  0
 80152  1  0  0  0
 80153  1  0  0  0
 81154  1  0  0  0
 83155  1  0  0  0
 84156  1  0  0  0
 84157  1  0  0  0
M  CHG  1  84   1
M  ISO  4   1 100  68 101  81 101  83 100
M  END
> <chiral flag>
0

> <version>
0

> <s_m_source_file>
/data/baiqing/PycharmProjects/Reinvent-master-3.2/result/LINK_invent/BTK/process_docking_weight1_custom_product_contain_oxygen_bond_distance_aromatic_linkinvent_7_9_3/rearranged_h_0153.sdf

> <i_m_source_file_index>
9

> <r_mmod_Potential_Energy-OPLS-2005>
304.460357666016

> <r_mmod_Stretch_Energy-OPLS-2005>
164.34196472168

> <r_mmod_Bend_Energy-OPLS-2005>
305.806091308594

> <r_mmod_Torsional_Energy-OPLS-2005>
377.255737304688

> <r_mmod_Improper_Torsional_Energy-OPLS-2005>
16.6606960296631

> <r_mmod_Van_der_Waal_Energy-OPLS-2005>
131.409103393555

> <r_mmod_Electrostatic_Energy-OPLS-2005>
-400.792053222656

> <r_mmod_Solvation_Energy-OPLS-2005>
-412.016784667969

> <b_mmod_Minimization_Converged-OPLS-2005>
0

> <r_mmod_RMS_Derivative-OPLS-2005>
1.0038423538208

$$$$
9
                    3D
 Structure written by MMmdl.
162171  0  0  1  0            999 V2000
  -30.6175  -14.6421   20.5079 C   0  0  0  0  0  0
  -30.4455  -12.3963   19.4481 C   0  0  0  0  0  0
  -29.5112  -12.5073   18.2223 C   0  0  0  0  0  0
  -28.0348  -12.3386   18.6369 C   0  0  0  0  0  0
  -27.6572  -13.2119   19.8627 C   0  0  2  0  0  0
  -28.7020  -13.0605   20.9924 C   0  0  0  0  0  0
  -25.2590  -13.8166   20.5678 C   0  0  0  0  0  0
  -24.1853  -13.0445   20.9201 C   0  0  0  0  0  0
  -24.6403  -11.6913   20.8735 C   0  0  0  0  0  0
  -23.9071  -10.4304   21.0404 C   0  0  0  0  0  0
  -24.3616   -9.4215   21.9179 C   0  0  0  0  0  0
  -23.6288   -8.2251   22.0762 C   0  0  0  0  0  0
  -22.4266   -8.0293   21.3560 C   0  0  0  0  0  0
  -21.9902   -9.0270   20.4659 C   0  0  0  0  0  0
  -22.7239  -10.2143   20.3056 C   0  0  0  0  0  0
  -21.6858   -6.0732   22.5280 C   0  0  0  0  0  0
  -21.4015   -6.5632   23.8212 C   0  0  0  0  0  0
  -21.3657   -5.6786   24.9178 C   0  0  0  0  0  0
  -21.6037   -4.3052   24.7229 C   0  0  0  0  0  0
  -21.8818   -3.8147   23.4350 C   0  0  0  0  0  0
  -21.9196   -4.6959   22.3401 C   0  0  0  0  0  0
  -22.7866  -13.5251   21.1841 C   0  0  0  0  0  0
  -22.1662   -4.2139   21.0979 F   0  0  0  0  0  0
  -21.5629   -3.4537   25.7748 F   0  0  0  0  0  0
  -30.0196  -13.4103   20.4337 N   0  0  0  0  0  0
  -26.3014  -12.9331   20.3304 N   0  0  0  0  0  0
  -25.9327  -11.6491   20.5737 N   0  0  0  0  0  0
  -22.0489  -12.8270   22.0401 N   0  0  0  0  0  0
  -25.4322  -15.1881   20.4050 N   0  0  0  0  0  0
  -31.7681  -14.8258   20.0996 O   0  0  0  0  0  0
  -21.6644   -6.8880   21.4246 O   0  0  0  0  0  0
  -22.3569  -14.5556   20.6683 O   0  0  0  0  0  0
  -24.6252  -31.8622   23.2023 C   0  0  0  0  0  0
  -25.9089  -32.4798   23.8363 C   0  0  1  0  0  0
  -27.2254  -27.3254   20.1081 C   0  0  0  0  0  0
  -25.5890  -33.8598   24.2280 N   0  0  0  0  0  0
  -23.4185  -30.4861   21.5473 C   0  0  2  0  0  0
  -24.8638  -28.9453   20.1130 C   0  0  0  0  0  0
  -22.7476  -29.4643   22.4961 C   0  0  0  0  0  0
  -18.0276  -28.1392   22.8503 C   0  0  0  0  0  0
  -24.1474  -36.7309   23.2639 C   0  0  0  0  0  0
  -25.9604  -30.7947   21.3722 C   0  0  0  0  0  0
  -26.0346  -29.4222   20.7159 C   0  0  0  0  0  0
  -27.2178  -28.6234   20.7050 C   0  0  0  0  0  0
  -26.0257  -26.9044   19.4823 C   0  0  0  0  0  0
  -24.8618  -27.6913   19.4898 C   0  0  0  0  0  0
  -23.6310  -29.8219   20.1635 C   0  0  0  0  0  0
  -25.4098  -36.3103   24.0335 C   0  0  1  0  0  0
  -20.5880  -28.3687   23.1292 C   0  0  2  0  0  0
  -20.6757  -26.9411   22.5415 C   0  0  0  0  0  0
  -19.5732  -26.6391   21.5213 C   0  0  0  0  0  0
  -18.1914  -26.7938   22.1630 C   0  0  0  0  0  0
  -19.1534  -28.8860   23.2889 C   0  0  0  0  0  0
  -18.9459  -30.1465   23.8905 C   0  0  0  0  0  0
  -17.6460  -30.6595   24.0571 C   0  0  0  0  0  0
  -25.9043  -34.9468   23.5123 C   0  0  0  0  0  0
  -16.5350  -29.9101   23.6336 C   0  0  0  0  0  0
  -16.7264  -28.6513   23.0367 C   0  0  0  0  0  0
  -26.4452  -31.6611   25.0743 C   0  0  0  0  0  0
  -25.3669  -31.3776   26.1474 C   0  0  0  0  0  0
  -27.0269  -30.3024   24.6198 C   0  0  0  0  0  0
  -27.6027  -32.4337   25.7501 C   0  0  0  0  0  0
  -27.5577  -37.1804   24.8465 C   0  0  0  0  0  0
  -21.4187  -29.3045   22.3695 N   0  0  0  0  0  0
  -26.4278  -37.3796   23.9419 N   0  0  0  0  0  0
  -24.6877  -31.0636   22.0972 N   0  0  0  0  0  0
  -23.4199  -28.8177   23.3035 O   0  0  0  0  0  0
  -28.3453  -26.4746   20.1599 O   0  0  0  0  0  0
  -26.5642  -34.8931   22.4703 O   0  0  0  0  0  0
  -23.5412  -32.1426   23.7339 O   0  0  0  0  0  0
  -30.7712  -19.3168   20.0966 C   0  0  0  0  0  0
  -30.8632  -17.8923   20.1853 C   0  0  0  0  0  0
  -28.7314  -17.8585   21.2859 C   0  0  0  0  0  0
  -28.6233  -19.2804   21.1944 C   0  0  0  0  0  0
  -29.6602  -20.0648   20.5862 C   0  0  0  0  0  0
  -29.8366  -17.1198   20.7895 C   0  0  0  0  0  0
  -27.4110  -19.8496   21.7938 C   0  0  0  0  0  0
  -29.5918  -23.6539   21.6570 C   0  0  0  0  0  0
  -30.2586  -22.2530   21.6756 C   0  0  0  0  0  0
  -28.8644  -22.4412   19.7602 C   0  0  0  0  0  0
  -29.2230  -23.9177   20.1906 C   0  0  1  0  0  0
  -28.1180  -25.0318   19.9062 C   0  0  0  0  0  0
  -29.7159  -21.5066   20.5406 N   0  0  0  0  0  0
  -26.4780  -20.4406   21.0495 N   0  0  0  0  0  0
  -29.8054  -15.6610   20.9291 N   0  0  0  0  0  0
  -27.1881  -19.7183   23.1018 N   0  3  0  0  0  0
  -30.3341  -24.2600   19.5325 F   0  0  0  0  0  0
  -31.4858  -12.5283   19.1445 H   0  0  0  0  0  0
  -30.3895  -11.3990   19.8856 H   0  0  0  0  0  0
  -29.7762  -11.7575   17.4749 H   0  0  0  0  0  0
  -29.6503  -13.4761   17.7403 H   0  0  0  0  0  0
  -27.8766  -11.2858   18.8745 H   0  0  0  0  0  0
  -27.3790  -12.5622   17.7950 H   0  0  0  0  0  0
  -27.6783  -14.2465   19.5187 H   0  0  0  0  0  0
  -28.7162  -12.0354   21.3649 H   0  0  0  0  0  0
  -28.4429  -13.6815   21.8515 H   0  0  0  0  0  0
  -25.2754   -9.5680   22.4761 H   0  0  0  0  0  0
  -23.9993   -7.4634   22.7472 H   0  0  0  0  0  0
  -21.0833   -8.8788   19.8962 H   0  0  0  0  0  0
  -22.3698  -10.9681   19.6166 H   0  0  0  0  0  0
  -21.2010   -7.6136   23.9712 H   0  0  0  0  0  0
  -21.1470   -6.0520   25.9079 H   0  0  0  0  0  0
  -22.0598   -2.7608   23.2859 H   0  0  0  0  0  0
  -22.4082  -11.9941   22.4817 H   0  0  0  0  0  0
  -21.1099  -13.1303   22.2566 H   0  0  0  0  0  0
  -24.6553  -15.8348   20.4885 H   0  0  0  0  0  0
  -26.2567  -15.6133   20.0024 H   0  0  0  0  0  0
  -26.7171  -32.5473   23.1126 H   0  0  0  0  0  0
  -24.9950  -33.9743   25.0367 H   0  0  0  0  0  0
  -22.7121  -31.3058   21.4043 H   0  0  0  0  0  0
  -23.3739  -35.9643   23.3301 H   0  0  0  0  0  0
  -24.3560  -36.8934   22.2055 H   0  0  0  0  0  0
  -23.7220  -37.6503   23.6664 H   0  0  0  0  0  0
  -26.0872  -31.5541   20.5992 H   0  0  0  0  0  0
  -26.8430  -30.8479   21.9985 H   0  0  0  0  0  0
  -28.1168  -28.9841   21.1846 H   0  0  0  0  0  0
  -25.9431  -25.9492   18.9870 H   0  0  0  0  0  0
  -23.9647  -27.3188   19.0137 H   0  0  0  0  0  0
  -23.7445  -30.5961   19.4044 H   0  0  0  0  0  0
  -22.7513  -29.2486   19.8650 H   0  0  0  0  0  0
  -25.1261  -36.1966   25.0827 H   0  0  0  0  0  0
  -20.9968  -28.3254   24.1413 H   0  0  0  0  0  0
  -20.5630  -26.2297   23.3611 H   0  0  0  0  0  0
  -21.6626  -26.7429   22.1221 H   0  0  0  0  0  0
  -19.6877  -25.6299   21.1247 H   0  0  0  0  0  0
  -19.6660  -27.3193   20.6736 H   0  0  0  0  0  0
  -17.4172  -26.6696   21.4041 H   0  0  0  0  0  0
  -18.0310  -26.0075   22.9016 H   0  0  0  0  0  0
  -19.7935  -30.7284   24.2271 H   0  0  0  0  0  0
  -17.5018  -31.6274   24.5170 H   0  0  0  0  0  0
  -15.5354  -30.3004   23.7667 H   0  0  0  0  0  0
  -15.8658  -28.0831   22.7103 H   0  0  0  0  0  0
  -24.5816  -30.7154   25.7806 H   0  0  0  0  0  0
  -24.8882  -32.2957   26.4903 H   0  0  0  0  0  0
  -25.7968  -30.8944   27.0257 H   0  0  0  0  0  0
  -26.2838  -29.6818   24.1180 H   0  0  0  0  0  0
  -27.3891  -29.7251   25.4713 H   0  0  0  0  0  0
  -27.8743  -30.4289   23.9458 H   0  0  0  0  0  0
  -27.2648  -33.3630   26.2101 H   0  0  0  0  0  0
  -28.3816  -32.6918   25.0311 H   0  0  0  0  0  0
  -28.0721  -31.8451   26.5396 H   0  0  0  0  0  0
  -28.2605  -38.0090   24.7512 H   0  0  0  0  0  0
  -28.1057  -36.2628   24.6273 H   0  0  0  0  0  0
  -27.2312  -37.1453   25.8872 H   0  0  0  0  0  0
  -20.9364  -29.8781   21.6922 H   0  0  0  0  0  0
  -26.0168  -38.2875   24.1414 H   0  0  0  0  0  0
  -31.5967  -19.8502   19.6474 H   0  0  0  0  0  0
  -31.7414  -17.4069   19.7845 H   0  0  0  0  0  0
  -27.9194  -17.3166   21.7526 H   0  0  0  0  0  0
  -30.2327  -24.4301   22.0771 H   0  0  0  0  0  0
  -28.6828  -23.6259   22.2597 H   0  0  0  0  0  0
  -30.0964  -21.7444   22.6275 H   0  0  0  0  0  0
  -31.3370  -22.3542   21.5375 H   0  0  0  0  0  0
  -29.0024  -22.3010   18.6868 H   0  0  0  0  0  0
  -27.8146  -22.2593   19.9759 H   0  0  0  0  0  0
  -27.2288  -24.7273   20.4609 H   0  0  0  0  0  0
  -27.8697  -24.9378   18.8481 H   0  0  0  0  0  0
  -26.5908  -20.4543   20.0466 H   0  0  0  0  0  0
  -25.6253  -20.8156   21.4336 H   0  0  0  0  0  0
  -28.9394  -15.3031   21.3012 H   0  0  0  0  0  0
  -27.9026  -19.2963   23.6775 H   0  0  0  0  0  0
  -26.3558  -20.0634   23.5529 H   0  0  0  0  0  0
  1 25  1  0  0  0
  1 30  2  0  0  0
  1 85  1  0  0  0
  2  3  1  0  0  0
  2 25  1  0  0  0
  2 88  1  0  0  0
  2 89  1  0  0  0
  3  4  1  0  0  0
  3 90  1  0  0  0
  3 91  1  0  0  0
  4  5  1  0  0  0
  4 92  1  0  0  0
  4 93  1  0  0  0
  5  6  1  0  0  0
  5 26  1  0  0  0
  5 94  1  0  0  0
  6 25  1  0  0  0
  6 95  1  0  0  0
  6 96  1  0  0  0
  7  8  2  0  0  0
  7 26  1  0  0  0
  7 29  1  0  0  0
  8  9  1  0  0  0
  8 22  1  0  0  0
  9 10  1  0  0  0
  9 27  2  0  0  0
 10 11  2  0  0  0
 10 15  1  0  0  0
 11 12  1  0  0  0
 11 97  1  0  0  0
 12 13  2  0  0  0
 12 98  1  0  0  0
 13 14  1  0  0  0
 13 31  1  0  0  0
 14 15  2  0  0  0
 14 99  1  0  0  0
 15100  1  0  0  0
 16 17  2  0  0  0
 16 21  1  0  0  0
 16 31  1  0  0  0
 17 18  1  0  0  0
 17101  1  0  0  0
 18 19  2  0  0  0
 18102  1  0  0  0
 19 20  1  0  0  0
 19 24  1  0  0  0
 20 21  2  0  0  0
 20103  1  0  0  0
 21 23  1  0  0  0
 22 28  1  0  0  0
 22 32  2  0  0  0
 26 27  1  0  0  0
 28104  1  0  0  0
 28105  1  0  0  0
 29106  1  0  0  0
 29107  1  0  0  0
 33 34  1  0  0  0
 33 66  1  0  0  0
 33 70  2  0  0  0
 34 36  1  0  0  0
 34 59  1  0  0  0
 34108  1  0  0  0
 35 44  2  0  0  0
 35 45  1  0  0  0
 35 68  1  0  0  0
 36 56  1  0  0  0
 36109  1  0  0  0
 37 39  1  0  0  0
 37 47  1  0  0  0
 37 66  1  0  0  0
 37110  1  0  0  0
 38 43  2  0  0  0
 38 46  1  0  0  0
 38 47  1  0  0  0
 39 64  1  0  0  0
 39 67  2  0  0  0
 40 52  1  0  0  0
 40 53  2  0  0  0
 40 58  1  0  0  0
 41111  1  0  0  0
 41112  1  0  0  0
 41113  1  0  0  0
 41 48  1  0  0  0
 42 43  1  0  0  0
 42 66  1  0  0  0
 42114  1  0  0  0
 42115  1  0  0  0
 43 44  1  0  0  0
 44116  1  0  0  0
 45 46  2  0  0  0
 45117  1  0  0  0
 46118  1  0  0  0
 47119  1  0  0  0
 47120  1  0  0  0
 48 56  1  0  0  0
 48 65  1  0  0  0
 48121  1  0  0  0
 49 50  1  0  0  0
 49 53  1  0  0  0
 49 64  1  0  0  0
 49122  1  0  0  0
 50 51  1  0  0  0
 50123  1  0  0  0
 50124  1  0  0  0
 51 52  1  0  0  0
 51125  1  0  0  0
 51126  1  0  0  0
 52127  1  0  0  0
 52128  1  0  0  0
 53 54  1  0  0  0
 54 55  2  0  0  0
 54129  1  0  0  0
 55 57  1  0  0  0
 55130  1  0  0  0
 56 69  2  0  0  0
 57 58  2  0  0  0
 57131  1  0  0  0
 58132  1  0  0  0
 59 60  1  0  0  0
 59 61  1  0  0  0
 59 62  1  0  0  0
 60133  1  0  0  0
 60134  1  0  0  0
 60135  1  0  0  0
 61136  1  0  0  0
 61137  1  0  0  0
 61138  1  0  0  0
 62139  1  0  0  0
 62140  1  0  0  0
 62141  1  0  0  0
 63 65  1  0  0  0
 63142  1  0  0  0
 63143  1  0  0  0
 63144  1  0  0  0
 64145  1  0  0  0
 65146  1  0  0  0
 68 82  1  0  0  0
 71 72  2  0  0  0
 71 75  1  0  0  0
 71147  1  0  0  0
 72 76  1  0  0  0
 72148  1  0  0  0
 73 74  1  0  0  0
 73 76  2  0  0  0
 73149  1  0  0  0
 74 75  2  0  0  0
 74 77  1  0  0  0
 75 83  1  0  0  0
 76 85  1  0  0  0
 77 84  1  0  0  0
 77 86  2  0  0  0
 78 79  1  0  0  0
 78 81  1  0  0  0
 78150  1  0  0  0
 78151  1  0  0  0
 79 83  1  0  0  0
 79152  1  0  0  0
 79153  1  0  0  0
 80 81  1  0  0  0
 80 83  1  0  0  0
 80154  1  0  0  0
 80155  1  0  0  0
 81 82  1  0  0  0
 81 87  1  0  0  0
 82156  1  0  0  0
 82157  1  0  0  0
 84158  1  0  0  0
 84159  1  0  0  0
 85160  1  0  0  0
 86161  1  0  0  0
 86162  1  0  0  0
M  CHG  1  86   1
M  ISO  4   1 100  68 101  82 101  85 100
M  END
> <chiral flag>
0

> <version>
0

> <s_m_source_file>
/data/baiqing/PycharmProjects/Reinvent-master-3.2/result/LINK_invent/BTK/process_docking_weight1_custom_product_contain_oxygen_bond_distance_aromatic_linkinvent_7_9_3/rearranged_h_0153.sdf

> <i_m_source_file_index>
10

> <r_mmod_Potential_Energy-OPLS-2005>
-6.36231756210327

> <r_mmod_Stretch_Energy-OPLS-2005>
78.8602752685547

> <r_mmod_Bend_Energy-OPLS-2005>
192.097778320312

> <r_mmod_Torsional_Energy-OPLS-2005>
305.219207763672

> <r_mmod_Improper_Torsional_Energy-OPLS-2005>
6.40105009078979

> <r_mmod_Van_der_Waal_Energy-OPLS-2005>
140.81266784668

> <r_mmod_Electrostatic_Energy-OPLS-2005>
-319.926086425781

> <r_mmod_Solvation_Energy-OPLS-2005>
-457.857116699219

> <b_mmod_Minimization_Converged-OPLS-2005>
0

> <r_mmod_RMS_Derivative-OPLS-2005>
1.71710360050201

$$$$
10
                    3D
 Structure written by MMmdl.
165174  0  0  1  0            999 V2000
  -28.1569  -16.9151   20.9872 C   0  0  0  0  0  0
  -29.7286  -14.4194   19.8533 C   0  0  0  0  0  0
  -29.4330  -13.2898   18.7026 C   0  0  0  0  0  0
  -28.2225  -12.4181   19.0239 C   0  0  0  0  0  0
  -27.3818  -13.3442   19.8890 C   0  0  2  0  0  0
  -28.0341  -13.9926   21.1345 C   0  0  0  0  0  0
  -25.0982  -13.8059   20.5503 C   0  0  0  0  0  0
  -24.0752  -13.0135   20.9336 C   0  0  0  0  0  0
  -24.5676  -11.6705   20.8838 C   0  0  0  0  0  0
  -23.8665  -10.4087   21.0507 C   0  0  0  0  0  0
  -24.3402   -9.4076   21.9240 C   0  0  0  0  0  0
  -23.6174   -8.2073   22.0758 C   0  0  0  0  0  0
  -22.4162   -8.0104   21.3537 C   0  0  0  0  0  0
  -21.9710   -9.0017   20.4633 C   0  0  0  0  0  0
  -22.6928  -10.1924   20.3078 C   0  0  0  0  0  0
  -21.6796   -6.0640   22.5298 C   0  0  0  0  0  0
  -21.3969   -6.5583   23.8218 C   0  0  0  0  0  0
  -21.3647   -5.6756   24.9193 C   0  0  0  0  0  0
  -21.6048   -4.3020   24.7256 C   0  0  0  0  0  0
  -21.8826   -3.8089   23.4386 C   0  0  0  0  0  0
  -21.9177   -4.6885   22.3432 C   0  0  0  0  0  0
  -22.6930  -13.4941   21.2100 C   0  0  0  0  0  0
  -22.1656   -4.2078   21.1008 F   0  0  0  0  0  0
  -21.5642   -3.4518   25.7778 F   0  0  0  0  0  0
  -28.5172  -15.3127   20.6363 N   0  0  0  0  0  0
  -26.1158  -12.9253   20.2838 N   0  0  0  0  0  0
  -25.8481  -11.6375   20.5537 N   0  0  0  0  0  0
  -21.9720  -12.7967   22.0749 N   0  0  0  0  0  0
  -25.2470  -15.1870   20.3859 N   0  0  0  0  0  0
  -29.4653  -17.0165   20.7879 O   0  0  0  0  0  0
  -21.6553   -6.8717   21.4236 O   0  0  0  0  0  0
  -22.2733  -14.5311   20.6967 O   0  0  0  0  0  0
  -24.7896  -31.9908   23.2677 C   0  0  0  0  0  0
  -26.0405  -32.5630   23.9268 C   0  0  1  0  0  0
  -26.1420  -27.4117   20.2783 C   0  0  0  0  0  0
  -25.6875  -33.9256   24.3070 N   0  0  0  0  0  0
  -23.8651  -30.4155   21.7198 C   0  0  2  0  0  0
  -25.1876  -29.6649   19.6547 C   0  0  0  0  0  0
  -23.9825  -29.0831   22.7153 C   0  0  0  0  0  0
  -18.4909  -26.9059   22.9221 C   0  0  0  0  0  0
  -24.1521  -36.7484   23.2524 C   0  0  0  0  0  0
  -26.2587  -30.9142   21.5215 C   0  0  0  0  0  0
  -26.1964  -29.7034   20.6103 C   0  0  0  0  0  0
  -26.8597  -28.5016   20.8421 C   0  0  0  0  0  0
  -26.0007  -27.4693   18.9263 C   0  0  0  0  0  0
  -25.1961  -28.6030   18.6751 C   0  0  0  0  0  0
  -24.0200  -30.5186   20.1137 C   0  0  0  0  0  0
  -25.4111  -36.3431   24.0339 C   0  0  1  0  0  0
  -22.1699  -26.8642   22.2932 C   0  0  2  0  0  0
  -22.0729  -25.2547   20.8944 C   0  0  0  0  0  0
  -20.0466  -24.2738   21.0863 C   0  0  0  0  0  0
  -18.6048  -25.1818   22.3147 C   0  0  0  0  0  0
  -19.7964  -27.6799   23.1161 C   0  0  0  0  0  0
  -19.3589  -29.1200   23.5566 C   0  0  0  0  0  0
  -18.0931  -29.7745   23.7567 C   0  0  0  0  0  0
  -25.9204  -34.9857   23.5291 C   0  0  0  0  0  0
  -16.9666  -29.0274   23.4470 C   0  0  0  0  0  0
  -17.1976  -27.6616   23.0412 C   0  0  0  0  0  0
  -26.5215  -31.7056   25.1540 C   0  0  0  0  0  0
  -25.4114  -31.3935   26.1875 C   0  0  0  0  0  0
  -27.1998  -30.3782   24.7233 C   0  0  0  0  0  0
  -27.6354  -32.4901   25.8725 C   0  0  0  0  0  0
  -27.5607  -37.2006   24.8464 C   0  0  0  0  0  0
  -23.5374  -27.7393   22.6701 N   0  0  0  0  0  0
  -26.4303  -37.4082   23.9440 N   0  0  0  0  0  0
  -24.9666  -31.2027   22.1839 N   0  0  0  0  0  0
  -24.3958  -29.2272   23.8206 O   0  0  0  0  0  0
  -24.7300  -27.2978   20.6159 O   0  0  0  0  0  0
  -26.5347  -34.9126   22.4607 O   0  0  0  0  0  0
  -23.6763  -32.2312   23.7736 O   0  0  0  0  0  0
  -23.9528  -20.1957   22.2395 C   0  0  0  0  0  0
  -22.7985  -21.5401   22.5850 C   0  0  0  0  0  0
  -22.6645  -23.1418   22.6415 C   0  0  0  0  0  0
  -25.4509  -19.8286   21.7898 C   0  0  0  0  0  0
  -21.5088  -20.9366   22.9418 C   0  0  0  0  0  0
  -20.5703  -28.0864   20.8085 C   0  0  0  0  0  0
  -21.7574  -28.1903   24.1261 C   0  0  0  0  0  0
  -20.2565  -26.4681   21.2461 C   0  0  0  0  0  0
  -21.3896  -26.0923   24.3523 C   0  0  0  0  0  0
  -21.5971  -28.9643   21.7847 C   0  0  0  0  0  0
  -20.9556  -30.3942   21.5043 C   0  0  0  0  0  0
  -23.0561  -28.1498   20.3713 C   0  0  0  0  0  0
  -21.2901  -24.8781   22.9869 N   0  0  0  0  0  0
  -20.8497  -21.3279   24.0381 N   0  0  0  0  0  0
  -26.6636  -18.2236   21.3953 N   0  0  0  0  0  0
  -20.9703  -19.9788   22.1757 N   0  3  0  0  0  0
  -24.7664  -22.1349   22.0028 S   0  0  0  0  0  0
  -30.3496  -15.1629   19.3525 H   0  0  0  0  0  0
  -30.4256  -14.0117   20.5899 H   0  0  0  0  0  0
  -30.3174  -12.6793   18.5154 H   0  0  0  0  0  0
  -29.2310  -13.8147   17.7674 H   0  0  0  0  0  0
  -28.5194  -11.5354   19.5916 H   0  0  0  0  0  0
  -27.7002  -12.0864   18.1254 H   0  0  0  0  0  0
  -27.1492  -14.1283   19.1629 H   0  0  0  0  0  0
  -28.7396  -13.3393   21.6548 H   0  0  0  0  0  0
  -27.3100  -14.2347   21.9140 H   0  0  0  0  0  0
  -25.2534   -9.5641   22.4812 H   0  0  0  0  0  0
  -23.9920   -7.4462   22.7453 H   0  0  0  0  0  0
  -21.0653   -8.8466   19.8939 H   0  0  0  0  0  0
  -22.3351  -10.9464   19.6205 H   0  0  0  0  0  0
  -21.1940   -7.6090   23.9697 H   0  0  0  0  0  0
  -21.1475   -6.0497   25.9094 H   0  0  0  0  0  0
  -22.0625   -2.7551   23.2906 H   0  0  0  0  0  0
  -22.3388  -11.9619   22.5078 H   0  0  0  0  0  0
  -21.0377  -13.1005   22.3094 H   0  0  0  0  0  0
  -24.3768  -15.7064   20.3351 H   0  0  0  0  0  0
  -25.9072  -15.4862   19.6805 H   0  0  0  0  0  0
  -26.8773  -32.6271   23.2333 H   0  0  0  0  0  0
  -25.1397  -34.0451   25.1463 H   0  0  0  0  0  0
  -23.0569  -31.0574   21.9521 H   0  0  0  0  0  0
  -23.3826  -35.9774   23.3204 H   0  0  0  0  0  0
  -24.3679  -36.9024   22.1940 H   0  0  0  0  0  0
  -23.7194  -37.6698   23.6430 H   0  0  0  0  0  0
  -26.5427  -31.7818   20.9232 H   0  0  0  0  0  0
  -27.0823  -30.7495   22.2045 H   0  0  0  0  0  0
  -27.5017  -28.3789   21.7033 H   0  0  0  0  0  0
  -25.7992  -26.5882   18.3328 H   0  0  0  0  0  0
  -24.4927  -28.5848   17.8541 H   0  0  0  0  0  0
  -24.3064  -31.5440   19.8697 H   0  0  0  0  0  0
  -23.1138  -30.4912   19.5169 H   0  0  0  0  0  0
  -25.1198  -36.2380   25.0817 H   0  0  0  0  0  0
  -22.9599  -26.3372   22.8601 H   0  0  0  0  0  0
  -22.9688  -24.6452   20.9158 H   0  0  0  0  0  0
  -22.1546  -25.4663   19.8290 H   0  0  0  0  0  0
  -20.1473  -23.2270   21.3768 H   0  0  0  0  0  0
  -19.6268  -24.1882   20.0813 H   0  0  0  0  0  0
  -17.6342  -24.9579   21.8714 H   0  0  0  0  0  0
  -18.5991  -24.5945   23.2333 H   0  0  0  0  0  0
  -20.1064  -29.8740   23.7278 H   0  0  0  0  0  0
  -18.0248  -30.8094   24.0627 H   0  0  0  0  0  0
  -15.9703  -29.4419   23.5141 H   0  0  0  0  0  0
  -16.3074  -27.0936   22.8094 H   0  0  0  0  0  0
  -24.6338  -30.7411   25.7966 H   0  0  0  0  0  0
  -24.9238  -32.3039   26.5367 H   0  0  0  0  0  0
  -25.8198  -30.8947   27.0672 H   0  0  0  0  0  0
  -26.6104  -29.7305   24.0947 H   0  0  0  0  0  0
  -27.4745  -29.7836   25.5955 H   0  0  0  0  0  0
  -28.1290  -30.5695   24.1850 H   0  0  0  0  0  0
  -27.2628  -33.4031   26.3382 H   0  0  0  0  0  0
  -28.4326  -32.7795   25.1864 H   0  0  0  0  0  0
  -28.0921  -31.9019   26.6698 H   0  0  0  0  0  0
  -28.2589  -38.0344   24.7616 H   0  0  0  0  0  0
  -28.1156  -36.2897   24.6169 H   0  0  0  0  0  0
  -27.2341  -37.1507   25.8866 H   0  0  0  0  0  0
  -24.0511  -27.2328   23.3742 H   0  0  0  0  0  0
  -26.0219  -38.3158   24.1508 H   0  0  0  0  0  0
  -23.4187  -19.2741   22.4143 H   0  0  0  0  0  0
  -19.5701  -28.5233   20.7936 H   0  0  0  0  0  0
  -20.7619  -28.2039   19.7411 H   0  0  0  0  0  0
  -22.6191  -28.3656   24.7546 H   0  0  0  0  0  0
  -21.1972  -28.7138   24.9003 H   0  0  0  0  0  0
  -20.3539  -26.2471   20.1684 H   0  0  0  0  0  0
  -19.2395  -26.4983   20.8353 H   0  0  0  0  0  0
  -20.4697  -25.9757   24.9279 H   0  0  0  0  0  0
  -22.1533  -25.7152   25.0341 H   0  0  0  0  0  0
  -19.8713  -30.4170   21.4118 H   0  0  0  0  0  0
  -21.2962  -30.8330   20.5705 H   0  0  0  0  0  0
  -21.1167  -31.1094   22.3113 H   0  0  0  0  0  0
  -22.6194  -27.3136   19.8928 H   0  0  0  0  0  0
  -22.8826  -28.5678   19.3882 H   0  0  0  0  0  0
  -21.2186  -22.0906   24.5877 H   0  0  0  0  0  0
  -19.9706  -20.9357   24.3323 H   0  0  0  0  0  0
  -25.9779  -17.4770   21.4247 H   0  0  0  0  0  0
  -20.0946  -19.5305   22.3913 H   0  0  0  0  0  0
  -21.4182  -19.7214   21.3087 H   0  0  0  0  0  0
  1 25  1  0  0  0
  1 30  2  0  0  0
  1 85  1  0  0  0
  2  3  1  0  0  0
  2 25  1  0  0  0
  2 88  1  0  0  0
  2 89  1  0  0  0
  3  4  1  0  0  0
  3 90  1  0  0  0
  3 91  1  0  0  0
  4  5  1  0  0  0
  4 92  1  0  0  0
  4 93  1  0  0  0
  5  6  1  0  0  0
  5 26  1  0  0  0
  5 94  1  0  0  0
  6 25  1  0  0  0
  6 95  1  0  0  0
  6 96  1  0  0  0
  7  8  2  0  0  0
  7 26  1  0  0  0
  7 29  1  0  0  0
  8  9  1  0  0  0
  8 22  1  0  0  0
  9 10  1  0  0  0
  9 27  2  0  0  0
 10 11  2  0  0  0
 10 15  1  0  0  0
 11 12  1  0  0  0
 11 97  1  0  0  0
 12 13  2  0  0  0
 12 98  1  0  0  0
 13 14  1  0  0  0
 13 31  1  0  0  0
 14 15  2  0  0  0
 14 99  1  0  0  0
 15100  1  0  0  0
 16 17  2  0  0  0
 16 21  1  0  0  0
 16 31  1  0  0  0
 17 18  1  0  0  0
 17101  1  0  0  0
 18 19  2  0  0  0
 18102  1  0  0  0
 19 20  1  0  0  0
 19 24  1  0  0  0
 20 21  2  0  0  0
 20103  1  0  0  0
 21 23  1  0  0  0
 22 28  1  0  0  0
 22 32  2  0  0  0
 26 27  1  0  0  0
 28104  1  0  0  0
 28105  1  0  0  0
 29106  1  0  0  0
 29107  1  0  0  0
 33 34  1  0  0  0
 33 66  1  0  0  0
 33 70  2  0  0  0
 34 36  1  0  0  0
 34 59  1  0  0  0
 34108  1  0  0  0
 35 44  2  0  0  0
 35 45  1  0  0  0
 35 68  1  0  0  0
 36 56  1  0  0  0
 36109  1  0  0  0
 37 39  1  0  0  0
 37 47  1  0  0  0
 37 66  1  0  0  0
 37110  1  0  0  0
 38 43  2  0  0  0
 38 46  1  0  0  0
 38 47  1  0  0  0
 39 64  1  0  0  0
 39 67  2  0  0  0
 40 52  1  0  0  0
 40 53  2  0  0  0
 40 58  1  0  0  0
 41111  1  0  0  0
 41112  1  0  0  0
 41113  1  0  0  0
 41 48  1  0  0  0
 42 43  1  0  0  0
 42 66  1  0  0  0
 42114  1  0  0  0
 42115  1  0  0  0
 43 44  1  0  0  0
 44116  1  0  0  0
 45 46  2  0  0  0
 45117  1  0  0  0
 46118  1  0  0  0
 47119  1  0  0  0
 47120  1  0  0  0
 48 56  1  0  0  0
 48 65  1  0  0  0
 48121  1  0  0  0
 49 50  1  0  0  0
 49 53  1  0  0  0
 49 64  1  0  0  0
 49122  1  0  0  0
 50 51  1  0  0  0
 50123  1  0  0  0
 50124  1  0  0  0
 51 52  1  0  0  0
 51125  1  0  0  0
 51126  1  0  0  0
 52127  1  0  0  0
 52128  1  0  0  0
 53 54  1  0  0  0
 54 55  2  0  0  0
 54129  1  0  0  0
 55 57  1  0  0  0
 55130  1  0  0  0
 56 69  2  0  0  0
 57 58  2  0  0  0
 57131  1  0  0  0
 58132  1  0  0  0
 59 60  1  0  0  0
 59 61  1  0  0  0
 59 62  1  0  0  0
 60133  1  0  0  0
 60134  1  0  0  0
 60135  1  0  0  0
 61136  1  0  0  0
 61137  1  0  0  0
 61138  1  0  0  0
 62139  1  0  0  0
 62140  1  0  0  0
 62141  1  0  0  0
 63 65  1  0  0  0
 63142  1  0  0  0
 63143  1  0  0  0
 63144  1  0  0  0
 64145  1  0  0  0
 65146  1  0  0  0
 68 82  1  0  0  0
 71 72  1  0  0  0
 71 74  2  0  0  0
 71147  1  0  0  0
 72 73  2  0  0  0
 72 75  1  0  0  0
 73 83  1  0  0  0
 73 87  1  0  0  0
 74 85  1  0  0  0
 74 87  1  0  0  0
 75 84  1  0  0  0
 75 86  2  0  0  0
 76 78  1  0  0  0
 76 80  1  0  0  0
 76148  1  0  0  0
 76149  1  0  0  0
 77 79  1  0  0  0
 77 80  1  0  0  0
 77150  1  0  0  0
 77151  1  0  0  0
 78 83  1  0  0  0
 78152  1  0  0  0
 78153  1  0  0  0
 79 83  1  0  0  0
 79154  1  0  0  0
 79155  1  0  0  0
 80 81  1  0  0  0
 80 82  1  0  0  0
 81156  1  0  0  0
 81157  1  0  0  0
 81158  1  0  0  0
 82159  1  0  0  0
 82160  1  0  0  0
 84161  1  0  0  0
 84162  1  0  0  0
 85163  1  0  0  0
 86164  1  0  0  0
 86165  1  0  0  0
M  CHG  1  86   1
M  ISO  4   1 100  68 101  82 101  85 100
M  END
> <chiral flag>
0

> <version>
0

> <s_m_source_file>
/data/baiqing/PycharmProjects/Reinvent-master-3.2/result/LINK_invent/BTK/process_docking_weight1_custom_product_contain_oxygen_bond_distance_aromatic_linkinvent_7_9_3/rearranged_h_0153.sdf

> <i_m_source_file_index>
11

> <r_mmod_Potential_Energy-OPLS-2005>
30201.83984375

> <r_mmod_Stretch_Energy-OPLS-2005>
13153.6826171875

> <r_mmod_Bend_Energy-OPLS-2005>
3120.64501953125

> <r_mmod_Torsional_Energy-OPLS-2005>
684.181945800781

> <r_mmod_Improper_Torsional_Energy-OPLS-2005>
56.7597694396973

> <r_mmod_Van_der_Waal_Energy-OPLS-2005>
3926.37084960938

> <r_mmod_Electrostatic_Energy-OPLS-2005>
-286.367767333984

> <r_mmod_Solvation_Energy-OPLS-2005>
-495.535614013672

> <b_mmod_Minimization_Converged-OPLS-2005>
0

> <r_mmod_RMS_Derivative-OPLS-2005>
0.785439610481262

$$$$
11
                    3D
 Structure written by MMmdl.
156164  0  0  1  0            999 V2000
  -30.6451  -14.7259   20.4473 C   0  0  0  0  0  0
  -30.4237  -12.4367   19.4889 C   0  0  0  0  0  0
  -29.5130  -12.5089   18.2445 C   0  0  0  0  0  0
  -28.0360  -12.3443   18.6478 C   0  0  0  0  0  0
  -27.6423  -13.2396   19.8536 C   0  0  2  0  0  0
  -28.6848  -13.1778   20.9927 C   0  0  0  0  0  0
  -25.2492  -13.8218   20.5703 C   0  0  0  0  0  0
  -24.1795  -13.0449   20.9207 C   0  0  0  0  0  0
  -24.6397  -11.6930   20.8737 C   0  0  0  0  0  0
  -23.9084  -10.4294   21.0395 C   0  0  0  0  0  0
  -24.3628   -9.4213   21.9178 C   0  0  0  0  0  0
  -23.6303   -8.2250   22.0753 C   0  0  0  0  0  0
  -22.4286   -8.0277   21.3541 C   0  0  0  0  0  0
  -21.9922   -9.0255   20.4644 C   0  0  0  0  0  0
  -22.7254  -10.2136   20.3050 C   0  0  0  0  0  0
  -21.6856   -6.0737   22.5280 C   0  0  0  0  0  0
  -21.4016   -6.5642   23.8216 C   0  0  0  0  0  0
  -21.3663   -5.6791   24.9174 C   0  0  0  0  0  0
  -21.6045   -4.3054   24.7224 C   0  0  0  0  0  0
  -21.8818   -3.8149   23.4345 C   0  0  0  0  0  0
  -21.9195   -4.6964   22.3400 C   0  0  0  0  0  0
  -22.7813  -13.5213   21.1873 C   0  0  0  0  0  0
  -22.1659   -4.2150   21.0978 F   0  0  0  0  0  0
  -21.5632   -3.4539   25.7739 F   0  0  0  0  0  0
  -29.9938  -13.5104   20.4164 N   0  0  0  0  0  0
  -26.2934  -12.9445   20.3284 N   0  0  0  0  0  0
  -25.9335  -11.6577   20.5754 N   0  0  0  0  0  0
  -22.0463  -12.8186   22.0428 N   0  0  0  0  0  0
  -25.4162  -15.1945   20.4111 N   0  0  0  0  0  0
  -31.8390  -14.7668   20.1329 O   0  0  0  0  0  0
  -21.6643   -6.8878   21.4243 O   0  0  0  0  0  0
  -22.3482  -14.5520   20.6730 O   0  0  0  0  0  0
  -24.6322  -31.8568   23.2055 C   0  0  0  0  0  0
  -25.9156  -32.4756   23.8378 C   0  0  1  0  0  0
  -27.1931  -27.2459   20.1169 C   0  0  0  0  0  0
  -25.5959  -33.8567   24.2278 N   0  0  0  0  0  0
  -23.4282  -30.4852   21.5495 C   0  0  2  0  0  0
  -24.8740  -28.9480   20.1059 C   0  0  0  0  0  0
  -22.7507  -29.4603   22.4923 C   0  0  0  0  0  0
  -18.0296  -28.1381   22.8468 C   0  0  0  0  0  0
  -24.1500  -36.7283   23.2636 C   0  0  0  0  0  0
  -25.9797  -30.7579   21.3996 C   0  0  0  0  0  0
  -26.0454  -29.3830   20.7387 C   0  0  0  0  0  0
  -27.2057  -28.5370   20.7521 C   0  0  0  0  0  0
  -26.0348  -26.9538   19.3687 C   0  0  0  0  0  0
  -24.8742  -27.7387   19.4076 C   0  0  0  0  0  0
  -23.6467  -29.8334   20.1609 C   0  0  0  0  0  0
  -25.4125  -36.3069   24.0322 C   0  0  1  0  0  0
  -20.5898  -28.3683   23.1259 C   0  0  2  0  0  0
  -20.6779  -26.9396   22.5402 C   0  0  0  0  0  0
  -19.5756  -26.6377   21.5206 C   0  0  0  0  0  0
  -18.1936  -26.7925   22.1608 C   0  0  0  0  0  0
  -19.1547  -28.8844   23.2851 C   0  0  0  0  0  0
  -18.9473  -30.1441   23.8870 C   0  0  0  0  0  0
  -17.6470  -30.6572   24.0548 C   0  0  0  0  0  0
  -25.9066  -34.9440   23.5088 C   0  0  0  0  0  0
  -16.5357  -29.9070   23.6333 C   0  0  0  0  0  0
  -16.7283  -28.6490   23.0351 C   0  0  0  0  0  0
  -26.4515  -31.6591   25.0765 C   0  0  0  0  0  0
  -25.3722  -31.3762   26.1462 C   0  0  0  0  0  0
  -27.0361  -30.2999   24.6282 C   0  0  0  0  0  0
  -27.6050  -32.4343   25.7529 C   0  0  0  0  0  0
  -27.5580  -37.1800   24.8464 C   0  0  0  0  0  0
  -21.4218  -29.3041   22.3658 N   0  0  0  0  0  0
  -26.4298  -37.3769   23.9405 N   0  0  0  0  0  0
  -24.6987  -31.0517   22.1062 N   0  0  0  0  0  0
  -23.4208  -28.8106   23.2990 O   0  0  0  0  0  0
  -28.2403  -26.2826   20.1648 O   0  0  0  0  0  0
  -26.5616  -34.8900   22.4646 O   0  0  0  0  0  0
  -23.5466  -32.1414   23.7328 O   0  0  0  0  0  0
  -30.5837  -19.7367   18.8438 C   0  0  0  0  0  0
  -29.6342  -18.4879   20.6718 C   0  0  0  0  0  0
  -31.0366  -18.5130   18.3369 C   0  0  0  0  0  0
  -29.8403  -19.7877   20.0400 C   0  0  0  0  0  0
  -30.1450  -17.2426   20.1035 C   0  0  0  0  0  0
  -29.1904  -22.3049   19.8708 C   0  0  0  0  0  0
  -27.5880  -24.9466   22.0646 C   0  0  0  0  0  0
  -26.7918  -24.1294   19.8746 C   0  0  0  0  0  0
  -29.2436  -23.7812   20.5188 C   0  0  0  0  0  0
  -27.9857  -24.8257   20.5790 C   0  0  0  0  0  0
  -30.8214  -17.3265   18.9352 N   0  0  0  0  0  0
  -29.4408  -21.1233   20.5666 N   0  0  0  0  0  0
  -29.9253  -15.8928   20.6813 N   0  0  0  0  0  0
  -28.9270  -22.2574   18.6656 O   0  0  0  0  0  0
  -31.4698  -12.5313   19.1932 H   0  0  0  0  0  0
  -30.3403  -11.4619   19.9722 H   0  0  0  0  0  0
  -29.7930  -11.7385   17.5247 H   0  0  0  0  0  0
  -29.6536  -13.4666   17.7385 H   0  0  0  0  0  0
  -27.8793  -11.2958   18.8975 H   0  0  0  0  0  0
  -27.3871  -12.5534   17.7954 H   0  0  0  0  0  0
  -27.6362  -14.2628   19.4774 H   0  0  0  0  0  0
  -28.7083  -12.1842   21.4431 H   0  0  0  0  0  0
  -28.4228  -13.8690   21.7953 H   0  0  0  0  0  0
  -25.2776   -9.5688   22.4754 H   0  0  0  0  0  0
  -24.0014   -7.4636   22.7471 H   0  0  0  0  0  0
  -21.0860   -8.8768   19.8945 H   0  0  0  0  0  0
  -22.3710  -10.9668   19.6155 H   0  0  0  0  0  0
  -21.2006   -7.6149   23.9717 H   0  0  0  0  0  0
  -21.1488   -6.0521   25.9075 H   0  0  0  0  0  0
  -22.0597   -2.7614   23.2845 H   0  0  0  0  0  0
  -22.4092  -11.9844   22.4799 H   0  0  0  0  0  0
  -21.1078  -13.1191   22.2641 H   0  0  0  0  0  0
  -24.6469  -15.8463   20.5155 H   0  0  0  0  0  0
  -26.2602  -15.6345   20.0681 H   0  0  0  0  0  0
  -26.7194  -32.5389   23.1087 H   0  0  0  0  0  0
  -25.0154  -33.9722   25.0448 H   0  0  0  0  0  0
  -22.7258  -31.3097   21.4094 H   0  0  0  0  0  0
  -23.3760  -35.9619   23.3306 H   0  0  0  0  0  0
  -24.3591  -36.8906   22.2049 H   0  0  0  0  0  0
  -23.7265  -37.6489   23.6661 H   0  0  0  0  0  0
  -26.1322  -31.5187   20.6345 H   0  0  0  0  0  0
  -26.8520  -30.7967   22.0403 H   0  0  0  0  0  0
  -28.0906  -28.8502   21.2867 H   0  0  0  0  0  0
  -25.9972  -26.1020   18.7129 H   0  0  0  0  0  0
  -24.0025  -27.4285   18.8492 H   0  0  0  0  0  0
  -23.7711  -30.6171   19.4130 H   0  0  0  0  0  0
  -22.7641  -29.2722   19.8497 H   0  0  0  0  0  0
  -25.1312  -36.1914   25.0818 H   0  0  0  0  0  0
  -20.9976  -28.3245   24.1379 H   0  0  0  0  0  0
  -20.5699  -26.2266   23.3599 H   0  0  0  0  0  0
  -21.6647  -26.7438   22.1174 H   0  0  0  0  0  0
  -19.6921  -25.6295   21.1225 H   0  0  0  0  0  0
  -19.6703  -27.3180   20.6736 H   0  0  0  0  0  0
  -17.4208  -26.6668   21.4007 H   0  0  0  0  0  0
  -18.0315  -26.0084   22.9014 H   0  0  0  0  0  0
  -19.7956  -30.7263   24.2231 H   0  0  0  0  0  0
  -17.5032  -31.6265   24.5139 H   0  0  0  0  0  0
  -15.5351  -30.2953   23.7697 H   0  0  0  0  0  0
  -15.8682  -28.0808   22.7070 H   0  0  0  0  0  0
  -24.5907  -30.7090   25.7804 H   0  0  0  0  0  0
  -24.8888  -32.2935   26.4843 H   0  0  0  0  0  0
  -25.8015  -30.8992   27.0281 H   0  0  0  0  0  0
  -26.2958  -29.6732   24.1288 H   0  0  0  0  0  0
  -27.3989  -29.7277   25.4835 H   0  0  0  0  0  0
  -27.8873  -30.4260   23.9576 H   0  0  0  0  0  0
  -27.2665  -33.3682   26.2046 H   0  0  0  0  0  0
  -28.3898  -32.6847   25.0370 H   0  0  0  0  0  0
  -28.0675  -31.8507   26.5507 H   0  0  0  0  0  0
  -28.2587  -38.0102   24.7498 H   0  0  0  0  0  0
  -28.1079  -36.2626   24.6307 H   0  0  0  0  0  0
  -27.2282  -37.1465   25.8861 H   0  0  0  0  0  0
  -20.9385  -29.8811   21.6914 H   0  0  0  0  0  0
  -26.0169  -38.2840   24.1415 H   0  0  0  0  0  0
  -30.8324  -20.6353   18.2970 H   0  0  0  0  0  0
  -29.0868  -18.4471   21.6030 H   0  0  0  0  0  0
  -31.6022  -18.4837   17.4172 H   0  0  0  0  0  0
  -27.3712  -23.9689   22.4959 H   0  0  0  0  0  0
  -26.6951  -25.5572   22.2011 H   0  0  0  0  0  0
  -28.3870  -25.3998   22.6520 H   0  0  0  0  0  0
  -25.8271  -24.5603   20.1332 H   0  0  0  0  0  0
  -26.6826  -23.0934   20.1946 H   0  0  0  0  0  0
  -26.9092  -24.1209   18.7898 H   0  0  0  0  0  0
  -29.6885  -23.6796   21.5085 H   0  0  0  0  0  0
  -30.0184  -24.2893   19.9437 H   0  0  0  0  0  0
  -29.4405  -21.2074   21.5734 H   0  0  0  0  0  0
  -29.0403  -15.7677   21.1457 H   0  0  0  0  0  0
  1 25  1  0  0  0
  1 30  2  0  0  0
  1 83  1  0  0  0
  2  3  1  0  0  0
  2 25  1  0  0  0
  2 85  1  0  0  0
  2 86  1  0  0  0
  3  4  1  0  0  0
  3 87  1  0  0  0
  3 88  1  0  0  0
  4  5  1  0  0  0
  4 89  1  0  0  0
  4 90  1  0  0  0
  5  6  1  0  0  0
  5 26  1  0  0  0
  5 91  1  0  0  0
  6 25  1  0  0  0
  6 92  1  0  0  0
  6 93  1  0  0  0
  7  8  2  0  0  0
  7 26  1  0  0  0
  7 29  1  0  0  0
  8  9  1  0  0  0
  8 22  1  0  0  0
  9 10  1  0  0  0
  9 27  2  0  0  0
 10 11  2  0  0  0
 10 15  1  0  0  0
 11 12  1  0  0  0
 11 94  1  0  0  0
 12 13  2  0  0  0
 12 95  1  0  0  0
 13 14  1  0  0  0
 13 31  1  0  0  0
 14 15  2  0  0  0
 14 96  1  0  0  0
 15 97  1  0  0  0
 16 17  2  0  0  0
 16 21  1  0  0  0
 16 31  1  0  0  0
 17 18  1  0  0  0
 17 98  1  0  0  0
 18 19  2  0  0  0
 18 99  1  0  0  0
 19 20  1  0  0  0
 19 24  1  0  0  0
 20 21  2  0  0  0
 20100  1  0  0  0
 21 23  1  0  0  0
 22 28  1  0  0  0
 22 32  2  0  0  0
 26 27  1  0  0  0
 28101  1  0  0  0
 28102  1  0  0  0
 29103  1  0  0  0
 29104  1  0  0  0
 33 34  1  0  0  0
 33 66  1  0  0  0
 33 70  2  0  0  0
 34 36  1  0  0  0
 34 59  1  0  0  0
 34105  1  0  0  0
 35 44  2  0  0  0
 35 45  1  0  0  0
 35 68  1  0  0  0
 36 56  1  0  0  0
 36106  1  0  0  0
 37 39  1  0  0  0
 37 47  1  0  0  0
 37 66  1  0  0  0
 37107  1  0  0  0
 38 43  2  0  0  0
 38 46  1  0  0  0
 38 47  1  0  0  0
 39 64  1  0  0  0
 39 67  2  0  0  0
 40 52  1  0  0  0
 40 53  2  0  0  0
 40 58  1  0  0  0
 41108  1  0  0  0
 41109  1  0  0  0
 41110  1  0  0  0
 41 48  1  0  0  0
 42 43  1  0  0  0
 42 66  1  0  0  0
 42111  1  0  0  0
 42112  1  0  0  0
 43 44  1  0  0  0
 44113  1  0  0  0
 45 46  2  0  0  0
 45114  1  0  0  0
 46115  1  0  0  0
 47116  1  0  0  0
 47117  1  0  0  0
 48 56  1  0  0  0
 48 65  1  0  0  0
 48118  1  0  0  0
 49 50  1  0  0  0
 49 53  1  0  0  0
 49 64  1  0  0  0
 49119  1  0  0  0
 50 51  1  0  0  0
 50120  1  0  0  0
 50121  1  0  0  0
 51 52  1  0  0  0
 51122  1  0  0  0
 51123  1  0  0  0
 52124  1  0  0  0
 52125  1  0  0  0
 53 54  1  0  0  0
 54 55  2  0  0  0
 54126  1  0  0  0
 55 57  1  0  0  0
 55127  1  0  0  0
 56 69  2  0  0  0
 57 58  2  0  0  0
 57128  1  0  0  0
 58129  1  0  0  0
 59 60  1  0  0  0
 59 61  1  0  0  0
 59 62  1  0  0  0
 60130  1  0  0  0
 60131  1  0  0  0
 60132  1  0  0  0
 61133  1  0  0  0
 61134  1  0  0  0
 61135  1  0  0  0
 62136  1  0  0  0
 62137  1  0  0  0
 62138  1  0  0  0
 63 65  1  0  0  0
 63139  1  0  0  0
 63140  1  0  0  0
 63141  1  0  0  0
 64142  1  0  0  0
 65143  1  0  0  0
 68 80  1  0  0  0
 71 73  2  0  0  0
 71 74  1  0  0  0
 71144  1  0  0  0
 72 74  2  0  0  0
 72 75  1  0  0  0
 72145  1  0  0  0
 73 81  1  0  0  0
 73146  1  0  0  0
 74 82  1  0  0  0
 75 81  2  0  0  0
 75 83  1  0  0  0
 76 79  1  0  0  0
 76 82  1  0  0  0
 76 84  2  0  0  0
 77147  1  0  0  0
 77148  1  0  0  0
 77149  1  0  0  0
 77 80  1  0  0  0
 78 80  1  0  0  0
 78150  1  0  0  0
 78151  1  0  0  0
 78152  1  0  0  0
 79 80  1  0  0  0
 79153  1  0  0  0
 79154  1  0  0  0
 82155  1  0  0  0
 83156  1  0  0  0
M  ISO  4   1 100  68 101  80 101  83 100
M  END
> <chiral flag>
0

> <version>
0

> <s_m_source_file>
/data/baiqing/PycharmProjects/Reinvent-master-3.2/result/LINK_invent/BTK/process_docking_weight1_custom_product_contain_oxygen_bond_distance_aromatic_linkinvent_7_9_3/rearranged_h_0153.sdf

> <i_m_source_file_index>
12

> <r_mmod_Potential_Energy-OPLS-2005>
115.225830078125

> <r_mmod_Stretch_Energy-OPLS-2005>
140.470230102539

> <r_mmod_Bend_Energy-OPLS-2005>
185.814407348633

> <r_mmod_Torsional_Energy-OPLS-2005>
254.816970825195

> <r_mmod_Improper_Torsional_Energy-OPLS-2005>
4.27467679977417

> <r_mmod_Van_der_Waal_Energy-OPLS-2005>
167.609603881836

> <r_mmod_Electrostatic_Energy-OPLS-2005>
-476.090087890625

> <r_mmod_Solvation_Energy-OPLS-2005>
-255.999114990234

> <b_mmod_Minimization_Converged-OPLS-2005>
0

> <r_mmod_RMS_Derivative-OPLS-2005>
2.19726085662842

$$$$
12
                    3D
 Structure written by MMmdl.
164173  0  0  1  0            999 V2000
  -30.6233  -14.6557   20.5128 C   0  0  0  0  0  0
  -30.4341  -12.4106   19.4848 C   0  0  0  0  0  0
  -29.5219  -12.5142   18.2417 C   0  0  0  0  0  0
  -28.0433  -12.3449   18.6436 C   0  0  0  0  0  0
  -27.6472  -13.2263   19.8601 C   0  0  2  0  0  0
  -28.6792  -13.1102   21.0041 C   0  0  0  0  0  0
  -25.2486  -13.8217   20.5609 C   0  0  0  0  0  0
  -24.1765  -13.0463   20.9149 C   0  0  0  0  0  0
  -24.6355  -11.6934   20.8727 C   0  0  0  0  0  0
  -23.9031  -10.4307   21.0408 C   0  0  0  0  0  0
  -24.3591   -9.4221   21.9176 C   0  0  0  0  0  0
  -23.6264   -8.2251   22.0766 C   0  0  0  0  0  0
  -22.4228   -8.0284   21.3567 C   0  0  0  0  0  0
  -21.9854   -9.0254   20.4674 C   0  0  0  0  0  0
  -22.7199  -10.2123   20.3062 C   0  0  0  0  0  0
  -21.6842   -6.0715   22.5260 C   0  0  0  0  0  0
  -21.4016   -6.5615   23.8193 C   0  0  0  0  0  0
  -21.3665   -5.6769   24.9162 C   0  0  0  0  0  0
  -21.6044   -4.3031   24.7216 C   0  0  0  0  0  0
  -21.8821   -3.8129   23.4337 C   0  0  0  0  0  0
  -21.9176   -4.6947   22.3394 C   0  0  0  0  0  0
  -22.7785  -13.5250   21.1857 C   0  0  0  0  0  0
  -22.1642   -4.2138   21.0970 F   0  0  0  0  0  0
  -21.5642   -3.4518   25.7736 F   0  0  0  0  0  0
  -29.9991  -13.4417   20.4527 N   0  0  0  0  0  0
  -26.2910  -12.9402   20.3234 N   0  0  0  0  0  0
  -25.9277  -11.6546   20.5699 N   0  0  0  0  0  0
  -22.0408  -12.8272   22.0434 N   0  0  0  0  0  0
  -25.4251  -15.1938   20.4026 N   0  0  0  0  0  0
  -31.7900  -14.7898   20.1240 O   0  0  0  0  0  0
  -21.6625   -6.8856   21.4217 O   0  0  0  0  0  0
  -22.3459  -14.5549   20.6716 O   0  0  0  0  0  0
  -24.6192  -31.8642   23.2061 C   0  0  0  0  0  0
  -25.9048  -32.4816   23.8391 C   0  0  1  0  0  0
  -27.2148  -27.3668   20.1386 C   0  0  0  0  0  0
  -25.5889  -33.8616   24.2322 N   0  0  0  0  0  0
  -23.4120  -30.4869   21.5473 C   0  0  2  0  0  0
  -24.8602  -28.9477   20.1101 C   0  0  0  0  0  0
  -22.7452  -29.4638   22.4963 C   0  0  0  0  0  0
  -18.0293  -28.1391   22.8485 C   0  0  0  0  0  0
  -24.1485  -36.7302   23.2642 C   0  0  0  0  0  0
  -25.9469  -30.8122   21.3686 C   0  0  0  0  0  0
  -26.0226  -29.4421   20.7158 C   0  0  0  0  0  0
  -27.2104  -28.6632   20.7179 C   0  0  0  0  0  0
  -26.0410  -26.9052   19.5109 C   0  0  0  0  0  0
  -24.8690  -27.6850   19.4940 C   0  0  0  0  0  0
  -23.6241  -29.8211   20.1617 C   0  0  0  0  0  0
  -25.4104  -36.3112   24.0349 C   0  0  1  0  0  0
  -20.5886  -28.3684   23.1307 C   0  0  2  0  0  0
  -20.6781  -26.9404   22.5440 C   0  0  0  0  0  0
  -19.5761  -26.6385   21.5233 C   0  0  0  0  0  0
  -18.1929  -26.7944   22.1610 C   0  0  0  0  0  0
  -19.1537  -28.8855   23.2902 C   0  0  0  0  0  0
  -18.9454  -30.1453   23.8928 C   0  0  0  0  0  0
  -17.6449  -30.6587   24.0558 C   0  0  0  0  0  0
  -25.9033  -34.9472   23.5143 C   0  0  0  0  0  0
  -16.5350  -29.9080   23.6326 C   0  0  0  0  0  0
  -16.7279  -28.6502   23.0352 C   0  0  0  0  0  0
  -26.4463  -31.6613   25.0731 C   0  0  0  0  0  0
  -25.3712  -31.3735   26.1475 C   0  0  0  0  0  0
  -27.0287  -30.3048   24.6136 C   0  0  0  0  0  0
  -27.6069  -32.4324   25.7443 C   0  0  0  0  0  0
  -27.5595  -37.1792   24.8462 C   0  0  0  0  0  0
  -21.4162  -29.3029   22.3691 N   0  0  0  0  0  0
  -26.4292  -37.3794   23.9420 N   0  0  0  0  0  0
  -24.6782  -31.0709   22.0988 N   0  0  0  0  0  0
  -23.4189  -28.8176   23.3026 O   0  0  0  0  0  0
  -28.3190  -26.5311   20.1712 O   0  0  0  0  0  0
  -26.5611  -34.8930   22.4716 O   0  0  0  0  0  0
  -23.5364  -32.1418   23.7426 O   0  0  0  0  0  0
  -29.5416  -18.3498   20.5943 C   0  0  0  0  0  0
  -30.2182  -16.9778   18.7155 C   0  0  0  0  0  0
  -29.5674  -19.5093   19.7266 C   0  0  0  0  0  0
  -29.8906  -17.0376   20.0842 C   0  0  0  0  0  0
  -29.9230  -19.2401   18.3798 C   0  0  0  0  0  0
  -27.9204  -21.6128   19.6395 C   0  0  0  0  0  0
  -29.6263  -21.5738   21.5167 C   0  0  0  0  0  0
  -27.7941  -23.1827   19.6733 C   0  0  0  0  0  0
  -29.1168  -23.0427   21.7980 C   0  0  0  0  0  0
  -29.2797  -21.0229   20.1088 C   0  0  1  0  0  0
  -28.8032  -23.9757   20.5714 C   0  0  1  0  0  0
  -30.1000  -24.3274   19.7998 C   0  0  0  0  0  0
  -28.1994  -25.3691   21.0552 C   0  0  0  0  0  0
  -30.2220  -18.0353   17.8905 N   0  0  0  0  0  0
  -30.0113  -20.2194   17.4021 N   0  0  0  0  0  0
  -29.8707  -15.7689   20.8209 N   0  0  0  0  0  0
  -31.4843  -12.5180   19.2055 H   0  0  0  0  0  0
  -30.3550  -11.4236   19.9421 H   0  0  0  0  0  0
  -29.8026  -11.7631   17.5033 H   0  0  0  0  0  0
  -29.6690  -13.4783   17.7504 H   0  0  0  0  0  0
  -27.8896  -11.2912   18.8839 H   0  0  0  0  0  0
  -27.3977  -12.5626   17.7928 H   0  0  0  0  0  0
  -27.6583  -14.2553   19.4966 H   0  0  0  0  0  0
  -28.6922  -12.1007   21.4160 H   0  0  0  0  0  0
  -28.4151  -13.7669   21.8354 H   0  0  0  0  0  0
  -25.2768   -9.5688   22.4702 H   0  0  0  0  0  0
  -24.0012   -7.4618   22.7447 H   0  0  0  0  0  0
  -21.0793   -8.8742   19.8962 H   0  0  0  0  0  0
  -22.3678  -10.9624   19.6118 H   0  0  0  0  0  0
  -21.2026   -7.6122   23.9702 H   0  0  0  0  0  0
  -21.1482   -6.0501   25.9059 H   0  0  0  0  0  0
  -22.0610   -2.7582   23.2835 H   0  0  0  0  0  0
  -22.3977  -11.9945   22.4898 H   0  0  0  0  0  0
  -21.1019  -13.1311   22.2624 H   0  0  0  0  0  0
  -24.6687  -15.8636   20.5027 H   0  0  0  0  0  0
  -26.2928  -15.6205   20.1027 H   0  0  0  0  0  0
  -26.7114  -32.5518   23.1145 H   0  0  0  0  0  0
  -25.0048  -33.9765   25.0483 H   0  0  0  0  0  0
  -22.7035  -31.3066   21.4061 H   0  0  0  0  0  0
  -23.3766  -35.9615   23.3285 H   0  0  0  0  0  0
  -24.3592  -36.8937   22.2062 H   0  0  0  0  0  0
  -23.7210  -37.6485   23.6674 H   0  0  0  0  0  0
  -26.0707  -31.5765   20.6011 H   0  0  0  0  0  0
  -26.8311  -30.8650   21.9925 H   0  0  0  0  0  0
  -28.1061  -29.0334   21.1963 H   0  0  0  0  0  0
  -26.0304  -25.9271   19.0531 H   0  0  0  0  0  0
  -23.9793  -27.2992   19.0164 H   0  0  0  0  0  0
  -23.7356  -30.5969   19.4033 H   0  0  0  0  0  0
  -22.7462  -29.2450   19.8642 H   0  0  0  0  0  0
  -25.1272  -36.1985   25.0839 H   0  0  0  0  0  0
  -20.9990  -28.3280   24.1423 H   0  0  0  0  0  0
  -20.5691  -26.2286   23.3637 H   0  0  0  0  0  0
  -21.6652  -26.7440   22.1234 H   0  0  0  0  0  0
  -19.6912  -25.6299   21.1259 H   0  0  0  0  0  0
  -19.6713  -27.3204   20.6772 H   0  0  0  0  0  0
  -17.4210  -26.6741   21.3992 H   0  0  0  0  0  0
  -18.0266  -26.0094   22.8997 H   0  0  0  0  0  0
  -19.7924  -30.7270   24.2327 H   0  0  0  0  0  0
  -17.4997  -31.6279   24.5138 H   0  0  0  0  0  0
  -15.5345  -30.2972   23.7655 H   0  0  0  0  0  0
  -15.8682  -28.0823   22.7055 H   0  0  0  0  0  0
  -24.5896  -30.7066   25.7815 H   0  0  0  0  0  0
  -24.8880  -32.2889   26.4903 H   0  0  0  0  0  0
  -25.8056  -30.8921   27.0244 H   0  0  0  0  0  0
  -26.2827  -29.6802   24.1200 H   0  0  0  0  0  0
  -27.4056  -29.7312   25.4617 H   0  0  0  0  0  0
  -27.8677  -30.4373   23.9297 H   0  0  0  0  0  0
  -27.2745  -33.3645   26.2025 H   0  0  0  0  0  0
  -28.3833  -32.6842   25.0202 H   0  0  0  0  0  0
  -28.0775  -31.8433   26.5325 H   0  0  0  0  0  0
  -28.2613  -38.0087   24.7522 H   0  0  0  0  0  0
  -28.1091  -36.2631   24.6253 H   0  0  0  0  0  0
  -27.2336  -37.1400   25.8869 H   0  0  0  0  0  0
  -20.9337  -29.8721   21.6880 H   0  0  0  0  0  0
  -26.0196  -38.2879   24.1417 H   0  0  0  0  0  0
  -29.2713  -18.4626   21.6356 H   0  0  0  0  0  0
  -30.4558  -16.0452   18.2259 H   0  0  0  0  0  0
  -27.7164  -21.2862   18.6192 H   0  0  0  0  0  0
  -27.1263  -21.1761   20.2471 H   0  0  0  0  0  0
  -29.2347  -20.9153   22.2922 H   0  0  0  0  0  0
  -30.7111  -21.5473   21.6339 H   0  0  0  0  0  0
  -26.7794  -23.3942   20.0171 H   0  0  0  0  0  0
  -27.8138  -23.5941   18.6625 H   0  0  0  0  0  0
  -29.8245  -23.5389   22.4659 H   0  0  0  0  0  0
  -28.1993  -22.9626   22.3871 H   0  0  0  0  0  0
  -30.0147  -21.5323   19.4982 H   0  0  0  0  0  0
  -30.7026  -23.4694   19.5224 H   0  0  0  0  0  0
  -30.7467  -24.9842   20.3850 H   0  0  0  0  0  0
  -29.8659  -24.8596   18.8773 H   0  0  0  0  0  0
  -28.7290  -25.6648   21.9636 H   0  0  0  0  0  0
  -27.1690  -25.2264   21.3920 H   0  0  0  0  0  0
  -29.7650  -21.1860   17.5757 H   0  0  0  0  0  0
  -30.2156  -19.9809   16.4391 H   0  0  0  0  0  0
  -29.0439  -15.5966   21.3769 H   0  0  0  0  0  0
  1 25  1  0  0  0
  1 30  2  0  0  0
  1 86  1  0  0  0
  2  3  1  0  0  0
  2 25  1  0  0  0
  2 87  1  0  0  0
  2 88  1  0  0  0
  3  4  1  0  0  0
  3 89  1  0  0  0
  3 90  1  0  0  0
  4  5  1  0  0  0
  4 91  1  0  0  0
  4 92  1  0  0  0
  5  6  1  0  0  0
  5 26  1  0  0  0
  5 93  1  0  0  0
  6 25  1  0  0  0
  6 94  1  0  0  0
  6 95  1  0  0  0
  7  8  2  0  0  0
  7 26  1  0  0  0
  7 29  1  0  0  0
  8  9  1  0  0  0
  8 22  1  0  0  0
  9 10  1  0  0  0
  9 27  2  0  0  0
 10 11  2  0  0  0
 10 15  1  0  0  0
 11 12  1  0  0  0
 11 96  1  0  0  0
 12 13  2  0  0  0
 12 97  1  0  0  0
 13 14  1  0  0  0
 13 31  1  0  0  0
 14 15  2  0  0  0
 14 98  1  0  0  0
 15 99  1  0  0  0
 16 17  2  0  0  0
 16 21  1  0  0  0
 16 31  1  0  0  0
 17 18  1  0  0  0
 17100  1  0  0  0
 18 19  2  0  0  0
 18101  1  0  0  0
 19 20  1  0  0  0
 19 24  1  0  0  0
 20 21  2  0  0  0
 20102  1  0  0  0
 21 23  1  0  0  0
 22 28  1  0  0  0
 22 32  2  0  0  0
 26 27  1  0  0  0
 28103  1  0  0  0
 28104  1  0  0  0
 29105  1  0  0  0
 29106  1  0  0  0
 33 34  1  0  0  0
 33 66  1  0  0  0
 33 70  2  0  0  0
 34 36  1  0  0  0
 34 59  1  0  0  0
 34107  1  0  0  0
 35 44  2  0  0  0
 35 45  1  0  0  0
 35 68  1  0  0  0
 36 56  1  0  0  0
 36108  1  0  0  0
 37 39  1  0  0  0
 37 47  1  0  0  0
 37 66  1  0  0  0
 37109  1  0  0  0
 38 43  2  0  0  0
 38 46  1  0  0  0
 38 47  1  0  0  0
 39 64  1  0  0  0
 39 67  2  0  0  0
 40 52  1  0  0  0
 40 53  2  0  0  0
 40 58  1  0  0  0
 41110  1  0  0  0
 41111  1  0  0  0
 41112  1  0  0  0
 41 48  1  0  0  0
 42 43  1  0  0  0
 42 66  1  0  0  0
 42113  1  0  0  0
 42114  1  0  0  0
 43 44  1  0  0  0
 44115  1  0  0  0
 45 46  2  0  0  0
 45116  1  0  0  0
 46117  1  0  0  0
 47118  1  0  0  0
 47119  1  0  0  0
 48 56  1  0  0  0
 48 65  1  0  0  0
 48120  1  0  0  0
 49 50  1  0  0  0
 49 53  1  0  0  0
 49 64  1  0  0  0
 49121  1  0  0  0
 50 51  1  0  0  0
 50122  1  0  0  0
 50123  1  0  0  0
 51 52  1  0  0  0
 51124  1  0  0  0
 51125  1  0  0  0
 52126  1  0  0  0
 52127  1  0  0  0
 53 54  1  0  0  0
 54 55  2  0  0  0
 54128  1  0  0  0
 55 57  1  0  0  0
 55129  1  0  0  0
 56 69  2  0  0  0
 57 58  2  0  0  0
 57130  1  0  0  0
 58131  1  0  0  0
 59 60  1  0  0  0
 59 61  1  0  0  0
 59 62  1  0  0  0
 60132  1  0  0  0
 60133  1  0  0  0
 60134  1  0  0  0
 61135  1  0  0  0
 61136  1  0  0  0
 61137  1  0  0  0
 62138  1  0  0  0
 62139  1  0  0  0
 62140  1  0  0  0
 63 65  1  0  0  0
 63141  1  0  0  0
 63142  1  0  0  0
 63143  1  0  0  0
 64144  1  0  0  0
 65145  1  0  0  0
 68 83  1  0  0  0
 71 73  2  0  0  0
 71 74  1  0  0  0
 71146  1  0  0  0
 72 74  2  0  0  0
 72 84  1  0  0  0
 72147  1  0  0  0
 73 75  1  0  0  0
 73 80  1  0  0  0
 74 86  1  0  0  0
 75 84  2  0  0  0
 75 85  1  0  0  0
 76 78  1  0  0  0
 76 80  1  0  0  0
 76148  1  0  0  0
 76149  1  0  0  0
 77 79  1  0  0  0
 77 80  1  0  0  0
 77150  1  0  0  0
 77151  1  0  0  0
 78 81  1  0  0  0
 78152  1  0  0  0
 78153  1  0  0  0
 79 81  1  0  0  0
 79154  1  0  0  0
 79155  1  0  0  0
 80156  1  0  0  0
 81 82  1  0  0  0
 81 83  1  0  0  0
 82157  1  0  0  0
 82158  1  0  0  0
 82159  1  0  0  0
 83160  1  0  0  0
 83161  1  0  0  0
 85162  1  0  0  0
 85163  1  0  0  0
 86164  1  0  0  0
M  ISO  4   1 100  68 101  83 101  86 100
M  END
> <chiral flag>
0

> <version>
0

> <s_m_source_file>
/data/baiqing/PycharmProjects/Reinvent-master-3.2/result/LINK_invent/BTK/process_docking_weight1_custom_product_contain_oxygen_bond_distance_aromatic_linkinvent_7_9_3/rearranged_h_0153.sdf

> <i_m_source_file_index>
13

> <r_mmod_Potential_Energy-OPLS-2005>
-124.059158325195

> <r_mmod_Stretch_Energy-OPLS-2005>
80.9354629516602

> <r_mmod_Bend_Energy-OPLS-2005>
163.642608642578

> <r_mmod_Torsional_Energy-OPLS-2005>
319.792907714844

> <r_mmod_Improper_Torsional_Energy-OPLS-2005>
5.85720586776733

> <r_mmod_Van_der_Waal_Energy-OPLS-2005>
157.171844482422

> <r_mmod_Electrostatic_Energy-OPLS-2005>
-678.876831054688

> <r_mmod_Solvation_Energy-OPLS-2005>
-218.897079467773

> <b_mmod_Minimization_Converged-OPLS-2005>
0

> <r_mmod_RMS_Derivative-OPLS-2005>
4.11486768722534

$$$$
13
                    3D
 Structure written by MMmdl.
155164  0  0  1  0            999 V2000
  -30.6601  -14.7983   20.4163 C   0  0  0  0  0  0
  -30.4284  -12.4894   19.4687 C   0  0  0  0  0  0
  -29.4901  -12.4250   18.2442 C   0  0  0  0  0  0
  -28.0303  -12.2452   18.6938 C   0  0  0  0  0  0
  -27.6308  -13.2083   19.8384 C   0  0  2  0  0  0
  -28.6898  -13.2557   20.9589 C   0  0  0  0  0  0
  -25.2516  -13.8164   20.5794 C   0  0  0  0  0  0
  -24.1783  -13.0433   20.9278 C   0  0  0  0  0  0
  -24.6341  -11.6915   20.8821 C   0  0  0  0  0  0
  -23.9021  -10.4300   21.0443 C   0  0  0  0  0  0
  -24.3600   -9.4226   21.9214 C   0  0  0  0  0  0
  -23.6306   -8.2248   22.0772 C   0  0  0  0  0  0
  -22.4276   -8.0288   21.3576 C   0  0  0  0  0  0
  -21.9899   -9.0246   20.4670 C   0  0  0  0  0  0
  -22.7197  -10.2141   20.3090 C   0  0  0  0  0  0
  -21.6850   -6.0758   22.5291 C   0  0  0  0  0  0
  -21.3996   -6.5657   23.8221 C   0  0  0  0  0  0
  -21.3657   -5.6801   24.9176 C   0  0  0  0  0  0
  -21.6042   -4.3066   24.7209 C   0  0  0  0  0  0
  -21.8824   -3.8169   23.4330 C   0  0  0  0  0  0
  -21.9210   -4.7000   22.3391 C   0  0  0  0  0  0
  -22.7827  -13.5259   21.1907 C   0  0  0  0  0  0
  -22.1700   -4.2206   21.0968 F   0  0  0  0  0  0
  -21.5619   -3.4535   25.7708 F   0  0  0  0  0  0
  -29.9632  -13.6088   20.3206 N   0  0  0  0  0  0
  -26.2901  -12.9316   20.3363 N   0  0  0  0  0  0
  -25.9264  -11.6505   20.5888 N   0  0  0  0  0  0
  -22.0454  -12.8231   22.0431 N   0  0  0  0  0  0
  -25.4206  -15.1873   20.4276 N   0  0  0  0  0  0
  -31.8896  -14.7427   20.3143 O   0  0  0  0  0  0
  -21.6653   -6.8887   21.4249 O   0  0  0  0  0  0
  -22.3542  -14.5590   20.6782 O   0  0  0  0  0  0
  -24.6333  -31.8521   23.1996 C   0  0  0  0  0  0
  -25.9160  -32.4743   23.8327 C   0  0  1  0  0  0
  -27.2274  -27.2479   20.1198 C   0  0  0  0  0  0
  -25.5950  -33.8548   24.2246 N   0  0  0  0  0  0
  -23.4303  -30.4759   21.5443 C   0  0  2  0  0  0
  -24.8802  -28.9291   20.1058 C   0  0  0  0  0  0
  -22.7499  -29.4585   22.4916 C   0  0  0  0  0  0
  -18.0290  -28.1350   22.8504 C   0  0  0  0  0  0
  -24.1483  -36.7276   23.2639 C   0  0  0  0  0  0
  -25.9791  -30.7600   21.3829 C   0  0  0  0  0  0
  -26.0534  -29.3832   20.7218 C   0  0  0  0  0  0
  -27.2276  -28.5574   20.7185 C   0  0  0  0  0  0
  -26.0279  -26.8742   19.4676 C   0  0  0  0  0  0
  -24.8766  -27.6830   19.4634 C   0  0  0  0  0  0
  -23.6473  -29.8128   20.1600 C   0  0  0  0  0  0
  -25.4112  -36.3064   24.0325 C   0  0  1  0  0  0
  -20.5894  -28.3671   23.1274 C   0  0  2  0  0  0
  -20.6769  -26.9384   22.5411 C   0  0  0  0  0  0
  -19.5744  -26.6357   21.5212 C   0  0  0  0  0  0
  -18.1929  -26.7897   22.1630 C   0  0  0  0  0  0
  -19.1544  -28.8828   23.2883 C   0  0  0  0  0  0
  -18.9465  -30.1431   23.8897 C   0  0  0  0  0  0
  -17.6463  -30.6564   24.0550 C   0  0  0  0  0  0
  -25.9063  -34.9436   23.5089 C   0  0  0  0  0  0
  -16.5354  -29.9055   23.6329 C   0  0  0  0  0  0
  -16.7277  -28.6460   23.0379 C   0  0  0  0  0  0
  -26.4511  -31.6585   25.0733 C   0  0  0  0  0  0
  -25.3733  -31.3745   26.1457 C   0  0  0  0  0  0
  -27.0366  -30.3003   24.6244 C   0  0  0  0  0  0
  -27.6044  -32.4333   25.7529 C   0  0  0  0  0  0
  -27.5576  -37.1789   24.8455 C   0  0  0  0  0  0
  -21.4206  -29.3023   22.3659 N   0  0  0  0  0  0
  -26.4276  -37.3777   23.9418 N   0  0  0  0  0  0
  -24.7004  -31.0460   22.0986 N   0  0  0  0  0  0
  -23.4192  -28.8115   23.3013 O   0  0  0  0  0  0
  -28.3117  -26.3272   20.1793 O   0  0  0  0  0  0
  -26.5638  -34.8917   22.4663 O   0  0  0  0  0  0
  -23.5480  -32.1354   23.7284 O   0  0  0  0  0  0
  -28.7767  -19.7676   20.4367 C   0  0  0  0  0  0
  -30.7977  -20.8952   20.2316 C   0  0  0  0  0  0
  -29.4364  -21.0731   20.3152 C   0  0  0  0  0  0
  -29.5969  -18.6190   20.3893 C   0  0  0  0  0  0
  -29.1056  -23.7166   20.2249 C   0  0  0  0  0  0
  -29.1750  -16.9732   17.8968 C   0  0  0  0  0  0
  -28.2076  -17.0778   19.0764 C   0  0  0  0  0  0
  -30.3923  -16.2275   18.4592 C   0  0  0  0  0  0
  -29.1421  -17.0910   20.2947 C   0  0  1  0  0  0
  -28.0168  -24.8638   19.9207 C   0  0  0  0  0  0
  -30.0821  -15.9533   19.8664 N   0  0  0  0  0  0
  -28.7175  -22.3775   20.2197 N   0  0  0  0  0  0
  -30.2720  -24.0516   20.4512 O   0  0  0  0  0  0
  -31.2566  -19.1817   20.2758 S   0  0  0  0  0  0
  -31.4597  -12.6186   19.1329 H   0  0  0  0  0  0
  -30.4133  -11.5544   20.0323 H   0  0  0  0  0  0
  -29.7770  -11.5925   17.6000 H   0  0  0  0  0  0
  -29.5813  -13.3262   17.6390 H   0  0  0  0  0  0
  -27.9289  -11.2175   19.0419 H   0  0  0  0  0  0
  -27.3499  -12.3464   17.8473 H   0  0  0  0  0  0
  -27.5955  -14.1825   19.3722 H   0  0  0  0  0  0
  -28.7616  -12.2930   21.4678 H   0  0  0  0  0  0
  -28.4238  -13.9961   21.7165 H   0  0  0  0  0  0
  -25.2734   -9.5748   22.4798 H   0  0  0  0  0  0
  -24.0063   -7.4631   22.7459 H   0  0  0  0  0  0
  -21.0845   -8.8728   19.8953 H   0  0  0  0  0  0
  -22.3629  -10.9692   19.6224 H   0  0  0  0  0  0
  -21.1965   -7.6164   23.9736 H   0  0  0  0  0  0
  -21.1473   -6.0526   25.9081 H   0  0  0  0  0  0
  -22.0602   -2.7643   23.2788 H   0  0  0  0  0  0
  -22.4035  -11.9865   22.4783 H   0  0  0  0  0  0
  -21.1101  -13.1301   22.2663 H   0  0  0  0  0  0
  -24.6535  -15.8418   20.5384 H   0  0  0  0  0  0
  -26.2799  -15.6288   20.1302 H   0  0  0  0  0  0
  -26.7227  -32.5377   23.1056 H   0  0  0  0  0  0
  -25.0074  -33.9668   25.0378 H   0  0  0  0  0  0
  -22.7288  -31.2999   21.4017 H   0  0  0  0  0  0
  -23.3754  -35.9599   23.3274 H   0  0  0  0  0  0
  -24.3574  -36.8930   22.2059 H   0  0  0  0  0  0
  -23.7217  -37.6462   23.6682 H   0  0  0  0  0  0
  -26.1197  -31.5203   20.6124 H   0  0  0  0  0  0
  -26.8555  -30.8070   22.0188 H   0  0  0  0  0  0
  -28.1202  -28.9063   21.2202 H   0  0  0  0  0  0
  -25.9382  -25.9288   18.9559 H   0  0  0  0  0  0
  -23.9879  -27.3308   18.9588 H   0  0  0  0  0  0
  -23.7573  -30.5906   19.4032 H   0  0  0  0  0  0
  -22.7657  -29.2407   19.8629 H   0  0  0  0  0  0
  -25.1290  -36.1900   25.0816 H   0  0  0  0  0  0
  -20.9999  -28.3233   24.1387 H   0  0  0  0  0  0
  -20.5648  -26.2270   23.3616 H   0  0  0  0  0  0
  -21.6637  -26.7380   22.1215 H   0  0  0  0  0  0
  -19.6901  -25.6266   21.1240 H   0  0  0  0  0  0
  -19.6678  -27.3166   20.6745 H   0  0  0  0  0  0
  -17.4197  -26.6659   21.4032 H   0  0  0  0  0  0
  -18.0325  -26.0019   22.9009 H   0  0  0  0  0  0
  -19.7942  -30.7250   24.2258 H   0  0  0  0  0  0
  -17.5016  -31.6258   24.5122 H   0  0  0  0  0  0
  -15.5352  -30.2955   23.7643 H   0  0  0  0  0  0
  -15.8681  -28.0763   22.7114 H   0  0  0  0  0  0
  -24.5880  -30.7125   25.7785 H   0  0  0  0  0  0
  -24.8961  -32.2925   26.4902 H   0  0  0  0  0  0
  -25.8045  -30.8898   27.0229 H   0  0  0  0  0  0
  -26.2968  -29.6752   24.1234 H   0  0  0  0  0  0
  -27.3998  -29.7261   25.4775 H   0  0  0  0  0  0
  -27.8862  -30.4263   23.9532 H   0  0  0  0  0  0
  -27.2625  -33.3619   26.2115 H   0  0  0  0  0  0
  -28.3875  -32.6925   25.0390 H   0  0  0  0  0  0
  -28.0706  -31.8466   26.5457 H   0  0  0  0  0  0
  -28.2567  -38.0116   24.7560 H   0  0  0  0  0  0
  -28.1101  -36.2651   24.6207 H   0  0  0  0  0  0
  -27.2305  -37.1351   25.8860 H   0  0  0  0  0  0
  -20.9364  -29.8758   21.6893 H   0  0  0  0  0  0
  -26.0143  -38.2839   24.1463 H   0  0  0  0  0  0
  -27.6994  -19.7043   20.4938 H   0  0  0  0  0  0
  -31.5708  -21.6462   20.1198 H   0  0  0  0  0  0
  -29.4735  -17.9680   17.5651 H   0  0  0  0  0  0
  -28.7294  -16.4606   17.0450 H   0  0  0  0  0  0
  -27.5664  -16.2081   19.0839 H   0  0  0  0  0  0
  -27.5313  -17.9294   19.0012 H   0  0  0  0  0  0
  -31.3025  -16.8239   18.3887 H   0  0  0  0  0  0
  -30.5742  -15.3134   17.8939 H   0  0  0  0  0  0
  -28.6028  -16.8074   21.1998 H   0  0  0  0  0  0
  -27.1184  -24.5828   20.4694 H   0  0  0  0  0  0
  -27.7858  -24.7593   18.8599 H   0  0  0  0  0  0
  -27.7189  -22.2754   20.0905 H   0  0  0  0  0  0
  1 25  1  0  0  0
  1 30  2  0  0  0
  1 81  1  0  0  0
  2  3  1  0  0  0
  2 25  1  0  0  0
  2 85  1  0  0  0
  2 86  1  0  0  0
  3  4  1  0  0  0
  3 87  1  0  0  0
  3 88  1  0  0  0
  4  5  1  0  0  0
  4 89  1  0  0  0
  4 90  1  0  0  0
  5  6  1  0  0  0
  5 26  1  0  0  0
  5 91  1  0  0  0
  6 25  1  0  0  0
  6 92  1  0  0  0
  6 93  1  0  0  0
  7  8  2  0  0  0
  7 26  1  0  0  0
  7 29  1  0  0  0
  8  9  1  0  0  0
  8 22  1  0  0  0
  9 10  1  0  0  0
  9 27  2  0  0  0
 10 11  2  0  0  0
 10 15  1  0  0  0
 11 12  1  0  0  0
 11 94  1  0  0  0
 12 13  2  0  0  0
 12 95  1  0  0  0
 13 14  1  0  0  0
 13 31  1  0  0  0
 14 15  2  0  0  0
 14 96  1  0  0  0
 15 97  1  0  0  0
 16 17  2  0  0  0
 16 21  1  0  0  0
 16 31  1  0  0  0
 17 18  1  0  0  0
 17 98  1  0  0  0
 18 19  2  0  0  0
 18 99  1  0  0  0
 19 20  1  0  0  0
 19 24  1  0  0  0
 20 21  2  0  0  0
 20100  1  0  0  0
 21 23  1  0  0  0
 22 28  1  0  0  0
 22 32  2  0  0  0
 26 27  1  0  0  0
 28101  1  0  0  0
 28102  1  0  0  0
 29103  1  0  0  0
 29104  1  0  0  0
 33 34  1  0  0  0
 33 66  1  0  0  0
 33 70  2  0  0  0
 34 36  1  0  0  0
 34 59  1  0  0  0
 34105  1  0  0  0
 35 44  2  0  0  0
 35 45  1  0  0  0
 35 68  1  0  0  0
 36 56  1  0  0  0
 36106  1  0  0  0
 37 39  1  0  0  0
 37 47  1  0  0  0
 37 66  1  0  0  0
 37107  1  0  0  0
 38 43  2  0  0  0
 38 46  1  0  0  0
 38 47  1  0  0  0
 39 64  1  0  0  0
 39 67  2  0  0  0
 40 52  1  0  0  0
 40 53  2  0  0  0
 40 58  1  0  0  0
 41108  1  0  0  0
 41109  1  0  0  0
 41110  1  0  0  0
 41 48  1  0  0  0
 42 43  1  0  0  0
 42 66  1  0  0  0
 42111  1  0  0  0
 42112  1  0  0  0
 43 44  1  0  0  0
 44113  1  0  0  0
 45 46  2  0  0  0
 45114  1  0  0  0
 46115  1  0  0  0
 47116  1  0  0  0
 47117  1  0  0  0
 48 56  1  0  0  0
 48 65  1  0  0  0
 48118  1  0  0  0
 49 50  1  0  0  0
 49 53  1  0  0  0
 49 64  1  0  0  0
 49119  1  0  0  0
 50 51  1  0  0  0
 50120  1  0  0  0
 50121  1  0  0  0
 51 52  1  0  0  0
 51122  1  0  0  0
 51123  1  0  0  0
 52124  1  0  0  0
 52125  1  0  0  0
 53 54  1  0  0  0
 54 55  2  0  0  0
 54126  1  0  0  0
 55 57  1  0  0  0
 55127  1  0  0  0
 56 69  2  0  0  0
 57 58  2  0  0  0
 57128  1  0  0  0
 58129  1  0  0  0
 59 60  1  0  0  0
 59 61  1  0  0  0
 59 62  1  0  0  0
 60130  1  0  0  0
 60131  1  0  0  0
 60132  1  0  0  0
 61133  1  0  0  0
 61134  1  0  0  0
 61135  1  0  0  0
 62136  1  0  0  0
 62137  1  0  0  0
 62138  1  0  0  0
 63 65  1  0  0  0
 63139  1  0  0  0
 63140  1  0  0  0
 63141  1  0  0  0
 64142  1  0  0  0
 65143  1  0  0  0
 68 80  1  0  0  0
 71 73  1  0  0  0
 71 74  2  0  0  0
 71144  1  0  0  0
 72 73  2  0  0  0
 72 84  1  0  0  0
 72145  1  0  0  0
 73 82  1  0  0  0
 74 84  1  0  0  0
 74 79  1  0  0  0
 75 80  1  0  0  0
 75 82  1  0  0  0
 75 83  2  0  0  0
 76 77  1  0  0  0
 76 78  1  0  0  0
 76146  1  0  0  0
 76147  1  0  0  0
 77 79  1  0  0  0
 77148  1  0  0  0
 77149  1  0  0  0
 78 81  1  0  0  0
 78150  1  0  0  0
 78151  1  0  0  0
 79 81  1  0  0  0
 79152  1  0  0  0
 80153  1  0  0  0
 80154  1  0  0  0
 82155  1  0  0  0
M  ISO  4   1 100  68 101  80 101  81 100
M  END
> <chiral flag>
0

> <version>
0

> <s_m_source_file>
/data/baiqing/PycharmProjects/Reinvent-master-3.2/result/LINK_invent/BTK/process_docking_weight1_custom_product_contain_oxygen_bond_distance_aromatic_linkinvent_7_9_3/rearranged_h_0153.sdf

> <i_m_source_file_index>
14

> <r_mmod_Potential_Energy-OPLS-2005>
481.323425292969

> <r_mmod_Stretch_Energy-OPLS-2005>
133.877532958984

> <r_mmod_Bend_Energy-OPLS-2005>
246.7109375

> <r_mmod_Torsional_Energy-OPLS-2005>
356.910186767578

> <r_mmod_Improper_Torsional_Energy-OPLS-2005>
31.3689422607422

> <r_mmod_Van_der_Waal_Energy-OPLS-2005>
116.468452453613

> <r_mmod_Electrostatic_Energy-OPLS-2005>
-285.147155761719

> <r_mmod_Solvation_Energy-OPLS-2005>
-237.328903198242

> <b_mmod_Minimization_Converged-OPLS-2005>
0

> <r_mmod_RMS_Derivative-OPLS-2005>
3.06999897956848

$$$$
14
                    3D
 Structure written by MMmdl.
162170  0  0  1  0            999 V2000
  -30.5933  -14.5389   20.5541 C   0  0  0  0  0  0
  -30.4484  -12.3422   19.4097 C   0  0  0  0  0  0
  -29.4982  -12.5041   18.2012 C   0  0  0  0  0  0
  -28.0198  -12.3415   18.6166 C   0  0  0  0  0  0
  -27.6579  -13.1781   19.8713 C   0  0  2  0  0  0
  -28.7045  -12.9436   20.9860 C   0  0  0  0  0  0
  -25.2617  -13.8072   20.5649 C   0  0  0  0  0  0
  -24.1842  -13.0386   20.9164 C   0  0  0  0  0  0
  -24.6364  -11.6847   20.8743 C   0  0  0  0  0  0
  -23.9021  -10.4255   21.0411 C   0  0  0  0  0  0
  -24.3585   -9.4180   21.9184 C   0  0  0  0  0  0
  -23.6264   -8.2219   22.0762 C   0  0  0  0  0  0
  -22.4251   -8.0261   21.3545 C   0  0  0  0  0  0
  -21.9878   -9.0226   20.4648 C   0  0  0  0  0  0
  -22.7200  -10.2107   20.3056 C   0  0  0  0  0  0
  -21.6847   -6.0715   22.5272 C   0  0  0  0  0  0
  -21.4009   -6.5624   23.8205 C   0  0  0  0  0  0
  -21.3668   -5.6783   24.9173 C   0  0  0  0  0  0
  -21.6046   -4.3045   24.7228 C   0  0  0  0  0  0
  -21.8821   -3.8128   23.4352 C   0  0  0  0  0  0
  -21.9187   -4.6943   22.3404 C   0  0  0  0  0  0
  -22.7884  -13.5231   21.1830 C   0  0  0  0  0  0
  -22.1656   -4.2124   21.0981 F   0  0  0  0  0  0
  -21.5640   -3.4538   25.7749 F   0  0  0  0  0  0
  -30.0235  -13.3072   20.4327 N   0  0  0  0  0  0
  -26.2996  -12.9164   20.3320 N   0  0  0  0  0  0
  -25.9270  -11.6363   20.5746 N   0  0  0  0  0  0
  -22.0530  -12.8220   22.0393 N   0  0  0  0  0  0
  -25.4363  -15.1794   20.4104 N   0  0  0  0  0  0
  -31.7510  -14.7930   20.2040 O   0  0  0  0  0  0
  -21.6626   -6.8854   21.4234 O   0  0  0  0  0  0
  -22.3576  -14.5546   20.6698 O   0  0  0  0  0  0
  -24.6155  -31.8687   23.2050 C   0  0  0  0  0  0
  -25.9042  -32.4831   23.8369 C   0  0  1  0  0  0
  -27.2441  -27.3989   20.0974 C   0  0  0  0  0  0
  -25.5920  -33.8640   24.2310 N   0  0  0  0  0  0
  -23.4075  -30.4861   21.5477 C   0  0  2  0  0  0
  -24.8537  -28.9429   20.1169 C   0  0  0  0  0  0
  -22.7460  -29.4607   22.4998 C   0  0  0  0  0  0
  -18.0280  -28.1320   22.8445 C   0  0  0  0  0  0
  -24.1518  -36.7290   23.2643 C   0  0  0  0  0  0
  -25.9368  -30.8192   21.3626 C   0  0  0  0  0  0
  -26.0132  -29.4482   20.7147 C   0  0  0  0  0  0
  -27.2043  -28.6826   20.7030 C   0  0  0  0  0  0
  -26.0551  -26.9107   19.5069 C   0  0  0  0  0  0
  -24.8709  -27.6734   19.5162 C   0  0  0  0  0  0
  -23.6176  -29.8170   20.1623 C   0  0  0  0  0  0
  -25.4149  -36.3112   24.0326 C   0  0  1  0  0  0
  -20.5884  -28.3620   23.1306 C   0  0  2  0  0  0
  -20.6805  -26.9364   22.5394 C   0  0  0  0  0  0
  -19.5785  -26.6338   21.5177 C   0  0  0  0  0  0
  -18.1938  -26.7853   22.1566 C   0  0  0  0  0  0
  -19.1529  -28.8783   23.2868 C   0  0  0  0  0  0
  -18.9450  -30.1384   23.8901 C   0  0  0  0  0  0
  -17.6454  -30.6549   24.0507 C   0  0  0  0  0  0
  -25.9064  -34.9480   23.5107 C   0  0  0  0  0  0
  -16.5347  -29.9041   23.6289 C   0  0  0  0  0  0
  -16.7261  -28.6446   23.0320 C   0  0  0  0  0  0
  -26.4459  -31.6623   25.0706 C   0  0  0  0  0  0
  -25.3709  -31.3696   26.1447 C   0  0  0  0  0  0
  -27.0300  -30.3085   24.6046 C   0  0  0  0  0  0
  -27.6071  -32.4330   25.7442 C   0  0  0  0  0  0
  -27.5599  -37.1799   24.8467 C   0  0  0  0  0  0
  -21.4191  -29.2998   22.3749 N   0  0  0  0  0  0
  -26.4316  -37.3798   23.9400 N   0  0  0  0  0  0
  -24.6709  -31.0762   22.0949 N   0  0  0  0  0  0
  -23.4207  -28.8157   23.3050 O   0  0  0  0  0  0
  -28.4387  -26.6882   20.1210 O   0  0  0  0  0  0
  -26.5606  -34.8933   22.4660 O   0  0  0  0  0  0
  -23.5343  -32.1478   23.7414 O   0  0  0  0  0  0
  -29.0393  -19.2988   22.5472 C   0  0  0  0  0  0
  -29.2893  -16.8702   22.7405 C   0  0  0  0  0  0
  -29.7571  -17.9837   20.6208 C   0  0  0  0  0  0
  -28.9483  -18.1137   23.3132 C   0  0  0  0  0  0
  -29.4342  -19.2602   21.1809 C   0  0  0  0  0  0
  -29.6846  -16.7854   21.3914 C   0  0  0  0  0  0
  -29.0968  -21.5947   20.6596 C   0  0  0  0  0  0
  -28.4286  -18.1530   24.6831 C   0  0  0  0  0  0
  -30.4491  -22.8843   18.9320 C   0  0  0  0  0  0
  -28.7206  -24.1752   20.3716 C   0  0  0  0  0  0
  -28.6223  -25.4258   19.4319 C   0  0  0  0  0  0
  -29.1054  -22.8067   19.6916 C   0  0  2  0  0  0
  -29.4712  -20.4045   20.3315 N   0  0  0  0  0  0
  -28.8054  -19.0974   25.5402 N   0  0  0  0  0  0
  -29.6549  -15.4851   20.7994 N   0  0  0  0  0  0
  -27.5509  -17.2402   25.0964 N   0  3  0  0  0  0
  -31.4848  -12.4999   19.1051 H   0  0  0  0  0  0
  -30.3990  -11.3261   19.8025 H   0  0  0  0  0  0
  -29.7468  -11.7796   17.4253 H   0  0  0  0  0  0
  -29.6410  -13.4876   17.7521 H   0  0  0  0  0  0
  -27.8439  -11.2844   18.8149 H   0  0  0  0  0  0
  -27.3631  -12.6046   17.7872 H   0  0  0  0  0  0
  -27.6931  -14.2206   19.5615 H   0  0  0  0  0  0
  -28.7073  -11.8951   21.2906 H   0  0  0  0  0  0
  -28.4610  -13.5038   21.8911 H   0  0  0  0  0  0
  -25.2741   -9.5653   22.4746 H   0  0  0  0  0  0
  -23.9972   -7.4616   22.7489 H   0  0  0  0  0  0
  -21.0811   -8.8738   19.8956 H   0  0  0  0  0  0
  -22.3660  -10.9642   19.6165 H   0  0  0  0  0  0
  -21.2001   -7.6134   23.9700 H   0  0  0  0  0  0
  -21.1493   -6.0520   25.9076 H   0  0  0  0  0  0
  -22.0595   -2.7590   23.2863 H   0  0  0  0  0  0
  -22.4140  -11.9858   22.4729 H   0  0  0  0  0  0
  -21.1168  -13.1251   22.2649 H   0  0  0  0  0  0
  -24.6643  -15.8269   20.5278 H   0  0  0  0  0  0
  -26.2695  -15.6263   20.0509 H   0  0  0  0  0  0
  -26.7124  -32.5522   23.1143 H   0  0  0  0  0  0
  -25.0114  -33.9823   25.0488 H   0  0  0  0  0  0
  -22.6896  -31.2976   21.4096 H   0  0  0  0  0  0
  -23.3773  -35.9619   23.3303 H   0  0  0  0  0  0
  -24.3626  -36.8915   22.2060 H   0  0  0  0  0  0
  -23.7256  -37.6493   23.6655 H   0  0  0  0  0  0
  -26.0629  -31.5757   20.5873 H   0  0  0  0  0  0
  -26.8183  -30.8749   21.9867 H   0  0  0  0  0  0
  -28.1000  -29.0782   21.1643 H   0  0  0  0  0  0
  -26.0087  -25.9386   19.0438 H   0  0  0  0  0  0
  -23.9782  -27.2690   19.0605 H   0  0  0  0  0  0
  -23.7301  -30.5929   19.4032 H   0  0  0  0  0  0
  -22.7380  -29.2452   19.8631 H   0  0  0  0  0  0
  -25.1321  -36.1978   25.0807 H   0  0  0  0  0  0
  -20.9929  -28.3165   24.1452 H   0  0  0  0  0  0
  -20.5714  -26.2234   23.3593 H   0  0  0  0  0  0
  -21.6684  -26.7436   22.1200 H   0  0  0  0  0  0
  -19.6980  -25.6241   21.1233 H   0  0  0  0  0  0
  -19.6718  -27.3136   20.6687 H   0  0  0  0  0  0
  -17.4239  -26.6548   21.3952 H   0  0  0  0  0  0
  -18.0350  -25.9997   22.8966 H   0  0  0  0  0  0
  -19.7934  -30.7147   24.2342 H   0  0  0  0  0  0
  -17.5023  -31.6263   24.5038 H   0  0  0  0  0  0
  -15.5349  -30.2926   23.7653 H   0  0  0  0  0  0
  -15.8653  -28.0772   22.7037 H   0  0  0  0  0  0
  -24.5906  -30.7023   25.7761 H   0  0  0  0  0  0
  -24.8829  -32.2822   26.4884 H   0  0  0  0  0  0
  -25.8035  -30.8880   27.0226 H   0  0  0  0  0  0
  -26.2831  -29.6836   24.1130 H   0  0  0  0  0  0
  -27.4183  -29.7322   25.4452 H   0  0  0  0  0  0
  -27.8618  -30.4450   23.9129 H   0  0  0  0  0  0
  -27.2754  -33.3670   26.1996 H   0  0  0  0  0  0
  -28.3866  -32.6827   25.0227 H   0  0  0  0  0  0
  -28.0750  -31.8452   26.5356 H   0  0  0  0  0  0
  -28.2596  -38.0114   24.7563 H   0  0  0  0  0  0
  -28.1109  -36.2642   24.6247 H   0  0  0  0  0  0
  -27.2317  -37.1439   25.8871 H   0  0  0  0  0  0
  -20.9390  -29.8740   21.6969 H   0  0  0  0  0  0
  -26.0193  -38.2861   24.1413 H   0  0  0  0  0  0
  -28.7468  -20.2247   23.0231 H   0  0  0  0  0  0
  -29.1810  -15.9671   23.3280 H   0  0  0  0  0  0
  -29.9919  -17.9181   19.5667 H   0  0  0  0  0  0
  -28.7235  -21.8467   21.6539 H   0  0  0  0  0  0
  -30.7152  -21.9279   18.4770 H   0  0  0  0  0  0
  -31.2701  -23.1729   19.5890 H   0  0  0  0  0  0
  -30.3994  -23.6019   18.1137 H   0  0  0  0  0  0
  -27.7625  -24.0629   20.8795 H   0  0  0  0  0  0
  -29.4468  -24.3896   21.1588 H   0  0  0  0  0  0
  -27.9181  -25.2609   18.6183 H   0  0  0  0  0  0
  -29.5808  -25.5389   18.9274 H   0  0  0  0  0  0
  -28.3360  -22.5958   18.9486 H   0  0  0  0  0  0
  -29.4964  -19.7733   25.2520 H   0  0  0  0  0  0
  -28.4699  -19.1314   26.4906 H   0  0  0  0  0  0
  -28.7539  -15.0409   20.8836 H   0  0  0  0  0  0
  -27.1889  -16.5683   24.4347 H   0  0  0  0  0  0
  -27.1874  -17.2162   26.0361 H   0  0  0  0  0  0
  1 25  1  0  0  0
  1 30  2  0  0  0
  1 85  1  0  0  0
  2  3  1  0  0  0
  2 25  1  0  0  0
  2 87  1  0  0  0
  2 88  1  0  0  0
  3  4  1  0  0  0
  3 89  1  0  0  0
  3 90  1  0  0  0
  4  5  1  0  0  0
  4 91  1  0  0  0
  4 92  1  0  0  0
  5  6  1  0  0  0
  5 26  1  0  0  0
  5 93  1  0  0  0
  6 25  1  0  0  0
  6 94  1  0  0  0
  6 95  1  0  0  0
  7  8  2  0  0  0
  7 26  1  0  0  0
  7 29  1  0  0  0
  8  9  1  0  0  0
  8 22  1  0  0  0
  9 10  1  0  0  0
  9 27  2  0  0  0
 10 11  2  0  0  0
 10 15  1  0  0  0
 11 12  1  0  0  0
 11 96  1  0  0  0
 12 13  2  0  0  0
 12 97  1  0  0  0
 13 14  1  0  0  0
 13 31  1  0  0  0
 14 15  2  0  0  0
 14 98  1  0  0  0
 15 99  1  0  0  0
 16 17  2  0  0  0
 16 21  1  0  0  0
 16 31  1  0  0  0
 17 18  1  0  0  0
 17100  1  0  0  0
 18 19  2  0  0  0
 18101  1  0  0  0
 19 20  1  0  0  0
 19 24  1  0  0  0
 20 21  2  0  0  0
 20102  1  0  0  0
 21 23  1  0  0  0
 22 28  1  0  0  0
 22 32  2  0  0  0
 26 27  1  0  0  0
 28103  1  0  0  0
 28104  1  0  0  0
 29105  1  0  0  0
 29106  1  0  0  0
 33 34  1  0  0  0
 33 66  1  0  0  0
 33 70  2  0  0  0
 34 36  1  0  0  0
 34 59  1  0  0  0
 34107  1  0  0  0
 35 44  2  0  0  0
 35 45  1  0  0  0
 35 68  1  0  0  0
 36 56  1  0  0  0
 36108  1  0  0  0
 37 39  1  0  0  0
 37 47  1  0  0  0
 37 66  1  0  0  0
 37109  1  0  0  0
 38 43  2  0  0  0
 38 46  1  0  0  0
 38 47  1  0  0  0
 39 64  1  0  0  0
 39 67  2  0  0  0
 40 52  1  0  0  0
 40 53  2  0  0  0
 40 58  1  0  0  0
 41110  1  0  0  0
 41111  1  0  0  0
 41112  1  0  0  0
 41 48  1  0  0  0
 42 43  1  0  0  0
 42 66  1  0  0  0
 42113  1  0  0  0
 42114  1  0  0  0
 43 44  1  0  0  0
 44115  1  0  0  0
 45 46  2  0  0  0
 45116  1  0  0  0
 46117  1  0  0  0
 47118  1  0  0  0
 47119  1  0  0  0
 48 56  1  0  0  0
 48 65  1  0  0  0
 48120  1  0  0  0
 49 50  1  0  0  0
 49 53  1  0  0  0
 49 64  1  0  0  0
 49121  1  0  0  0
 50 51  1  0  0  0
 50122  1  0  0  0
 50123  1  0  0  0
 51 52  1  0  0  0
 51124  1  0  0  0
 51125  1  0  0  0
 52126  1  0  0  0
 52127  1  0  0  0
 53 54  1  0  0  0
 54 55  2  0  0  0
 54128  1  0  0  0
 55 57  1  0  0  0
 55129  1  0  0  0
 56 69  2  0  0  0
 57 58  2  0  0  0
 57130  1  0  0  0
 58131  1  0  0  0
 59 60  1  0  0  0
 59 61  1  0  0  0
 59 62  1  0  0  0
 60132  1  0  0  0
 60133  1  0  0  0
 60134  1  0  0  0
 61135  1  0  0  0
 61136  1  0  0  0
 61137  1  0  0  0
 62138  1  0  0  0
 62139  1  0  0  0
 62140  1  0  0  0
 63 65  1  0  0  0
 63141  1  0  0  0
 63142  1  0  0  0
 63143  1  0  0  0
 64144  1  0  0  0
 65145  1  0  0  0
 68 81  1  0  0  0
 71 74  2  0  0  0
 71 75  1  0  0  0
 71146  1  0  0  0
 72 74  1  0  0  0
 72 76  2  0  0  0
 72147  1  0  0  0
 73 75  2  0  0  0
 73 76  1  0  0  0
 73148  1  0  0  0
 74 78  1  0  0  0
 75 83  1  0  0  0
 76 85  1  0  0  0
 77 82  1  0  0  0
 77 83  2  0  0  0
 77149  1  0  0  0
 78 84  1  0  0  0
 78 86  2  0  0  0
 79150  1  0  0  0
 79151  1  0  0  0
 79152  1  0  0  0
 79 82  1  0  0  0
 80 81  1  0  0  0
 80 82  1  0  0  0
 80153  1  0  0  0
 80154  1  0  0  0
 81155  1  0  0  0
 81156  1  0  0  0
 82157  1  0  0  0
 84158  1  0  0  0
 84159  1  0  0  0
 85160  1  0  0  0
 86161  1  0  0  0
 86162  1  0  0  0
M  CHG  1  86   1
M  ISO  4   1 100  68 101  81 101  85 100
M  END
> <chiral flag>
0

> <version>
0

> <s_m_source_file>
/data/baiqing/PycharmProjects/Reinvent-master-3.2/result/LINK_invent/BTK/process_docking_weight1_custom_product_contain_oxygen_bond_distance_aromatic_linkinvent_7_9_3/rearranged_h_0153.sdf

> <i_m_source_file_index>
15

> <r_mmod_Potential_Energy-OPLS-2005>
-254.77668762207

> <r_mmod_Stretch_Energy-OPLS-2005>
52.6007843017578

> <r_mmod_Bend_Energy-OPLS-2005>
140.065948486328

> <r_mmod_Torsional_Energy-OPLS-2005>
241.399520874023

> <r_mmod_Improper_Torsional_Energy-OPLS-2005>
12.2297945022583

> <r_mmod_Van_der_Waal_Energy-OPLS-2005>
156.452072143555

> <r_mmod_Electrostatic_Energy-OPLS-2005>
-430.154052734375

> <r_mmod_Solvation_Energy-OPLS-2005>
-451.816009521484

> <b_mmod_Minimization_Converged-OPLS-2005>
0

> <r_mmod_RMS_Derivative-OPLS-2005>
3.31070470809937

$$$$
15
                    3D
 Structure written by MMmdl.
150159  0  0  1  0            999 V2000
  -30.5690  -14.8650   20.4366 C   0  0  0  0  0  0
  -30.4401  -12.5298   19.4958 C   0  0  0  0  0  0
  -29.5205  -12.5223   18.2527 C   0  0  0  0  0  0
  -28.0494  -12.3257   18.6654 C   0  0  0  0  0  0
  -27.6379  -13.2420   19.8479 C   0  0  2  0  0  0
  -28.6806  -13.2245   20.9873 C   0  0  0  0  0  0
  -25.2492  -13.8210   20.5705 C   0  0  0  0  0  0
  -24.1794  -13.0441   20.9216 C   0  0  0  0  0  0
  -24.6401  -11.6922   20.8749 C   0  0  0  0  0  0
  -23.9080  -10.4295   21.0403 C   0  0  0  0  0  0
  -24.3627   -9.4208   21.9182 C   0  0  0  0  0  0
  -23.6299   -8.2245   22.0753 C   0  0  0  0  0  0
  -22.4280   -8.0284   21.3545 C   0  0  0  0  0  0
  -21.9919   -9.0257   20.4645 C   0  0  0  0  0  0
  -22.7251  -10.2135   20.3053 C   0  0  0  0  0  0
  -21.6854   -6.0736   22.5278 C   0  0  0  0  0  0
  -21.4016   -6.5640   23.8211 C   0  0  0  0  0  0
  -21.3660   -5.6793   24.9174 C   0  0  0  0  0  0
  -21.6044   -4.3055   24.7224 C   0  0  0  0  0  0
  -21.8820   -3.8147   23.4345 C   0  0  0  0  0  0
  -21.9193   -4.6964   22.3402 C   0  0  0  0  0  0
  -22.7815  -13.5214   21.1874 C   0  0  0  0  0  0
  -22.1662   -4.2149   21.0979 F   0  0  0  0  0  0
  -21.5628   -3.4539   25.7737 F   0  0  0  0  0  0
  -29.9712  -13.6122   20.4030 N   0  0  0  0  0  0
  -26.2922  -12.9434   20.3272 N   0  0  0  0  0  0
  -25.9335  -11.6567   20.5747 N   0  0  0  0  0  0
  -22.0463  -12.8199   22.0428 N   0  0  0  0  0  0
  -25.4167  -15.1938   20.4126 N   0  0  0  0  0  0
  -31.7579  -14.9502   20.1109 O   0  0  0  0  0  0
  -21.6643   -6.8881   21.4240 O   0  0  0  0  0  0
  -22.3495  -14.5518   20.6719 O   0  0  0  0  0  0
  -24.6397  -31.8487   23.1935 C   0  0  0  0  0  0
  -25.9187  -32.4722   23.8308 C   0  0  1  0  0  0
  -27.2161  -27.1824   20.1448 C   0  0  0  0  0  0
  -25.5953  -33.8526   24.2224 N   0  0  0  0  0  0
  -23.4425  -30.4700   21.5374 C   0  0  2  0  0  0
  -24.8951  -28.9107   20.1057 C   0  0  0  0  0  0
  -22.7556  -29.4566   22.4869 C   0  0  0  0  0  0
  -18.0303  -28.1400   22.8481 C   0  0  0  0  0  0
  -24.1488  -36.7262   23.2640 C   0  0  0  0  0  0
  -25.9963  -30.7351   21.3899 C   0  0  0  0  0  0
  -26.0701  -29.3512   20.7308 C   0  0  0  0  0  0
  -27.2348  -28.4995   20.7432 C   0  0  0  0  0  0
  -26.0260  -26.8464   19.4622 C   0  0  0  0  0  0
  -24.8827  -27.6687   19.4561 C   0  0  0  0  0  0
  -23.6684  -29.8054   20.1541 C   0  0  0  0  0  0
  -25.4119  -36.3046   24.0319 C   0  0  1  0  0  0
  -20.5915  -28.3721   23.1242 C   0  0  2  0  0  0
  -20.6784  -26.9427   22.5404 C   0  0  0  0  0  0
  -19.5756  -26.6387   21.5213 C   0  0  0  0  0  0
  -18.1940  -26.7938   22.1628 C   0  0  0  0  0  0
  -19.1560  -28.8879   23.2854 C   0  0  0  0  0  0
  -18.9477  -30.1476   23.8877 C   0  0  0  0  0  0
  -17.6474  -30.6595   24.0563 C   0  0  0  0  0  0
  -25.9068  -34.9420   23.5076 C   0  0  0  0  0  0
  -16.5366  -29.9089   23.6339 C   0  0  0  0  0  0
  -16.7289  -28.6509   23.0359 C   0  0  0  0  0  0
  -26.4523  -31.6573   25.0729 C   0  0  0  0  0  0
  -25.3718  -31.3756   26.1431 C   0  0  0  0  0  0
  -27.0383  -30.2971   24.6288 C   0  0  0  0  0  0
  -27.6057  -32.4333   25.7514 C   0  0  0  0  0  0
  -27.5575  -37.1789   24.8467 C   0  0  0  0  0  0
  -21.4251  -29.3052   22.3617 N   0  0  0  0  0  0
  -26.4287  -37.3754   23.9409 N   0  0  0  0  0  0
  -24.7119  -31.0378   22.0956 N   0  0  0  0  0  0
  -23.4211  -28.8104   23.3002 O   0  0  0  0  0  0
  -28.2160  -26.1552   20.2221 O   0  0  0  0  0  0
  -26.5645  -34.8907   22.4649 O   0  0  0  0  0  0
  -23.5522  -32.1348   23.7172 O   0  0  0  0  0  0
  -31.0558  -18.0723   19.7754 C   0  0  0  0  0  0
  -30.0277  -17.4033   20.4144 C   0  0  0  0  0  0
  -29.6623  -19.7112   20.3299 C   0  0  0  0  0  0
  -28.1105  -23.4783   20.6574 C   0  0  0  0  0  0
  -27.7595  -24.8529   20.6688 C   0  0  0  0  0  0
  -27.1420  -22.4970   21.2805 C   0  0  0  0  0  0
  -29.2407  -22.4720   20.1612 C   0  0  0  0  0  0
  -27.8594  -21.1441   21.4884 C   0  0  0  0  0  0
  -30.8208  -19.4683   19.7179 N   0  0  0  0  0  0
  -28.9890  -21.0033   20.5720 N   0  0  0  0  0  0
  -29.7886  -16.0173   20.6671 N   0  0  0  0  0  0
  -29.1316  -18.4821   20.7783 O   0  0  0  0  0  0
  -31.4780  -12.6702   19.1899 H   0  0  0  0  0  0
  -30.4100  -11.5650   20.0047 H   0  0  0  0  0  0
  -29.8238  -11.7347   17.5617 H   0  0  0  0  0  0
  -29.6278  -13.4633   17.7110 H   0  0  0  0  0  0
  -27.9265  -11.2802   18.9505 H   0  0  0  0  0  0
  -27.3904  -12.4874   17.8116 H   0  0  0  0  0  0
  -27.6165  -14.2543   19.4434 H   0  0  0  0  0  0
  -28.7430  -12.2359   21.4449 H   0  0  0  0  0  0
  -28.3934  -13.9128   21.7835 H   0  0  0  0  0  0
  -25.2771   -9.5682   22.4759 H   0  0  0  0  0  0
  -24.0005   -7.4636   22.7474 H   0  0  0  0  0  0
  -21.0851   -8.8778   19.8951 H   0  0  0  0  0  0
  -22.3710  -10.9673   19.6163 H   0  0  0  0  0  0
  -21.2010   -7.6148   23.9714 H   0  0  0  0  0  0
  -21.1481   -6.0523   25.9076 H   0  0  0  0  0  0
  -22.0599   -2.7609   23.2845 H   0  0  0  0  0  0
  -22.4087  -11.9862   22.4813 H   0  0  0  0  0  0
  -21.1079  -13.1215   22.2635 H   0  0  0  0  0  0
  -24.6459  -15.8441   20.5206 H   0  0  0  0  0  0
  -26.2574  -15.6345   20.0620 H   0  0  0  0  0  0
  -26.7257  -32.5348   23.1043 H   0  0  0  0  0  0
  -25.0085  -33.9652   25.0362 H   0  0  0  0  0  0
  -22.7429  -31.2949   21.3868 H   0  0  0  0  0  0
  -23.3751  -35.9594   23.3300 H   0  0  0  0  0  0
  -24.3572  -36.8893   22.2055 H   0  0  0  0  0  0
  -23.7241  -37.6459   23.6674 H   0  0  0  0  0  0
  -26.1486  -31.4915   20.6190 H   0  0  0  0  0  0
  -26.8678  -30.7847   22.0306 H   0  0  0  0  0  0
  -28.1240  -28.8213   21.2665 H   0  0  0  0  0  0
  -25.9565  -25.8893   18.9644 H   0  0  0  0  0  0
  -23.9885  -27.3282   18.9520 H   0  0  0  0  0  0
  -23.8001  -30.5830   19.4007 H   0  0  0  0  0  0
  -22.7851  -29.2446   19.8433 H   0  0  0  0  0  0
  -25.1303  -36.1882   25.0811 H   0  0  0  0  0  0
  -21.0015  -28.3311   24.1360 H   0  0  0  0  0  0
  -20.5681  -26.2335   23.3622 H   0  0  0  0  0  0
  -21.6650  -26.7436   22.1201 H   0  0  0  0  0  0
  -19.6913  -25.6292   21.1257 H   0  0  0  0  0  0
  -19.6689  -27.3185   20.6732 H   0  0  0  0  0  0
  -17.4208  -26.6686   21.4034 H   0  0  0  0  0  0
  -18.0341  -26.0087   22.9030 H   0  0  0  0  0  0
  -19.7953  -30.7301   24.2234 H   0  0  0  0  0  0
  -17.5027  -31.6272   24.5171 H   0  0  0  0  0  0
  -15.5365  -30.2985   23.7673 H   0  0  0  0  0  0
  -15.8690  -28.0821   22.7084 H   0  0  0  0  0  0
  -24.5903  -30.7093   25.7760 H   0  0  0  0  0  0
  -24.8896  -32.2934   26.4806 H   0  0  0  0  0  0
  -25.8011  -30.8970   27.0242 H   0  0  0  0  0  0
  -26.2995  -29.6702   24.1281 H   0  0  0  0  0  0
  -27.3989  -29.7261   25.4854 H   0  0  0  0  0  0
  -27.8908  -30.4210   23.9605 H   0  0  0  0  0  0
  -27.2655  -33.3652   26.2042 H   0  0  0  0  0  0
  -28.3899  -32.6863   25.0366 H   0  0  0  0  0  0
  -28.0689  -31.8488   26.5475 H   0  0  0  0  0  0
  -28.2591  -38.0087   24.7510 H   0  0  0  0  0  0
  -28.1071  -36.2617   24.6299 H   0  0  0  0  0  0
  -27.2291  -37.1446   25.8870 H   0  0  0  0  0  0
  -20.9454  -29.8776   21.6810 H   0  0  0  0  0  0
  -26.0155  -38.2822   24.1414 H   0  0  0  0  0  0
  -31.9476  -17.6532   19.3306 H   0  0  0  0  0  0
  -26.8221  -25.0239   21.1822 H   0  0  0  0  0  0
  -26.3162  -22.3613   20.5804 H   0  0  0  0  0  0
  -26.7171  -22.8742   22.2120 H   0  0  0  0  0  0
  -30.2053  -22.7993   20.5510 H   0  0  0  0  0  0
  -29.3064  -22.5276   19.0737 H   0  0  0  0  0  0
  -27.1608  -20.3132   21.3751 H   0  0  0  0  0  0
  -28.2468  -21.0890   22.5071 H   0  0  0  0  0  0
  -28.8584  -15.8053   20.9936 H   0  0  0  0  0  0
  1 25  1  0  0  0
  1 30  2  0  0  0
  1 81  1  0  0  0
  2  3  1  0  0  0
  2 25  1  0  0  0
  2 83  1  0  0  0
  2 84  1  0  0  0
  3  4  1  0  0  0
  3 85  1  0  0  0
  3 86  1  0  0  0
  4  5  1  0  0  0
  4 87  1  0  0  0
  4 88  1  0  0  0
  5  6  1  0  0  0
  5 26  1  0  0  0
  5 89  1  0  0  0
  6 25  1  0  0  0
  6 90  1  0  0  0
  6 91  1  0  0  0
  7  8  2  0  0  0
  7 26  1  0  0  0
  7 29  1  0  0  0
  8  9  1  0  0  0
  8 22  1  0  0  0
  9 10  1  0  0  0
  9 27  2  0  0  0
 10 11  2  0  0  0
 10 15  1  0  0  0
 11 12  1  0  0  0
 11 92  1  0  0  0
 12 13  2  0  0  0
 12 93  1  0  0  0
 13 14  1  0  0  0
 13 31  1  0  0  0
 14 15  2  0  0  0
 14 94  1  0  0  0
 15 95  1  0  0  0
 16 17  2  0  0  0
 16 21  1  0  0  0
 16 31  1  0  0  0
 17 18  1  0  0  0
 17 96  1  0  0  0
 18 19  2  0  0  0
 18 97  1  0  0  0
 19 20  1  0  0  0
 19 24  1  0  0  0
 20 21  2  0  0  0
 20 98  1  0  0  0
 21 23  1  0  0  0
 22 28  1  0  0  0
 22 32  2  0  0  0
 26 27  1  0  0  0
 28 99  1  0  0  0
 28100  1  0  0  0
 29101  1  0  0  0
 29102  1  0  0  0
 33 34  1  0  0  0
 33 66  1  0  0  0
 33 70  2  0  0  0
 34 36  1  0  0  0
 34 59  1  0  0  0
 34103  1  0  0  0
 35 44  2  0  0  0
 35 45  1  0  0  0
 35 68  1  0  0  0
 36 56  1  0  0  0
 36104  1  0  0  0
 37 39  1  0  0  0
 37 47  1  0  0  0
 37 66  1  0  0  0
 37105  1  0  0  0
 38 43  2  0  0  0
 38 46  1  0  0  0
 38 47  1  0  0  0
 39 64  1  0  0  0
 39 67  2  0  0  0
 40 52  1  0  0  0
 40 53  2  0  0  0
 40 58  1  0  0  0
 41106  1  0  0  0
 41107  1  0  0  0
 41108  1  0  0  0
 41 48  1  0  0  0
 42 43  1  0  0  0
 42 66  1  0  0  0
 42109  1  0  0  0
 42110  1  0  0  0
 43 44  1  0  0  0
 44111  1  0  0  0
 45 46  2  0  0  0
 45112  1  0  0  0
 46113  1  0  0  0
 47114  1  0  0  0
 47115  1  0  0  0
 48 56  1  0  0  0
 48 65  1  0  0  0
 48116  1  0  0  0
 49 50  1  0  0  0
 49 53  1  0  0  0
 49 64  1  0  0  0
 49117  1  0  0  0
 50 51  1  0  0  0
 50118  1  0  0  0
 50119  1  0  0  0
 51 52  1  0  0  0
 51120  1  0  0  0
 51121  1  0  0  0
 52122  1  0  0  0
 52123  1  0  0  0
 53 54  1  0  0  0
 54 55  2  0  0  0
 54124  1  0  0  0
 55 57  1  0  0  0
 55125  1  0  0  0
 56 69  2  0  0  0
 57 58  2  0  0  0
 57126  1  0  0  0
 58127  1  0  0  0
 59 60  1  0  0  0
 59 61  1  0  0  0
 59 62  1  0  0  0
 60128  1  0  0  0
 60129  1  0  0  0
 60130  1  0  0  0
 61131  1  0  0  0
 61132  1  0  0  0
 61133  1  0  0  0
 62134  1  0  0  0
 62135  1  0  0  0
 62136  1  0  0  0
 63 65  1  0  0  0
 63137  1  0  0  0
 63138  1  0  0  0
 63139  1  0  0  0
 64140  1  0  0  0
 65141  1  0  0  0
 68 75  1  0  0  0
 71 72  2  0  0  0
 71 79  1  0  0  0
 71142  1  0  0  0
 72 81  1  0  0  0
 72 82  1  0  0  0
 73 79  2  0  0  0
 73 80  1  0  0  0
 73 82  1  0  0  0
 74 75  2  0  0  0
 74 76  1  0  0  0
 74 77  1  0  0  0
 75143  1  0  0  0
 76 78  1  0  0  0
 76144  1  0  0  0
 76145  1  0  0  0
 77 80  1  0  0  0
 77146  1  0  0  0
 77147  1  0  0  0
 78 80  1  0  0  0
 78148  1  0  0  0
 78149  1  0  0  0
 81150  1  0  0  0
M  ISO  4   1 100  68 101  75 101  81 100
M  END
> <chiral flag>
0

> <version>
0

> <s_m_source_file>
/data/baiqing/PycharmProjects/Reinvent-master-3.2/result/LINK_invent/BTK/process_docking_weight1_custom_product_contain_oxygen_bond_distance_aromatic_linkinvent_7_9_3/rearranged_h_0153.sdf

> <i_m_source_file_index>
16

> <r_mmod_Potential_Energy-OPLS-2005>
311.747436523438

> <r_mmod_Stretch_Energy-OPLS-2005>
168.275695800781

> <r_mmod_Bend_Energy-OPLS-2005>
274.251800537109

> <r_mmod_Torsional_Energy-OPLS-2005>
225.594161987305

> <r_mmod_Improper_Torsional_Energy-OPLS-2005>
4.10004949569702

> <r_mmod_Van_der_Waal_Energy-OPLS-2005>
116.917976379395

> <r_mmod_Electrostatic_Energy-OPLS-2005>
-398.712463378906

> <r_mmod_Solvation_Energy-OPLS-2005>
-233.41748046875

> <b_mmod_Minimization_Converged-OPLS-2005>
0

> <r_mmod_RMS_Derivative-OPLS-2005>
0.4423468708992

$$$$
16
                    3D
 Structure written by MMmdl.
158166  0  0  1  0            999 V2000
  -30.6409  -14.5541   20.6119 C   0  0  0  0  0  0
  -30.4510  -12.3747   19.4236 C   0  0  0  0  0  0
  -29.5053  -12.5339   18.2112 C   0  0  0  0  0  0
  -28.0271  -12.3752   18.6221 C   0  0  0  0  0  0
  -27.6668  -13.2057   19.8819 C   0  0  2  0  0  0
  -28.7108  -12.9739   20.9991 C   0  0  0  0  0  0
  -25.2612  -13.8135   20.5678 C   0  0  0  0  0  0
  -24.1862  -13.0425   20.9174 C   0  0  0  0  0  0
  -24.6415  -11.6889   20.8725 C   0  0  0  0  0  0
  -23.9076  -10.4284   21.0404 C   0  0  0  0  0  0
  -24.3626   -9.4200   21.9184 C   0  0  0  0  0  0
  -23.6293   -8.2243   22.0759 C   0  0  0  0  0  0
  -22.4271   -8.0288   21.3551 C   0  0  0  0  0  0
  -21.9911   -9.0263   20.4650 C   0  0  0  0  0  0
  -22.7249  -10.2136   20.3054 C   0  0  0  0  0  0
  -21.6850   -6.0739   22.5277 C   0  0  0  0  0  0
  -21.4019   -6.5641   23.8213 C   0  0  0  0  0  0
  -21.3663   -5.6792   24.9173 C   0  0  0  0  0  0
  -21.6043   -4.3054   24.7220 C   0  0  0  0  0  0
  -21.8820   -3.8150   23.4339 C   0  0  0  0  0  0
  -21.9193   -4.6968   22.3400 C   0  0  0  0  0  0
  -22.7888  -13.5234   21.1838 C   0  0  0  0  0  0
  -22.1662   -4.2156   21.0976 F   0  0  0  0  0  0
  -21.5626   -3.4536   25.7730 F   0  0  0  0  0  0
  -30.0382  -13.3347   20.4626 N   0  0  0  0  0  0
  -26.3059  -12.9308   20.3379 N   0  0  0  0  0  0
  -25.9348  -11.6472   20.5765 N   0  0  0  0  0  0
  -22.0523  -12.8231   22.0386 N   0  0  0  0  0  0
  -25.4325  -15.1861   20.4103 N   0  0  0  0  0  0
  -31.6956  -14.8533   20.0448 O   0  0  0  0  0  0
  -21.6635   -6.8884   21.4242 O   0  0  0  0  0  0
  -22.3591  -14.5556   20.6697 O   0  0  0  0  0  0
  -24.6209  -31.8632   23.2040 C   0  0  0  0  0  0
  -25.9077  -32.4795   23.8368 C   0  0  1  0  0  0
  -27.2387  -27.3732   20.1195 C   0  0  0  0  0  0
  -25.5912  -33.8595   24.2302 N   0  0  0  0  0  0
  -23.4127  -30.4837   21.5451 C   0  0  2  0  0  0
  -24.8622  -28.9370   20.1171 C   0  0  0  0  0  0
  -22.7446  -29.4638   22.4962 C   0  0  0  0  0  0
  -18.0279  -28.1384   22.8495 C   0  0  0  0  0  0
  -24.1485  -36.7295   23.2639 C   0  0  0  0  0  0
  -25.9462  -30.8131   21.3633 C   0  0  0  0  0  0
  -26.0261  -29.4412   20.7118 C   0  0  0  0  0  0
  -27.2201  -28.6717   20.6989 C   0  0  0  0  0  0
  -26.0560  -26.8957   19.5189 C   0  0  0  0  0  0
  -24.8759  -27.6673   19.5125 C   0  0  0  0  0  0
  -23.6259  -29.8107   20.1623 C   0  0  0  0  0  0
  -25.4110  -36.3093   24.0335 C   0  0  1  0  0  0
  -20.5876  -28.3683   23.1307 C   0  0  2  0  0  0
  -20.6765  -26.9415   22.5417 C   0  0  0  0  0  0
  -19.5739  -26.6393   21.5215 C   0  0  0  0  0  0
  -18.1921  -26.7930   22.1629 C   0  0  0  0  0  0
  -19.1532  -28.8851   23.2898 C   0  0  0  0  0  0
  -18.9455  -30.1457   23.8912 C   0  0  0  0  0  0
  -17.6455  -30.6589   24.0568 C   0  0  0  0  0  0
  -25.9044  -34.9462   23.5114 C   0  0  0  0  0  0
  -16.5348  -29.9093   23.6326 C   0  0  0  0  0  0
  -16.7269  -28.6509   23.0352 C   0  0  0  0  0  0
  -26.4484  -31.6590   25.0708 C   0  0  0  0  0  0
  -25.3733  -31.3708   26.1445 C   0  0  0  0  0  0
  -27.0317  -30.3023   24.6116 C   0  0  0  0  0  0
  -27.6054  -32.4307   25.7473 C   0  0  0  0  0  0
  -27.5581  -37.1805   24.8471 C   0  0  0  0  0  0
  -21.4166  -29.3037   22.3704 N   0  0  0  0  0  0
  -26.4292  -37.3785   23.9410 N   0  0  0  0  0  0
  -24.6778  -31.0694   22.0952 N   0  0  0  0  0  0
  -23.4187  -28.8191   23.3038 O   0  0  0  0  0  0
  -28.3859  -26.5874   20.1056 O   0  0  0  0  0  0
  -26.5611  -34.8925   22.4679 O   0  0  0  0  0  0
  -23.5386  -32.1400   23.7405 O   0  0  0  0  0  0
  -32.4380  -19.4364   20.4375 C   0  0  0  0  0  0
  -31.5950  -20.5348   20.1796 C   0  0  0  0  0  0
  -29.6870  -19.1516   20.7332 C   0  0  0  0  0  0
  -30.5275  -18.0216   21.0369 C   0  0  0  0  0  0
  -31.9363  -18.2030   20.9145 C   0  0  0  0  0  0
  -30.1986  -20.4338   20.3635 C   0  0  0  0  0  0
  -29.8749  -16.8317   21.6885 C   0  0  0  0  0  0
  -29.5800  -22.9034   20.3589 C   0  0  0  0  0  0
  -32.9746  -17.1836   21.3667 C   0  0  0  0  0  0
  -28.5871  -23.9955   19.8253 C   0  0  0  0  0  0
  -28.3152  -25.2642   20.7289 C   0  0  0  0  0  0
  -29.3246  -21.5773   20.1408 N   0  0  0  0  0  0
  -29.9109  -15.4793   21.4593 N   0  0  0  0  0  0
  -29.0701  -17.1894   22.6989 N   0  3  0  0  0  0
  -30.5866  -23.2743   20.9680 O   0  0  0  0  0  0
  -31.4870  -12.5298   19.1162 H   0  0  0  0  0  0
  -30.4068  -11.3572   19.8158 H   0  0  0  0  0  0
  -29.7573  -11.8021   17.4425 H   0  0  0  0  0  0
  -29.6534  -13.5156   17.7566 H   0  0  0  0  0  0
  -27.8453  -11.3163   18.8112 H   0  0  0  0  0  0
  -27.3759  -12.6521   17.7922 H   0  0  0  0  0  0
  -27.7096  -14.2559   19.5934 H   0  0  0  0  0  0
  -28.7116  -11.9248   21.2984 H   0  0  0  0  0  0
  -28.4414  -13.5166   21.9054 H   0  0  0  0  0  0
  -25.2775   -9.5664   22.4757 H   0  0  0  0  0  0
  -24.0000   -7.4627   22.7478 H   0  0  0  0  0  0
  -21.0845   -8.8789   19.8954 H   0  0  0  0  0  0
  -22.3722  -10.9678   19.6164 H   0  0  0  0  0  0
  -21.2014   -7.6148   23.9719 H   0  0  0  0  0  0
  -21.1487   -6.0518   25.9076 H   0  0  0  0  0  0
  -22.0596   -2.7611   23.2831 H   0  0  0  0  0  0
  -22.4134  -11.9886   22.4764 H   0  0  0  0  0  0
  -21.1154  -13.1291   22.2609 H   0  0  0  0  0  0
  -24.6544  -15.8303   20.5019 H   0  0  0  0  0  0
  -26.2680  -15.6267   20.0478 H   0  0  0  0  0  0
  -26.7148  -32.5498   23.1133 H   0  0  0  0  0  0
  -25.0059  -33.9742   25.0446 H   0  0  0  0  0  0
  -22.7051  -31.3021   21.4014 H   0  0  0  0  0  0
  -23.3748  -35.9628   23.3303 H   0  0  0  0  0  0
  -24.3578  -36.8901   22.2053 H   0  0  0  0  0  0
  -23.7237  -37.6501   23.6651 H   0  0  0  0  0  0
  -26.0651  -31.5767   20.5937 H   0  0  0  0  0  0
  -26.8323  -30.8692   21.9848 H   0  0  0  0  0  0
  -28.1217  -29.0608   21.1506 H   0  0  0  0  0  0
  -26.0479  -25.9204   19.0526 H   0  0  0  0  0  0
  -23.9829  -27.2728   19.0478 H   0  0  0  0  0  0
  -23.7414  -30.5832   19.4009 H   0  0  0  0  0  0
  -22.7485  -29.2343   19.8643 H   0  0  0  0  0  0
  -25.1291  -36.1943   25.0831 H   0  0  0  0  0  0
  -20.9981  -28.3243   24.1423 H   0  0  0  0  0  0
  -20.5662  -26.2296   23.3612 H   0  0  0  0  0  0
  -21.6635  -26.7444   22.1215 H   0  0  0  0  0  0
  -19.6893  -25.6309   21.1230 H   0  0  0  0  0  0
  -19.6661  -27.3217   20.6755 H   0  0  0  0  0  0
  -17.4192  -26.6693   21.4026 H   0  0  0  0  0  0
  -18.0312  -26.0072   22.9025 H   0  0  0  0  0  0
  -19.7931  -30.7271   24.2284 H   0  0  0  0  0  0
  -17.5010  -31.6267   24.5174 H   0  0  0  0  0  0
  -15.5350  -30.2998   23.7641 H   0  0  0  0  0  0
  -15.8668  -28.0828   22.7063 H   0  0  0  0  0  0
  -24.5925  -30.7035   25.7777 H   0  0  0  0  0  0
  -24.8907  -32.2869   26.4862 H   0  0  0  0  0  0
  -25.8077  -30.8900   27.0217 H   0  0  0  0  0  0
  -26.2873  -29.6783   24.1158 H   0  0  0  0  0  0
  -27.4058  -29.7263   25.4591 H   0  0  0  0  0  0
  -27.8721  -30.4329   23.9292 H   0  0  0  0  0  0
  -27.2685  -33.3610   26.2063 H   0  0  0  0  0  0
  -28.3868  -32.6861   25.0299 H   0  0  0  0  0  0
  -28.0728  -31.8421   26.5381 H   0  0  0  0  0  0
  -28.2611  -38.0090   24.7518 H   0  0  0  0  0  0
  -28.1062  -36.2625   24.6297 H   0  0  0  0  0  0
  -27.2301  -37.1459   25.8876 H   0  0  0  0  0  0
  -20.9341  -29.8761   21.6919 H   0  0  0  0  0  0
  -26.0168  -38.2857   24.1413 H   0  0  0  0  0  0
  -33.5043  -19.5718   20.3210 H   0  0  0  0  0  0
  -32.0429  -21.4631   19.8559 H   0  0  0  0  0  0
  -28.6170  -19.0519   20.8569 H   0  0  0  0  0  0
  -33.4290  -16.6942   20.5051 H   0  0  0  0  0  0
  -32.5765  -16.4192   22.0317 H   0  0  0  0  0  0
  -33.7771  -17.6809   21.9135 H   0  0  0  0  0  0
  -27.6372  -23.5233   19.5737 H   0  0  0  0  0  0
  -28.9975  -24.3411   18.8773 H   0  0  0  0  0  0
  -27.3537  -25.1310   21.2275 H   0  0  0  0  0  0
  -29.0366  -25.2872   21.5459 H   0  0  0  0  0  0
  -28.4092  -21.3639   19.7687 H   0  0  0  0  0  0
  -29.1556  -15.0527   21.9566 H   0  0  0  0  0  0
  -29.0514  -18.1687   22.9443 H   0  0  0  0  0  0
  -28.5844  -16.5521   23.3101 H   0  0  0  0  0  0
  1 25  1  0  0  0
  1 30  2  0  0  0
  1 83  1  0  0  0
  2  3  1  0  0  0
  2 25  1  0  0  0
  2 86  1  0  0  0
  2 87  1  0  0  0
  3  4  1  0  0  0
  3 88  1  0  0  0
  3 89  1  0  0  0
  4  5  1  0  0  0
  4 90  1  0  0  0
  4 91  1  0  0  0
  5  6  1  0  0  0
  5 26  1  0  0  0
  5 92  1  0  0  0
  6 25  1  0  0  0
  6 93  1  0  0  0
  6 94  1  0  0  0
  7  8  2  0  0  0
  7 26  1  0  0  0
  7 29  1  0  0  0
  8  9  1  0  0  0
  8 22  1  0  0  0
  9 10  1  0  0  0
  9 27  2  0  0  0
 10 11  2  0  0  0
 10 15  1  0  0  0
 11 12  1  0  0  0
 11 95  1  0  0  0
 12 13  2  0  0  0
 12 96  1  0  0  0
 13 14  1  0  0  0
 13 31  1  0  0  0
 14 15  2  0  0  0
 14 97  1  0  0  0
 15 98  1  0  0  0
 16 17  2  0  0  0
 16 21  1  0  0  0
 16 31  1  0  0  0
 17 18  1  0  0  0
 17 99  1  0  0  0
 18 19  2  0  0  0
 18100  1  0  0  0
 19 20  1  0  0  0
 19 24  1  0  0  0
 20 21  2  0  0  0
 20101  1  0  0  0
 21 23  1  0  0  0
 22 28  1  0  0  0
 22 32  2  0  0  0
 26 27  1  0  0  0
 28102  1  0  0  0
 28103  1  0  0  0
 29104  1  0  0  0
 29105  1  0  0  0
 33 34  1  0  0  0
 33 66  1  0  0  0
 33 70  2  0  0  0
 34 36  1  0  0  0
 34 59  1  0  0  0
 34106  1  0  0  0
 35 44  2  0  0  0
 35 45  1  0  0  0
 35 68  1  0  0  0
 36 56  1  0  0  0
 36107  1  0  0  0
 37 39  1  0  0  0
 37 47  1  0  0  0
 37 66  1  0  0  0
 37108  1  0  0  0
 38 43  2  0  0  0
 38 46  1  0  0  0
 38 47  1  0  0  0
 39 64  1  0  0  0
 39 67  2  0  0  0
 40 52  1  0  0  0
 40 53  2  0  0  0
 40 58  1  0  0  0
 41109  1  0  0  0
 41110  1  0  0  0
 41111  1  0  0  0
 41 48  1  0  0  0
 42 43  1  0  0  0
 42 66  1  0  0  0
 42112  1  0  0  0
 42113  1  0  0  0
 43 44  1  0  0  0
 44114  1  0  0  0
 45 46  2  0  0  0
 45115  1  0  0  0
 46116  1  0  0  0
 47117  1  0  0  0
 47118  1  0  0  0
 48 56  1  0  0  0
 48 65  1  0  0  0
 48119  1  0  0  0
 49 50  1  0  0  0
 49 53  1  0  0  0
 49 64  1  0  0  0
 49120  1  0  0  0
 50 51  1  0  0  0
 50121  1  0  0  0
 50122  1  0  0  0
 51 52  1  0  0  0
 51123  1  0  0  0
 51124  1  0  0  0
 52125  1  0  0  0
 52126  1  0  0  0
 53 54  1  0  0  0
 54 55  2  0  0  0
 54127  1  0  0  0
 55 57  1  0  0  0
 55128  1  0  0  0
 56 69  2  0  0  0
 57 58  2  0  0  0
 57129  1  0  0  0
 58130  1  0  0  0
 59 60  1  0  0  0
 59 61  1  0  0  0
 59 62  1  0  0  0
 60131  1  0  0  0
 60132  1  0  0  0
 60133  1  0  0  0
 61134  1  0  0  0
 61135  1  0  0  0
 61136  1  0  0  0
 62137  1  0  0  0
 62138  1  0  0  0
 62139  1  0  0  0
 63 65  1  0  0  0
 63140  1  0  0  0
 63141  1  0  0  0
 63142  1  0  0  0
 64143  1  0  0  0
 65144  1  0  0  0
 68 81  1  0  0  0
 71 72  2  0  0  0
 71 75  1  0  0  0
 71145  1  0  0  0
 72 76  1  0  0  0
 72146  1  0  0  0
 73 74  1  0  0  0
 73 76  2  0  0  0
 73147  1  0  0  0
 74 75  2  0  0  0
 74 77  1  0  0  0
 75 79  1  0  0  0
 76 82  1  0  0  0
 77 83  1  0  0  0
 77 84  2  0  0  0
 78 80  1  0  0  0
 78 82  1  0  0  0
 78 85  2  0  0  0
 79148  1  0  0  0
 79149  1  0  0  0
 79150  1  0  0  0
 80 81  1  0  0  0
 80151  1  0  0  0
 80152  1  0  0  0
 81153  1  0  0  0
 81154  1  0  0  0
 82155  1  0  0  0
 83156  1  0  0  0
 84157  1  0  0  0
 84158  1  0  0  0
M  CHG  1  84   1
M  ISO  4   1 100  68 101  81 101  83 100
M  END
> <chiral flag>
0

> <version>
0

> <s_m_source_file>
/data/baiqing/PycharmProjects/Reinvent-master-3.2/result/LINK_invent/BTK/process_docking_weight1_custom_product_contain_oxygen_bond_distance_aromatic_linkinvent_7_9_3/rearranged_h_0153.sdf

> <i_m_source_file_index>
17

> <r_mmod_Potential_Energy-OPLS-2005>
-206.484619140625

> <r_mmod_Stretch_Energy-OPLS-2005>
65.0016174316406

> <r_mmod_Bend_Energy-OPLS-2005>
178.111419677734

> <r_mmod_Torsional_Energy-OPLS-2005>
249.48551940918

> <r_mmod_Improper_Torsional_Energy-OPLS-2005>
4.45324563980103

> <r_mmod_Van_der_Waal_Energy-OPLS-2005>
149.656341552734

> <r_mmod_Electrostatic_Energy-OPLS-2005>
-411.725952148438

> <r_mmod_Solvation_Energy-OPLS-2005>
-468.257629394531

> <b_mmod_Minimization_Converged-OPLS-2005>
0

> <r_mmod_RMS_Derivative-OPLS-2005>
1.49574291706085

$$$$
17
                    3D
 Structure written by MMmdl.
147155  0  0  1  0            999 V2000
  -30.6728  -14.7144   20.4732 C   0  0  0  0  0  0
  -30.4257  -12.4416   19.4645 C   0  0  0  0  0  0
  -29.5029  -12.4961   18.2296 C   0  0  0  0  0  0
  -28.0283  -12.3366   18.6445 C   0  0  0  0  0  0
  -27.6427  -13.2364   19.8490 C   0  0  2  0  0  0
  -28.6937  -13.1795   20.9796 C   0  0  0  0  0  0
  -25.2521  -13.8221   20.5707 C   0  0  0  0  0  0
  -24.1798  -13.0450   20.9208 C   0  0  0  0  0  0
  -24.6407  -11.6937   20.8757 C   0  0  0  0  0  0
  -23.9086  -10.4297   21.0413 C   0  0  0  0  0  0
  -24.3636   -9.4211   21.9196 C   0  0  0  0  0  0
  -23.6302   -8.2246   22.0752 C   0  0  0  0  0  0
  -22.4285   -8.0286   21.3542 C   0  0  0  0  0  0
  -21.9931   -9.0266   20.4644 C   0  0  0  0  0  0
  -22.7264  -10.2146   20.3058 C   0  0  0  0  0  0
  -21.6859   -6.0749   22.5283 C   0  0  0  0  0  0
  -21.4005   -6.5648   23.8219 C   0  0  0  0  0  0
  -21.3649   -5.6799   24.9175 C   0  0  0  0  0  0
  -21.6047   -4.3062   24.7226 C   0  0  0  0  0  0
  -21.8817   -3.8159   23.4344 C   0  0  0  0  0  0
  -21.9183   -4.6973   22.3406 C   0  0  0  0  0  0
  -22.7823  -13.5229   21.1872 C   0  0  0  0  0  0
  -22.1660   -4.2159   21.0980 F   0  0  0  0  0  0
  -21.5631   -3.4547   25.7737 F   0  0  0  0  0  0
  -29.9935  -13.5185   20.3861 N   0  0  0  0  0  0
  -26.2953  -12.9435   20.3308 N   0  0  0  0  0  0
  -25.9340  -11.6575   20.5786 N   0  0  0  0  0  0
  -22.0474  -12.8190   22.0422 N   0  0  0  0  0  0
  -25.4202  -15.1943   20.4128 N   0  0  0  0  0  0
  -31.8647  -14.7578   20.1646 O   0  0  0  0  0  0
  -21.6637   -6.8893   21.4244 O   0  0  0  0  0  0
  -22.3501  -14.5529   20.6718 O   0  0  0  0  0  0
  -24.6323  -31.8520   23.1972 C   0  0  0  0  0  0
  -25.9156  -32.4714   23.8313 C   0  0  1  0  0  0
  -27.2148  -27.2451   20.1777 C   0  0  0  0  0  0
  -25.5959  -33.8528   24.2241 N   0  0  0  0  0  0
  -23.4293  -30.4729   21.5376 C   0  0  2  0  0  0
  -24.8795  -28.9187   20.1001 C   0  0  0  0  0  0
  -22.7520  -29.4565   22.4884 C   0  0  0  0  0  0
  -18.0292  -28.1384   22.8497 C   0  0  0  0  0  0
  -24.1491  -36.7260   23.2667 C   0  0  0  0  0  0
  -25.9739  -30.7575   21.3836 C   0  0  0  0  0  0
  -26.0441  -29.3794   20.7312 C   0  0  0  0  0  0
  -27.2135  -28.5567   20.7574 C   0  0  0  0  0  0
  -26.0384  -26.8532   19.5026 C   0  0  0  0  0  0
  -24.8876  -27.6680   19.4604 C   0  0  0  0  0  0
  -23.6481  -29.8078   20.1501 C   0  0  0  0  0  0
  -25.4133  -36.3049   24.0327 C   0  0  1  0  0  0
  -20.5900  -28.3688   23.1267 C   0  0  2  0  0  0
  -20.6772  -26.9398   22.5412 C   0  0  0  0  0  0
  -19.5741  -26.6371   21.5223 C   0  0  0  0  0  0
  -18.1926  -26.7925   22.1643 C   0  0  0  0  0  0
  -19.1553  -28.8857   23.2871 C   0  0  0  0  0  0
  -18.9477  -30.1474   23.8865 C   0  0  0  0  0  0
  -17.6481  -30.6593   24.0572 C   0  0  0  0  0  0
  -25.9048  -34.9408   23.5083 C   0  0  0  0  0  0
  -16.5367  -29.9083   23.6351 C   0  0  0  0  0  0
  -16.7278  -28.6510   23.0358 C   0  0  0  0  0  0
  -26.4501  -31.6567   25.0732 C   0  0  0  0  0  0
  -25.3719  -31.3803   26.1470 C   0  0  0  0  0  0
  -27.0333  -30.2958   24.6273 C   0  0  0  0  0  0
  -27.6066  -32.4309   25.7490 C   0  0  0  0  0  0
  -27.5508  -37.1899   24.8544 C   0  0  0  0  0  0
  -21.4214  -29.3037   22.3658 N   0  0  0  0  0  0
  -26.4340  -37.3692   23.9298 N   0  0  0  0  0  0
  -24.6971  -31.0466   22.0953 N   0  0  0  0  0  0
  -23.4202  -28.8114   23.3007 O   0  0  0  0  0  0
  -28.2917  -26.3351   20.2434 O   0  0  0  0  0  0
  -26.5591  -34.8891   22.4631 O   0  0  0  0  0  0
  -23.5471  -32.1334   23.7263 O   0  0  0  0  0  0
  -29.6295  -20.6152   19.3455 C   0  0  0  0  0  0
  -29.1668  -21.1551   20.5386 C   0  0  0  0  0  0
  -29.9472  -18.6274   20.5712 C   0  0  0  0  0  0
  -28.8009  -23.6886   20.2721 C   0  0  0  0  0  0
  -30.6409  -17.2579   20.9483 C   0  0  0  0  0  0
  -28.0431  -24.9845   20.8730 C   0  0  0  0  0  0
  -30.0466  -19.2474   19.3773 N   0  0  0  0  0  0
  -28.6614  -22.4332   20.8583 N   0  0  0  0  0  0
  -29.9927  -15.8938   20.7227 N   0  0  0  0  0  0
  -29.5337  -23.8385   19.2880 O   0  0  0  0  0  0
  -29.2594  -19.8203   21.7374 S   0  0  0  0  0  0
  -31.4671  -12.5452   19.1546 H   0  0  0  0  0  0
  -30.3602  -11.4692   19.9557 H   0  0  0  0  0  0
  -29.7755  -11.7151   17.5191 H   0  0  0  0  0  0
  -29.6371  -13.4455   17.7091 H   0  0  0  0  0  0
  -27.8705  -11.2885   18.9008 H   0  0  0  0  0  0
  -27.3726  -12.5423   17.7970 H   0  0  0  0  0  0
  -27.6354  -14.2581   19.4687 H   0  0  0  0  0  0
  -28.7259  -12.1856   21.4275 H   0  0  0  0  0  0
  -28.4391  -13.8706   21.7847 H   0  0  0  0  0  0
  -25.2790   -9.5675   22.4774 H   0  0  0  0  0  0
  -24.0012   -7.4632   22.7467 H   0  0  0  0  0  0
  -21.0868   -8.8788   19.8951 H   0  0  0  0  0  0
  -22.3737  -10.9682   19.6158 H   0  0  0  0  0  0
  -21.1991   -7.6151   23.9724 H   0  0  0  0  0  0
  -21.1478   -6.0529   25.9079 H   0  0  0  0  0  0
  -22.0599   -2.7618   23.2849 H   0  0  0  0  0  0
  -22.4094  -11.9844   22.4780 H   0  0  0  0  0  0
  -21.1086  -13.1199   22.2638 H   0  0  0  0  0  0
  -24.6564  -15.8519   20.5268 H   0  0  0  0  0  0
  -26.2730  -15.6334   20.0889 H   0  0  0  0  0  0
  -26.7238  -32.5319   23.1065 H   0  0  0  0  0  0
  -25.0216  -33.9662   25.0459 H   0  0  0  0  0  0
  -22.7281  -31.2978   21.3932 H   0  0  0  0  0  0
  -23.3620  -35.9777   23.3696 H   0  0  0  0  0  0
  -24.3473  -36.8461   22.2007 H   0  0  0  0  0  0
  -23.7479  -37.6682   23.6417 H   0  0  0  0  0  0
  -26.1221  -31.5137   20.6105 H   0  0  0  0  0  0
  -26.8491  -30.7970   22.0212 H   0  0  0  0  0  0
  -28.0987  -28.8955   21.2771 H   0  0  0  0  0  0
  -25.9989  -25.8886   19.0171 H   0  0  0  0  0  0
  -24.0121  -27.3157   18.9310 H   0  0  0  0  0  0
  -23.7735  -30.5876   19.3989 H   0  0  0  0  0  0
  -22.7630  -29.2486   19.8398 H   0  0  0  0  0  0
  -25.1355  -36.1952   25.0840 H   0  0  0  0  0  0
  -21.0006  -28.3268   24.1383 H   0  0  0  0  0  0
  -20.5677  -26.2293   23.3622 H   0  0  0  0  0  0
  -21.6634  -26.7423   22.1200 H   0  0  0  0  0  0
  -19.6904  -25.6284   21.1241 H   0  0  0  0  0  0
  -19.6677  -27.3202   20.6778 H   0  0  0  0  0  0
  -17.4196  -26.6700   21.4043 H   0  0  0  0  0  0
  -18.0319  -26.0051   22.9028 H   0  0  0  0  0  0
  -19.7959  -30.7323   24.2176 H   0  0  0  0  0  0
  -17.5028  -31.6262   24.5192 H   0  0  0  0  0  0
  -15.5372  -30.2986   23.7682 H   0  0  0  0  0  0
  -15.8674  -28.0832   22.7071 H   0  0  0  0  0  0
  -24.5934  -30.7061   25.7881 H   0  0  0  0  0  0
  -24.8862  -32.3005   26.4751 H   0  0  0  0  0  0
  -25.8035  -30.9149   27.0346 H   0  0  0  0  0  0
  -26.2939  -29.6726   24.1243 H   0  0  0  0  0  0
  -27.3908  -29.7209   25.4831 H   0  0  0  0  0  0
  -27.8853  -30.4180   23.9585 H   0  0  0  0  0  0
  -27.2712  -33.3677   26.1966 H   0  0  0  0  0  0
  -28.3943  -32.6761   25.0347 H   0  0  0  0  0  0
  -28.0657  -31.8488   26.5496 H   0  0  0  0  0  0
  -28.2880  -37.9798   24.7045 H   0  0  0  0  0  0
  -28.0613  -36.2365   24.7118 H   0  0  0  0  0  0
  -27.2144  -37.2458   25.8911 H   0  0  0  0  0  0
  -20.9400  -29.8778   21.6880 H   0  0  0  0  0  0
  -26.0241  -38.2847   24.0963 H   0  0  0  0  0  0
  -29.6952  -21.1334   18.3959 H   0  0  0  0  0  0
  -30.8890  -17.3049   22.0094 H   0  0  0  0  0  0
  -31.6122  -17.2605   20.4498 H   0  0  0  0  0  0
  -28.3465  -25.0727   21.9212 H   0  0  0  0  0  0
  -26.9707  -24.7745   20.9287 H   0  0  0  0  0  0
  -28.1001  -22.4484   21.7004 H   0  0  0  0  0  0
  -28.9999  -15.8293   20.8843 H   0  0  0  0  0  0
  1 25  1  0  0  0
  1 30  2  0  0  0
  1 79  1  0  0  0
  2  3  1  0  0  0
  2 25  1  0  0  0
  2 82  1  0  0  0
  2 83  1  0  0  0
  3  4  1  0  0  0
  3 84  1  0  0  0
  3 85  1  0  0  0
  4  5  1  0  0  0
  4 86  1  0  0  0
  4 87  1  0  0  0
  5  6  1  0  0  0
  5 26  1  0  0  0
  5 88  1  0  0  0
  6 25  1  0  0  0
  6 89  1  0  0  0
  6 90  1  0  0  0
  7  8  2  0  0  0
  7 26  1  0  0  0
  7 29  1  0  0  0
  8  9  1  0  0  0
  8 22  1  0  0  0
  9 10  1  0  0  0
  9 27  2  0  0  0
 10 11  2  0  0  0
 10 15  1  0  0  0
 11 12  1  0  0  0
 11 91  1  0  0  0
 12 13  2  0  0  0
 12 92  1  0  0  0
 13 14  1  0  0  0
 13 31  1  0  0  0
 14 15  2  0  0  0
 14 93  1  0  0  0
 15 94  1  0  0  0
 16 17  2  0  0  0
 16 21  1  0  0  0
 16 31  1  0  0  0
 17 18  1  0  0  0
 17 95  1  0  0  0
 18 19  2  0  0  0
 18 96  1  0  0  0
 19 20  1  0  0  0
 19 24  1  0  0  0
 20 21  2  0  0  0
 20 97  1  0  0  0
 21 23  1  0  0  0
 22 28  1  0  0  0
 22 32  2  0  0  0
 26 27  1  0  0  0
 28 98  1  0  0  0
 28 99  1  0  0  0
 29100  1  0  0  0
 29101  1  0  0  0
 33 34  1  0  0  0
 33 66  1  0  0  0
 33 70  2  0  0  0
 34 36  1  0  0  0
 34 59  1  0  0  0
 34102  1  0  0  0
 35 44  2  0  0  0
 35 45  1  0  0  0
 35 68  1  0  0  0
 36 56  1  0  0  0
 36103  1  0  0  0
 37 39  1  0  0  0
 37 47  1  0  0  0
 37 66  1  0  0  0
 37104  1  0  0  0
 38 43  2  0  0  0
 38 46  1  0  0  0
 38 47  1  0  0  0
 39 64  1  0  0  0
 39 67  2  0  0  0
 40 52  1  0  0  0
 40 53  2  0  0  0
 40 58  1  0  0  0
 41105  1  0  0  0
 41106  1  0  0  0
 41107  1  0  0  0
 41 48  1  0  0  0
 42 43  1  0  0  0
 42 66  1  0  0  0
 42108  1  0  0  0
 42109  1  0  0  0
 43 44  1  0  0  0
 44110  1  0  0  0
 45 46  2  0  0  0
 45111  1  0  0  0
 46112  1  0  0  0
 47113  1  0  0  0
 47114  1  0  0  0
 48 56  1  0  0  0
 48 65  1  0  0  0
 48115  1  0  0  0
 49 50  1  0  0  0
 49 53  1  0  0  0
 49 64  1  0  0  0
 49116  1  0  0  0
 50 51  1  0  0  0
 50117  1  0  0  0
 50118  1  0  0  0
 51 52  1  0  0  0
 51119  1  0  0  0
 51120  1  0  0  0
 52121  1  0  0  0
 52122  1  0  0  0
 53 54  1  0  0  0
 54 55  2  0  0  0
 54123  1  0  0  0
 55 57  1  0  0  0
 55124  1  0  0  0
 56 69  2  0  0  0
 57 58  2  0  0  0
 57125  1  0  0  0
 58126  1  0  0  0
 59 60  1  0  0  0
 59 61  1  0  0  0
 59 62  1  0  0  0
 60127  1  0  0  0
 60128  1  0  0  0
 60129  1  0  0  0
 61130  1  0  0  0
 61131  1  0  0  0
 61132  1  0  0  0
 62133  1  0  0  0
 62134  1  0  0  0
 62135  1  0  0  0
 63 65  1  0  0  0
 63136  1  0  0  0
 63137  1  0  0  0
 63138  1  0  0  0
 64139  1  0  0  0
 65140  1  0  0  0
 68 76  1  0  0  0
 71 72  2  0  0  0
 71 77  1  0  0  0
 71141  1  0  0  0
 72 78  1  0  0  0
 72 81  1  0  0  0
 73 75  1  0  0  0
 73 77  2  0  0  0
 73 81  1  0  0  0
 74 76  1  0  0  0
 74 78  1  0  0  0
 74 80  2  0  0  0
 75 79  1  0  0  0
 75142  1  0  0  0
 75143  1  0  0  0
 76144  1  0  0  0
 76145  1  0  0  0
 78146  1  0  0  0
 79147  1  0  0  0
M  ISO  4   1 100  68 101  76 101  79 100
M  END
> <chiral flag>
0

> <version>
0

> <s_m_source_file>
/data/baiqing/PycharmProjects/Reinvent-master-3.2/result/LINK_invent/BTK/process_docking_weight1_custom_product_contain_oxygen_bond_distance_aromatic_linkinvent_7_9_3/rearranged_h_0153.sdf

> <i_m_source_file_index>
18

> <r_mmod_Potential_Energy-OPLS-2005>
39.8429718017578

> <r_mmod_Stretch_Energy-OPLS-2005>
115.290512084961

> <r_mmod_Bend_Energy-OPLS-2005>
175.958084106445

> <r_mmod_Torsional_Energy-OPLS-2005>
234.531967163086

> <r_mmod_Improper_Torsional_Energy-OPLS-2005>
5.81983184814453

> <r_mmod_Van_der_Waal_Energy-OPLS-2005>
115.555404663086

> <r_mmod_Electrostatic_Energy-OPLS-2005>
-437.064880371094

> <r_mmod_Solvation_Energy-OPLS-2005>
-258.315887451172

> <b_mmod_Minimization_Converged-OPLS-2005>
0

> <r_mmod_RMS_Derivative-OPLS-2005>
5.17005062103271

$$$$
18
                    3D
 Structure written by MMmdl.
149158  0  0  1  0            999 V2000
  -30.6211  -14.7614   20.4515 C   0  0  0  0  0  0
  -30.4262  -12.4671   19.4769 C   0  0  0  0  0  0
  -29.5066  -12.5042   18.2374 C   0  0  0  0  0  0
  -28.0345  -12.3263   18.6540 C   0  0  0  0  0  0
  -27.6372  -13.2357   19.8474 C   0  0  2  0  0  0
  -28.6817  -13.1917   20.9834 C   0  0  0  0  0  0
  -25.2492  -13.8207   20.5704 C   0  0  0  0  0  0
  -24.1791  -13.0444   20.9219 C   0  0  0  0  0  0
  -24.6391  -11.6924   20.8758 C   0  0  0  0  0  0
  -23.9072  -10.4295   21.0414 C   0  0  0  0  0  0
  -24.3623   -9.4207   21.9189 C   0  0  0  0  0  0
  -23.6298   -8.2242   22.0755 C   0  0  0  0  0  0
  -22.4280   -8.0283   21.3546 C   0  0  0  0  0  0
  -21.9917   -9.0256   20.4647 C   0  0  0  0  0  0
  -22.7246  -10.2135   20.3060 C   0  0  0  0  0  0
  -21.6853   -6.0737   22.5279 C   0  0  0  0  0  0
  -21.4014   -6.5642   23.8212 C   0  0  0  0  0  0
  -21.3658   -5.6795   24.9174 C   0  0  0  0  0  0
  -21.6044   -4.3058   24.7225 C   0  0  0  0  0  0
  -21.8818   -3.8148   23.4348 C   0  0  0  0  0  0
  -21.9193   -4.6964   22.3403 C   0  0  0  0  0  0
  -22.7811  -13.5220   21.1874 C   0  0  0  0  0  0
  -22.1661   -4.2151   21.0979 F   0  0  0  0  0  0
  -21.5626   -3.4542   25.7737 F   0  0  0  0  0  0
  -29.9780  -13.5432   20.3938 N   0  0  0  0  0  0
  -26.2913  -12.9420   20.3280 N   0  0  0  0  0  0
  -25.9322  -11.6558   20.5764 N   0  0  0  0  0  0
  -22.0462  -12.8205   22.0429 N   0  0  0  0  0  0
  -25.4176  -15.1931   20.4105 N   0  0  0  0  0  0
  -31.8169  -14.8215   20.1529 O   0  0  0  0  0  0
  -21.6643   -6.8882   21.4241 O   0  0  0  0  0  0
  -22.3494  -14.5522   20.6719 O   0  0  0  0  0  0
  -24.6328  -31.8543   23.1967 C   0  0  0  0  0  0
  -25.9147  -32.4747   23.8321 C   0  0  1  0  0  0
  -27.2152  -27.2478   20.1404 C   0  0  0  0  0  0
  -25.5942  -33.8550   24.2252 N   0  0  0  0  0  0
  -23.4304  -30.4760   21.5401 C   0  0  2  0  0  0
  -24.8786  -28.9190   20.1114 C   0  0  0  0  0  0
  -22.7511  -29.4601   22.4902 C   0  0  0  0  0  0
  -18.0295  -28.1389   22.8483 C   0  0  0  0  0  0
  -24.1490  -36.7276   23.2642 C   0  0  0  0  0  0
  -25.9772  -30.7638   21.3781 C   0  0  0  0  0  0
  -26.0508  -29.3839   20.7225 C   0  0  0  0  0  0
  -27.2258  -28.5620   20.7226 C   0  0  0  0  0  0
  -26.0254  -26.8553   19.4935 C   0  0  0  0  0  0
  -24.8718  -27.6638   19.4835 C   0  0  0  0  0  0
  -23.6499  -29.8081   20.1569 C   0  0  0  0  0  0
  -25.4119  -36.3067   24.0326 C   0  0  1  0  0  0
  -20.5900  -28.3703   23.1266 C   0  0  2  0  0  0
  -20.6781  -26.9418   22.5407 C   0  0  0  0  0  0
  -19.5756  -26.6385   21.5212 C   0  0  0  0  0  0
  -18.1937  -26.7931   22.1622 C   0  0  0  0  0  0
  -19.1549  -28.8862   23.2870 C   0  0  0  0  0  0
  -18.9469  -30.1462   23.8891 C   0  0  0  0  0  0
  -17.6468  -30.6591   24.0561 C   0  0  0  0  0  0
  -25.9059  -34.9436   23.5093 C   0  0  0  0  0  0
  -16.5358  -29.9085   23.6332 C   0  0  0  0  0  0
  -16.7279  -28.6504   23.0354 C   0  0  0  0  0  0
  -26.4511  -31.6575   25.0715 C   0  0  0  0  0  0
  -25.3730  -31.3724   26.1433 C   0  0  0  0  0  0
  -27.0365  -30.2994   24.6203 C   0  0  0  0  0  0
  -27.6071  -32.4314   25.7480 C   0  0  0  0  0  0
  -27.5577  -37.1795   24.8470 C   0  0  0  0  0  0
  -21.4216  -29.3050   22.3652 N   0  0  0  0  0  0
  -26.4292  -37.3768   23.9409 N   0  0  0  0  0  0
  -24.6993  -31.0498   22.0947 N   0  0  0  0  0  0
  -23.4209  -28.8145   23.3007 O   0  0  0  0  0  0
  -28.2902  -26.3290   20.1648 O   0  0  0  0  0  0
  -26.5630  -34.8915   22.4660 O   0  0  0  0  0  0
  -23.5471  -32.1366   23.7254 O   0  0  0  0  0  0
  -29.1495  -19.9504   21.1694 C   0  0  0  0  0  0
  -29.7445  -18.7676   20.5422 C   0  0  0  0  0  0
  -30.0667  -19.0365   19.1987 C   0  0  0  0  0  0
  -29.1037  -21.1075   20.3268 C   0  0  0  0  0  0
  -28.7129  -23.6517   20.0391 C   0  0  0  0  0  0
  -30.7355  -17.7329   18.9308 C   0  0  0  0  0  0
  -30.4647  -17.3534   20.4782 C   0  0  2  0  0  0
  -28.0235  -24.9437   20.7134 C   0  0  0  0  0  0
  -28.6562  -22.4055   20.6675 N   0  0  0  0  0  0
  -29.8939  -15.9374   20.6213 N   0  0  0  0  0  0
  -29.2816  -23.7993   18.9542 O   0  0  0  0  0  0
  -29.7655  -20.6802   18.7001 S   0  0  0  0  0  0
  -31.4675  -12.5853   19.1720 H   0  0  0  0  0  0
  -30.3703  -11.4964   19.9719 H   0  0  0  0  0  0
  -29.7922  -11.7238   17.5310 H   0  0  0  0  0  0
  -29.6296  -13.4534   17.7134 H   0  0  0  0  0  0
  -27.8974  -11.2793   18.9274 H   0  0  0  0  0  0
  -27.3746  -12.5061   17.8043 H   0  0  0  0  0  0
  -27.6258  -14.2532   19.4559 H   0  0  0  0  0  0
  -28.7224  -12.2010   21.4386 H   0  0  0  0  0  0
  -28.4157  -13.8874   21.7810 H   0  0  0  0  0  0
  -25.2768   -9.5681   22.4765 H   0  0  0  0  0  0
  -24.0006   -7.4632   22.7472 H   0  0  0  0  0  0
  -21.0850   -8.8778   19.8951 H   0  0  0  0  0  0
  -22.3708  -10.9677   19.6171 H   0  0  0  0  0  0
  -21.2009   -7.6152   23.9716 H   0  0  0  0  0  0
  -21.1479   -6.0526   25.9077 H   0  0  0  0  0  0
  -22.0599   -2.7611   23.2847 H   0  0  0  0  0  0
  -22.4083  -11.9867   22.4814 H   0  0  0  0  0  0
  -21.1077  -13.1220   22.2636 H   0  0  0  0  0  0
  -24.6485  -15.8456   20.5178 H   0  0  0  0  0  0
  -26.2598  -15.6316   20.0607 H   0  0  0  0  0  0
  -26.7209  -32.5397   23.1057 H   0  0  0  0  0  0
  -25.0100  -33.9684   25.0404 H   0  0  0  0  0  0
  -22.7277  -31.2986   21.3914 H   0  0  0  0  0  0
  -23.3756  -35.9605   23.3312 H   0  0  0  0  0  0
  -24.3582  -36.8893   22.2056 H   0  0  0  0  0  0
  -23.7239  -37.6476   23.6660 H   0  0  0  0  0  0
  -26.1166  -31.5222   20.6065 H   0  0  0  0  0  0
  -26.8546  -30.8158   22.0110 H   0  0  0  0  0  0
  -28.1239  -28.9119   21.2112 H   0  0  0  0  0  0
  -25.9763  -25.8934   19.0026 H   0  0  0  0  0  0
  -23.9767  -27.3056   18.9943 H   0  0  0  0  0  0
  -23.7753  -30.5832   19.4000 H   0  0  0  0  0  0
  -22.7675  -29.2427   19.8513 H   0  0  0  0  0  0
  -25.1301  -36.1913   25.0817 H   0  0  0  0  0  0
  -20.9993  -28.3277   24.1386 H   0  0  0  0  0  0
  -20.5686  -26.2311   23.3613 H   0  0  0  0  0  0
  -21.6647  -26.7440   22.1196 H   0  0  0  0  0  0
  -19.6922  -25.6297   21.1241 H   0  0  0  0  0  0
  -19.6692  -27.3193   20.6742 H   0  0  0  0  0  0
  -17.4205  -26.6682   21.4023 H   0  0  0  0  0  0
  -18.0336  -26.0076   22.9021 H   0  0  0  0  0  0
  -19.7947  -30.7280   24.2257 H   0  0  0  0  0  0
  -17.5021  -31.6268   24.5163 H   0  0  0  0  0  0
  -15.5359  -30.2984   23.7663 H   0  0  0  0  0  0
  -15.8680  -28.0817   22.7075 H   0  0  0  0  0  0
  -24.5912  -30.7069   25.7754 H   0  0  0  0  0  0
  -24.8913  -32.2892   26.4842 H   0  0  0  0  0  0
  -25.8046  -30.8907   27.0217 H   0  0  0  0  0  0
  -26.2948  -29.6731   24.1234 H   0  0  0  0  0  0
  -27.4065  -29.7269   25.4718 H   0  0  0  0  0  0
  -27.8817  -30.4278   23.9438 H   0  0  0  0  0  0
  -27.2694  -33.3632   26.2026 H   0  0  0  0  0  0
  -28.3891  -32.6845   25.0309 H   0  0  0  0  0  0
  -28.0725  -31.8456   26.5416 H   0  0  0  0  0  0
  -28.2604  -38.0085   24.7503 H   0  0  0  0  0  0
  -28.1066  -36.2614   24.6311 H   0  0  0  0  0  0
  -27.2294  -37.1459   25.8875 H   0  0  0  0  0  0
  -20.9404  -29.8767   21.6847 H   0  0  0  0  0  0
  -26.0173  -38.2844   24.1402 H   0  0  0  0  0  0
  -28.8796  -19.9518   22.2160 H   0  0  0  0  0  0
  -31.7906  -17.8317   18.6735 H   0  0  0  0  0  0
  -30.1870  -17.1245   18.2105 H   0  0  0  0  0  0
  -31.4020  -17.4301   21.0325 H   0  0  0  0  0  0
  -28.3441  -24.9608   21.7551 H   0  0  0  0  0  0
  -26.9533  -24.7415   20.7543 H   0  0  0  0  0  0
  -28.2003  -22.4569   21.5689 H   0  0  0  0  0  0
  -28.9087  -15.8537   20.8169 H   0  0  0  0  0  0
  1 25  1  0  0  0
  1 30  2  0  0  0
  1 80  1  0  0  0
  2  3  1  0  0  0
  2 25  1  0  0  0
  2 83  1  0  0  0
  2 84  1  0  0  0
  3  4  1  0  0  0
  3 85  1  0  0  0
  3 86  1  0  0  0
  4  5  1  0  0  0
  4 87  1  0  0  0
  4 88  1  0  0  0
  5  6  1  0  0  0
  5 26  1  0  0  0
  5 89  1  0  0  0
  6 25  1  0  0  0
  6 90  1  0  0  0
  6 91  1  0  0  0
  7  8  2  0  0  0
  7 26  1  0  0  0
  7 29  1  0  0  0
  8  9  1  0  0  0
  8 22  1  0  0  0
  9 10  1  0  0  0
  9 27  2  0  0  0
 10 11  2  0  0  0
 10 15  1  0  0  0
 11 12  1  0  0  0
 11 92  1  0  0  0
 12 13  2  0  0  0
 12 93  1  0  0  0
 13 14  1  0  0  0
 13 31  1  0  0  0
 14 15  2  0  0  0
 14 94  1  0  0  0
 15 95  1  0  0  0
 16 17  2  0  0  0
 16 21  1  0  0  0
 16 31  1  0  0  0
 17 18  1  0  0  0
 17 96  1  0  0  0
 18 19  2  0  0  0
 18 97  1  0  0  0
 19 20  1  0  0  0
 19 24  1  0  0  0
 20 21  2  0  0  0
 20 98  1  0  0  0
 21 23  1  0  0  0
 22 28  1  0  0  0
 22 32  2  0  0  0
 26 27  1  0  0  0
 28 99  1  0  0  0
 28100  1  0  0  0
 29101  1  0  0  0
 29102  1  0  0  0
 33 34  1  0  0  0
 33 66  1  0  0  0
 33 70  2  0  0  0
 34 36  1  0  0  0
 34 59  1  0  0  0
 34103  1  0  0  0
 35 44  2  0  0  0
 35 45  1  0  0  0
 35 68  1  0  0  0
 36 56  1  0  0  0
 36104  1  0  0  0
 37 39  1  0  0  0
 37 47  1  0  0  0
 37 66  1  0  0  0
 37105  1  0  0  0
 38 43  2  0  0  0
 38 46  1  0  0  0
 38 47  1  0  0  0
 39 64  1  0  0  0
 39 67  2  0  0  0
 40 52  1  0  0  0
 40 53  2  0  0  0
 40 58  1  0  0  0
 41106  1  0  0  0
 41107  1  0  0  0
 41108  1  0  0  0
 41 48  1  0  0  0
 42 43  1  0  0  0
 42 66  1  0  0  0
 42109  1  0  0  0
 42110  1  0  0  0
 43 44  1  0  0  0
 44111  1  0  0  0
 45 46  2  0  0  0
 45112  1  0  0  0
 46113  1  0  0  0
 47114  1  0  0  0
 47115  1  0  0  0
 48 56  1  0  0  0
 48 65  1  0  0  0
 48116  1  0  0  0
 49 50  1  0  0  0
 49 53  1  0  0  0
 49 64  1  0  0  0
 49117  1  0  0  0
 50 51  1  0  0  0
 50118  1  0  0  0
 50119  1  0  0  0
 51 52  1  0  0  0
 51120  1  0  0  0
 51121  1  0  0  0
 52122  1  0  0  0
 52123  1  0  0  0
 53 54  1  0  0  0
 54 55  2  0  0  0
 54124  1  0  0  0
 55 57  1  0  0  0
 55125  1  0  0  0
 56 69  2  0  0  0
 57 58  2  0  0  0
 57126  1  0  0  0
 58127  1  0  0  0
 59 60  1  0  0  0
 59 61  1  0  0  0
 59 62  1  0  0  0
 60128  1  0  0  0
 60129  1  0  0  0
 60130  1  0  0  0
 61131  1  0  0  0
 61132  1  0  0  0
 61133  1  0  0  0
 62134  1  0  0  0
 62135  1  0  0  0
 62136  1  0  0  0
 63 65  1  0  0  0
 63137  1  0  0  0
 63138  1  0  0  0
 63139  1  0  0  0
 64140  1  0  0  0
 65141  1  0  0  0
 68 78  1  0  0  0
 71 72  1  0  0  0
 71 74  2  0  0  0
 71142  1  0  0  0
 72 73  2  0  0  0
 72 77  1  0  0  0
 73 76  1  0  0  0
 73 82  1  0  0  0
 74 79  1  0  0  0
 74 82  1  0  0  0
 75 78  1  0  0  0
 75 79  1  0  0  0
 75 81  2  0  0  0
 76 77  1  0  0  0
 76143  1  0  0  0
 76144  1  0  0  0
 77 80  1  0  0  0
 77145  1  0  0  0
 78146  1  0  0  0
 78147  1  0  0  0
 79148  1  0  0  0
 80149  1  0  0  0
M  ISO  4   1 100  68 101  78 101  80 100
M  END
> <chiral flag>
0

> <version>
0

> <s_m_source_file>
/data/baiqing/PycharmProjects/Reinvent-master-3.2/result/LINK_invent/BTK/process_docking_weight1_custom_product_contain_oxygen_bond_distance_aromatic_linkinvent_7_9_3/rearranged_h_0153.sdf

> <i_m_source_file_index>
19

> <r_mmod_Potential_Energy-OPLS-2005>
541.915283203125

> <r_mmod_Stretch_Energy-OPLS-2005>
150.855178833008

> <r_mmod_Bend_Energy-OPLS-2005>
597.320129394531

> <r_mmod_Torsional_Energy-OPLS-2005>
233.125030517578

> <r_mmod_Improper_Torsional_Energy-OPLS-2005>
10.5853710174561

> <r_mmod_Van_der_Waal_Energy-OPLS-2005>
115.813621520996

> <r_mmod_Electrostatic_Energy-OPLS-2005>
-411.1240234375

> <r_mmod_Solvation_Energy-OPLS-2005>
-249.522613525391

> <b_mmod_Minimization_Converged-OPLS-2005>
0

> <r_mmod_RMS_Derivative-OPLS-2005>
0.694579839706421

$$$$
19
                    3D
 Structure written by MMmdl.
157166  0  0  1  0            999 V2000
  -30.6134  -14.7202   20.4712 C   0  0  0  0  0  0
  -30.4371  -12.4400   19.4657 C   0  0  0  0  0  0
  -29.5090  -12.5009   18.2320 C   0  0  0  0  0  0
  -28.0358  -12.3237   18.6488 C   0  0  0  0  0  0
  -27.6437  -13.2233   19.8508 C   0  0  2  0  0  0
  -28.6899  -13.1443   20.9849 C   0  0  0  0  0  0
  -25.2525  -13.8180   20.5678 C   0  0  0  0  0  0
  -24.1811  -13.0436   20.9204 C   0  0  0  0  0  0
  -24.6393  -11.6910   20.8757 C   0  0  0  0  0  0
  -23.9066  -10.4287   21.0414 C   0  0  0  0  0  0
  -24.3617   -9.4200   21.9189 C   0  0  0  0  0  0
  -23.6287   -8.2238   22.0759 C   0  0  0  0  0  0
  -22.4272   -8.0280   21.3543 C   0  0  0  0  0  0
  -21.9908   -9.0255   20.4648 C   0  0  0  0  0  0
  -22.7241  -10.2131   20.3059 C   0  0  0  0  0  0
  -21.6851   -6.0731   22.5276 C   0  0  0  0  0  0
  -21.4015   -6.5636   23.8208 C   0  0  0  0  0  0
  -21.3656   -5.6791   24.9169 C   0  0  0  0  0  0
  -21.6045   -4.3055   24.7222 C   0  0  0  0  0  0
  -21.8819   -3.8144   23.4346 C   0  0  0  0  0  0
  -21.9192   -4.6960   22.3401 C   0  0  0  0  0  0
  -22.7833  -13.5225   21.1862 C   0  0  0  0  0  0
  -22.1661   -4.2146   21.0979 F   0  0  0  0  0  0
  -21.5627   -3.4540   25.7734 F   0  0  0  0  0  0
  -29.9937  -13.4935   20.4048 N   0  0  0  0  0  0
  -26.2942  -12.9370   20.3271 N   0  0  0  0  0  0
  -25.9320  -11.6523   20.5758 N   0  0  0  0  0  0
  -22.0475  -12.8217   22.0417 N   0  0  0  0  0  0
  -25.4212  -15.1904   20.4063 N   0  0  0  0  0  0
  -31.8058  -14.8205   20.1645 O   0  0  0  0  0  0
  -21.6639   -6.8876   21.4238 O   0  0  0  0  0  0
  -22.3518  -14.5529   20.6704 O   0  0  0  0  0  0
  -24.6312  -31.8560   23.1999 C   0  0  0  0  0  0
  -25.9138  -32.4759   23.8339 C   0  0  1  0  0  0
  -27.2202  -27.2708   20.1239 C   0  0  0  0  0  0
  -25.5939  -33.8562   24.2260 N   0  0  0  0  0  0
  -23.4270  -30.4800   21.5430 C   0  0  2  0  0  0
  -24.8746  -28.9317   20.1093 C   0  0  0  0  0  0
  -22.7501  -29.4603   22.4910 C   0  0  0  0  0  0
  -18.0289  -28.1388   22.8477 C   0  0  0  0  0  0
  -24.1492  -36.7282   23.2639 C   0  0  0  0  0  0
  -25.9740  -30.7714   21.3801 C   0  0  0  0  0  0
  -26.0467  -29.3964   20.7190 C   0  0  0  0  0  0
  -27.2225  -28.5791   20.7148 C   0  0  0  0  0  0
  -26.0228  -26.8760   19.4817 C   0  0  0  0  0  0
  -24.8675  -27.6794   19.4798 C   0  0  0  0  0  0
  -23.6450  -29.8170   20.1584 C   0  0  0  0  0  0
  -25.4117  -36.3069   24.0328 C   0  0  1  0  0  0
  -20.5896  -28.3696   23.1267 C   0  0  2  0  0  0
  -20.6779  -26.9413   22.5405 C   0  0  0  0  0  0
  -19.5754  -26.6380   21.5209 C   0  0  0  0  0  0
  -18.1931  -26.7926   22.1621 C   0  0  0  0  0  0
  -19.1545  -28.8855   23.2864 C   0  0  0  0  0  0
  -18.9471  -30.1454   23.8885 C   0  0  0  0  0  0
  -17.6472  -30.6585   24.0558 C   0  0  0  0  0  0
  -25.9060  -34.9439   23.5093 C   0  0  0  0  0  0
  -16.5357  -29.9083   23.6338 C   0  0  0  0  0  0
  -16.7277  -28.6502   23.0351 C   0  0  0  0  0  0
  -26.4508  -31.6587   25.0730 C   0  0  0  0  0  0
  -25.3728  -31.3748   26.1451 C   0  0  0  0  0  0
  -27.0359  -30.3002   24.6227 C   0  0  0  0  0  0
  -27.6054  -32.4339   25.7504 C   0  0  0  0  0  0
  -27.5579  -37.1795   24.8465 C   0  0  0  0  0  0
  -21.4208  -29.3045   22.3659 N   0  0  0  0  0  0
  -26.4289  -37.3769   23.9411 N   0  0  0  0  0  0
  -24.6963  -31.0531   22.0974 N   0  0  0  0  0  0
  -23.4203  -28.8139   23.3001 O   0  0  0  0  0  0
  -28.3102  -26.3711   20.1907 O   0  0  0  0  0  0
  -26.5624  -34.8908   22.4657 O   0  0  0  0  0  0
  -23.5462  -32.1381   23.7298 O   0  0  0  0  0  0
  -31.3451  -19.2041   20.9964 C   0  0  0  0  0  0
  -30.1613  -19.8940   20.6953 C   0  0  0  0  0  0
  -30.0801  -17.2802   20.6611 C   0  0  0  0  0  0
  -32.6162  -19.8854   21.3763 C   0  0  0  0  0  0
  -29.1153  -23.8271   20.4135 C   0  0  0  0  0  0
  -34.0746  -18.9578   19.3578 C   0  0  0  0  0  0
  -34.8656  -20.0843   19.9809 C   0  0  0  0  0  0
  -33.8978  -19.2854   20.8249 C   0  0  0  0  0  0
  -28.8418  -22.2452   20.3036 C   0  0  0  0  0  0
  -28.0189  -24.9083   19.9918 C   0  0  0  0  0  0
  -31.2794  -17.7863   20.9549 N   0  0  0  0  0  0
  -32.6864  -20.9095   22.1196 N   0  0  0  0  0  0
  -30.0063  -21.3489   20.6485 N   0  0  0  0  0  0
  -29.8014  -15.8282   20.6466 N   0  0  0  0  0  0
  -30.2169  -24.2025   20.8309 O   0  0  0  0  0  0
  -28.9108  -18.6448   20.3954 S   0  0  0  0  0  0
  -31.4771  -12.5686   19.1607 H   0  0  0  0  0  0
  -30.3838  -11.4603   19.9429 H   0  0  0  0  0  0
  -29.7883  -11.7306   17.5119 H   0  0  0  0  0  0
  -29.6343  -13.4572   17.7215 H   0  0  0  0  0  0
  -27.8955  -11.2752   18.9150 H   0  0  0  0  0  0
  -27.3754  -12.5119   17.8019 H   0  0  0  0  0  0
  -27.6405  -14.2446   19.4710 H   0  0  0  0  0  0
  -28.7204  -12.1422   21.4149 H   0  0  0  0  0  0
  -28.4275  -13.8171   21.8036 H   0  0  0  0  0  0
  -25.2762   -9.5673   22.4763 H   0  0  0  0  0  0
  -23.9991   -7.4630   22.7484 H   0  0  0  0  0  0
  -21.0836   -8.8777   19.8956 H   0  0  0  0  0  0
  -22.3703  -10.9670   19.6169 H   0  0  0  0  0  0
  -21.2012   -7.6145   23.9708 H   0  0  0  0  0  0
  -21.1478   -6.0523   25.9071 H   0  0  0  0  0  0
  -22.0603   -2.7607   23.2847 H   0  0  0  0  0  0
  -22.4090  -11.9875   22.4798 H   0  0  0  0  0  0
  -21.1097  -13.1248   22.2633 H   0  0  0  0  0  0
  -24.6458  -15.8371   20.5042 H   0  0  0  0  0  0
  -26.2502  -15.6269   20.0259 H   0  0  0  0  0  0
  -26.7201  -32.5410   23.1077 H   0  0  0  0  0  0
  -25.0094  -33.9703   25.0411 H   0  0  0  0  0  0
  -22.7230  -31.3022   21.3975 H   0  0  0  0  0  0
  -23.3755  -35.9613   23.3300 H   0  0  0  0  0  0
  -24.3579  -36.8914   22.2053 H   0  0  0  0  0  0
  -23.7243  -37.6480   23.6669 H   0  0  0  0  0  0
  -26.1145  -31.5348   20.6132 H   0  0  0  0  0  0
  -26.8507  -30.8163   22.0144 H   0  0  0  0  0  0
  -28.1181  -28.9292   21.2086 H   0  0  0  0  0  0
  -25.9419  -25.9218   18.9831 H   0  0  0  0  0  0
  -23.9707  -27.3195   18.9940 H   0  0  0  0  0  0
  -23.7677  -30.5942   19.4036 H   0  0  0  0  0  0
  -22.7640  -29.2499   19.8529 H   0  0  0  0  0  0
  -25.1298  -36.1913   25.0822 H   0  0  0  0  0  0
  -20.9982  -28.3268   24.1389 H   0  0  0  0  0  0
  -20.5680  -26.2302   23.3607 H   0  0  0  0  0  0
  -21.6645  -26.7432   22.1194 H   0  0  0  0  0  0
  -19.6919  -25.6290   21.1238 H   0  0  0  0  0  0
  -19.6698  -27.3187   20.6736 H   0  0  0  0  0  0
  -17.4203  -26.6671   21.4021 H   0  0  0  0  0  0
  -18.0329  -26.0068   22.9022 H   0  0  0  0  0  0
  -19.7947  -30.7268   24.2248 H   0  0  0  0  0  0
  -17.5027  -31.6265   24.5159 H   0  0  0  0  0  0
  -15.5358  -30.2980   23.7671 H   0  0  0  0  0  0
  -15.8678  -28.0820   22.7074 H   0  0  0  0  0  0
  -24.5889  -30.7117   25.7780 H   0  0  0  0  0  0
  -24.8938  -32.2927   26.4870 H   0  0  0  0  0  0
  -25.8037  -30.8922   27.0233 H   0  0  0  0  0  0
  -26.2949  -29.6743   24.1241 H   0  0  0  0  0  0
  -27.4028  -29.7273   25.4755 H   0  0  0  0  0  0
  -27.8834  -30.4275   23.9485 H   0  0  0  0  0  0
  -27.2653  -33.3650   26.2049 H   0  0  0  0  0  0
  -28.3878  -32.6888   25.0344 H   0  0  0  0  0  0
  -28.0704  -31.8491   26.5452 H   0  0  0  0  0  0
  -28.2587  -38.0098   24.7506 H   0  0  0  0  0  0
  -28.1081  -36.2626   24.6293 H   0  0  0  0  0  0
  -27.2293  -37.1447   25.8866 H   0  0  0  0  0  0
  -20.9390  -29.8779   21.6880 H   0  0  0  0  0  0
  -26.0168  -38.2845   24.1411 H   0  0  0  0  0  0
  -34.6048  -18.0394   19.1128 H   0  0  0  0  0  0
  -33.2732  -19.2279   18.6721 H   0  0  0  0  0  0
  -34.5865  -21.1024   19.7148 H   0  0  0  0  0  0
  -35.9278  -19.9240   20.1546 H   0  0  0  0  0  0
  -34.3139  -18.5790   21.5408 H   0  0  0  0  0  0
  -28.5181  -22.0302   19.2848 H   0  0  0  0  0  0
  -28.0008  -22.0027   20.9541 H   0  0  0  0  0  0
  -27.1094  -24.6540   20.5364 H   0  0  0  0  0  0
  -27.8094  -24.7444   18.9350 H   0  0  0  0  0  0
  -31.7607  -21.1848   22.4313 H   0  0  0  0  0  0
  -30.8493  -21.9036   20.7981 H   0  0  0  0  0  0
  -28.8257  -15.5970   20.7383 H   0  0  0  0  0  0
  1 25  1  0  0  0
  1 30  2  0  0  0
  1 84  1  0  0  0
  2  3  1  0  0  0
  2 25  1  0  0  0
  2 87  1  0  0  0
  2 88  1  0  0  0
  3  4  1  0  0  0
  3 89  1  0  0  0
  3 90  1  0  0  0
  4  5  1  0  0  0
  4 91  1  0  0  0
  4 92  1  0  0  0
  5  6  1  0  0  0
  5 26  1  0  0  0
  5 93  1  0  0  0
  6 25  1  0  0  0
  6 94  1  0  0  0
  6 95  1  0  0  0
  7  8  2  0  0  0
  7 26  1  0  0  0
  7 29  1  0  0  0
  8  9  1  0  0  0
  8 22  1  0  0  0
  9 10  1  0  0  0
  9 27  2  0  0  0
 10 11  2  0  0  0
 10 15  1  0  0  0
 11 12  1  0  0  0
 11 96  1  0  0  0
 12 13  2  0  0  0
 12 97  1  0  0  0
 13 14  1  0  0  0
 13 31  1  0  0  0
 14 15  2  0  0  0
 14 98  1  0  0  0
 15 99  1  0  0  0
 16 17  2  0  0  0
 16 21  1  0  0  0
 16 31  1  0  0  0
 17 18  1  0  0  0
 17100  1  0  0  0
 18 19  2  0  0  0
 18101  1  0  0  0
 19 20  1  0  0  0
 19 24  1  0  0  0
 20 21  2  0  0  0
 20102  1  0  0  0
 21 23  1  0  0  0
 22 28  1  0  0  0
 22 32  2  0  0  0
 26 27  1  0  0  0
 28103  1  0  0  0
 28104  1  0  0  0
 29105  1  0  0  0
 29106  1  0  0  0
 33 34  1  0  0  0
 33 66  1  0  0  0
 33 70  2  0  0  0
 34 36  1  0  0  0
 34 59  1  0  0  0
 34107  1  0  0  0
 35 44  2  0  0  0
 35 45  1  0  0  0
 35 68  1  0  0  0
 36 56  1  0  0  0
 36108  1  0  0  0
 37 39  1  0  0  0
 37 47  1  0  0  0
 37 66  1  0  0  0
 37109  1  0  0  0
 38 43  2  0  0  0
 38 46  1  0  0  0
 38 47  1  0  0  0
 39 64  1  0  0  0
 39 67  2  0  0  0
 40 52  1  0  0  0
 40 53  2  0  0  0
 40 58  1  0  0  0
 41110  1  0  0  0
 41111  1  0  0  0
 41112  1  0  0  0
 41 48  1  0  0  0
 42 43  1  0  0  0
 42 66  1  0  0  0
 42113  1  0  0  0
 42114  1  0  0  0
 43 44  1  0  0  0
 44115  1  0  0  0
 45 46  2  0  0  0
 45116  1  0  0  0
 46117  1  0  0  0
 47118  1  0  0  0
 47119  1  0  0  0
 48 56  1  0  0  0
 48 65  1  0  0  0
 48120  1  0  0  0
 49 50  1  0  0  0
 49 53  1  0  0  0
 49 64  1  0  0  0
 49121  1  0  0  0
 50 51  1  0  0  0
 50122  1  0  0  0
 50123  1  0  0  0
 51 52  1  0  0  0
 51124  1  0  0  0
 51125  1  0  0  0
 52126  1  0  0  0
 52127  1  0  0  0
 53 54  1  0  0  0
 54 55  2  0  0  0
 54128  1  0  0  0
 55 57  1  0  0  0
 55129  1  0  0  0
 56 69  2  0  0  0
 57 58  2  0  0  0
 57130  1  0  0  0
 58131  1  0  0  0
 59 60  1  0  0  0
 59 61  1  0  0  0
 59 62  1  0  0  0
 60132  1  0  0  0
 60133  1  0  0  0
 60134  1  0  0  0
 61135  1  0  0  0
 61136  1  0  0  0
 61137  1  0  0  0
 62138  1  0  0  0
 62139  1  0  0  0
 62140  1  0  0  0
 63 65  1  0  0  0
 63141  1  0  0  0
 63142  1  0  0  0
 63143  1  0  0  0
 64144  1  0  0  0
 65145  1  0  0  0
 68 80  1  0  0  0
 71 72  2  0  0  0
 71 74  1  0  0  0
 71 81  1  0  0  0
 72 83  1  0  0  0
 72 86  1  0  0  0
 73 81  2  0  0  0
 73 84  1  0  0  0
 73 86  1  0  0  0
 74 82  2  0  0  0
 74 78  1  0  0  0
 75 79  1  0  0  0
 75 80  1  0  0  0
 75 85  2  0  0  0
 76 77  1  0  0  0
 76 78  1  0  0  0
 76146  1  0  0  0
 76147  1  0  0  0
 77 78  1  0  0  0
 77148  1  0  0  0
 77149  1  0  0  0
 78150  1  0  0  0
 79 83  1  0  0  0
 79151  1  0  0  0
 79152  1  0  0  0
 80153  1  0  0  0
 80154  1  0  0  0
 82155  1  0  0  0
 83156  1  0  0  0
 84157  1  0  0  0
M  ISO  4   1 100  68 101  80 101  84 100
M  END
> <chiral flag>
0

> <version>
0

> <s_m_source_file>
/data/baiqing/PycharmProjects/Reinvent-master-3.2/result/LINK_invent/BTK/process_docking_weight1_custom_product_contain_oxygen_bond_distance_aromatic_linkinvent_7_9_3/rearranged_h_0153.sdf

> <i_m_source_file_index>
20

> <r_mmod_Potential_Energy-OPLS-2005>
275.900482177734

> <r_mmod_Stretch_Energy-OPLS-2005>
111.912826538086

> <r_mmod_Bend_Energy-OPLS-2005>
174.550582885742

> <r_mmod_Torsional_Energy-OPLS-2005>
226.325836181641

> <r_mmod_Improper_Torsional_Energy-OPLS-2005>
5.95480728149414

> <r_mmod_Van_der_Waal_Energy-OPLS-2005>
119.896286010742

> <r_mmod_Electrostatic_Energy-OPLS-2005>
-179.222244262695

> <r_mmod_Solvation_Energy-OPLS-2005>
-262.116607666016

> <b_mmod_Minimization_Converged-OPLS-2005>
0

> <r_mmod_RMS_Derivative-OPLS-2005>
0.7689009308815

$$$$
20
                    3D
 Structure written by MMmdl.
151160  0  0  1  0            999 V2000
  -30.3844  -15.4214   20.3547 C   0  0  0  0  0  0
  -30.4321  -12.9278   19.5219 C   0  0  0  0  0  0
  -29.5421  -12.6053   18.2941 C   0  0  0  0  0  0
  -28.1001  -12.2956   18.7303 C   0  0  0  0  0  0
  -27.6018  -13.2883   19.8090 C   0  0  2  0  0  0
  -28.6279  -13.5382   20.9348 C   0  0  0  0  0  0
  -25.2389  -13.8275   20.5753 C   0  0  0  0  0  0
  -24.1746  -13.0440   20.9255 C   0  0  0  0  0  0
  -24.6407  -11.6938   20.8750 C   0  0  0  0  0  0
  -23.9102  -10.4297   21.0401 C   0  0  0  0  0  0
  -24.3645   -9.4213   21.9183 C   0  0  0  0  0  0
  -23.6314   -8.2250   22.0748 C   0  0  0  0  0  0
  -22.4290   -8.0293   21.3551 C   0  0  0  0  0  0
  -21.9930   -9.0264   20.4647 C   0  0  0  0  0  0
  -22.7263  -10.2143   20.3053 C   0  0  0  0  0  0
  -21.6855   -6.0740   22.5268 C   0  0  0  0  0  0
  -21.4026   -6.5641   23.8207 C   0  0  0  0  0  0
  -21.3658   -5.6792   24.9174 C   0  0  0  0  0  0
  -21.6042   -4.3052   24.7218 C   0  0  0  0  0  0
  -21.8822   -3.8142   23.4339 C   0  0  0  0  0  0
  -21.9205   -4.6966   22.3397 C   0  0  0  0  0  0
  -22.7762  -13.5201   21.1886 C   0  0  0  0  0  0
  -22.1666   -4.2152   21.0973 F   0  0  0  0  0  0
  -21.5632   -3.4527   25.7732 F   0  0  0  0  0  0
  -29.8278  -14.0958   20.2846 N   0  0  0  0  0  0
  -26.2797  -12.9550   20.3177 N   0  0  0  0  0  0
  -25.9344  -11.6647   20.5679 N   0  0  0  0  0  0
  -22.0405  -12.8217   22.0454 N   0  0  0  0  0  0
  -25.4072  -15.2009   20.4226 N   0  0  0  0  0  0
  -31.6203  -15.3700   20.2175 O   0  0  0  0  0  0
  -21.6649   -6.8885   21.4234 O   0  0  0  0  0  0
  -22.3444  -14.5495   20.6708 O   0  0  0  0  0  0
  -24.6732  -31.8134   23.1626 C   0  0  0  0  0  0
  -25.9356  -32.4542   23.8142 C   0  0  1  0  0  0
  -27.2105  -26.8155   20.2113 C   0  0  0  0  0  0
  -25.5975  -33.8361   24.2033 N   0  0  0  0  0  0
  -23.4930  -30.4205   21.5140 C   0  0  2  0  0  0
  -24.9453  -28.7811   20.1214 C   0  0  0  0  0  0
  -22.7712  -29.4384   22.4751 C   0  0  0  0  0  0
  -18.0336  -28.1411   22.8459 C   0  0  0  0  0  0
  -24.1488  -36.7183   23.2650 C   0  0  0  0  0  0
  -26.0694  -30.5836   21.4100 C   0  0  0  0  0  0
  -26.1334  -29.1605   20.7588 C   0  0  0  0  0  0
  -27.2609  -28.2035   20.7686 C   0  0  0  0  0  0
  -25.9901  -26.6143   19.5262 C   0  0  0  0  0  0
  -24.9048  -27.5314   19.4834 C   0  0  0  0  0  0
  -23.7391  -29.7253   20.1453 C   0  0  0  0  0  0
  -25.4134  -36.2947   24.0296 C   0  0  1  0  0  0
  -20.5966  -28.3769   23.1166 C   0  0  2  0  0  0
  -20.6801  -26.9441   22.5398 C   0  0  0  0  0  0
  -19.5776  -26.6372   21.5215 C   0  0  0  0  0  0
  -18.1957  -26.7937   22.1625 C   0  0  0  0  0  0
  -19.1595  -28.8917   23.2793 C   0  0  0  0  0  0
  -18.9499  -30.1500   23.8848 C   0  0  0  0  0  0
  -17.6491  -30.6601   24.0551 C   0  0  0  0  0  0
  -25.9111  -34.9327   23.4998 C   0  0  0  0  0  0
  -16.5382  -29.9080   23.6346 C   0  0  0  0  0  0
  -16.7317  -28.6493   23.0379 C   0  0  0  0  0  0
  -26.4561  -31.6539   25.0721 C   0  0  0  0  0  0
  -25.3651  -31.3829   26.1354 C   0  0  0  0  0  0
  -27.0479  -30.2887   24.6559 C   0  0  0  0  0  0
  -27.6037  -32.4371   25.7522 C   0  0  0  0  0  0
  -27.5573  -37.1748   24.8462 C   0  0  0  0  0  0
  -21.4375  -29.3041   22.3505 N   0  0  0  0  0  0
  -26.4277  -37.3685   23.9406 N   0  0  0  0  0  0
  -24.7679  -30.9690   22.0815 N   0  0  0  0  0  0
  -23.4209  -28.7992   23.3055 O   0  0  0  0  0  0
  -28.2050  -25.6675   20.2203 O   0  0  0  0  0  0
  -26.5732  -34.8872   22.4601 O   0  0  0  0  0  0
  -23.5772  -32.1157   23.6647 O   0  0  0  0  0  0
  -29.1796  -19.6174   20.5731 C   0  0  0  0  0  0
  -29.7261  -18.1236   21.2103 C   0  0  0  0  0  0
  -28.7341  -20.2532   18.2470 C   0  0  0  0  0  0
  -28.0931  -21.6454   18.7371 C   0  0  0  0  0  0
  -29.3830  -17.5873   19.0656 C   0  0  0  0  0  0
  -28.6874  -19.0660   19.2870 C   0  0  1  0  0  0
  -28.7362  -22.3367   20.0056 C   0  0  1  0  0  0
  -28.0047  -23.9970   20.4884 C   0  0  0  0  0  0
  -29.0786  -20.9856   20.9297 N   0  0  0  0  0  0
  -29.6556  -16.7616   20.3316 N   0  0  0  0  0  0
  -31.4421  -13.1576   19.1781 H   0  0  0  0  0  0
  -30.5369  -12.0506   20.1619 H   0  0  0  0  0  0
  -29.9568  -11.7675   17.7316 H   0  0  0  0  0  0
  -29.5426  -13.4588   17.6154 H   0  0  0  0  0  0
  -28.0898  -11.2812   19.1339 H   0  0  0  0  0  0
  -27.4309  -12.2899   17.8682 H   0  0  0  0  0  0
  -27.4915  -14.2335   19.2761 H   0  0  0  0  0  0
  -28.8419  -12.6265   21.4946 H   0  0  0  0  0  0
  -28.2399  -14.2639   21.6504 H   0  0  0  0  0  0
  -25.2792   -9.5694   22.4757 H   0  0  0  0  0  0
  -24.0016   -7.4652   22.7477 H   0  0  0  0  0  0
  -21.0847   -8.8785   19.8966 H   0  0  0  0  0  0
  -22.3708  -10.9683   19.6164 H   0  0  0  0  0  0
  -21.2005   -7.6143   23.9714 H   0  0  0  0  0  0
  -21.1484   -6.0518   25.9081 H   0  0  0  0  0  0
  -22.0602   -2.7598   23.2836 H   0  0  0  0  0  0
  -22.4009  -11.9899   22.4887 H   0  0  0  0  0  0
  -21.1008  -13.1247   22.2591 H   0  0  0  0  0  0
  -24.6468  -15.8612   20.5459 H   0  0  0  0  0  0
  -26.2685  -15.6396   20.1206 H   0  0  0  0  0  0
  -26.7432  -32.5030   23.0858 H   0  0  0  0  0  0
  -25.0043  -33.9439   25.0132 H   0  0  0  0  0  0
  -22.8116  -31.2550   21.3328 H   0  0  0  0  0  0
  -23.3780  -35.9484   23.3278 H   0  0  0  0  0  0
  -24.3562  -36.8867   22.2072 H   0  0  0  0  0  0
  -23.7218  -37.6344   23.6733 H   0  0  0  0  0  0
  -26.2646  -31.3209   20.6303 H   0  0  0  0  0  0
  -26.9210  -30.6417   22.0754 H   0  0  0  0  0  0
  -28.1649  -28.5001   21.2806 H   0  0  0  0  0  0
  -25.8481  -25.6665   19.0265 H   0  0  0  0  0  0
  -24.0049  -27.2350   18.9645 H   0  0  0  0  0  0
  -23.9092  -30.4891   19.3849 H   0  0  0  0  0  0
  -22.8440  -29.1881   19.8246 H   0  0  0  0  0  0
  -25.1339  -36.1737   25.0788 H   0  0  0  0  0  0
  -21.0053  -28.3376   24.1292 H   0  0  0  0  0  0
  -20.5677  -26.2392   23.3648 H   0  0  0  0  0  0
  -21.6656  -26.7388   22.1215 H   0  0  0  0  0  0
  -19.6928  -25.6263   21.1289 H   0  0  0  0  0  0
  -19.6718  -27.3144   20.6717 H   0  0  0  0  0  0
  -17.4224  -26.6699   21.4026 H   0  0  0  0  0  0
  -18.0342  -26.0089   22.9036 H   0  0  0  0  0  0
  -19.7973  -30.7322   24.2200 H   0  0  0  0  0  0
  -17.5039  -31.6279   24.5148 H   0  0  0  0  0  0
  -15.5374  -30.2967   23.7697 H   0  0  0  0  0  0
  -15.8715  -28.0785   22.7145 H   0  0  0  0  0  0
  -24.5836  -30.7183   25.7647 H   0  0  0  0  0  0
  -24.8846  -32.3054   26.4627 H   0  0  0  0  0  0
  -25.7846  -30.9079   27.0238 H   0  0  0  0  0  0
  -26.3182  -29.6525   24.1543 H   0  0  0  0  0  0
  -27.3927  -29.7293   25.5270 H   0  0  0  0  0  0
  -27.9155  -30.4031   24.0059 H   0  0  0  0  0  0
  -27.2594  -33.3715   26.1967 H   0  0  0  0  0  0
  -28.3916  -32.6877   25.0403 H   0  0  0  0  0  0
  -28.0643  -31.8601   26.5554 H   0  0  0  0  0  0
  -28.2560  -38.0074   24.7523 H   0  0  0  0  0  0
  -28.1110  -36.2602   24.6278 H   0  0  0  0  0  0
  -27.2295  -37.1357   25.8866 H   0  0  0  0  0  0
  -20.9659  -29.8713   21.6603 H   0  0  0  0  0  0
  -26.0133  -38.2742   24.1418 H   0  0  0  0  0  0
  -29.1672  -17.9380   22.1295 H   0  0  0  0  0  0
  -30.7618  -18.2524   21.5269 H   0  0  0  0  0  0
  -29.7703  -20.4332   17.9570 H   0  0  0  0  0  0
  -28.2255  -19.9345   17.3356 H   0  0  0  0  0  0
  -27.0346  -21.4754   18.9504 H   0  0  0  0  0  0
  -28.1033  -22.3526   17.9068 H   0  0  0  0  0  0
  -30.3446  -17.7242   18.5655 H   0  0  0  0  0  0
  -28.7756  -16.9956   18.3788 H   0  0  0  0  0  0
  -27.6285  -18.8584   19.4501 H   0  0  0  0  0  0
  -29.7218  -22.6597   19.6655 H   0  0  0  0  0  0
  -28.0963  -23.9721   21.5745 H   0  0  0  0  0  0
  -26.9331  -23.8581   20.3407 H   0  0  0  0  0  0
  1 25  1  0  0  0
  1 30  2  0  0  0
  1 80  1  0  0  0
  2  3  1  0  0  0
  2 25  1  0  0  0
  2 81  1  0  0  0
  2 82  1  0  0  0
  3  4  1  0  0  0
  3 83  1  0  0  0
  3 84  1  0  0  0
  4  5  1  0  0  0
  4 85  1  0  0  0
  4 86  1  0  0  0
  5  6  1  0  0  0
  5 26  1  0  0  0
  5 87  1  0  0  0
  6 25  1  0  0  0
  6 88  1  0  0  0
  6 89  1  0  0  0
  7  8  2  0  0  0
  7 26  1  0  0  0
  7 29  1  0  0  0
  8  9  1  0  0  0
  8 22  1  0  0  0
  9 10  1  0  0  0
  9 27  2  0  0  0
 10 11  2  0  0  0
 10 15  1  0  0  0
 11 12  1  0  0  0
 11 90  1  0  0  0
 12 13  2  0  0  0
 12 91  1  0  0  0
 13 14  1  0  0  0
 13 31  1  0  0  0
 14 15  2  0  0  0
 14 92  1  0  0  0
 15 93  1  0  0  0
 16 17  2  0  0  0
 16 21  1  0  0  0
 16 31  1  0  0  0
 17 18  1  0  0  0
 17 94  1  0  0  0
 18 19  2  0  0  0
 18 95  1  0  0  0
 19 20  1  0  0  0
 19 24  1  0  0  0
 20 21  2  0  0  0
 20 96  1  0  0  0
 21 23  1  0  0  0
 22 28  1  0  0  0
 22 32  2  0  0  0
 26 27  1  0  0  0
 28 97  1  0  0  0
 28 98  1  0  0  0
 29 99  1  0  0  0
 29100  1  0  0  0
 33 34  1  0  0  0
 33 66  1  0  0  0
 33 70  2  0  0  0
 34 36  1  0  0  0
 34 59  1  0  0  0
 34101  1  0  0  0
 35 44  2  0  0  0
 35 45  1  0  0  0
 35 68  1  0  0  0
 36 56  1  0  0  0
 36102  1  0  0  0
 37 39  1  0  0  0
 37 47  1  0  0  0
 37 66  1  0  0  0
 37103  1  0  0  0
 38 43  2  0  0  0
 38 46  1  0  0  0
 38 47  1  0  0  0
 39 64  1  0  0  0
 39 67  2  0  0  0
 40 52  1  0  0  0
 40 53  2  0  0  0
 40 58  1  0  0  0
 41104  1  0  0  0
 41105  1  0  0  0
 41106  1  0  0  0
 41 48  1  0  0  0
 42 43  1  0  0  0
 42 66  1  0  0  0
 42107  1  0  0  0
 42108  1  0  0  0
 43 44  1  0  0  0
 44109  1  0  0  0
 45 46  2  0  0  0
 45110  1  0  0  0
 46111  1  0  0  0
 47112  1  0  0  0
 47113  1  0  0  0
 48 56  1  0  0  0
 48 65  1  0  0  0
 48114  1  0  0  0
 49 50  1  0  0  0
 49 53  1  0  0  0
 49 64  1  0  0  0
 49115  1  0  0  0
 50 51  1  0  0  0
 50116  1  0  0  0
 50117  1  0  0  0
 51 52  1  0  0  0
 51118  1  0  0  0
 51119  1  0  0  0
 52120  1  0  0  0
 52121  1  0  0  0
 53 54  1  0  0  0
 54 55  2  0  0  0
 54122  1  0  0  0
 55 57  1  0  0  0
 55123  1  0  0  0
 56 69  2  0  0  0
 57 58  2  0  0  0
 57124  1  0  0  0
 58125  1  0  0  0
 59 60  1  0  0  0
 59 61  1  0  0  0
 59 62  1  0  0  0
 60126  1  0  0  0
 60127  1  0  0  0
 60128  1  0  0  0
 61129  1  0  0  0
 61130  1  0  0  0
 61131  1  0  0  0
 62132  1  0  0  0
 62133  1  0  0  0
 62134  1  0  0  0
 63 65  1  0  0  0
 63135  1  0  0  0
 63136  1  0  0  0
 63137  1  0  0  0
 64138  1  0  0  0
 65139  1  0  0  0
 68 78  1  0  0  0
 71 72  1  0  0  0
 71 76  1  0  0  0
 71 79  2  0  0  0
 72 80  1  0  0  0
 72140  1  0  0  0
 72141  1  0  0  0
 73 74  1  0  0  0
 73142  1  0  0  0
 73143  1  0  0  0
 73 76  1  0  0  0
 74 77  1  0  0  0
 74144  1  0  0  0
 74145  1  0  0  0
 75 76  1  0  0  0
 75 80  1  0  0  0
 75146  1  0  0  0
 75147  1  0  0  0
 76148  1  0  0  0
 77 78  1  0  0  0
 77 79  1  0  0  0
 77149  1  0  0  0
 78150  1  0  0  0
 78151  1  0  0  0
M  ISO  4   1 100  68 101  78 101  80 100
M  END
> <chiral flag>
0

> <version>
0

> <s_m_source_file>
/data/baiqing/PycharmProjects/Reinvent-master-3.2/result/LINK_invent/BTK/process_docking_weight1_custom_product_contain_oxygen_bond_distance_aromatic_linkinvent_7_9_3/rearranged_h_0153.sdf

> <i_m_source_file_index>
21

> <r_mmod_Potential_Energy-OPLS-2005>
1819.65112304688

> <r_mmod_Stretch_Energy-OPLS-2005>
728.024108886719

> <r_mmod_Bend_Energy-OPLS-2005>
546.881774902344

> <r_mmod_Torsional_Energy-OPLS-2005>
339.480895996094

> <r_mmod_Improper_Torsional_Energy-OPLS-2005>
9.49777603149414

> <r_mmod_Van_der_Waal_Energy-OPLS-2005>
110.310089111328

> <r_mmod_Electrostatic_Energy-OPLS-2005>
-333.281585693359

> <r_mmod_Solvation_Energy-OPLS-2005>
-215.675827026367

> <b_mmod_Minimization_Converged-OPLS-2005>
0

> <r_mmod_RMS_Derivative-OPLS-2005>
2.62244534492493

$$$$
21
                    3D
 Structure written by MMmdl.
157166  0  0  1  0            999 V2000
  -30.5994  -14.7384   20.4807 C   0  0  0  0  0  0
  -30.4447  -12.4544   19.4678 C   0  0  0  0  0  0
  -29.5149  -12.5220   18.2338 C   0  0  0  0  0  0
  -28.0422  -12.3360   18.6503 C   0  0  0  0  0  0
  -27.6480  -13.2256   19.8574 C   0  0  2  0  0  0
  -28.6939  -13.1359   20.9925 C   0  0  0  0  0  0
  -25.2542  -13.8179   20.5682 C   0  0  0  0  0  0
  -24.1815  -13.0446   20.9189 C   0  0  0  0  0  0
  -24.6393  -11.6916   20.8727 C   0  0  0  0  0  0
  -23.9074  -10.4292   21.0399 C   0  0  0  0  0  0
  -24.3618   -9.4201   21.9176 C   0  0  0  0  0  0
  -23.6286   -8.2240   22.0754 C   0  0  0  0  0  0
  -22.4266   -8.0269   21.3544 C   0  0  0  0  0  0
  -21.9896   -9.0257   20.4659 C   0  0  0  0  0  0
  -22.7241  -10.2128   20.3056 C   0  0  0  0  0  0
  -21.6850   -6.0720   22.5273 C   0  0  0  0  0  0
  -21.4029   -6.5638   23.8206 C   0  0  0  0  0  0
  -21.3661   -5.6785   24.9163 C   0  0  0  0  0  0
  -21.6042   -4.3047   24.7220 C   0  0  0  0  0  0
  -21.8825   -3.8143   23.4343 C   0  0  0  0  0  0
  -21.9198   -4.6957   22.3395 C   0  0  0  0  0  0
  -22.7840  -13.5244   21.1851 C   0  0  0  0  0  0
  -22.1667   -4.2151   21.0974 F   0  0  0  0  0  0
  -21.5623   -3.4535   25.7734 F   0  0  0  0  0  0
  -30.0001  -13.4971   20.4216 N   0  0  0  0  0  0
  -26.2961  -12.9372   20.3290 N   0  0  0  0  0  0
  -25.9312  -11.6526   20.5723 N   0  0  0  0  0  0
  -22.0480  -12.8237   22.0407 N   0  0  0  0  0  0
  -25.4278  -15.1889   20.4098 N   0  0  0  0  0  0
  -31.7704  -14.8780   20.1177 O   0  0  0  0  0  0
  -21.6640   -6.8853   21.4225 O   0  0  0  0  0  0
  -22.3543  -14.5560   20.6726 O   0  0  0  0  0  0
  -24.6288  -31.8560   23.1981 C   0  0  0  0  0  0
  -25.9117  -32.4761   23.8333 C   0  0  1  0  0  0
  -27.2379  -27.2845   20.1373 C   0  0  0  0  0  0
  -25.5909  -33.8562   24.2256 N   0  0  0  0  0  0
  -23.4260  -30.4734   21.5422 C   0  0  2  0  0  0
  -24.8785  -28.9170   20.1167 C   0  0  0  0  0  0
  -22.7484  -29.4599   22.4946 C   0  0  0  0  0  0
  -18.0282  -28.1392   22.8480 C   0  0  0  0  0  0
  -24.1485  -36.7281   23.2643 C   0  0  0  0  0  0
  -25.9688  -30.7756   21.3736 C   0  0  0  0  0  0
  -26.0480  -29.3971   20.7212 C   0  0  0  0  0  0
  -27.2335  -28.5961   20.7152 C   0  0  0  0  0  0
  -26.0474  -26.8607   19.5113 C   0  0  0  0  0  0
  -24.8821  -27.6547   19.5007 C   0  0  0  0  0  0
  -23.6459  -29.7996   20.1613 C   0  0  0  0  0  0
  -25.4112  -36.3069   24.0328 C   0  0  1  0  0  0
  -20.5884  -28.3695   23.1283 C   0  0  2  0  0  0
  -20.6778  -26.9418   22.5415 C   0  0  0  0  0  0
  -19.5752  -26.6390   21.5217 C   0  0  0  0  0  0
  -18.1929  -26.7931   22.1628 C   0  0  0  0  0  0
  -19.1540  -28.8861   23.2874 C   0  0  0  0  0  0
  -18.9459  -30.1464   23.8900 C   0  0  0  0  0  0
  -17.6465  -30.6598   24.0561 C   0  0  0  0  0  0
  -25.9042  -34.9443   23.5093 C   0  0  0  0  0  0
  -16.5351  -29.9091   23.6342 C   0  0  0  0  0  0
  -16.7272  -28.6505   23.0353 C   0  0  0  0  0  0
  -26.4499  -31.6581   25.0714 C   0  0  0  0  0  0
  -25.3721  -31.3745   26.1439 C   0  0  0  0  0  0
  -27.0348  -30.2996   24.6195 C   0  0  0  0  0  0
  -27.6047  -32.4335   25.7475 C   0  0  0  0  0  0
  -27.5571  -37.1800   24.8471 C   0  0  0  0  0  0
  -21.4194  -29.3032   22.3672 N   0  0  0  0  0  0
  -26.4292  -37.3764   23.9396 N   0  0  0  0  0  0
  -24.6928  -31.0539   22.0941 N   0  0  0  0  0  0
  -23.4188  -28.8151   23.3045 O   0  0  0  0  0  0
  -28.3474  -26.4140   20.1262 O   0  0  0  0  0  0
  -26.5633  -34.8919   22.4675 O   0  0  0  0  0  0
  -23.5443  -32.1373   23.7283 O   0  0  0  0  0  0
  -31.1142  -19.4566   20.3642 C   0  0  0  0  0  0
  -31.0590  -18.0221   20.3213 C   0  0  0  0  0  0
  -28.7930  -18.1327   21.0630 C   0  0  0  0  0  0
  -30.0315  -20.2922   20.7942 C   0  0  0  0  0  0
  -29.9013  -17.2946   20.7126 C   0  0  0  0  0  0
  -28.8446  -19.5716   21.1058 C   0  0  0  0  0  0
  -30.3190  -21.7437   21.2224 C   0  0  0  0  0  0
  -28.9820  -25.0982   22.0745 C   0  0  0  0  0  0
  -30.1878  -24.1698   21.8867 C   0  0  0  0  0  0
  -28.7237  -23.6651   20.1213 C   0  0  0  0  0  0
  -28.2070  -25.0622   20.7585 C   0  0  2  0  0  0
  -29.7366  -23.0207   21.0547 N   0  0  0  0  0  0
  -29.7787  -15.8114   20.7888 N   0  0  0  0  0  0
  -31.4326  -21.7801   21.9661 N   0  3  0  0  0  0
  -27.7551  -20.2492   21.5414 F   0  0  0  0  0  0
  -31.4845  -12.5921   19.1647 H   0  0  0  0  0  0
  -30.3992  -11.4676   19.9313 H   0  0  0  0  0  0
  -29.7940  -11.7589   17.5063 H   0  0  0  0  0  0
  -29.6401  -13.4835   17.7332 H   0  0  0  0  0  0
  -27.9032  -11.2848   18.9070 H   0  0  0  0  0  0
  -27.3839  -12.5337   17.8049 H   0  0  0  0  0  0
  -27.6503  -14.2514   19.4879 H   0  0  0  0  0  0
  -28.7242  -12.1291   21.4137 H   0  0  0  0  0  0
  -28.4250  -13.7918   21.8214 H   0  0  0  0  0  0
  -25.2741   -9.5701   22.4763 H   0  0  0  0  0  0
  -24.0010   -7.4632   22.7469 H   0  0  0  0  0  0
  -21.0824   -8.8771   19.8958 H   0  0  0  0  0  0
  -22.3679  -10.9668   19.6181 H   0  0  0  0  0  0
  -21.2036   -7.6143   23.9705 H   0  0  0  0  0  0
  -21.1476   -6.0513   25.9061 H   0  0  0  0  0  0
  -22.0609   -2.7610   23.2834 H   0  0  0  0  0  0
  -22.4096  -11.9906   22.4801 H   0  0  0  0  0  0
  -21.1113  -13.1287   22.2637 H   0  0  0  0  0  0
  -24.6542  -15.8373   20.5028 H   0  0  0  0  0  0
  -26.2596  -15.6181   20.0291 H   0  0  0  0  0  0
  -26.7179  -32.5430   23.1074 H   0  0  0  0  0  0
  -25.0034  -33.9695   25.0385 H   0  0  0  0  0  0
  -22.7210  -31.2938   21.3919 H   0  0  0  0  0  0
  -23.3735  -35.9630   23.3349 H   0  0  0  0  0  0
  -24.3557  -36.8862   22.2046 H   0  0  0  0  0  0
  -23.7265  -37.6508   23.6641 H   0  0  0  0  0  0
  -26.1012  -31.5366   20.6033 H   0  0  0  0  0  0
  -26.8475  -30.8297   22.0052 H   0  0  0  0  0  0
  -28.1330  -28.9655   21.1871 H   0  0  0  0  0  0
  -26.0159  -25.8923   19.0331 H   0  0  0  0  0  0
  -23.9875  -27.2782   19.0244 H   0  0  0  0  0  0
  -23.7645  -30.5713   19.3993 H   0  0  0  0  0  0
  -22.7667  -29.2261   19.8627 H   0  0  0  0  0  0
  -25.1298  -36.1918   25.0824 H   0  0  0  0  0  0
  -20.9962  -28.3269   24.1409 H   0  0  0  0  0  0
  -20.5686  -26.2300   23.3605 H   0  0  0  0  0  0
  -21.6642  -26.7450   22.1204 H   0  0  0  0  0  0
  -19.6910  -25.6299   21.1245 H   0  0  0  0  0  0
  -19.6683  -27.3203   20.6742 H   0  0  0  0  0  0
  -17.4190  -26.6666   21.4035 H   0  0  0  0  0  0
  -18.0331  -26.0081   22.9035 H   0  0  0  0  0  0
  -19.7934  -30.7278   24.2255 H   0  0  0  0  0  0
  -17.5018  -31.6269   24.5165 H   0  0  0  0  0  0
  -15.5355  -30.2989   23.7673 H   0  0  0  0  0  0
  -15.8665  -28.0831   22.7072 H   0  0  0  0  0  0
  -24.5849  -30.7155   25.7762 H   0  0  0  0  0  0
  -24.8972  -32.2930   26.4897 H   0  0  0  0  0  0
  -25.8026  -30.8875   27.0194 H   0  0  0  0  0  0
  -26.2934  -29.6734   24.1217 H   0  0  0  0  0  0
  -27.4029  -29.7274   25.4720 H   0  0  0  0  0  0
  -27.8810  -30.4278   23.9438 H   0  0  0  0  0  0
  -27.2639  -33.3628   26.2055 H   0  0  0  0  0  0
  -28.3838  -32.6919   25.0288 H   0  0  0  0  0  0
  -28.0735  -31.8468   26.5382 H   0  0  0  0  0  0
  -28.2621  -38.0069   24.7478 H   0  0  0  0  0  0
  -28.1038  -36.2595   24.6348 H   0  0  0  0  0  0
  -27.2282  -37.1516   25.8879 H   0  0  0  0  0  0
  -20.9386  -29.8727   21.6855 H   0  0  0  0  0  0
  -26.0172  -38.2847   24.1380 H   0  0  0  0  0  0
  -32.0616  -19.9225   20.1264 H   0  0  0  0  0  0
  -31.9487  -17.4828   20.0237 H   0  0  0  0  0  0
  -27.8655  -17.6678   21.3653 H   0  0  0  0  0  0
  -29.2949  -26.1088   22.3397 H   0  0  0  0  0  0
  -28.3657  -24.7253   22.8932 H   0  0  0  0  0  0
  -30.5523  -23.8856   22.8749 H   0  0  0  0  0  0
  -30.9973  -24.6938   21.3753 H   0  0  0  0  0  0
  -29.1960  -23.8454   19.1549 H   0  0  0  0  0  0
  -27.8855  -22.9919   19.9403 H   0  0  0  0  0  0
  -27.1541  -24.9208   21.0066 H   0  0  0  0  0  0
  -28.8665  -15.5021   21.0817 H   0  0  0  0  0  0
  -31.8754  -20.9106   22.2246 H   0  0  0  0  0  0
  -31.9328  -22.6351   22.1338 H   0  0  0  0  0  0
  1 25  1  0  0  0
  1 30  2  0  0  0
  1 83  1  0  0  0
  2  3  1  0  0  0
  2 25  1  0  0  0
  2 86  1  0  0  0
  2 87  1  0  0  0
  3  4  1  0  0  0
  3 88  1  0  0  0
  3 89  1  0  0  0
  4  5  1  0  0  0
  4 90  1  0  0  0
  4 91  1  0  0  0
  5  6  1  0  0  0
  5 26  1  0  0  0
  5 92  1  0  0  0
  6 25  1  0  0  0
  6 93  1  0  0  0
  6 94  1  0  0  0
  7  8  2  0  0  0
  7 26  1  0  0  0
  7 29  1  0  0  0
  8  9  1  0  0  0
  8 22  1  0  0  0
  9 10  1  0  0  0
  9 27  2  0  0  0
 10 11  2  0  0  0
 10 15  1  0  0  0
 11 12  1  0  0  0
 11 95  1  0  0  0
 12 13  2  0  0  0
 12 96  1  0  0  0
 13 14  1  0  0  0
 13 31  1  0  0  0
 14 15  2  0  0  0
 14 97  1  0  0  0
 15 98  1  0  0  0
 16 17  2  0  0  0
 16 21  1  0  0  0
 16 31  1  0  0  0
 17 18  1  0  0  0
 17 99  1  0  0  0
 18 19  2  0  0  0
 18100  1  0  0  0
 19 20  1  0  0  0
 19 24  1  0  0  0
 20 21  2  0  0  0
 20101  1  0  0  0
 21 23  1  0  0  0
 22 28  1  0  0  0
 22 32  2  0  0  0
 26 27  1  0  0  0
 28102  1  0  0  0
 28103  1  0  0  0
 29104  1  0  0  0
 29105  1  0  0  0
 33 34  1  0  0  0
 33 66  1  0  0  0
 33 70  2  0  0  0
 34 36  1  0  0  0
 34 59  1  0  0  0
 34106  1  0  0  0
 35 44  2  0  0  0
 35 45  1  0  0  0
 35 68  1  0  0  0
 36 56  1  0  0  0
 36107  1  0  0  0
 37 39  1  0  0  0
 37 47  1  0  0  0
 37 66  1  0  0  0
 37108  1  0  0  0
 38 43  2  0  0  0
 38 46  1  0  0  0
 38 47  1  0  0  0
 39 64  1  0  0  0
 39 67  2  0  0  0
 40 52  1  0  0  0
 40 53  2  0  0  0
 40 58  1  0  0  0
 41109  1  0  0  0
 41110  1  0  0  0
 41111  1  0  0  0
 41 48  1  0  0  0
 42 43  1  0  0  0
 42 66  1  0  0  0
 42112  1  0  0  0
 42113  1  0  0  0
 43 44  1  0  0  0
 44114  1  0  0  0
 45 46  2  0  0  0
 45115  1  0  0  0
 46116  1  0  0  0
 47117  1  0  0  0
 47118  1  0  0  0
 48 56  1  0  0  0
 48 65  1  0  0  0
 48119  1  0  0  0
 49 50  1  0  0  0
 49 53  1  0  0  0
 49 64  1  0  0  0
 49120  1  0  0  0
 50 51  1  0  0  0
 50121  1  0  0  0
 50122  1  0  0  0
 51 52  1  0  0  0
 51123  1  0  0  0
 51124  1  0  0  0
 52125  1  0  0  0
 52126  1  0  0  0
 53 54  1  0  0  0
 54 55  2  0  0  0
 54127  1  0  0  0
 55 57  1  0  0  0
 55128  1  0  0  0
 56 69  2  0  0  0
 57 58  2  0  0  0
 57129  1  0  0  0
 58130  1  0  0  0
 59 60  1  0  0  0
 59 61  1  0  0  0
 59 62  1  0  0  0
 60131  1  0  0  0
 60132  1  0  0  0
 60133  1  0  0  0
 61134  1  0  0  0
 61135  1  0  0  0
 61136  1  0  0  0
 62137  1  0  0  0
 62138  1  0  0  0
 62139  1  0  0  0
 63 65  1  0  0  0
 63140  1  0  0  0
 63141  1  0  0  0
 63142  1  0  0  0
 64143  1  0  0  0
 65144  1  0  0  0
 68 81  1  0  0  0
 71 72  2  0  0  0
 71 74  1  0  0  0
 71145  1  0  0  0
 72 75  1  0  0  0
 72146  1  0  0  0
 73 75  2  0  0  0
 73 76  1  0  0  0
 73147  1  0  0  0
 74 76  2  0  0  0
 74 77  1  0  0  0
 75 83  1  0  0  0
 76 85  1  0  0  0
 77 82  1  0  0  0
 77 84  2  0  0  0
 78 79  1  0  0  0
 78 81  1  0  0  0
 78148  1  0  0  0
 78149  1  0  0  0
 79 82  1  0  0  0
 79150  1  0  0  0
 79151  1  0  0  0
 80 81  1  0  0  0
 80 82  1  0  0  0
 80152  1  0  0  0
 80153  1  0  0  0
 81154  1  0  0  0
 83155  1  0  0  0
 84156  1  0  0  0
 84157  1  0  0  0
M  CHG  1  84   1
M  ISO  4   1 100  68 101  81 101  83 100
M  END
> <chiral flag>
0

> <version>
0

> <s_m_source_file>
/data/baiqing/PycharmProjects/Reinvent-master-3.2/result/LINK_invent/BTK/process_docking_weight1_custom_product_contain_oxygen_bond_distance_aromatic_linkinvent_7_9_3/rearranged_h_0153.sdf

> <i_m_source_file_index>
22

> <r_mmod_Potential_Energy-OPLS-2005>
168.794006347656

> <r_mmod_Stretch_Energy-OPLS-2005>
117.870422363281

> <r_mmod_Bend_Energy-OPLS-2005>
243.712295532227

> <r_mmod_Torsional_Energy-OPLS-2005>
325.846130371094

> <r_mmod_Improper_Torsional_Energy-OPLS-2005>
7.81663703918457

> <r_mmod_Van_der_Waal_Energy-OPLS-2005>
146.03125

> <r_mmod_Electrostatic_Energy-OPLS-2005>
-340.871673583984

> <r_mmod_Solvation_Energy-OPLS-2005>
-406.049499511719

> <b_mmod_Minimization_Converged-OPLS-2005>
0

> <r_mmod_RMS_Derivative-OPLS-2005>
3.00955390930176

$$$$
22
                    3D
 Structure written by MMmdl.
152161  0  0  1  0            999 V2000
  -30.6066  -14.7157   20.4617 C   0  0  0  0  0  0
  -30.4263  -12.4352   19.4605 C   0  0  0  0  0  0
  -29.4936  -12.4888   18.2292 C   0  0  0  0  0  0
  -28.0247  -12.3095   18.6561 C   0  0  0  0  0  0
  -27.6375  -13.2193   19.8506 C   0  0  2  0  0  0
  -28.6844  -13.1422   20.9843 C   0  0  0  0  0  0
  -25.2497  -13.8186   20.5701 C   0  0  0  0  0  0
  -24.1784  -13.0454   20.9233 C   0  0  0  0  0  0
  -24.6355  -11.6918   20.8773 C   0  0  0  0  0  0
  -23.9039  -10.4300   21.0421 C   0  0  0  0  0  0
  -24.3597   -9.4208   21.9195 C   0  0  0  0  0  0
  -23.6281   -8.2238   22.0754 C   0  0  0  0  0  0
  -22.4269   -8.0269   21.3534 C   0  0  0  0  0  0
  -21.9901   -9.0247   20.4645 C   0  0  0  0  0  0
  -22.7217  -10.2134   20.3066 C   0  0  0  0  0  0
  -21.6849   -6.0730   22.5276 C   0  0  0  0  0  0
  -21.4004   -6.5634   23.8207 C   0  0  0  0  0  0
  -21.3662   -5.6786   24.9170 C   0  0  0  0  0  0
  -21.6039   -4.3047   24.7220 C   0  0  0  0  0  0
  -21.8822   -3.8141   23.4342 C   0  0  0  0  0  0
  -21.9187   -4.6958   22.3396 C   0  0  0  0  0  0
  -22.7809  -13.5230   21.1886 C   0  0  0  0  0  0
  -22.1657   -4.2146   21.0971 F   0  0  0  0  0  0
  -21.5633   -3.4532   25.7737 F   0  0  0  0  0  0
  -29.9869  -13.4897   20.4023 N   0  0  0  0  0  0
  -26.2901  -12.9360   20.3301 N   0  0  0  0  0  0
  -25.9275  -11.6517   20.5786 N   0  0  0  0  0  0
  -22.0458  -12.8214   22.0441 N   0  0  0  0  0  0
  -25.4238  -15.1912   20.4084 N   0  0  0  0  0  0
  -31.7952  -14.8164   20.1418 O   0  0  0  0  0  0
  -21.6628   -6.8870   21.4233 O   0  0  0  0  0  0
  -22.3501  -14.5543   20.6745 O   0  0  0  0  0  0
  -24.6270  -31.8569   23.1958 C   0  0  0  0  0  0
  -25.9109  -32.4763   23.8279 C   0  0  1  0  0  0
  -27.2134  -27.2704   20.1332 C   0  0  0  0  0  0
  -25.5912  -33.8554   24.2221 N   0  0  0  0  0  0
  -23.4243  -30.4770   21.5411 C   0  0  2  0  0  0
  -24.8723  -28.9304   20.1085 C   0  0  0  0  0  0
  -22.7504  -29.4581   22.4924 C   0  0  0  0  0  0
  -18.0300  -28.1381   22.8454 C   0  0  0  0  0  0
  -24.1508  -36.7282   23.2642 C   0  0  0  0  0  0
  -25.9672  -30.7723   21.3753 C   0  0  0  0  0  0
  -26.0427  -29.3961   20.7189 C   0  0  0  0  0  0
  -27.2169  -28.5789   20.7232 C   0  0  0  0  0  0
  -26.0225  -26.8787   19.4787 C   0  0  0  0  0  0
  -24.8661  -27.6790   19.4776 C   0  0  0  0  0  0
  -23.6424  -29.8133   20.1572 C   0  0  0  0  0  0
  -25.4134  -36.3071   24.0333 C   0  0  1  0  0  0
  -20.5893  -28.3672   23.1272 C   0  0  2  0  0  0
  -20.6801  -26.9397   22.5409 C   0  0  0  0  0  0
  -19.5788  -26.6384   21.5202 C   0  0  0  0  0  0
  -18.1956  -26.7916   22.1605 C   0  0  0  0  0  0
  -19.1551  -28.8848   23.2845 C   0  0  0  0  0  0
  -18.9489  -30.1436   23.8877 C   0  0  0  0  0  0
  -17.6493  -30.6579   24.0558 C   0  0  0  0  0  0
  -25.9063  -34.9441   23.5084 C   0  0  0  0  0  0
  -16.5380  -29.9084   23.6337 C   0  0  0  0  0  0
  -16.7292  -28.6504   23.0344 C   0  0  0  0  0  0
  -26.4500  -31.6570   25.0646 C   0  0  0  0  0  0
  -25.3725  -31.3686   26.1364 C   0  0  0  0  0  0
  -27.0371  -30.3016   24.6067 C   0  0  0  0  0  0
  -27.6053  -32.4297   25.7434 C   0  0  0  0  0  0
  -27.5592  -37.1778   24.8466 C   0  0  0  0  0  0
  -21.4226  -29.3008   22.3672 N   0  0  0  0  0  0
  -26.4307  -37.3774   23.9413 N   0  0  0  0  0  0
  -24.6915  -31.0533   22.0939 N   0  0  0  0  0  0
  -23.4220  -28.8130   23.3024 O   0  0  0  0  0  0
  -28.2985  -26.3680   20.2225 O   0  0  0  0  0  0
  -26.5649  -34.8922   22.4659 O   0  0  0  0  0  0
  -23.5427  -32.1400   23.7263 O   0  0  0  0  0  0
  -31.2521  -19.2716   20.2588 C   0  0  0  0  0  0
  -31.2873  -17.8315   20.3389 C   0  0  0  0  0  0
  -30.0201  -19.8762   20.4092 C   0  0  0  0  0  0
  -30.0794  -17.2062   20.5634 C   0  0  0  0  0  0
  -30.3601  -23.6326   19.8823 C   0  0  0  0  0  0
  -30.8797  -22.1924   19.8673 C   0  0  0  0  0  0
  -28.5842  -22.1709   20.5314 C   0  0  0  0  0  0
  -29.0104  -23.7280   20.5777 C   0  0  2  0  0  0
  -28.0391  -24.8990   20.0280 C   0  0  0  0  0  0
  -29.8034  -21.3180   20.3385 N   0  0  0  0  0  0
  -29.8096  -15.8306   20.6786 N   0  0  0  0  0  0
  -30.9794  -24.5907   19.4119 O   0  0  0  0  0  0
  -28.8590  -18.5383   20.6829 S   0  0  0  0  0  0
  -31.4644  -12.5602   19.1487 H   0  0  0  0  0  0
  -30.3731  -11.4560   19.9396 H   0  0  0  0  0  0
  -29.7660  -11.7125   17.5122 H   0  0  0  0  0  0
  -29.6087  -13.4412   17.7098 H   0  0  0  0  0  0
  -27.8931  -11.2628   18.9358 H   0  0  0  0  0  0
  -27.3547  -12.4794   17.8123 H   0  0  0  0  0  0
  -27.6359  -14.2387   19.4639 H   0  0  0  0  0  0
  -28.7159  -12.1412   21.4161 H   0  0  0  0  0  0
  -28.4251  -13.8167   21.8017 H   0  0  0  0  0  0
  -25.2741   -9.5684   22.4772 H   0  0  0  0  0  0
  -23.9992   -7.4627   22.7469 H   0  0  0  0  0  0
  -21.0836   -8.8759   19.8944 H   0  0  0  0  0  0
  -22.3672  -10.9672   19.6180 H   0  0  0  0  0  0
  -21.1994   -7.6139   23.9707 H   0  0  0  0  0  0
  -21.1477   -6.0515   25.9071 H   0  0  0  0  0  0
  -22.0596   -2.7603   23.2840 H   0  0  0  0  0  0
  -22.4081  -11.9864   22.4803 H   0  0  0  0  0  0
  -21.1076  -13.1225   22.2671 H   0  0  0  0  0  0
  -24.6594  -15.8486   20.5199 H   0  0  0  0  0  0
  -26.2655  -15.6229   20.0516 H   0  0  0  0  0  0
  -26.7133  -32.5448   23.0982 H   0  0  0  0  0  0
  -25.0012  -33.9664   25.0332 H   0  0  0  0  0  0
  -22.7184  -31.2979   21.3943 H   0  0  0  0  0  0
  -23.3782  -35.9598   23.3296 H   0  0  0  0  0  0
  -24.3605  -36.8927   22.2055 H   0  0  0  0  0  0
  -23.7230  -37.6468   23.6683 H   0  0  0  0  0  0
  -26.1021  -31.5310   20.6037 H   0  0  0  0  0  0
  -26.8450  -30.8230   22.0069 H   0  0  0  0  0  0
  -28.1066  -28.9259   21.2297 H   0  0  0  0  0  0
  -25.9457  -25.9253   18.9786 H   0  0  0  0  0  0
  -23.9697  -27.3184   18.9925 H   0  0  0  0  0  0
  -23.7617  -30.5891   19.3988 H   0  0  0  0  0  0
  -22.7641  -29.2410   19.8571 H   0  0  0  0  0  0
  -25.1300  -36.1936   25.0824 H   0  0  0  0  0  0
  -20.9949  -28.3257   24.1412 H   0  0  0  0  0  0
  -20.5732  -26.2266   23.3603 H   0  0  0  0  0  0
  -21.6661  -26.7450   22.1185 H   0  0  0  0  0  0
  -19.6965  -25.6307   21.1214 H   0  0  0  0  0  0
  -19.6757  -27.3208   20.6741 H   0  0  0  0  0  0
  -17.4234  -26.6656   21.4003 H   0  0  0  0  0  0
  -18.0344  -26.0060   22.8996 H   0  0  0  0  0  0
  -19.7977  -30.7223   24.2271 H   0  0  0  0  0  0
  -17.5075  -31.6269   24.5141 H   0  0  0  0  0  0
  -15.5384  -30.2989   23.7687 H   0  0  0  0  0  0
  -15.8686  -28.0835   22.7069 H   0  0  0  0  0  0
  -24.5939  -30.6999   25.7673 H   0  0  0  0  0  0
  -24.8859  -32.2835   26.4744 H   0  0  0  0  0  0
  -25.8031  -30.8898   27.0162 H   0  0  0  0  0  0
  -26.2924  -29.6735   24.1155 H   0  0  0  0  0  0
  -27.4203  -29.7288   25.4516 H   0  0  0  0  0  0
  -27.8737  -30.4357   23.9203 H   0  0  0  0  0  0
  -27.2663  -33.3602   26.1996 H   0  0  0  0  0  0
  -28.3869  -32.6843   25.0261 H   0  0  0  0  0  0
  -28.0706  -31.8422   26.5358 H   0  0  0  0  0  0
  -28.2579  -38.0106   24.7549 H   0  0  0  0  0  0
  -28.1119  -36.2627   24.6261 H   0  0  0  0  0  0
  -27.2298  -37.1383   25.8866 H   0  0  0  0  0  0
  -20.9441  -29.8738   21.6869 H   0  0  0  0  0  0
  -26.0205  -38.2853   24.1445 H   0  0  0  0  0  0
  -32.1708  -19.8121   20.0840 H   0  0  0  0  0  0
  -32.2274  -17.3119   20.2222 H   0  0  0  0  0  0
  -31.7501  -22.1214   20.5203 H   0  0  0  0  0  0
  -31.1820  -21.9185   18.8561 H   0  0  0  0  0  0
  -27.8775  -21.9903   19.7187 H   0  0  0  0  0  0
  -28.0765  -21.8953   21.4565 H   0  0  0  0  0  0
  -29.2386  -23.9637   21.6175 H   0  0  0  0  0  0
  -27.0694  -24.6758   20.4759 H   0  0  0  0  0  0
  -27.9188  -24.7424   18.9552 H   0  0  0  0  0  0
  -28.8485  -15.6006   20.8824 H   0  0  0  0  0  0
  1 25  1  0  0  0
  1 30  2  0  0  0
  1 81  1  0  0  0
  2  3  1  0  0  0
  2 25  1  0  0  0
  2 84  1  0  0  0
  2 85  1  0  0  0
  3  4  1  0  0  0
  3 86  1  0  0  0
  3 87  1  0  0  0
  4  5  1  0  0  0
  4 88  1  0  0  0
  4 89  1  0  0  0
  5  6  1  0  0  0
  5 26  1  0  0  0
  5 90  1  0  0  0
  6 25  1  0  0  0
  6 91  1  0  0  0
  6 92  1  0  0  0
  7  8  2  0  0  0
  7 26  1  0  0  0
  7 29  1  0  0  0
  8  9  1  0  0  0
  8 22  1  0  0  0
  9 10  1  0  0  0
  9 27  2  0  0  0
 10 11  2  0  0  0
 10 15  1  0  0  0
 11 12  1  0  0  0
 11 93  1  0  0  0
 12 13  2  0  0  0
 12 94  1  0  0  0
 13 14  1  0  0  0
 13 31  1  0  0  0
 14 15  2  0  0  0
 14 95  1  0  0  0
 15 96  1  0  0  0
 16 17  2  0  0  0
 16 21  1  0  0  0
 16 31  1  0  0  0
 17 18  1  0  0  0
 17 97  1  0  0  0
 18 19  2  0  0  0
 18 98  1  0  0  0
 19 20  1  0  0  0
 19 24  1  0  0  0
 20 21  2  0  0  0
 20 99  1  0  0  0
 21 23  1  0  0  0
 22 28  1  0  0  0
 22 32  2  0  0  0
 26 27  1  0  0  0
 28100  1  0  0  0
 28101  1  0  0  0
 29102  1  0  0  0
 29103  1  0  0  0
 33 34  1  0  0  0
 33 66  1  0  0  0
 33 70  2  0  0  0
 34 36  1  0  0  0
 34 59  1  0  0  0
 34104  1  0  0  0
 35 44  2  0  0  0
 35 45  1  0  0  0
 35 68  1  0  0  0
 36 56  1  0  0  0
 36105  1  0  0  0
 37 39  1  0  0  0
 37 47  1  0  0  0
 37 66  1  0  0  0
 37106  1  0  0  0
 38 43  2  0  0  0
 38 46  1  0  0  0
 38 47  1  0  0  0
 39 64  1  0  0  0
 39 67  2  0  0  0
 40 52  1  0  0  0
 40 53  2  0  0  0
 40 58  1  0  0  0
 41107  1  0  0  0
 41108  1  0  0  0
 41109  1  0  0  0
 41 48  1  0  0  0
 42 43  1  0  0  0
 42 66  1  0  0  0
 42110  1  0  0  0
 42111  1  0  0  0
 43 44  1  0  0  0
 44112  1  0  0  0
 45 46  2  0  0  0
 45113  1  0  0  0
 46114  1  0  0  0
 47115  1  0  0  0
 47116  1  0  0  0
 48 56  1  0  0  0
 48 65  1  0  0  0
 48117  1  0  0  0
 49 50  1  0  0  0
 49 53  1  0  0  0
 49 64  1  0  0  0
 49118  1  0  0  0
 50 51  1  0  0  0
 50119  1  0  0  0
 50120  1  0  0  0
 51 52  1  0  0  0
 51121  1  0  0  0
 51122  1  0  0  0
 52123  1  0  0  0
 52124  1  0  0  0
 53 54  1  0  0  0
 54 55  2  0  0  0
 54125  1  0  0  0
 55 57  1  0  0  0
 55126  1  0  0  0
 56 69  2  0  0  0
 57 58  2  0  0  0
 57127  1  0  0  0
 58128  1  0  0  0
 59 60  1  0  0  0
 59 61  1  0  0  0
 59 62  1  0  0  0
 60129  1  0  0  0
 60130  1  0  0  0
 60131  1  0  0  0
 61132  1  0  0  0
 61133  1  0  0  0
 61134  1  0  0  0
 62135  1  0  0  0
 62136  1  0  0  0
 62137  1  0  0  0
 63 65  1  0  0  0
 63138  1  0  0  0
 63139  1  0  0  0
 63140  1  0  0  0
 64141  1  0  0  0
 65142  1  0  0  0
 68 79  1  0  0  0
 71 72  1  0  0  0
 71 73  2  0  0  0
 71143  1  0  0  0
 72 74  2  0  0  0
 72144  1  0  0  0
 73 80  1  0  0  0
 73 83  1  0  0  0
 74 81  1  0  0  0
 74 83  1  0  0  0
 75 76  1  0  0  0
 75 78  1  0  0  0
 75 82  2  0  0  0
 76 80  1  0  0  0
 76145  1  0  0  0
 76146  1  0  0  0
 77 78  1  0  0  0
 77 80  1  0  0  0
 77147  1  0  0  0
 77148  1  0  0  0
 78 79  1  0  0  0
 78149  1  0  0  0
 79150  1  0  0  0
 79151  1  0  0  0
 81152  1  0  0  0
M  ISO  4   1 100  68 101  79 101  81 100
M  END
> <chiral flag>
0

> <version>
0

> <s_m_source_file>
/data/baiqing/PycharmProjects/Reinvent-master-3.2/result/LINK_invent/BTK/process_docking_weight1_custom_product_contain_oxygen_bond_distance_aromatic_linkinvent_7_9_3/rearranged_h_0153.sdf

> <i_m_source_file_index>
23

> <r_mmod_Potential_Energy-OPLS-2005>
174.347137451172

> <r_mmod_Stretch_Energy-OPLS-2005>
105.85986328125

> <r_mmod_Bend_Energy-OPLS-2005>
206.821334838867

> <r_mmod_Torsional_Energy-OPLS-2005>
206.741012573242

> <r_mmod_Improper_Torsional_Energy-OPLS-2005>
5.01621770858765

> <r_mmod_Van_der_Waal_Energy-OPLS-2005>
121.967834472656

> <r_mmod_Electrostatic_Energy-OPLS-2005>
-305.647552490234

> <r_mmod_Solvation_Energy-OPLS-2005>
-245.948684692383

> <b_mmod_Minimization_Converged-OPLS-2005>
0

> <r_mmod_RMS_Derivative-OPLS-2005>
2.41292214393616

$$$$
23
                    3D
 Structure written by MMmdl.
156165  0  0  1  0            999 V2000
  -30.6137  -14.7954   20.4996 C   0  0  0  0  0  0
  -30.4397  -12.4982   19.4853 C   0  0  0  0  0  0
  -29.5114  -12.4973   18.2499 C   0  0  0  0  0  0
  -28.0467  -12.3021   18.6817 C   0  0  0  0  0  0
  -27.6380  -13.2320   19.8520 C   0  0  2  0  0  0
  -28.6851  -13.2181   20.9877 C   0  0  0  0  0  0
  -25.2567  -13.8206   20.5855 C   0  0  0  0  0  0
  -24.1809  -13.0462   20.9217 C   0  0  0  0  0  0
  -24.6375  -11.6941   20.8744 C   0  0  0  0  0  0
  -23.9067  -10.4332   21.0423 C   0  0  0  0  0  0
  -24.3617   -9.4264   21.9208 C   0  0  0  0  0  0
  -23.6292   -8.2295   22.0779 C   0  0  0  0  0  0
  -22.4296   -8.0313   21.3557 C   0  0  0  0  0  0
  -21.9930   -9.0299   20.4679 C   0  0  0  0  0  0
  -22.7242  -10.2179   20.3092 C   0  0  0  0  0  0
  -21.6871   -6.0758   22.5273 C   0  0  0  0  0  0
  -21.4016   -6.5664   23.8200 C   0  0  0  0  0  0
  -21.3659   -5.6814   24.9159 C   0  0  0  0  0  0
  -21.6047   -4.3082   24.7230 C   0  0  0  0  0  0
  -21.8803   -3.8179   23.4350 C   0  0  0  0  0  0
  -21.9188   -4.6980   22.3401 C   0  0  0  0  0  0
  -22.7861  -13.5271   21.1870 C   0  0  0  0  0  0
  -22.1662   -4.2175   21.0975 F   0  0  0  0  0  0
  -21.5632   -3.4562   25.7737 F   0  0  0  0  0  0
  -29.9784  -13.5758   20.3928 N   0  0  0  0  0  0
  -26.2945  -12.9386   20.3372 N   0  0  0  0  0  0
  -25.9317  -11.6529   20.5812 N   0  0  0  0  0  0
  -22.0482  -12.8276   22.0418 N   0  0  0  0  0  0
  -25.4452  -15.1946   20.4555 N   0  0  0  0  0  0
  -31.8198  -14.8753   20.2388 O   0  0  0  0  0  0
  -21.6656   -6.8916   21.4259 O   0  0  0  0  0  0
  -22.3571  -14.5592   20.6719 O   0  0  0  0  0  0
  -24.6350  -31.8523   23.1978 C   0  0  0  0  0  0
  -25.9152  -32.4733   23.8329 C   0  0  1  0  0  0
  -27.2136  -27.2309   20.1696 C   0  0  0  0  0  0
  -25.5963  -33.8551   24.2273 N   0  0  0  0  0  0
  -23.4343  -30.4754   21.5394 C   0  0  2  0  0  0
  -24.8842  -28.9149   20.1130 C   0  0  0  0  0  0
  -22.7541  -29.4597   22.4909 C   0  0  0  0  0  0
  -18.0307  -28.1366   22.8494 C   0  0  0  0  0  0
  -24.1490  -36.7265   23.2643 C   0  0  0  0  0  0
  -25.9830  -30.7603   21.3782 C   0  0  0  0  0  0
  -26.0554  -29.3791   20.7279 C   0  0  0  0  0  0
  -27.2278  -28.5525   20.7379 C   0  0  0  0  0  0
  -26.0292  -26.8509   19.5029 C   0  0  0  0  0  0
  -24.8785  -27.6621   19.4823 C   0  0  0  0  0  0
  -23.6548  -29.8032   20.1582 C   0  0  0  0  0  0
  -25.4098  -36.3058   24.0349 C   0  0  1  0  0  0
  -20.5908  -28.3719   23.1241 C   0  0  2  0  0  0
  -20.6824  -26.9416   22.5428 C   0  0  0  0  0  0
  -19.5802  -26.6336   21.5255 C   0  0  0  0  0  0
  -18.1977  -26.7901   22.1642 C   0  0  0  0  0  0
  -19.1551  -28.8858   23.2852 C   0  0  0  0  0  0
  -18.9464  -30.1463   23.8879 C   0  0  0  0  0  0
  -17.6441  -30.6566   24.0547 C   0  0  0  0  0  0
  -25.9060  -34.9441   23.5097 C   0  0  0  0  0  0
  -16.5351  -29.9036   23.6299 C   0  0  0  0  0  0
  -16.7300  -28.6471   23.0338 C   0  0  0  0  0  0
  -26.4502  -31.6572   25.0745 C   0  0  0  0  0  0
  -25.3749  -31.3742   26.1489 C   0  0  0  0  0  0
  -27.0381  -30.3006   24.6245 C   0  0  0  0  0  0
  -27.6069  -32.4344   25.7506 C   0  0  0  0  0  0
  -27.5572  -37.1778   24.8465 C   0  0  0  0  0  0
  -21.4248  -29.3069   22.3630 N   0  0  0  0  0  0
  -26.4270  -37.3766   23.9433 N   0  0  0  0  0  0
  -24.7029  -31.0490   22.0940 N   0  0  0  0  0  0
  -23.4223  -28.8158   23.3043 O   0  0  0  0  0  0
  -28.2844  -26.3037   20.2514 O   0  0  0  0  0  0
  -26.5619  -34.8925   22.4664 O   0  0  0  0  0  0
  -23.5496  -32.1358   23.7276 O   0  0  0  0  0  0
  -31.4438  -18.9459   22.3670 C   0  0  0  0  0  0
  -30.8043  -20.0745   21.8014 C   0  0  0  0  0  0
  -31.1445  -17.6263   21.9527 C   0  0  0  0  0  0
  -29.5115  -18.5505   20.4073 C   0  0  0  0  0  0
  -29.8266  -19.9276   20.7893 C   0  0  0  0  0  0
  -30.1690  -17.3658   20.9609 C   0  0  0  0  0  0
  -28.6722  -23.7078   19.7420 C   0  0  0  0  0  0
  -29.3625  -21.1943   20.0362 C   0  0  0  0  0  0
  -28.3787  -24.3580   21.9973 C   0  0  0  0  0  0
  -28.5969  -22.8092   21.9130 C   0  0  0  0  0  0
  -27.9902  -24.8473   20.5904 C   0  0  1  0  0  0
  -28.9326  -22.4533   20.5126 N   0  0  0  0  0  0
  -29.8342  -15.9476   20.6164 N   0  0  0  0  0  0
  -29.4583  -21.0491   18.7142 N   0  3  0  0  0  0
  -28.9199  -23.8141   18.5364 O   0  0  0  0  0  0
  -31.4771  -12.6361   19.1755 H   0  0  0  0  0  0
  -30.4092  -11.5341   19.9982 H   0  0  0  0  0  0
  -29.8056  -11.7090   17.5593 H   0  0  0  0  0  0
  -29.6047  -13.4413   17.7082 H   0  0  0  0  0  0
  -27.9400  -11.2646   18.9942 H   0  0  0  0  0  0
  -27.3773  -12.4337   17.8351 H   0  0  0  0  0  0
  -27.6126  -14.2390   19.4358 H   0  0  0  0  0  0
  -28.7382  -12.2381   21.4654 H   0  0  0  0  0  0
  -28.4131  -13.9282   21.7716 H   0  0  0  0  0  0
  -25.2759   -9.5755   22.4792 H   0  0  0  0  0  0
  -23.9994   -7.4718   22.7522 H   0  0  0  0  0  0
  -21.0864   -8.8845   19.9004 H   0  0  0  0  0  0
  -22.3699  -10.9732   19.6220 H   0  0  0  0  0  0
  -21.2006   -7.6179   23.9702 H   0  0  0  0  0  0
  -21.1490   -6.0567   25.9055 H   0  0  0  0  0  0
  -22.0575   -2.7645   23.2824 H   0  0  0  0  0  0
  -22.4017  -11.9856   22.4720 H   0  0  0  0  0  0
  -21.1136  -13.1405   22.2658 H   0  0  0  0  0  0
  -24.7123  -15.8709   20.6435 H   0  0  0  0  0  0
  -26.3483  -15.6280   20.3119 H   0  0  0  0  0  0
  -26.7225  -32.5408   23.1076 H   0  0  0  0  0  0
  -25.0156  -33.9675   25.0450 H   0  0  0  0  0  0
  -22.7326  -31.2975   21.3876 H   0  0  0  0  0  0
  -23.3770  -35.9579   23.3291 H   0  0  0  0  0  0
  -24.3590  -36.8887   22.2056 H   0  0  0  0  0  0
  -23.7217  -37.6463   23.6651 H   0  0  0  0  0  0
  -26.1272  -31.5119   20.6000 H   0  0  0  0  0  0
  -26.8603  -30.8155   22.0099 H   0  0  0  0  0  0
  -28.1246  -28.9013   21.2321 H   0  0  0  0  0  0
  -25.9736  -25.8954   19.0027 H   0  0  0  0  0  0
  -23.9854  -27.2979   18.9956 H   0  0  0  0  0  0
  -23.7892  -30.5755   19.4016 H   0  0  0  0  0  0
  -22.7710  -29.2409   19.8548 H   0  0  0  0  0  0
  -25.1271  -36.1896   25.0841 H   0  0  0  0  0  0
  -20.9989  -28.3329   24.1369 H   0  0  0  0  0  0
  -20.5788  -26.2345   23.3658 H   0  0  0  0  0  0
  -21.6689  -26.7488   22.1181 H   0  0  0  0  0  0
  -19.6946  -25.6230   21.1375 H   0  0  0  0  0  0
  -19.6724  -27.3055   20.6722 H   0  0  0  0  0  0
  -17.4255  -26.6654   21.4008 H   0  0  0  0  0  0
  -18.0322  -26.0040   22.9036 H   0  0  0  0  0  0
  -19.7922  -30.7293   24.2235 H   0  0  0  0  0  0
  -17.4974  -31.6255   24.5110 H   0  0  0  0  0  0
  -15.5342  -30.2915   23.7602 H   0  0  0  0  0  0
  -15.8724  -28.0768   22.7004 H   0  0  0  0  0  0
  -24.5877  -30.7128   25.7832 H   0  0  0  0  0  0
  -24.8999  -32.2940   26.4943 H   0  0  0  0  0  0
  -25.8093  -30.8893   27.0239 H   0  0  0  0  0  0
  -26.2987  -29.6746   24.1245 H   0  0  0  0  0  0
  -27.4043  -29.7275   25.4760 H   0  0  0  0  0  0
  -27.8850  -30.4298   23.9513 H   0  0  0  0  0  0
  -27.2628  -33.3606   26.2113 H   0  0  0  0  0  0
  -28.3831  -32.6974   25.0317 H   0  0  0  0  0  0
  -28.0777  -31.8475   26.5389 H   0  0  0  0  0  0
  -28.2580  -38.0086   24.7550 H   0  0  0  0  0  0
  -28.1083  -36.2640   24.6230 H   0  0  0  0  0  0
  -27.2328  -37.1350   25.8877 H   0  0  0  0  0  0
  -20.9433  -29.8757   21.6804 H   0  0  0  0  0  0
  -26.0154  -38.2847   24.1449 H   0  0  0  0  0  0
  -32.2026  -19.0960   23.1256 H   0  0  0  0  0  0
  -31.1286  -21.0573   22.1117 H   0  0  0  0  0  0
  -31.6688  -16.8131   22.4304 H   0  0  0  0  0  0
  -28.7752  -18.4091   19.6279 H   0  0  0  0  0  0
  -29.2891  -24.8479   22.3466 H   0  0  0  0  0  0
  -27.5926  -24.5956   22.7147 H   0  0  0  0  0  0
  -27.6799  -22.2884   22.1942 H   0  0  0  0  0  0
  -29.3650  -22.4882   22.6181 H   0  0  0  0  0  0
  -26.9229  -24.6517   20.4987 H   0  0  0  0  0  0
  -28.8512  -15.7764   20.4725 H   0  0  0  0  0  0
  -29.9121  -20.2353   18.3328 H   0  0  0  0  0  0
  -29.2676  -21.8413   18.1146 H   0  0  0  0  0  0
  1 25  1  0  0  0
  1 30  2  0  0  0
  1 83  1  0  0  0
  2  3  1  0  0  0
  2 25  1  0  0  0
  2 86  1  0  0  0
  2 87  1  0  0  0
  3  4  1  0  0  0
  3 88  1  0  0  0
  3 89  1  0  0  0
  4  5  1  0  0  0
  4 90  1  0  0  0
  4 91  1  0  0  0
  5  6  1  0  0  0
  5 26  1  0  0  0
  5 92  1  0  0  0
  6 25  1  0  0  0
  6 93  1  0  0  0
  6 94  1  0  0  0
  7  8  2  0  0  0
  7 26  1  0  0  0
  7 29  1  0  0  0
  8  9  1  0  0  0
  8 22  1  0  0  0
  9 10  1  0  0  0
  9 27  2  0  0  0
 10 11  2  0  0  0
 10 15  1  0  0  0
 11 12  1  0  0  0
 11 95  1  0  0  0
 12 13  2  0  0  0
 12 96  1  0  0  0
 13 14  1  0  0  0
 13 31  1  0  0  0
 14 15  2  0  0  0
 14 97  1  0  0  0
 15 98  1  0  0  0
 16 17  2  0  0  0
 16 21  1  0  0  0
 16 31  1  0  0  0
 17 18  1  0  0  0
 17 99  1  0  0  0
 18 19  2  0  0  0
 18100  1  0  0  0
 19 20  1  0  0  0
 19 24  1  0  0  0
 20 21  2  0  0  0
 20101  1  0  0  0
 21 23  1  0  0  0
 22 28  1  0  0  0
 22 32  2  0  0  0
 26 27  1  0  0  0
 28102  1  0  0  0
 28103  1  0  0  0
 29104  1  0  0  0
 29105  1  0  0  0
 33 34  1  0  0  0
 33 66  1  0  0  0
 33 70  2  0  0  0
 34 36  1  0  0  0
 34 59  1  0  0  0
 34106  1  0  0  0
 35 44  2  0  0  0
 35 45  1  0  0  0
 35 68  1  0  0  0
 36 56  1  0  0  0
 36107  1  0  0  0
 37 39  1  0  0  0
 37 47  1  0  0  0
 37 66  1  0  0  0
 37108  1  0  0  0
 38 43  2  0  0  0
 38 46  1  0  0  0
 38 47  1  0  0  0
 39 64  1  0  0  0
 39 67  2  0  0  0
 40 52  1  0  0  0
 40 53  2  0  0  0
 40 58  1  0  0  0
 41109  1  0  0  0
 41110  1  0  0  0
 41111  1  0  0  0
 41 48  1  0  0  0
 42 43  1  0  0  0
 42 66  1  0  0  0
 42112  1  0  0  0
 42113  1  0  0  0
 43 44  1  0  0  0
 44114  1  0  0  0
 45 46  2  0  0  0
 45115  1  0  0  0
 46116  1  0  0  0
 47117  1  0  0  0
 47118  1  0  0  0
 48 56  1  0  0  0
 48 65  1  0  0  0
 48119  1  0  0  0
 49 50  1  0  0  0
 49 53  1  0  0  0
 49 64  1  0  0  0
 49120  1  0  0  0
 50 51  1  0  0  0
 50121  1  0  0  0
 50122  1  0  0  0
 51 52  1  0  0  0
 51123  1  0  0  0
 51124  1  0  0  0
 52125  1  0  0  0
 52126  1  0  0  0
 53 54  1  0  0  0
 54 55  2  0  0  0
 54127  1  0  0  0
 55 57  1  0  0  0
 55128  1  0  0  0
 56 69  2  0  0  0
 57 58  2  0  0  0
 57129  1  0  0  0
 58130  1  0  0  0
 59 60  1  0  0  0
 59 61  1  0  0  0
 59 62  1  0  0  0
 60131  1  0  0  0
 60132  1  0  0  0
 60133  1  0  0  0
 61134  1  0  0  0
 61135  1  0  0  0
 61136  1  0  0  0
 62137  1  0  0  0
 62138  1  0  0  0
 62139  1  0  0  0
 63 65  1  0  0  0
 63140  1  0  0  0
 63141  1  0  0  0
 63142  1  0  0  0
 64143  1  0  0  0
 65144  1  0  0  0
 68 81  1  0  0  0
 71 72  2  0  0  0
 71 73  1  0  0  0
 71145  1  0  0  0
 72 75  1  0  0  0
 72146  1  0  0  0
 73 76  2  0  0  0
 73147  1  0  0  0
 74 75  2  0  0  0
 74 76  1  0  0  0
 74148  1  0  0  0
 75 78  1  0  0  0
 76 83  1  0  0  0
 77 81  1  0  0  0
 77 82  1  0  0  0
 77 85  2  0  0  0
 78 82  1  0  0  0
 78 84  2  0  0  0
 79 80  1  0  0  0
 79 81  1  0  0  0
 79149  1  0  0  0
 79150  1  0  0  0
 80 82  1  0  0  0
 80151  1  0  0  0
 80152  1  0  0  0
 81153  1  0  0  0
 83154  1  0  0  0
 84155  1  0  0  0
 84156  1  0  0  0
M  CHG  1  84   1
M  ISO  4   1 100  68 101  81 101  83 100
M  END
> <chiral flag>
0

> <version>
0

> <s_m_source_file>
/data/baiqing/PycharmProjects/Reinvent-master-3.2/result/LINK_invent/BTK/process_docking_weight1_custom_product_contain_oxygen_bond_distance_aromatic_linkinvent_7_9_3/rearranged_h_0153.sdf

> <i_m_source_file_index>
24

> <r_mmod_Potential_Energy-OPLS-2005>
56.2223243713379

> <r_mmod_Stretch_Energy-OPLS-2005>
137.56755065918

> <r_mmod_Bend_Energy-OPLS-2005>
201.648345947266

> <r_mmod_Torsional_Energy-OPLS-2005>
277.085113525391

> <r_mmod_Improper_Torsional_Energy-OPLS-2005>
8.85951519012451

> <r_mmod_Van_der_Waal_Energy-OPLS-2005>
138.309005737305

> <r_mmod_Electrostatic_Energy-OPLS-2005>
-397.961883544922

> <r_mmod_Solvation_Energy-OPLS-2005>
-424.128601074219

> <b_mmod_Minimization_Converged-OPLS-2005>
0

> <r_mmod_RMS_Derivative-OPLS-2005>
5.30117511749268

$$$$
24
                    3D
 Structure written by MMmdl.
162171  0  0  1  0            999 V2000
  -30.6227  -14.6190   20.5298 C   0  0  0  0  0  0
  -30.4461  -12.3856   19.4460 C   0  0  0  0  0  0
  -29.5126  -12.5230   18.2220 C   0  0  0  0  0  0
  -28.0335  -12.3615   18.6304 C   0  0  0  0  0  0
  -27.6600  -13.2158   19.8706 C   0  0  2  0  0  0
  -28.7042  -13.0344   20.9957 C   0  0  0  0  0  0
  -25.2575  -13.8167   20.5681 C   0  0  0  0  0  0
  -24.1831  -13.0439   20.9175 C   0  0  0  0  0  0
  -24.6396  -11.6904   20.8724 C   0  0  0  0  0  0
  -23.9060  -10.4290   21.0400 C   0  0  0  0  0  0
  -24.3603   -9.4208   21.9187 C   0  0  0  0  0  0
  -23.6281   -8.2241   22.0761 C   0  0  0  0  0  0
  -22.4265   -8.0278   21.3552 C   0  0  0  0  0  0
  -21.9900   -9.0250   20.4657 C   0  0  0  0  0  0
  -22.7227  -10.2128   20.3059 C   0  0  0  0  0  0
  -21.6855   -6.0735   22.5279 C   0  0  0  0  0  0
  -21.4013   -6.5634   23.8215 C   0  0  0  0  0  0
  -21.3661   -5.6785   24.9173 C   0  0  0  0  0  0
  -21.6040   -4.3049   24.7225 C   0  0  0  0  0  0
  -21.8813   -3.8146   23.4346 C   0  0  0  0  0  0
  -21.9191   -4.6964   22.3404 C   0  0  0  0  0  0
  -22.7848  -13.5245   21.1831 C   0  0  0  0  0  0
  -22.1660   -4.2151   21.0983 F   0  0  0  0  0  0
  -21.5632   -3.4531   25.7739 F   0  0  0  0  0  0
  -30.0265  -13.3870   20.4450 N   0  0  0  0  0  0
  -26.3023  -12.9351   20.3335 N   0  0  0  0  0  0
  -25.9329  -11.6505   20.5742 N   0  0  0  0  0  0
  -22.0470  -12.8256   22.0388 N   0  0  0  0  0  0
  -25.4286  -15.1891   20.4102 N   0  0  0  0  0  0
  -31.7538  -14.8306   20.0794 O   0  0  0  0  0  0
  -21.6632   -6.8872   21.4243 O   0  0  0  0  0  0
  -22.3530  -14.5548   20.6679 O   0  0  0  0  0  0
  -24.6226  -31.8613   23.2038 C   0  0  0  0  0  0
  -25.9072  -32.4795   23.8372 C   0  0  1  0  0  0
  -27.2338  -27.3479   20.1089 C   0  0  0  0  0  0
  -25.5897  -33.8594   24.2293 N   0  0  0  0  0  0
  -23.4161  -30.4852   21.5469 C   0  0  2  0  0  0
  -24.8651  -28.9432   20.1136 C   0  0  0  0  0  0
  -22.7466  -29.4615   22.4946 C   0  0  0  0  0  0
  -18.0275  -28.1399   22.8486 C   0  0  0  0  0  0
  -24.1479  -36.7303   23.2638 C   0  0  0  0  0  0
  -25.9555  -30.8014   21.3712 C   0  0  0  0  0  0
  -26.0322  -29.4305   20.7157 C   0  0  0  0  0  0
  -27.2189  -28.6428   20.7055 C   0  0  0  0  0  0
  -26.0407  -26.9049   19.4900 C   0  0  0  0  0  0
  -24.8696  -27.6842   19.4950 C   0  0  0  0  0  0
  -23.6313  -29.8190   20.1628 C   0  0  0  0  0  0
  -25.4109  -36.3092   24.0331 C   0  0  1  0  0  0
  -20.5880  -28.3687   23.1306 C   0  0  2  0  0  0
  -20.6769  -26.9414   22.5423 C   0  0  0  0  0  0
  -19.5744  -26.6399   21.5222 C   0  0  0  0  0  0
  -18.1922  -26.7942   22.1630 C   0  0  0  0  0  0
  -19.1534  -28.8864   23.2886 C   0  0  0  0  0  0
  -18.9449  -30.1466   23.8900 C   0  0  0  0  0  0
  -17.6455  -30.6599   24.0579 C   0  0  0  0  0  0
  -25.9035  -34.9458   23.5111 C   0  0  0  0  0  0
  -16.5347  -29.9101   23.6341 C   0  0  0  0  0  0
  -16.7269  -28.6521   23.0358 C   0  0  0  0  0  0
  -26.4461  -31.6607   25.0738 C   0  0  0  0  0  0
  -25.3694  -31.3771   26.1476 C   0  0  0  0  0  0
  -27.0305  -30.3029   24.6191 C   0  0  0  0  0  0
  -27.6023  -32.4343   25.7512 C   0  0  0  0  0  0
  -27.5584  -37.1814   24.8459 C   0  0  0  0  0  0
  -21.4180  -29.3037   22.3704 N   0  0  0  0  0  0
  -26.4292  -37.3789   23.9408 N   0  0  0  0  0  0
  -24.6836  -31.0663   22.0977 N   0  0  0  0  0  0
  -23.4204  -28.8144   23.3007 O   0  0  0  0  0  0
  -28.3716  -26.5302   20.1428 O   0  0  0  0  0  0
  -26.5623  -34.8914   22.4686 O   0  0  0  0  0  0
  -23.5391  -32.1395   23.7373 O   0  0  0  0  0  0
  -30.4909  -17.9546   20.2546 C   0  0  0  0  0  0
  -29.2531  -19.4057   21.6218 C   0  0  0  0  0  0
  -30.1512  -19.3387   20.5939 C   0  0  0  0  0  0
  -29.8461  -16.9874   21.0268 C   0  0  0  0  0  0
  -30.8213  -20.5470   19.9914 C   0  0  0  0  0  0
  -29.8472  -24.3753   21.8641 C   0  0  0  0  0  0
  -30.5309  -24.2671   19.3732 C   0  0  0  0  0  0
  -31.2398  -22.8973   19.2534 C   0  0  0  0  0  0
  -29.0993  -22.5531   20.2446 C   0  0  0  0  0  0
  -29.3947  -24.1049   20.4027 C   0  0  1  0  0  0
  -31.2495  -23.9675   22.3066 C   0  0  0  0  0  0
  -28.1772  -25.0708   20.0536 C   0  0  0  0  0  0
  -30.3803  -21.8676   19.8843 N   0  0  0  0  0  0
  -29.8329  -15.6037   21.0488 N   0  0  0  0  0  0
  -32.0527  -20.2892   19.5157 N   0  3  0  0  0  0
  -29.0777  -24.8598   22.6976 O   0  0  0  0  0  0
  -28.7788  -17.8106   22.1516 S   0  0  0  0  0  0
  -31.4879  -12.5167   19.1461 H   0  0  0  0  0  0
  -30.3810  -11.3829   19.8706 H   0  0  0  0  0  0
  -29.7741  -11.7857   17.4621 H   0  0  0  0  0  0
  -29.6567  -13.5021   17.7614 H   0  0  0  0  0  0
  -27.8584  -11.3062   18.8439 H   0  0  0  0  0  0
  -27.3826  -12.6143   17.7923 H   0  0  0  0  0  0
  -27.6899  -14.2584   19.5519 H   0  0  0  0  0  0
  -28.7097  -12.0003   21.3412 H   0  0  0  0  0  0
  -28.4442  -13.6303   21.8721 H   0  0  0  0  0  0
  -25.2746   -9.5683   22.4761 H   0  0  0  0  0  0
  -23.9997   -7.4628   22.7475 H   0  0  0  0  0  0
  -21.0834   -8.8755   19.8967 H   0  0  0  0  0  0
  -22.3683  -10.9653   19.6159 H   0  0  0  0  0  0
  -21.2000   -7.6141   23.9715 H   0  0  0  0  0  0
  -21.1496   -6.0520   25.9077 H   0  0  0  0  0  0
  -22.0595   -2.7613   23.2842 H   0  0  0  0  0  0
  -22.4062  -11.9926   22.4806 H   0  0  0  0  0  0
  -21.1093  -13.1300   22.2580 H   0  0  0  0  0  0
  -24.6595  -15.8431   20.5107 H   0  0  0  0  0  0
  -26.2834  -15.6289   20.0930 H   0  0  0  0  0  0
  -26.7152  -32.5496   23.1142 H   0  0  0  0  0  0
  -25.0032  -33.9746   25.0431 H   0  0  0  0  0  0
  -22.7067  -31.3038   21.4044 H   0  0  0  0  0  0
  -23.3733  -35.9644   23.3298 H   0  0  0  0  0  0
  -24.3562  -36.8929   22.2051 H   0  0  0  0  0  0
  -23.7230  -37.6505   23.6660 H   0  0  0  0  0  0
  -26.0857  -31.5625   20.5998 H   0  0  0  0  0  0
  -26.8355  -30.8515   22.0007 H   0  0  0  0  0  0
  -28.1139  -29.0138   21.1849 H   0  0  0  0  0  0
  -25.9871  -25.9465   18.9963 H   0  0  0  0  0  0
  -23.9732  -27.3069   19.0222 H   0  0  0  0  0  0
  -23.7485  -30.5936   19.4042 H   0  0  0  0  0  0
  -22.7520  -29.2464   19.8611 H   0  0  0  0  0  0
  -25.1279  -36.1956   25.0827 H   0  0  0  0  0  0
  -20.9983  -28.3255   24.1422 H   0  0  0  0  0  0
  -20.5696  -26.2279   23.3608 H   0  0  0  0  0  0
  -21.6638  -26.7461   22.1210 H   0  0  0  0  0  0
  -19.6906  -25.6310   21.1248 H   0  0  0  0  0  0
  -19.6701  -27.3216   20.6756 H   0  0  0  0  0  0
  -17.4203  -26.6695   21.4019 H   0  0  0  0  0  0
  -18.0311  -26.0083   22.9026 H   0  0  0  0  0  0
  -19.7923  -30.7287   24.2272 H   0  0  0  0  0  0
  -17.5009  -31.6278   24.5181 H   0  0  0  0  0  0
  -15.5352  -30.3020   23.7660 H   0  0  0  0  0  0
  -15.8656  -28.0854   22.7084 H   0  0  0  0  0  0
  -24.5837  -30.7149   25.7821 H   0  0  0  0  0  0
  -24.8923  -32.2961   26.4902 H   0  0  0  0  0  0
  -25.8017  -30.8951   27.0254 H   0  0  0  0  0  0
  -26.2897  -29.6803   24.1165 H   0  0  0  0  0  0
  -27.3941  -29.7260   25.4705 H   0  0  0  0  0  0
  -27.8781  -30.4307   23.9451 H   0  0  0  0  0  0
  -27.2627  -33.3637   26.2096 H   0  0  0  0  0  0
  -28.3839  -32.6928   25.0355 H   0  0  0  0  0  0
  -28.0680  -31.8469   26.5435 H   0  0  0  0  0  0
  -28.2600  -38.0115   24.7520 H   0  0  0  0  0  0
  -28.1081  -36.2651   24.6263 H   0  0  0  0  0  0
  -27.2303  -37.1436   25.8860 H   0  0  0  0  0  0
  -20.9351  -29.8760   21.6923 H   0  0  0  0  0  0
  -26.0163  -38.2860   24.1422 H   0  0  0  0  0  0
  -31.1984  -17.7182   19.4735 H   0  0  0  0  0  0
  -28.8496  -20.2695   22.1304 H   0  0  0  0  0  0
  -30.1339  -24.5550   18.3992 H   0  0  0  0  0  0
  -31.2310  -25.0551   19.6528 H   0  0  0  0  0  0
  -32.2056  -22.9261   19.7577 H   0  0  0  0  0  0
  -31.4220  -22.6515   18.2067 H   0  0  0  0  0  0
  -28.3808  -22.3791   19.4440 H   0  0  0  0  0  0
  -28.6715  -22.1454   21.1566 H   0  0  0  0  0  0
  -32.0112  -24.3933   21.6557 H   0  0  0  0  0  0
  -31.3494  -22.8833   22.3084 H   0  0  0  0  0  0
  -31.4440  -24.3230   23.3183 H   0  0  0  0  0  0
  -27.3301  -24.7919   20.6838 H   0  0  0  0  0  0
  -27.8712  -24.8412   19.0319 H   0  0  0  0  0  0
  -29.0171  -15.2184   21.5012 H   0  0  0  0  0  0
  -32.4454  -19.3663   19.6115 H   0  0  0  0  0  0
  -32.6189  -20.9951   19.0730 H   0  0  0  0  0  0
  1 25  1  0  0  0
  1 30  2  0  0  0
  1 84  1  0  0  0
  2  3  1  0  0  0
  2 25  1  0  0  0
  2 88  1  0  0  0
  2 89  1  0  0  0
  3  4  1  0  0  0
  3 90  1  0  0  0
  3 91  1  0  0  0
  4  5  1  0  0  0
  4 92  1  0  0  0
  4 93  1  0  0  0
  5  6  1  0  0  0
  5 26  1  0  0  0
  5 94  1  0  0  0
  6 25  1  0  0  0
  6 95  1  0  0  0
  6 96  1  0  0  0
  7  8  2  0  0  0
  7 26  1  0  0  0
  7 29  1  0  0  0
  8  9  1  0  0  0
  8 22  1  0  0  0
  9 10  1  0  0  0
  9 27  2  0  0  0
 10 11  2  0  0  0
 10 15  1  0  0  0
 11 12  1  0  0  0
 11 97  1  0  0  0
 12 13  2  0  0  0
 12 98  1  0  0  0
 13 14  1  0  0  0
 13 31  1  0  0  0
 14 15  2  0  0  0
 14 99  1  0  0  0
 15100  1  0  0  0
 16 17  2  0  0  0
 16 21  1  0  0  0
 16 31  1  0  0  0
 17 18  1  0  0  0
 17101  1  0  0  0
 18 19  2  0  0  0
 18102  1  0  0  0
 19 20  1  0  0  0
 19 24  1  0  0  0
 20 21  2  0  0  0
 20103  1  0  0  0
 21 23  1  0  0  0
 22 28  1  0  0  0
 22 32  2  0  0  0
 26 27  1  0  0  0
 28104  1  0  0  0
 28105  1  0  0  0
 29106  1  0  0  0
 29107  1  0  0  0
 33 34  1  0  0  0
 33 66  1  0  0  0
 33 70  2  0  0  0
 34 36  1  0  0  0
 34 59  1  0  0  0
 34108  1  0  0  0
 35 44  2  0  0  0
 35 45  1  0  0  0
 35 68  1  0  0  0
 36 56  1  0  0  0
 36109  1  0  0  0
 37 39  1  0  0  0
 37 47  1  0  0  0
 37 66  1  0  0  0
 37110  1  0  0  0
 38 43  2  0  0  0
 38 46  1  0  0  0
 38 47  1  0  0  0
 39 64  1  0  0  0
 39 67  2  0  0  0
 40 52  1  0  0  0
 40 53  2  0  0  0
 40 58  1  0  0  0
 41111  1  0  0  0
 41112  1  0  0  0
 41113  1  0  0  0
 41 48  1  0  0  0
 42 43  1  0  0  0
 42 66  1  0  0  0
 42114  1  0  0  0
 42115  1  0  0  0
 43 44  1  0  0  0
 44116  1  0  0  0
 45 46  2  0  0  0
 45117  1  0  0  0
 46118  1  0  0  0
 47119  1  0  0  0
 47120  1  0  0  0
 48 56  1  0  0  0
 48 65  1  0  0  0
 48121  1  0  0  0
 49 50  1  0  0  0
 49 53  1  0  0  0
 49 64  1  0  0  0
 49122  1  0  0  0
 50 51  1  0  0  0
 50123  1  0  0  0
 50124  1  0  0  0
 51 52  1  0  0  0
 51125  1  0  0  0
 51126  1  0  0  0
 52127  1  0  0  0
 52128  1  0  0  0
 53 54  1  0  0  0
 54 55  2  0  0  0
 54129  1  0  0  0
 55 57  1  0  0  0
 55130  1  0  0  0
 56 69  2  0  0  0
 57 58  2  0  0  0
 57131  1  0  0  0
 58132  1  0  0  0
 59 60  1  0  0  0
 59 61  1  0  0  0
 59 62  1  0  0  0
 60133  1  0  0  0
 60134  1  0  0  0
 60135  1  0  0  0
 61136  1  0  0  0
 61137  1  0  0  0
 61138  1  0  0  0
 62139  1  0  0  0
 62140  1  0  0  0
 62141  1  0  0  0
 63 65  1  0  0  0
 63142  1  0  0  0
 63143  1  0  0  0
 63144  1  0  0  0
 64145  1  0  0  0
 65146  1  0  0  0
 68 82  1  0  0  0
 71 73  1  0  0  0
 71 74  2  0  0  0
 71147  1  0  0  0
 72 73  2  0  0  0
 72 87  1  0  0  0
 72148  1  0  0  0
 73 75  1  0  0  0
 74 84  1  0  0  0
 74 87  1  0  0  0
 75 83  1  0  0  0
 75 85  2  0  0  0
 76 81  1  0  0  0
 76 86  2  0  0  0
 76 80  1  0  0  0
 77 78  1  0  0  0
 77 80  1  0  0  0
 77149  1  0  0  0
 77150  1  0  0  0
 78 83  1  0  0  0
 78151  1  0  0  0
 78152  1  0  0  0
 79 80  1  0  0  0
 79 83  1  0  0  0
 79153  1  0  0  0
 79154  1  0  0  0
 80 82  1  0  0  0
 81155  1  0  0  0
 81156  1  0  0  0
 81157  1  0  0  0
 82158  1  0  0  0
 82159  1  0  0  0
 84160  1  0  0  0
 85161  1  0  0  0
 85162  1  0  0  0
M  CHG  1  85   1
M  ISO  4   1 100  68 101  82 101  84 100
M  END
> <chiral flag>
0

> <version>
0

> <s_m_source_file>
/data/baiqing/PycharmProjects/Reinvent-master-3.2/result/LINK_invent/BTK/process_docking_weight1_custom_product_contain_oxygen_bond_distance_aromatic_linkinvent_7_9_3/rearranged_h_0153.sdf

> <i_m_source_file_index>
25

> <r_mmod_Potential_Energy-OPLS-2005>
-88.1277313232422

> <r_mmod_Stretch_Energy-OPLS-2005>
74.5800018310547

> <r_mmod_Bend_Energy-OPLS-2005>
185.994125366211

> <r_mmod_Torsional_Energy-OPLS-2005>
267.547882080078

> <r_mmod_Improper_Torsional_Energy-OPLS-2005>
3.81521701812744

> <r_mmod_Van_der_Waal_Energy-OPLS-2005>
134.533477783203

> <r_mmod_Electrostatic_Energy-OPLS-2005>
-303.340026855469

> <r_mmod_Solvation_Energy-OPLS-2005>
-489.862854003906

> <b_mmod_Minimization_Converged-OPLS-2005>
0

> <r_mmod_RMS_Derivative-OPLS-2005>
1.98686337471008

$$$$
25
                    3D
 Structure written by MMmdl.
155164  0  0  1  0            999 V2000
  -30.5956  -14.7392   20.4946 C   0  0  0  0  0  0
  -30.4435  -12.4560   19.4837 C   0  0  0  0  0  0
  -29.5187  -12.5170   18.2457 C   0  0  0  0  0  0
  -28.0435  -12.3418   18.6551 C   0  0  0  0  0  0
  -27.6495  -13.2298   19.8644 C   0  0  2  0  0  0
  -28.6901  -13.1305   21.0021 C   0  0  0  0  0  0
  -25.2539  -13.8198   20.5712 C   0  0  0  0  0  0
  -24.1817  -13.0438   20.9188 C   0  0  0  0  0  0
  -24.6411  -11.6918   20.8737 C   0  0  0  0  0  0
  -23.9084  -10.4297   21.0401 C   0  0  0  0  0  0
  -24.3648   -9.4213   21.9169 C   0  0  0  0  0  0
  -23.6328   -8.2254   22.0749 C   0  0  0  0  0  0
  -22.4308   -8.0293   21.3551 C   0  0  0  0  0  0
  -21.9944   -9.0256   20.4639 C   0  0  0  0  0  0
  -22.7264  -10.2136   20.3046 C   0  0  0  0  0  0
  -21.6849   -6.0756   22.5287 C   0  0  0  0  0  0
  -21.4001   -6.5657   23.8221 C   0  0  0  0  0  0
  -21.3656   -5.6799   24.9184 C   0  0  0  0  0  0
  -21.6053   -4.3068   24.7213 C   0  0  0  0  0  0
  -21.8814   -3.8159   23.4334 C   0  0  0  0  0  0
  -21.9196   -4.6986   22.3394 C   0  0  0  0  0  0
  -22.7839  -13.5224   21.1847 C   0  0  0  0  0  0
  -22.1674   -4.2176   21.0971 F   0  0  0  0  0  0
  -21.5647   -3.4545   25.7725 F   0  0  0  0  0  0
  -29.9976  -13.4983   20.4400 N   0  0  0  0  0  0
  -26.2973  -12.9402   20.3344 N   0  0  0  0  0  0
  -25.9347  -11.6540   20.5762 N   0  0  0  0  0  0
  -22.0486  -12.8205   22.0404 N   0  0  0  0  0  0
  -25.4217  -15.1918   20.4131 N   0  0  0  0  0  0
  -31.7513  -14.8789   20.0809 O   0  0  0  0  0  0
  -21.6665   -6.8896   21.4249 O   0  0  0  0  0  0
  -22.3511  -14.5537   20.6712 O   0  0  0  0  0  0
  -24.6322  -31.8543   23.1996 C   0  0  0  0  0  0
  -25.9148  -32.4745   23.8337 C   0  0  1  0  0  0
  -27.2138  -27.2498   20.1512 C   0  0  0  0  0  0
  -25.5960  -33.8555   24.2260 N   0  0  0  0  0  0
  -23.4274  -30.4771   21.5438 C   0  0  2  0  0  0
  -24.8763  -28.9279   20.1068 C   0  0  0  0  0  0
  -22.7501  -29.4598   22.4933 C   0  0  0  0  0  0
  -18.0283  -28.1393   22.8492 C   0  0  0  0  0  0
  -24.1488  -36.7267   23.2640 C   0  0  0  0  0  0
  -25.9733  -30.7688   21.3797 C   0  0  0  0  0  0
  -26.0464  -29.3901   20.7227 C   0  0  0  0  0  0
  -27.2167  -28.5635   20.7339 C   0  0  0  0  0  0
  -26.0288  -26.8729   19.4760 C   0  0  0  0  0  0
  -24.8748  -27.6793   19.4685 C   0  0  0  0  0  0
  -23.6456  -29.8132   20.1586 C   0  0  0  0  0  0
  -25.4118  -36.3066   24.0326 C   0  0  1  0  0  0
  -20.5882  -28.3706   23.1276 C   0  0  2  0  0  0
  -20.6773  -26.9428   22.5408 C   0  0  0  0  0  0
  -19.5748  -26.6388   21.5218 C   0  0  0  0  0  0
  -18.1924  -26.7941   22.1622 C   0  0  0  0  0  0
  -19.1533  -28.8870   23.2873 C   0  0  0  0  0  0
  -18.9467  -30.1480   23.8876 C   0  0  0  0  0  0
  -17.6469  -30.6600   24.0558 C   0  0  0  0  0  0
  -25.9068  -34.9434   23.5080 C   0  0  0  0  0  0
  -16.5358  -29.9090   23.6346 C   0  0  0  0  0  0
  -16.7275  -28.6509   23.0360 C   0  0  0  0  0  0
  -26.4525  -31.6574   25.0718 C   0  0  0  0  0  0
  -25.3762  -31.3709   26.1445 C   0  0  0  0  0  0
  -27.0381  -30.2990   24.6211 C   0  0  0  0  0  0
  -27.6085  -32.4315   25.7487 C   0  0  0  0  0  0
  -27.5581  -37.1792   24.8473 C   0  0  0  0  0  0
  -21.4214  -29.3034   22.3664 N   0  0  0  0  0  0
  -26.4287  -37.3769   23.9426 N   0  0  0  0  0  0
  -24.6962  -31.0513   22.0970 N   0  0  0  0  0  0
  -23.4201  -28.8147   23.3040 O   0  0  0  0  0  0
  -28.2915  -26.3349   20.2707 O   0  0  0  0  0  0
  -26.5621  -34.8904   22.4640 O   0  0  0  0  0  0
  -23.5476  -32.1381   23.7287 O   0  0  0  0  0  0
  -29.3957  -18.3313   21.2812 C   0  0  0  0  0  0
  -29.5756  -19.6246   20.5885 C   0  0  0  0  0  0
  -29.9030  -17.1954   20.6216 C   0  0  0  0  0  0
  -29.2824  -22.5028   23.0293 C   0  0  0  0  0  0
  -28.5640  -23.6509   22.2952 C   0  0  0  0  0  0
  -28.8903  -21.1153   22.4839 C   0  0  0  0  0  0
  -28.7229  -22.1459   20.2224 C   0  0  0  0  0  0
  -28.8934  -23.6654   20.7883 C   0  0  1  0  0  0
  -28.0565  -24.8572   20.0564 C   0  0  0  0  0  0
  -30.1661  -19.4903   19.4201 N   0  0  0  0  0  0
  -29.2125  -20.9745   21.0646 N   0  0  0  0  0  0
  -29.8393  -15.8202   20.9284 N   0  0  0  0  0  0
  -30.5808  -17.8568   19.1536 S   0  0  0  0  0  0
  -31.4843  -12.5900   19.1816 H   0  0  0  0  0  0
  -30.3975  -11.4714   19.9514 H   0  0  0  0  0  0
  -29.8000  -11.7440   17.5291 H   0  0  0  0  0  0
  -29.6494  -13.4729   17.7364 H   0  0  0  0  0  0
  -27.8962  -11.2898   18.9054 H   0  0  0  0  0  0
  -27.3885  -12.5468   17.8076 H   0  0  0  0  0  0
  -27.6558  -14.2589   19.5054 H   0  0  0  0  0  0
  -28.7204  -12.1174   21.4079 H   0  0  0  0  0  0
  -28.4157  -13.7773   21.8370 H   0  0  0  0  0  0
  -25.2805   -9.5694   22.4727 H   0  0  0  0  0  0
  -24.0034   -7.4636   22.7472 H   0  0  0  0  0  0
  -21.0891   -8.8772   19.8932 H   0  0  0  0  0  0
  -22.3733  -10.9681   19.6152 H   0  0  0  0  0  0
  -21.1981   -7.6163   23.9734 H   0  0  0  0  0  0
  -21.1491   -6.0530   25.9087 H   0  0  0  0  0  0
  -22.0595   -2.7621   23.2822 H   0  0  0  0  0  0
  -22.4158  -11.9878   22.4778 H   0  0  0  0  0  0
  -21.1089  -13.1173   22.2618 H   0  0  0  0  0  0
  -24.6531  -15.8432   20.5280 H   0  0  0  0  0  0
  -26.2712  -15.6357   20.0876 H   0  0  0  0  0  0
  -26.7215  -32.5392   23.1082 H   0  0  0  0  0  0
  -25.0160  -33.9704   25.0438 H   0  0  0  0  0  0
  -22.7245  -31.2996   21.3989 H   0  0  0  0  0  0
  -23.3765  -35.9582   23.3288 H   0  0  0  0  0  0
  -24.3575  -36.8903   22.2057 H   0  0  0  0  0  0
  -23.7226  -37.6451   23.6676 H   0  0  0  0  0  0
  -26.1102  -31.5316   20.6122 H   0  0  0  0  0  0
  -26.8511  -30.8165   22.0135 H   0  0  0  0  0  0
  -28.1068  -28.9074   21.2417 H   0  0  0  0  0  0
  -25.9593  -25.9263   18.9630 H   0  0  0  0  0  0
  -23.9818  -27.3272   18.9697 H   0  0  0  0  0  0
  -23.7681  -30.5903   19.4031 H   0  0  0  0  0  0
  -22.7640  -29.2470   19.8536 H   0  0  0  0  0  0
  -25.1302  -36.1894   25.0816 H   0  0  0  0  0  0
  -20.9963  -28.3282   24.1403 H   0  0  0  0  0  0
  -20.5694  -26.2320   23.3608 H   0  0  0  0  0  0
  -21.6642  -26.7463   22.1200 H   0  0  0  0  0  0
  -19.6907  -25.6297   21.1259 H   0  0  0  0  0  0
  -19.6677  -27.3187   20.6734 H   0  0  0  0  0  0
  -17.4198  -26.6706   21.4011 H   0  0  0  0  0  0
  -18.0306  -26.0076   22.9007 H   0  0  0  0  0  0
  -19.7938  -30.7304   24.2229 H   0  0  0  0  0  0
  -17.5012  -31.6271   24.5169 H   0  0  0  0  0  0
  -15.5354  -30.2976   23.7688 H   0  0  0  0  0  0
  -15.8674  -28.0819   22.7085 H   0  0  0  0  0  0
  -24.5931  -30.7064   25.7773 H   0  0  0  0  0  0
  -24.8959  -32.2863   26.4900 H   0  0  0  0  0  0
  -25.8081  -30.8864   27.0205 H   0  0  0  0  0  0
  -26.2960  -29.6713   24.1254 H   0  0  0  0  0  0
  -27.4091  -29.7278   25.4733 H   0  0  0  0  0  0
  -27.8828  -30.4279   23.9437 H   0  0  0  0  0  0
  -27.2717  -33.3640   26.2034 H   0  0  0  0  0  0
  -28.3906  -32.6832   25.0308 H   0  0  0  0  0  0
  -28.0741  -31.8450   26.5421 H   0  0  0  0  0  0
  -28.2594  -38.0097   24.7536 H   0  0  0  0  0  0
  -28.1080  -36.2624   24.6280 H   0  0  0  0  0  0
  -27.2293  -37.1425   25.8874 H   0  0  0  0  0  0
  -20.9418  -29.8743   21.6851 H   0  0  0  0  0  0
  -26.0152  -38.2834   24.1441 H   0  0  0  0  0  0
  -28.8964  -18.2854   22.2376 H   0  0  0  0  0  0
  -29.0376  -22.5515   24.0909 H   0  0  0  0  0  0
  -30.3646  -22.6374   22.9624 H   0  0  0  0  0  0
  -28.8417  -24.6064   22.7447 H   0  0  0  0  0  0
  -27.4871  -23.5455   22.4418 H   0  0  0  0  0  0
  -27.8257  -20.9326   22.6396 H   0  0  0  0  0  0
  -29.4219  -20.3592   23.0642 H   0  0  0  0  0  0
  -29.1921  -22.0881   19.2410 H   0  0  0  0  0  0
  -27.6607  -21.9739   20.0460 H   0  0  0  0  0  0
  -29.9501  -23.9132   20.6864 H   0  0  0  0  0  0
  -27.0187  -24.6364   20.3076 H   0  0  0  0  0  0
  -28.1344  -24.6971   18.9806 H   0  0  0  0  0  0
  -29.0102  -15.5408   21.4302 H   0  0  0  0  0  0
  1 25  1  0  0  0
  1 30  2  0  0  0
  1 82  1  0  0  0
  2  3  1  0  0  0
  2 25  1  0  0  0
  2 84  1  0  0  0
  2 85  1  0  0  0
  3  4  1  0  0  0
  3 86  1  0  0  0
  3 87  1  0  0  0
  4  5  1  0  0  0
  4 88  1  0  0  0
  4 89  1  0  0  0
  5  6  1  0  0  0
  5 26  1  0  0  0
  5 90  1  0  0  0
  6 25  1  0  0  0
  6 91  1  0  0  0
  6 92  1  0  0  0
  7  8  2  0  0  0
  7 26  1  0  0  0
  7 29  1  0  0  0
  8  9  1  0  0  0
  8 22  1  0  0  0
  9 10  1  0  0  0
  9 27  2  0  0  0
 10 11  2  0  0  0
 10 15  1  0  0  0
 11 12  1  0  0  0
 11 93  1  0  0  0
 12 13  2  0  0  0
 12 94  1  0  0  0
 13 14  1  0  0  0
 13 31  1  0  0  0
 14 15  2  0  0  0
 14 95  1  0  0  0
 15 96  1  0  0  0
 16 17  2  0  0  0
 16 21  1  0  0  0
 16 31  1  0  0  0
 17 18  1  0  0  0
 17 97  1  0  0  0
 18 19  2  0  0  0
 18 98  1  0  0  0
 19 20  1  0  0  0
 19 24  1  0  0  0
 20 21  2  0  0  0
 20 99  1  0  0  0
 21 23  1  0  0  0
 22 28  1  0  0  0
 22 32  2  0  0  0
 26 27  1  0  0  0
 28100  1  0  0  0
 28101  1  0  0  0
 29102  1  0  0  0
 29103  1  0  0  0
 33 34  1  0  0  0
 33 66  1  0  0  0
 33 70  2  0  0  0
 34 36  1  0  0  0
 34 59  1  0  0  0
 34104  1  0  0  0
 35 44  2  0  0  0
 35 45  1  0  0  0
 35 68  1  0  0  0
 36 56  1  0  0  0
 36105  1  0  0  0
 37 39  1  0  0  0
 37 47  1  0  0  0
 37 66  1  0  0  0
 37106  1  0  0  0
 38 43  2  0  0  0
 38 46  1  0  0  0
 38 47  1  0  0  0
 39 64  1  0  0  0
 39 67  2  0  0  0
 40 52  1  0  0  0
 40 53  2  0  0  0
 40 58  1  0  0  0
 41107  1  0  0  0
 41108  1  0  0  0
 41109  1  0  0  0
 41 48  1  0  0  0
 42 43  1  0  0  0
 42 66  1  0  0  0
 42110  1  0  0  0
 42111  1  0  0  0
 43 44  1  0  0  0
 44112  1  0  0  0
 45 46  2  0  0  0
 45113  1  0  0  0
 46114  1  0  0  0
 47115  1  0  0  0
 47116  1  0  0  0
 48 56  1  0  0  0
 48 65  1  0  0  0
 48117  1  0  0  0
 49 50  1  0  0  0
 49 53  1  0  0  0
 49 64  1  0  0  0
 49118  1  0  0  0
 50 51  1  0  0  0
 50119  1  0  0  0
 50120  1  0  0  0
 51 52  1  0  0  0
 51121  1  0  0  0
 51122  1  0  0  0
 52123  1  0  0  0
 52124  1  0  0  0
 53 54  1  0  0  0
 54 55  2  0  0  0
 54125  1  0  0  0
 55 57  1  0  0  0
 55126  1  0  0  0
 56 69  2  0  0  0
 57 58  2  0  0  0
 57127  1  0  0  0
 58128  1  0  0  0
 59 60  1  0  0  0
 59 61  1  0  0  0
 59 62  1  0  0  0
 60129  1  0  0  0
 60130  1  0  0  0
 60131  1  0  0  0
 61132  1  0  0  0
 61133  1  0  0  0
 61134  1  0  0  0
 62135  1  0  0  0
 62136  1  0  0  0
 62137  1  0  0  0
 63 65  1  0  0  0
 63138  1  0  0  0
 63139  1  0  0  0
 63140  1  0  0  0
 64141  1  0  0  0
 65142  1  0  0  0
 68 79  1  0  0  0
 71 72  1  0  0  0
 71 73  2  0  0  0
 71143  1  0  0  0
 72 80  2  0  0  0
 72 81  1  0  0  0
 73 82  1  0  0  0
 73 83  1  0  0  0
 74 75  1  0  0  0
 74 76  1  0  0  0
 74144  1  0  0  0
 74145  1  0  0  0
 75 78  1  0  0  0
 75146  1  0  0  0
 75147  1  0  0  0
 76 81  1  0  0  0
 76148  1  0  0  0
 76149  1  0  0  0
 77 78  1  0  0  0
 77 81  1  0  0  0
 77150  1  0  0  0
 77151  1  0  0  0
 78 79  1  0  0  0
 78152  1  0  0  0
 79153  1  0  0  0
 79154  1  0  0  0
 80 83  1  0  0  0
 82155  1  0  0  0
M  ISO  4   1 100  68 101  79 101  82 100
M  END
> <chiral flag>
0

> <version>
0

> <s_m_source_file>
/data/baiqing/PycharmProjects/Reinvent-master-3.2/result/LINK_invent/BTK/process_docking_weight1_custom_product_contain_oxygen_bond_distance_aromatic_linkinvent_7_9_3/rearranged_h_0153.sdf

> <i_m_source_file_index>
26

> <r_mmod_Potential_Energy-OPLS-2005>
128.408721923828

> <r_mmod_Stretch_Energy-OPLS-2005>
124.013137817383

> <r_mmod_Bend_Energy-OPLS-2005>
165.837966918945

> <r_mmod_Torsional_Energy-OPLS-2005>
249.786682128906

> <r_mmod_Improper_Torsional_Energy-OPLS-2005>
4.11197566986084

> <r_mmod_Van_der_Waal_Energy-OPLS-2005>
124.99193572998

> <r_mmod_Electrostatic_Energy-OPLS-2005>
-390.533447265625

> <r_mmod_Solvation_Energy-OPLS-2005>
-239.51611328125

> <b_mmod_Minimization_Converged-OPLS-2005>
0

> <r_mmod_RMS_Derivative-OPLS-2005>
2.36901640892029

$$$$
26
                    3D
 Structure written by MMmdl.
152161  0  0  1  0            999 V2000
  -30.6445  -14.8515   20.4432 C   0  0  0  0  0  0
  -30.4176  -12.5348   19.4853 C   0  0  0  0  0  0
  -29.5055  -12.5129   18.2417 C   0  0  0  0  0  0
  -28.0392  -12.3154   18.6643 C   0  0  0  0  0  0
  -27.6273  -13.2472   19.8354 C   0  0  2  0  0  0
  -28.6734  -13.2691   20.9706 C   0  0  0  0  0  0
  -25.2425  -13.8207   20.5694 C   0  0  0  0  0  0
  -24.1757  -13.0429   20.9237 C   0  0  0  0  0  0
  -24.6382  -11.6923   20.8768 C   0  0  0  0  0  0
  -23.9078  -10.4287   21.0416 C   0  0  0  0  0  0
  -24.3626   -9.4204   21.9191 C   0  0  0  0  0  0
  -23.6300   -8.2239   22.0754 C   0  0  0  0  0  0
  -22.4279   -8.0283   21.3545 C   0  0  0  0  0  0
  -21.9921   -9.0256   20.4641 C   0  0  0  0  0  0
  -22.7256  -10.2133   20.3058 C   0  0  0  0  0  0
  -21.6852   -6.0743   22.5282 C   0  0  0  0  0  0
  -21.4012   -6.5643   23.8217 C   0  0  0  0  0  0
  -21.3654   -5.6794   24.9176 C   0  0  0  0  0  0
  -21.6043   -4.3058   24.7225 C   0  0  0  0  0  0
  -21.8818   -3.8153   23.4344 C   0  0  0  0  0  0
  -21.9190   -4.6971   22.3402 C   0  0  0  0  0  0
  -22.7776  -13.5201   21.1892 C   0  0  0  0  0  0
  -22.1663   -4.2157   21.0980 F   0  0  0  0  0  0
  -21.5627   -3.4541   25.7734 F   0  0  0  0  0  0
  -29.9527  -13.6487   20.3597 N   0  0  0  0  0  0
  -26.2867  -12.9458   20.3248 N   0  0  0  0  0  0
  -25.9317  -11.6588   20.5756 N   0  0  0  0  0  0
  -22.0411  -12.8193   22.0437 N   0  0  0  0  0  0
  -25.4019  -15.1923   20.4061 N   0  0  0  0  0  0
  -31.8511  -14.8118   20.1780 O   0  0  0  0  0  0
  -21.6639   -6.8887   21.4243 O   0  0  0  0  0  0
  -22.3467  -14.5512   20.6733 O   0  0  0  0  0  0
  -24.6386  -31.8501   23.1931 C   0  0  0  0  0  0
  -25.9178  -32.4728   23.8299 C   0  0  1  0  0  0
  -27.2079  -27.1881   20.1426 C   0  0  0  0  0  0
  -25.5947  -33.8529   24.2223 N   0  0  0  0  0  0
  -23.4386  -30.4716   21.5389 C   0  0  2  0  0  0
  -24.8864  -28.9100   20.1097 C   0  0  0  0  0  0
  -22.7544  -29.4572   22.4889 C   0  0  0  0  0  0
  -18.0298  -28.1396   22.8482 C   0  0  0  0  0  0
  -24.1488  -36.7265   23.2639 C   0  0  0  0  0  0
  -25.9913  -30.7399   21.3844 C   0  0  0  0  0  0
  -26.0629  -29.3557   20.7272 C   0  0  0  0  0  0
  -27.2287  -28.5092   20.7300 C   0  0  0  0  0  0
  -26.0147  -26.8425   19.4720 C   0  0  0  0  0  0
  -24.8722  -27.6653   19.4663 C   0  0  0  0  0  0
  -23.6610  -29.8049   20.1562 C   0  0  0  0  0  0
  -25.4118  -36.3053   24.0323 C   0  0  1  0  0  0
  -20.5909  -28.3713   23.1252 C   0  0  2  0  0  0
  -20.6782  -26.9426   22.5402 C   0  0  0  0  0  0
  -19.5754  -26.6391   21.5212 C   0  0  0  0  0  0
  -18.1935  -26.7936   22.1623 C   0  0  0  0  0  0
  -19.1554  -28.8872   23.2859 C   0  0  0  0  0  0
  -18.9470  -30.1467   23.8882 C   0  0  0  0  0  0
  -17.6470  -30.6593   24.0563 C   0  0  0  0  0  0
  -25.9068  -34.9427   23.5080 C   0  0  0  0  0  0
  -16.5360  -29.9086   23.6339 C   0  0  0  0  0  0
  -16.7282  -28.6502   23.0362 C   0  0  0  0  0  0
  -26.4514  -31.6566   25.0713 C   0  0  0  0  0  0
  -25.3709  -31.3751   26.1419 C   0  0  0  0  0  0
  -27.0352  -30.2964   24.6245 C   0  0  0  0  0  0
  -27.6066  -32.4306   25.7491 C   0  0  0  0  0  0
  -27.5579  -37.1789   24.8459 C   0  0  0  0  0  0
  -21.4243  -29.3045   22.3632 N   0  0  0  0  0  0
  -26.4284  -37.3764   23.9415 N   0  0  0  0  0  0
  -24.7091  -31.0404   22.0944 N   0  0  0  0  0  0
  -23.4213  -28.8122   23.3017 O   0  0  0  0  0  0
  -28.2492  -26.2066   20.1925 O   0  0  0  0  0  0
  -26.5648  -34.8913   22.4654 O   0  0  0  0  0  0
  -23.5516  -32.1347   23.7185 O   0  0  0  0  0  0
  -29.8933  -20.1223   20.0477 C   0  0  0  0  0  0
  -29.8851  -18.6486   20.2353 C   0  0  0  0  0  0
  -28.8104  -18.1992   20.8867 C   0  0  0  0  0  0
  -28.7804  -20.8198   20.5693 C   0  0  0  0  0  0
  -28.7935  -23.4605   20.2689 C   0  0  0  0  0  0
  -30.7293  -17.3907   19.9233 C   0  0  0  0  0  0
  -28.7878  -16.6756   21.0835 C   0  0  0  0  0  0
  -27.7025  -24.8573   22.1544 C   0  0  0  0  0  0
  -27.8793  -24.7761   20.6281 C   0  0  1  0  0  0
  -30.0244  -16.1289   20.4259 N   0  0  0  0  0  0
  -28.3450  -22.1784   20.6292 N   0  0  0  0  0  0
  -29.8658  -23.6153   19.6789 O   0  0  0  0  0  0
  -27.7405  -19.5474   21.3048 S   0  0  0  0  0  0
  -31.4578  -12.6445   19.1745 H   0  0  0  0  0  0
  -30.3713  -11.5833   20.0173 H   0  0  0  0  0  0
  -29.8113  -11.7170   17.5613 H   0  0  0  0  0  0
  -29.6091  -13.4482   17.6889 H   0  0  0  0  0  0
  -27.9275  -11.2739   18.9679 H   0  0  0  0  0  0
  -27.3731  -12.4566   17.8124 H   0  0  0  0  0  0
  -27.5932  -14.2487   19.4070 H   0  0  0  0  0  0
  -28.7438  -12.2944   21.4562 H   0  0  0  0  0  0
  -28.3877  -13.9793   21.7466 H   0  0  0  0  0  0
  -25.2765   -9.5691   22.4778 H   0  0  0  0  0  0
  -24.0010   -7.4632   22.7476 H   0  0  0  0  0  0
  -21.0859   -8.8781   19.8942 H   0  0  0  0  0  0
  -22.3721  -10.9675   19.6174 H   0  0  0  0  0  0
  -21.2009   -7.6153   23.9723 H   0  0  0  0  0  0
  -21.1477   -6.0522   25.9082 H   0  0  0  0  0  0
  -22.0601   -2.7617   23.2835 H   0  0  0  0  0  0
  -22.4016  -11.9849   22.4833 H   0  0  0  0  0  0
  -21.1031  -13.1230   22.2634 H   0  0  0  0  0  0
  -24.6251  -15.8361   20.5111 H   0  0  0  0  0  0
  -26.2327  -15.6330   20.0352 H   0  0  0  0  0  0
  -26.7241  -32.5356   23.1030 H   0  0  0  0  0  0
  -25.0081  -33.9649   25.0362 H   0  0  0  0  0  0
  -22.7382  -31.2960   21.3905 H   0  0  0  0  0  0
  -23.3764  -35.9582   23.3278 H   0  0  0  0  0  0
  -24.3586  -36.8918   22.2059 H   0  0  0  0  0  0
  -23.7220  -37.6450   23.6681 H   0  0  0  0  0  0
  -26.1371  -31.4956   20.6112 H   0  0  0  0  0  0
  -26.8661  -30.7922   22.0207 H   0  0  0  0  0  0
  -28.1250  -28.8418   21.2342 H   0  0  0  0  0  0
  -25.9406  -25.9009   18.9493 H   0  0  0  0  0  0
  -23.9773  -27.3263   18.9623 H   0  0  0  0  0  0
  -23.7912  -30.5804   19.4005 H   0  0  0  0  0  0
  -22.7773  -29.2423   19.8496 H   0  0  0  0  0  0
  -25.1303  -36.1887   25.0815 H   0  0  0  0  0  0
  -20.9999  -28.3291   24.1377 H   0  0  0  0  0  0
  -20.5684  -26.2327   23.3612 H   0  0  0  0  0  0
  -21.6647  -26.7441   22.1200 H   0  0  0  0  0  0
  -19.6915  -25.6298   21.1250 H   0  0  0  0  0  0
  -19.6691  -27.3192   20.6735 H   0  0  0  0  0  0
  -17.4210  -26.6688   21.4020 H   0  0  0  0  0  0
  -18.0331  -26.0079   22.9020 H   0  0  0  0  0  0
  -19.7946  -30.7284   24.2247 H   0  0  0  0  0  0
  -17.5026  -31.6271   24.5166 H   0  0  0  0  0  0
  -15.5359  -30.2986   23.7669 H   0  0  0  0  0  0
  -15.8684  -28.0816   22.7092 H   0  0  0  0  0  0
  -24.5872  -30.7120   25.7735 H   0  0  0  0  0  0
  -24.8915  -32.2935   26.4814 H   0  0  0  0  0  0
  -25.7994  -30.8932   27.0214 H   0  0  0  0  0  0
  -26.2939  -29.6710   24.1255 H   0  0  0  0  0  0
  -27.3984  -29.7238   25.4787 H   0  0  0  0  0  0
  -27.8849  -30.4207   23.9528 H   0  0  0  0  0  0
  -27.2684  -33.3629   26.2022 H   0  0  0  0  0  0
  -28.3902  -32.6821   25.0334 H   0  0  0  0  0  0
  -28.0698  -31.8449   26.5441 H   0  0  0  0  0  0
  -28.2581  -38.0105   24.7535 H   0  0  0  0  0  0
  -28.1096  -36.2638   24.6247 H   0  0  0  0  0  0
  -27.2307  -37.1391   25.8864 H   0  0  0  0  0  0
  -20.9444  -29.8760   21.6819 H   0  0  0  0  0  0
  -26.0156  -38.2834   24.1431 H   0  0  0  0  0  0
  -30.7120  -20.6082   19.5353 H   0  0  0  0  0  0
  -31.7124  -17.4718   20.3896 H   0  0  0  0  0  0
  -30.8948  -17.2964   18.8488 H   0  0  0  0  0  0
  -27.9002  -16.2462   20.6268 H   0  0  0  0  0  0
  -28.7825  -16.4212   22.1441 H   0  0  0  0  0  0
  -27.4508  -23.8910   22.5919 H   0  0  0  0  0  0
  -26.9018  -25.5472   22.4214 H   0  0  0  0  0  0
  -28.6179  -25.2078   22.6307 H   0  0  0  0  0  0
  -26.9098  -24.5132   20.2111 H   0  0  0  0  0  0
  -27.4470  -22.2578   21.0881 H   0  0  0  0  0  0
  1 25  1  0  0  0
  1 30  2  0  0  0
  1 80  1  0  0  0
  2  3  1  0  0  0
  2 25  1  0  0  0
  2 84  1  0  0  0
  2 85  1  0  0  0
  3  4  1  0  0  0
  3 86  1  0  0  0
  3 87  1  0  0  0
  4  5  1  0  0  0
  4 88  1  0  0  0
  4 89  1  0  0  0
  5  6  1  0  0  0
  5 26  1  0  0  0
  5 90  1  0  0  0
  6 25  1  0  0  0
  6 91  1  0  0  0
  6 92  1  0  0  0
  7  8  2  0  0  0
  7 26  1  0  0  0
  7 29  1  0  0  0
  8  9  1  0  0  0
  8 22  1  0  0  0
  9 10  1  0  0  0
  9 27  2  0  0  0
 10 11  2  0  0  0
 10 15  1  0  0  0
 11 12  1  0  0  0
 11 93  1  0  0  0
 12 13  2  0  0  0
 12 94  1  0  0  0
 13 14  1  0  0  0
 13 31  1  0  0  0
 14 15  2  0  0  0
 14 95  1  0  0  0
 15 96  1  0  0  0
 16 17  2  0  0  0
 16 21  1  0  0  0
 16 31  1  0  0  0
 17 18  1  0  0  0
 17 97  1  0  0  0
 18 19  2  0  0  0
 18 98  1  0  0  0
 19 20  1  0  0  0
 19 24  1  0  0  0
 20 21  2  0  0  0
 20 99  1  0  0  0
 21 23  1  0  0  0
 22 28  1  0  0  0
 22 32  2  0  0  0
 26 27  1  0  0  0
 28100  1  0  0  0
 28101  1  0  0  0
 29102  1  0  0  0
 29103  1  0  0  0
 33 34  1  0  0  0
 33 66  1  0  0  0
 33 70  2  0  0  0
 34 36  1  0  0  0
 34 59  1  0  0  0
 34104  1  0  0  0
 35 44  2  0  0  0
 35 45  1  0  0  0
 35 68  1  0  0  0
 36 56  1  0  0  0
 36105  1  0  0  0
 37 39  1  0  0  0
 37 47  1  0  0  0
 37 66  1  0  0  0
 37106  1  0  0  0
 38 43  2  0  0  0
 38 46  1  0  0  0
 38 47  1  0  0  0
 39 64  1  0  0  0
 39 67  2  0  0  0
 40 52  1  0  0  0
 40 53  2  0  0  0
 40 58  1  0  0  0
 41107  1  0  0  0
 41108  1  0  0  0
 41109  1  0  0  0
 41 48  1  0  0  0
 42 43  1  0  0  0
 42 66  1  0  0  0
 42110  1  0  0  0
 42111  1  0  0  0
 43 44  1  0  0  0
 44112  1  0  0  0
 45 46  2  0  0  0
 45113  1  0  0  0
 46114  1  0  0  0
 47115  1  0  0  0
 47116  1  0  0  0
 48 56  1  0  0  0
 48 65  1  0  0  0
 48117  1  0  0  0
 49 50  1  0  0  0
 49 53  1  0  0  0
 49 64  1  0  0  0
 49118  1  0  0  0
 50 51  1  0  0  0
 50119  1  0  0  0
 50120  1  0  0  0
 51 52  1  0  0  0
 51121  1  0  0  0
 51122  1  0  0  0
 52123  1  0  0  0
 52124  1  0  0  0
 53 54  1  0  0  0
 54 55  2  0  0  0
 54125  1  0  0  0
 55 57  1  0  0  0
 55126  1  0  0  0
 56 69  2  0  0  0
 57 58  2  0  0  0
 57127  1  0  0  0
 58128  1  0  0  0
 59 60  1  0  0  0
 59 61  1  0  0  0
 59 62  1  0  0  0
 60129  1  0  0  0
 60130  1  0  0  0
 60131  1  0  0  0
 61132  1  0  0  0
 61133  1  0  0  0
 61134  1  0  0  0
 62135  1  0  0  0
 62136  1  0  0  0
 62137  1  0  0  0
 63 65  1  0  0  0
 63138  1  0  0  0
 63139  1  0  0  0
 63140  1  0  0  0
 64141  1  0  0  0
 65142  1  0  0  0
 68 79  1  0  0  0
 71 72  1  0  0  0
 71 74  2  0  0  0
 71143  1  0  0  0
 72 73  2  0  0  0
 72 76  1  0  0  0
 73 77  1  0  0  0
 73 83  1  0  0  0
 74 81  1  0  0  0
 74 83  1  0  0  0
 75 79  1  0  0  0
 75 81  1  0  0  0
 75 82  2  0  0  0
 76 80  1  0  0  0
 76144  1  0  0  0
 76145  1  0  0  0
 77 80  1  0  0  0
 77146  1  0  0  0
 77147  1  0  0  0
 78148  1  0  0  0
 78149  1  0  0  0
 78150  1  0  0  0
 78 79  1  0  0  0
 79151  1  0  0  0
 81152  1  0  0  0
M  ISO  4   1 100  68 101  79 101  80 100
M  END
> <chiral flag>
0

> <version>
0

> <s_m_source_file>
/data/baiqing/PycharmProjects/Reinvent-master-3.2/result/LINK_invent/BTK/process_docking_weight1_custom_product_contain_oxygen_bond_distance_aromatic_linkinvent_7_9_3/rearranged_h_0153.sdf

> <i_m_source_file_index>
27

> <r_mmod_Potential_Energy-OPLS-2005>
429.358520507812

> <r_mmod_Stretch_Energy-OPLS-2005>
171.014114379883

> <r_mmod_Bend_Energy-OPLS-2005>
304.940521240234

> <r_mmod_Torsional_Energy-OPLS-2005>
265.746551513672

> <r_mmod_Improper_Torsional_Energy-OPLS-2005>
11.2973318099976

> <r_mmod_Van_der_Waal_Energy-OPLS-2005>
109.147407531738

> <r_mmod_Electrostatic_Energy-OPLS-2005>
-341.321075439453

> <r_mmod_Solvation_Energy-OPLS-2005>
-235.37776184082

> <b_mmod_Minimization_Converged-OPLS-2005>
0

> <r_mmod_RMS_Derivative-OPLS-2005>
1.06882512569427

$$$$
27
                    3D
 Structure written by MMmdl.
148156  0  0  1  0            999 V2000
  -30.4117  -15.1227   20.3349 C   0  0  0  0  0  0
  -30.4474  -12.6898   19.4908 C   0  0  0  0  0  0
  -29.5239  -12.5393   18.2574 C   0  0  0  0  0  0
  -28.0643  -12.2964   18.6917 C   0  0  0  0  0  0
  -27.6235  -13.2472   19.8337 C   0  0  2  0  0  0
  -28.6734  -13.3299   20.9604 C   0  0  0  0  0  0
  -25.2521  -13.8245   20.5821 C   0  0  0  0  0  0
  -24.1794  -13.0467   20.9314 C   0  0  0  0  0  0
  -24.6436  -11.6952   20.8840 C   0  0  0  0  0  0
  -23.9122  -10.4311   21.0454 C   0  0  0  0  0  0
  -24.3657   -9.4207   21.9209 C   0  0  0  0  0  0
  -23.6318   -8.2230   22.0738 C   0  0  0  0  0  0
  -22.4291   -8.0301   21.3539 C   0  0  0  0  0  0
  -21.9985   -9.0290   20.4644 C   0  0  0  0  0  0
  -22.7336  -10.2166   20.3081 C   0  0  0  0  0  0
  -21.6861   -6.0773   22.5291 C   0  0  0  0  0  0
  -21.4015   -6.5649   23.8228 C   0  0  0  0  0  0
  -21.3636   -5.6808   24.9188 C   0  0  0  0  0  0
  -21.6024   -4.3067   24.7241 C   0  0  0  0  0  0
  -21.8807   -3.8169   23.4372 C   0  0  0  0  0  0
  -21.9197   -4.6991   22.3427 C   0  0  0  0  0  0
  -22.7822  -13.5264   21.1926 C   0  0  0  0  0  0
  -22.1655   -4.2168   21.1005 F   0  0  0  0  0  0
  -21.5625   -3.4550   25.7763 F   0  0  0  0  0  0
  -29.9032  -13.8103   20.3236 N   0  0  0  0  0  0
  -26.2887  -12.9432   20.3332 N   0  0  0  0  0  0
  -25.9347  -11.6572   20.5824 N   0  0  0  0  0  0
  -22.0427  -12.8188   22.0435 N   0  0  0  0  0  0
  -25.4355  -15.1940   20.4179 N   0  0  0  0  0  0
  -31.6359  -15.2032   20.1676 O   0  0  0  0  0  0
  -21.6636   -6.8901   21.4245 O   0  0  0  0  0  0
  -22.3497  -14.5542   20.6777 O   0  0  0  0  0  0
  -24.6490  -31.8394   23.1908 C   0  0  0  0  0  0
  -25.9212  -32.4679   23.8332 C   0  0  1  0  0  0
  -27.2044  -27.0506   20.1507 C   0  0  0  0  0  0
  -25.5880  -33.8470   24.2191 N   0  0  0  0  0  0
  -23.4597  -30.4646   21.5354 C   0  0  2  0  0  0
  -24.9093  -28.8879   20.1129 C   0  0  0  0  0  0
  -22.7578  -29.4555   22.4840 C   0  0  0  0  0  0
  -18.0282  -28.1457   22.8502 C   0  0  0  0  0  0
  -24.1424  -36.7159   23.2681 C   0  0  0  0  0  0
  -26.0287  -30.6927   21.4054 C   0  0  0  0  0  0
  -26.1013  -29.3033   20.7234 C   0  0  0  0  0  0
  -27.2530  -28.4082   20.7152 C   0  0  0  0  0  0
  -25.9828  -26.7680   19.5089 C   0  0  0  0  0  0
  -24.8668  -27.6297   19.4992 C   0  0  0  0  0  0
  -23.6921  -29.8028   20.1552 C   0  0  0  0  0  0
  -25.4055  -36.2947   24.0359 C   0  0  1  0  0  0
  -20.5918  -28.3708   23.1237 C   0  0  2  0  0  0
  -20.6713  -26.9385   22.5398 C   0  0  0  0  0  0
  -19.5685  -26.6400   21.5223 C   0  0  0  0  0  0
  -18.1876  -26.8003   22.1639 C   0  0  0  0  0  0
  -19.1561  -28.8892   23.2896 C   0  0  0  0  0  0
  -18.9478  -30.1505   23.8912 C   0  0  0  0  0  0
  -17.6467  -30.6642   24.0553 C   0  0  0  0  0  0
  -25.9020  -34.9361   23.5066 C   0  0  0  0  0  0
  -16.5365  -29.9116   23.6379 C   0  0  0  0  0  0
  -16.7286  -28.6560   23.0398 C   0  0  0  0  0  0
  -26.4568  -31.6595   25.0812 C   0  0  0  0  0  0
  -25.3739  -31.3652   26.1467 C   0  0  0  0  0  0
  -27.0503  -30.2975   24.6549 C   0  0  0  0  0  0
  -27.6111  -32.4451   25.7475 C   0  0  0  0  0  0
  -27.5530  -37.1667   24.8462 C   0  0  0  0  0  0
  -21.4255  -29.3031   22.3566 N   0  0  0  0  0  0
  -26.4180  -37.3692   23.9503 N   0  0  0  0  0  0
  -24.7323  -31.0216   22.0957 N   0  0  0  0  0  0
  -23.4185  -28.8122   23.3034 O   0  0  0  0  0  0
  -28.1848  -25.9520   20.2220 O   0  0  0  0  0  0
  -26.5648  -34.8890   22.4676 O   0  0  0  0  0  0
  -23.5589  -32.1299   23.7077 O   0  0  0  0  0  0
  -28.6126  -18.7741   19.9288 C   0  0  0  0  0  0
  -30.2371  -19.8731   20.9094 C   0  0  0  0  0  0
  -29.0357  -20.1778   20.3068 C   0  0  0  0  0  0
  -29.5611  -17.7539   20.3141 C   0  0  0  0  0  0
  -28.7518  -23.0087   20.3636 C   0  0  0  0  0  0
  -26.7317  -24.3420   21.4235 C   0  0  0  0  0  0
  -27.7432  -24.3975   20.2427 C   0  0  1  0  0  0
  -28.3655  -21.6126   20.1780 N   0  0  0  0  0  0
  -29.5192  -16.2767   20.2652 N   0  0  0  0  0  0
  -29.9293  -23.2281   20.6594 O   0  0  0  0  0  0
  -30.5620  -18.4909   20.9085 O   0  0  0  0  0  0
  -31.4754  -12.8768   19.1738 H   0  0  0  0  0  0
  -30.4799  -11.7571   20.0591 H   0  0  0  0  0  0
  -29.8656  -11.7242   17.6215 H   0  0  0  0  0  0
  -29.5767  -13.4426   17.6487 H   0  0  0  0  0  0
  -27.9945  -11.2643   19.0382 H   0  0  0  0  0  0
  -27.3864  -12.3820   17.8418 H   0  0  0  0  0  0
  -27.5672  -14.2355   19.3737 H   0  0  0  0  0  0
  -28.8209  -12.3613   21.4446 H   0  0  0  0  0  0
  -28.3658  -14.0259   21.7431 H   0  0  0  0  0  0
  -25.2802   -9.5633   22.4790 H   0  0  0  0  0  0
  -24.0042   -7.4595   22.7404 H   0  0  0  0  0  0
  -21.0953   -8.8852   19.8888 H   0  0  0  0  0  0
  -22.3863  -10.9726   19.6167 H   0  0  0  0  0  0
  -21.1979   -7.6162   23.9761 H   0  0  0  0  0  0
  -21.1453   -6.0519   25.9091 H   0  0  0  0  0  0
  -22.0594   -2.7637   23.2890 H   0  0  0  0  0  0
  -22.4066  -11.9893   22.4852 H   0  0  0  0  0  0
  -21.0965  -13.1091   22.2479 H   0  0  0  0  0  0
  -24.7014  -15.8832   20.5335 H   0  0  0  0  0  0
  -26.2970  -15.6004   20.0812 H   0  0  0  0  0  0
  -26.7290  -32.5307   23.1069 H   0  0  0  0  0  0
  -24.9810  -33.9610   25.0189 H   0  0  0  0  0  0
  -22.7677  -31.2940   21.3795 H   0  0  0  0  0  0
  -23.3735  -35.9420   23.3238 H   0  0  0  0  0  0
  -24.3514  -36.8885   22.2106 H   0  0  0  0  0  0
  -23.7103  -37.6288   23.6808 H   0  0  0  0  0  0
  -26.2252  -31.4739   20.6693 H   0  0  0  0  0  0
  -26.8785  -30.7110   22.0777 H   0  0  0  0  0  0
  -28.1609  -28.7288   21.2124 H   0  0  0  0  0  0
  -25.8417  -25.8017   19.0564 H   0  0  0  0  0  0
  -23.9494  -27.2808   19.0473 H   0  0  0  0  0  0
  -23.8292  -30.5881   19.4108 H   0  0  0  0  0  0
  -22.8030  -29.2508   19.8438 H   0  0  0  0  0  0
  -25.1236  -36.1679   25.0841 H   0  0  0  0  0  0
  -21.0112  -28.3248   24.1311 H   0  0  0  0  0  0
  -20.5526  -26.2304   23.3611 H   0  0  0  0  0  0
  -21.6585  -26.7295   22.1203 H   0  0  0  0  0  0
  -19.6775  -25.6300   21.1235 H   0  0  0  0  0  0
  -19.6659  -27.3224   20.6775 H   0  0  0  0  0  0
  -17.4119  -26.6831   21.4069 H   0  0  0  0  0  0
  -18.0232  -26.0199   22.9073 H   0  0  0  0  0  0
  -19.7944  -30.7344   24.2307 H   0  0  0  0  0  0
  -17.5001  -31.6356   24.5080 H   0  0  0  0  0  0
  -15.5355  -30.2994   23.7750 H   0  0  0  0  0  0
  -15.8680  -28.0874   22.7122 H   0  0  0  0  0  0
  -24.6037  -30.6927   25.7683 H   0  0  0  0  0  0
  -24.8816  -32.2722   26.4953 H   0  0  0  0  0  0
  -25.8038  -30.8751   27.0200 H   0  0  0  0  0  0
  -26.3201  -29.6620   24.1548 H   0  0  0  0  0  0
  -27.3970  -29.7399   25.5256 H   0  0  0  0  0  0
  -27.9149  -30.4162   24.0029 H   0  0  0  0  0  0
  -27.2813  -33.3910   26.1761 H   0  0  0  0  0  0
  -28.3946  -32.6746   25.0251 H   0  0  0  0  0  0
  -28.0740  -31.8771   26.5544 H   0  0  0  0  0  0
  -28.2387  -38.0112   24.7657 H   0  0  0  0  0  0
  -28.1170  -36.2641   24.6039 H   0  0  0  0  0  0
  -27.2303  -37.0963   25.8867 H   0  0  0  0  0  0
  -20.9428  -29.8691   21.6710 H   0  0  0  0  0  0
  -25.9996  -38.2689   24.1692 H   0  0  0  0  0  0
  -27.6874  -18.5416   19.4130 H   0  0  0  0  0  0
  -30.9619  -20.5028   21.4040 H   0  0  0  0  0  0
  -26.8189  -23.4279   22.0041 H   0  0  0  0  0  0
  -25.6887  -24.4162   21.1008 H   0  0  0  0  0  0
  -26.9039  -25.1521   22.1384 H   0  0  0  0  0  0
  -27.2319  -24.2166   19.2942 H   0  0  0  0  0  0
  -27.3899  -21.5529   19.9210 H   0  0  0  0  0  0
  -28.5758  -15.9369   20.1796 H   0  0  0  0  0  0
  1 25  1  0  0  0
  1 30  2  0  0  0
  1 79  1  0  0  0
  2  3  1  0  0  0
  2 25  1  0  0  0
  2 82  1  0  0  0
  2 83  1  0  0  0
  3  4  1  0  0  0
  3 84  1  0  0  0
  3 85  1  0  0  0
  4  5  1  0  0  0
  4 86  1  0  0  0
  4 87  1  0  0  0
  5  6  1  0  0  0
  5 26  1  0  0  0
  5 88  1  0  0  0
  6 25  1  0  0  0
  6 89  1  0  0  0
  6 90  1  0  0  0
  7  8  2  0  0  0
  7 26  1  0  0  0
  7 29  1  0  0  0
  8  9  1  0  0  0
  8 22  1  0  0  0
  9 10  1  0  0  0
  9 27  2  0  0  0
 10 11  2  0  0  0
 10 15  1  0  0  0
 11 12  1  0  0  0
 11 91  1  0  0  0
 12 13  2  0  0  0
 12 92  1  0  0  0
 13 14  1  0  0  0
 13 31  1  0  0  0
 14 15  2  0  0  0
 14 93  1  0  0  0
 15 94  1  0  0  0
 16 17  2  0  0  0
 16 21  1  0  0  0
 16 31  1  0  0  0
 17 18  1  0  0  0
 17 95  1  0  0  0
 18 19  2  0  0  0
 18 96  1  0  0  0
 19 20  1  0  0  0
 19 24  1  0  0  0
 20 21  2  0  0  0
 20 97  1  0  0  0
 21 23  1  0  0  0
 22 28  1  0  0  0
 22 32  2  0  0  0
 26 27  1  0  0  0
 28 98  1  0  0  0
 28 99  1  0  0  0
 29100  1  0  0  0
 29101  1  0  0  0
 33 34  1  0  0  0
 33 66  1  0  0  0
 33 70  2  0  0  0
 34 36  1  0  0  0
 34 59  1  0  0  0
 34102  1  0  0  0
 35 44  2  0  0  0
 35 45  1  0  0  0
 35 68  1  0  0  0
 36 56  1  0  0  0
 36103  1  0  0  0
 37 39  1  0  0  0
 37 47  1  0  0  0
 37 66  1  0  0  0
 37104  1  0  0  0
 38 43  2  0  0  0
 38 46  1  0  0  0
 38 47  1  0  0  0
 39 64  1  0  0  0
 39 67  2  0  0  0
 40 52  1  0  0  0
 40 53  2  0  0  0
 40 58  1  0  0  0
 41105  1  0  0  0
 41106  1  0  0  0
 41107  1  0  0  0
 41 48  1  0  0  0
 42 43  1  0  0  0
 42 66  1  0  0  0
 42108  1  0  0  0
 42109  1  0  0  0
 43 44  1  0  0  0
 44110  1  0  0  0
 45 46  2  0  0  0
 45111  1  0  0  0
 46112  1  0  0  0
 47113  1  0  0  0
 47114  1  0  0  0
 48 56  1  0  0  0
 48 65  1  0  0  0
 48115  1  0  0  0
 49 50  1  0  0  0
 49 53  1  0  0  0
 49 64  1  0  0  0
 49116  1  0  0  0
 50 51  1  0  0  0
 50117  1  0  0  0
 50118  1  0  0  0
 51 52  1  0  0  0
 51119  1  0  0  0
 51120  1  0  0  0
 52121  1  0  0  0
 52122  1  0  0  0
 53 54  1  0  0  0
 54 55  2  0  0  0
 54123  1  0  0  0
 55 57  1  0  0  0
 55124  1  0  0  0
 56 69  2  0  0  0
 57 58  2  0  0  0
 57125  1  0  0  0
 58126  1  0  0  0
 59 60  1  0  0  0
 59 61  1  0  0  0
 59 62  1  0  0  0
 60127  1  0  0  0
 60128  1  0  0  0
 60129  1  0  0  0
 61130  1  0  0  0
 61131  1  0  0  0
 61132  1  0  0  0
 62133  1  0  0  0
 62134  1  0  0  0
 62135  1  0  0  0
 63 65  1  0  0  0
 63136  1  0  0  0
 63137  1  0  0  0
 63138  1  0  0  0
 64139  1  0  0  0
 65140  1  0  0  0
 68 77  1  0  0  0
 71 73  1  0  0  0
 71 74  2  0  0  0
 71141  1  0  0  0
 72 73  2  0  0  0
 72 81  1  0  0  0
 72142  1  0  0  0
 73 78  1  0  0  0
 74 79  1  0  0  0
 74 81  1  0  0  0
 75 77  1  0  0  0
 75 78  1  0  0  0
 75 80  2  0  0  0
 76143  1  0  0  0
 76144  1  0  0  0
 76145  1  0  0  0
 76 77  1  0  0  0
 77146  1  0  0  0
 78147  1  0  0  0
 79148  1  0  0  0
M  ISO  4   1 100  68 101  77 101  79 100
M  END
> <chiral flag>
0

> <version>
0

> <s_m_source_file>
/data/baiqing/PycharmProjects/Reinvent-master-3.2/result/LINK_invent/BTK/process_docking_weight1_custom_product_contain_oxygen_bond_distance_aromatic_linkinvent_7_9_3/rearranged_h_0153.sdf

> <i_m_source_file_index>
28

> <r_mmod_Potential_Energy-OPLS-2005>
775.876953125

> <r_mmod_Stretch_Energy-OPLS-2005>
384.075286865234

> <r_mmod_Bend_Energy-OPLS-2005>
335.961730957031

> <r_mmod_Torsional_Energy-OPLS-2005>
234.851745605469

> <r_mmod_Improper_Torsional_Energy-OPLS-2005>
6.92880868911743

> <r_mmod_Van_der_Waal_Energy-OPLS-2005>
114.027191162109

> <r_mmod_Electrostatic_Energy-OPLS-2005>
-366.711273193359

> <r_mmod_Solvation_Energy-OPLS-2005>
-257.054504394531

> <b_mmod_Minimization_Converged-OPLS-2005>
0

> <r_mmod_RMS_Derivative-OPLS-2005>
8.23067283630371

$$$$
28
                    3D
 Structure written by MMmdl.
144152  0  0  1  0            999 V2000
  -30.1439  -16.1087   20.3316 C   0  0  0  0  0  0
  -30.3736  -13.4349   19.5757 C   0  0  0  0  0  0
  -29.5694  -12.7950   18.3935 C   0  0  0  0  0  0
  -28.1815  -12.3380   18.8446 C   0  0  0  0  0  0
  -27.5819  -13.3674   19.8203 C   0  0  2  0  0  0
  -28.5512  -13.8995   20.9206 C   0  0  0  0  0  0
  -25.2251  -13.8397   20.5869 C   0  0  0  0  0  0
  -24.1700  -13.0464   20.9293 C   0  0  0  0  0  0
  -24.6479  -11.6992   20.8738 C   0  0  0  0  0  0
  -23.9177  -10.4305   21.0362 C   0  0  0  0  0  0
  -24.3692   -9.4220   21.9151 C   0  0  0  0  0  0
  -23.6337   -8.2267   22.0738 C   0  0  0  0  0  0
  -22.4315   -8.0307   21.3536 C   0  0  0  0  0  0
  -21.9969   -9.0278   20.4620 C   0  0  0  0  0  0
  -22.7332  -10.2135   20.3020 C   0  0  0  0  0  0
  -21.6873   -6.0745   22.5271 C   0  0  0  0  0  0
  -21.4009   -6.5650   23.8215 C   0  0  0  0  0  0
  -21.3659   -5.6793   24.9169 C   0  0  0  0  0  0
  -21.6050   -4.3052   24.7220 C   0  0  0  0  0  0
  -21.8820   -3.8146   23.4341 C   0  0  0  0  0  0
  -21.9192   -4.6970   22.3403 C   0  0  0  0  0  0
  -22.7699  -13.5135   21.1935 C   0  0  0  0  0  0
  -22.1674   -4.2145   21.0976 F   0  0  0  0  0  0
  -21.5627   -3.4535   25.7738 F   0  0  0  0  0  0
  -29.6609  -14.6623   20.2544 N   0  0  0  0  0  0
  -26.2753  -12.9834   20.3322 N   0  0  0  0  0  0
  -25.9437  -11.6824   20.5640 N   0  0  0  0  0  0
  -22.0378  -12.8070   22.0472 N   0  0  0  0  0  0
  -25.3798  -15.2148   20.4368 N   0  0  0  0  0  0
  -31.3747  -15.9425   20.1348 O   0  0  0  0  0  0
  -21.6676   -6.8907   21.4249 O   0  0  0  0  0  0
  -22.3344  -14.5442   20.6801 O   0  0  0  0  0  0
  -24.7145  -31.7605   23.1234 C   0  0  0  0  0  0
  -25.9583  -32.4269   23.7898 C   0  0  1  0  0  0
  -27.2426  -26.3627   20.2606 C   0  0  0  0  0  0
  -25.6014  -33.8119   24.1764 N   0  0  0  0  0  0
  -23.5572  -30.3445   21.4855 C   0  0  2  0  0  0
  -25.0191  -28.6117   20.1270 C   0  0  0  0  0  0
  -22.7918  -29.4104   22.4605 C   0  0  0  0  0  0
  -18.0370  -28.1449   22.8442 C   0  0  0  0  0  0
  -24.1485  -36.7051   23.2663 C   0  0  0  0  0  0
  -26.1506  -30.3801   21.4379 C   0  0  0  0  0  0
  -26.2103  -28.9065   20.8008 C   0  0  0  0  0  0
  -27.2856  -27.8205   20.8270 C   0  0  0  0  0  0
  -26.0201  -26.3660   19.5087 C   0  0  0  0  0  0
  -24.9851  -27.3714   19.4561 C   0  0  0  0  0  0
  -23.8281  -29.6066   20.1343 C   0  0  0  0  0  0
  -25.4145  -36.2786   24.0260 C   0  0  1  0  0  0
  -20.6025  -28.3841   23.1060 C   0  0  2  0  0  0
  -20.6811  -26.9456   22.5415 C   0  0  0  0  0  0
  -19.5792  -26.6345   21.5238 C   0  0  0  0  0  0
  -18.1975  -26.7967   22.1610 C   0  0  0  0  0  0
  -19.1643  -28.8986   23.2734 C   0  0  0  0  0  0
  -18.9545  -30.1543   23.8799 C   0  0  0  0  0  0
  -17.6523  -30.6640   24.0555 C   0  0  0  0  0  0
  -25.9133  -34.9188   23.4881 C   0  0  0  0  0  0
  -16.5418  -29.9110   23.6369 C   0  0  0  0  0  0
  -16.7350  -28.6534   23.0394 C   0  0  0  0  0  0
  -26.4652  -31.6455   25.0665 C   0  0  0  0  0  0
  -25.3620  -31.3866   26.1203 C   0  0  0  0  0  0
  -27.0652  -30.2762   24.6789 C   0  0  0  0  0  0
  -27.6015  -32.4404   25.7526 C   0  0  0  0  0  0
  -27.5537  -37.1681   24.8487 C   0  0  0  0  0  0
  -21.4530  -29.3013   22.3352 N   0  0  0  0  0  0
  -26.4242  -37.3577   23.9422 N   0  0  0  0  0  0
  -24.8361  -30.8675   22.0675 N   0  0  0  0  0  0
  -23.4211  -28.7762   23.3114 O   0  0  0  0  0  0
  -28.1621  -24.9962   20.3856 O   0  0  0  0  0  0
  -26.5835  -34.8853   22.4533 O   0  0  0  0  0  0
  -23.6077  -32.0863   23.5922 O   0  0  0  0  0  0
  -28.0527  -19.9304   21.3451 C   0  0  0  0  0  0
  -28.6291  -18.3267   21.4954 C   0  0  0  0  0  0
  -29.5549  -19.3595   19.8345 C   0  0  0  0  0  0
  -28.8944  -21.0737   20.5473 C   0  0  1  0  0  0
  -28.1906  -23.0756   20.1043 C   0  0  0  0  0  0
  -29.4535  -17.6467   20.3832 N   0  0  0  0  0  0
  -31.3356  -13.7405   19.1699 H   0  0  0  0  0  0
  -30.6320  -12.6752   20.3134 H   0  0  0  0  0  0
  -30.1207  -11.9590   17.9618 H   0  0  0  0  0  0
  -29.4666  -13.5304   17.5974 H   0  0  0  0  0  0
  -28.2895  -11.3805   19.3538 H   0  0  0  0  0  0
  -27.5253  -12.1696   17.9905 H   0  0  0  0  0  0
  -27.3890  -14.2271   19.1785 H   0  0  0  0  0  0
  -28.8997  -13.1057   21.5841 H   0  0  0  0  0  0
  -28.0156  -14.6031   21.5625 H   0  0  0  0  0  0
  -25.2816   -9.5698   22.4749 H   0  0  0  0  0  0
  -24.0015   -7.4675   22.7485 H   0  0  0  0  0  0
  -21.0877   -8.8814   19.8939 H   0  0  0  0  0  0
  -22.3781  -10.9679   19.6135 H   0  0  0  0  0  0
  -21.2005   -7.6158   23.9710 H   0  0  0  0  0  0
  -21.1480   -6.0526   25.9073 H   0  0  0  0  0  0
  -22.0595   -2.7600   23.2848 H   0  0  0  0  0  0
  -22.4035  -11.9755   22.4869 H   0  0  0  0  0  0
  -21.0984  -13.1036   22.2713 H   0  0  0  0  0  0
  -24.6099  -15.8636   20.5629 H   0  0  0  0  0  0
  -26.2360  -15.6648   20.1398 H   0  0  0  0  0  0
  -26.7703  -32.4643   23.0626 H   0  0  0  0  0  0
  -25.0096  -33.9122   24.9880 H   0  0  0  0  0  0
  -22.9047  -31.1927   21.2608 H   0  0  0  0  0  0
  -23.3786  -35.9338   23.3222 H   0  0  0  0  0  0
  -24.3558  -36.8832   22.2106 H   0  0  0  0  0  0
  -23.7182  -37.6153   23.6825 H   0  0  0  0  0  0
  -26.3851  -31.0751   20.6294 H   0  0  0  0  0  0
  -26.9931  -30.4673   22.1141 H   0  0  0  0  0  0
  -28.1715  -28.0614   21.3996 H   0  0  0  0  0  0
  -25.8014  -25.4500   18.9776 H   0  0  0  0  0  0
  -24.0975  -27.1336   18.8852 H   0  0  0  0  0  0
  -24.0261  -30.3524   19.3611 H   0  0  0  0  0  0
  -22.9277  -29.0859   19.8006 H   0  0  0  0  0  0
  -25.1353  -36.1502   25.0733 H   0  0  0  0  0  0
  -21.0112  -28.3492   24.1182 H   0  0  0  0  0  0
  -20.5643  -26.2468   23.3714 H   0  0  0  0  0  0
  -21.6663  -26.7351   22.1242 H   0  0  0  0  0  0
  -19.6951  -25.6237   21.1325 H   0  0  0  0  0  0
  -19.6707  -27.3136   20.6772 H   0  0  0  0  0  0
  -17.4208  -26.6733   21.4033 H   0  0  0  0  0  0
  -18.0355  -26.0144   22.9041 H   0  0  0  0  0  0
  -19.8036  -30.7379   24.2108 H   0  0  0  0  0  0
  -17.5095  -31.6313   24.5174 H   0  0  0  0  0  0
  -15.5421  -30.2990   23.7749 H   0  0  0  0  0  0
  -15.8751  -28.0819   22.7181 H   0  0  0  0  0  0
  -24.5893  -30.7138   25.7474 H   0  0  0  0  0  0
  -24.8693  -32.3088   26.4293 H   0  0  0  0  0  0
  -25.7679  -30.9245   27.0213 H   0  0  0  0  0  0
  -26.3455  -29.6259   24.1789 H   0  0  0  0  0  0
  -27.4004  -29.7353   25.5661 H   0  0  0  0  0  0
  -27.9433  -30.3869   24.0421 H   0  0  0  0  0  0
  -27.2505  -33.3801   26.1826 H   0  0  0  0  0  0
  -28.3941  -32.6822   25.0433 H   0  0  0  0  0  0
  -28.0559  -31.8727   26.5666 H   0  0  0  0  0  0
  -28.2511  -38.0022   24.7493 H   0  0  0  0  0  0
  -28.1043  -36.2506   24.6317 H   0  0  0  0  0  0
  -27.2239  -37.1329   25.8893 H   0  0  0  0  0  0
  -20.9909  -29.8582   21.6293 H   0  0  0  0  0  0
  -26.0023  -38.2588   24.1453 H   0  0  0  0  0  0
  -27.8527  -20.3100   22.3500 H   0  0  0  0  0  0
  -27.0685  -19.8751   20.8652 H   0  0  0  0  0  0
  -27.7805  -17.6713   21.7279 H   0  0  0  0  0  0
  -29.2625  -18.2959   22.3880 H   0  0  0  0  0  0
  -30.6281  -19.5147   19.6713 H   0  0  0  0  0  0
  -29.1327  -19.3033   18.8234 H   0  0  0  0  0  0
  -29.7224  -21.3445   21.2090 H   0  0  0  0  0  0
  -27.1163  -22.8935   20.0066 H   0  0  0  0  0  0
  -28.5247  -23.1217   19.0646 H   0  0  0  0  0  0
  1 25  1  0  0  0
  1 30  2  0  0  0
  1 76  1  0  0  0
  2  3  1  0  0  0
  2 25  1  0  0  0
  2 77  1  0  0  0
  2 78  1  0  0  0
  3  4  1  0  0  0
  3 79  1  0  0  0
  3 80  1  0  0  0
  4  5  1  0  0  0
  4 81  1  0  0  0
  4 82  1  0  0  0
  5  6  1  0  0  0
  5 26  1  0  0  0
  5 83  1  0  0  0
  6 25  1  0  0  0
  6 84  1  0  0  0
  6 85  1  0  0  0
  7  8  2  0  0  0
  7 26  1  0  0  0
  7 29  1  0  0  0
  8  9  1  0  0  0
  8 22  1  0  0  0
  9 10  1  0  0  0
  9 27  2  0  0  0
 10 11  2  0  0  0
 10 15  1  0  0  0
 11 12  1  0  0  0
 11 86  1  0  0  0
 12 13  2  0  0  0
 12 87  1  0  0  0
 13 14  1  0  0  0
 13 31  1  0  0  0
 14 15  2  0  0  0
 14 88  1  0  0  0
 15 89  1  0  0  0
 16 17  2  0  0  0
 16 21  1  0  0  0
 16 31  1  0  0  0
 17 18  1  0  0  0
 17 90  1  0  0  0
 18 19  2  0  0  0
 18 91  1  0  0  0
 19 20  1  0  0  0
 19 24  1  0  0  0
 20 21  2  0  0  0
 20 92  1  0  0  0
 21 23  1  0  0  0
 22 28  1  0  0  0
 22 32  2  0  0  0
 26 27  1  0  0  0
 28 93  1  0  0  0
 28 94  1  0  0  0
 29 95  1  0  0  0
 29 96  1  0  0  0
 33 34  1  0  0  0
 33 66  1  0  0  0
 33 70  2  0  0  0
 34 36  1  0  0  0
 34 59  1  0  0  0
 34 97  1  0  0  0
 35 44  2  0  0  0
 35 45  1  0  0  0
 35 68  1  0  0  0
 36 56  1  0  0  0
 36 98  1  0  0  0
 37 39  1  0  0  0
 37 47  1  0  0  0
 37 66  1  0  0  0
 37 99  1  0  0  0
 38 43  2  0  0  0
 38 46  1  0  0  0
 38 47  1  0  0  0
 39 64  1  0  0  0
 39 67  2  0  0  0
 40 52  1  0  0  0
 40 53  2  0  0  0
 40 58  1  0  0  0
 41100  1  0  0  0
 41101  1  0  0  0
 41102  1  0  0  0
 41 48  1  0  0  0
 42 43  1  0  0  0
 42 66  1  0  0  0
 42103  1  0  0  0
 42104  1  0  0  0
 43 44  1  0  0  0
 44105  1  0  0  0
 45 46  2  0  0  0
 45106  1  0  0  0
 46107  1  0  0  0
 47108  1  0  0  0
 47109  1  0  0  0
 48 56  1  0  0  0
 48 65  1  0  0  0
 48110  1  0  0  0
 49 50  1  0  0  0
 49 53  1  0  0  0
 49 64  1  0  0  0
 49111  1  0  0  0
 50 51  1  0  0  0
 50112  1  0  0  0
 50113  1  0  0  0
 51 52  1  0  0  0
 51114  1  0  0  0
 51115  1  0  0  0
 52116  1  0  0  0
 52117  1  0  0  0
 53 54  1  0  0  0
 54 55  2  0  0  0
 54118  1  0  0  0
 55 57  1  0  0  0
 55119  1  0  0  0
 56 69  2  0  0  0
 57 58  2  0  0  0
 57120  1  0  0  0
 58121  1  0  0  0
 59 60  1  0  0  0
 59 61  1  0  0  0
 59 62  1  0  0  0
 60122  1  0  0  0
 60123  1  0  0  0
 60124  1  0  0  0
 61125  1  0  0  0
 61126  1  0  0  0
 61127  1  0  0  0
 62128  1  0  0  0
 62129  1  0  0  0
 62130  1  0  0  0
 63 65  1  0  0  0
 63131  1  0  0  0
 63132  1  0  0  0
 63133  1  0  0  0
 64134  1  0  0  0
 65135  1  0  0  0
 68 75  1  0  0  0
 71 72  1  0  0  0
 71 74  1  0  0  0
 71136  1  0  0  0
 71137  1  0  0  0
 72 76  1  0  0  0
 72138  1  0  0  0
 72139  1  0  0  0
 73 74  1  0  0  0
 73 76  1  0  0  0
 73140  1  0  0  0
 73141  1  0  0  0
 74 75  1  0  0  0
 74142  1  0  0  0
 75143  1  0  0  0
 75144  1  0  0  0
M  ISO  4   1 100  68 101  75 101  76 100
M  END
> <chiral flag>
0

> <version>
0

> <s_m_source_file>
/data/baiqing/PycharmProjects/Reinvent-master-3.2/result/LINK_invent/BTK/process_docking_weight1_custom_product_contain_oxygen_bond_distance_aromatic_linkinvent_7_9_3/rearranged_h_0153.sdf

> <i_m_source_file_index>
29

> <r_mmod_Potential_Energy-OPLS-2005>
4711.18212890625

> <r_mmod_Stretch_Energy-OPLS-2005>
1953.69860839844

> <r_mmod_Bend_Energy-OPLS-2005>
1032.90893554688

> <r_mmod_Torsional_Energy-OPLS-2005>
335.596893310547

> <r_mmod_Improper_Torsional_Energy-OPLS-2005>
7.49442338943481

> <r_mmod_Van_der_Waal_Energy-OPLS-2005>
110.785461425781

> <r_mmod_Electrostatic_Energy-OPLS-2005>
-264.831115722656

> <r_mmod_Solvation_Energy-OPLS-2005>
-215.226318359375

> <b_mmod_Minimization_Converged-OPLS-2005>
0

> <r_mmod_RMS_Derivative-OPLS-2005>
8.33432483673096

$$$$
29
                    3D
 Structure written by MMmdl.
155164  0  0  1  0            999 V2000
  -30.6116  -14.7448   20.4588 C   0  0  0  0  0  0
  -30.4271  -12.4513   19.4682 C   0  0  0  0  0  0
  -29.5064  -12.5055   18.2300 C   0  0  0  0  0  0
  -28.0317  -12.3331   18.6448 C   0  0  0  0  0  0
  -27.6382  -13.2312   19.8490 C   0  0  2  0  0  0
  -28.6857  -13.1646   20.9812 C   0  0  0  0  0  0
  -25.2489  -13.8193   20.5700 C   0  0  0  0  0  0
  -24.1789  -13.0431   20.9224 C   0  0  0  0  0  0
  -24.6380  -11.6912   20.8742 C   0  0  0  0  0  0
  -23.9063  -10.4282   21.0391 C   0  0  0  0  0  0
  -24.3617   -9.4209   21.9173 C   0  0  0  0  0  0
  -23.6300   -8.2243   22.0751 C   0  0  0  0  0  0
  -22.4279   -8.0274   21.3550 C   0  0  0  0  0  0
  -21.9904   -9.0237   20.4647 C   0  0  0  0  0  0
  -22.7226  -10.2121   20.3046 C   0  0  0  0  0  0
  -21.6855   -6.0720   22.5281 C   0  0  0  0  0  0
  -21.4007   -6.5629   23.8215 C   0  0  0  0  0  0
  -21.3669   -5.6791   24.9179 C   0  0  0  0  0  0
  -21.6052   -4.3049   24.7232 C   0  0  0  0  0  0
  -21.8821   -3.8141   23.4356 C   0  0  0  0  0  0
  -21.9187   -4.6950   22.3405 C   0  0  0  0  0  0
  -22.7811  -13.5203   21.1885 C   0  0  0  0  0  0
  -22.1658   -4.2130   21.0988 F   0  0  0  0  0  0
  -21.5634   -3.4542   25.7749 F   0  0  0  0  0  0
  -29.9819  -13.5203   20.3918 N   0  0  0  0  0  0
  -26.2919  -12.9400   20.3285 N   0  0  0  0  0  0
  -25.9310  -11.6542   20.5757 N   0  0  0  0  0  0
  -22.0452  -12.8199   22.0448 N   0  0  0  0  0  0
  -25.4157  -15.1923   20.4101 N   0  0  0  0  0  0
  -31.8124  -14.8194   20.1835 O   0  0  0  0  0  0
  -21.6656   -6.8858   21.4243 O   0  0  0  0  0  0
  -22.3500  -14.5508   20.6731 O   0  0  0  0  0  0
  -24.6322  -31.8529   23.1979 C   0  0  0  0  0  0
  -25.9144  -32.4737   23.8331 C   0  0  1  0  0  0
  -27.2181  -27.2478   20.1471 C   0  0  0  0  0  0
  -25.5929  -33.8538   24.2252 N   0  0  0  0  0  0
  -23.4295  -30.4768   21.5389 C   0  0  2  0  0  0
  -24.8775  -28.9162   20.1127 C   0  0  0  0  0  0
  -22.7494  -29.4615   22.4891 C   0  0  0  0  0  0
  -18.0292  -28.1387   22.8483 C   0  0  0  0  0  0
  -24.1484  -36.7279   23.2641 C   0  0  0  0  0  0
  -25.9752  -30.7652   21.3766 C   0  0  0  0  0  0
  -26.0492  -29.3846   20.7221 C   0  0  0  0  0  0
  -27.2261  -28.5651   20.7217 C   0  0  0  0  0  0
  -26.0254  -26.8467   19.5108 C   0  0  0  0  0  0
  -24.8718  -27.6564   19.4927 C   0  0  0  0  0  0
  -23.6481  -29.8049   20.1572 C   0  0  0  0  0  0
  -25.4108  -36.3059   24.0332 C   0  0  1  0  0  0
  -20.5895  -28.3711   23.1244 C   0  0  2  0  0  0
  -20.6783  -26.9422   22.5395 C   0  0  0  0  0  0
  -19.5764  -26.6381   21.5199 C   0  0  0  0  0  0
  -18.1945  -26.7932   22.1618 C   0  0  0  0  0  0
  -19.1545  -28.8866   23.2865 C   0  0  0  0  0  0
  -18.9467  -30.1463   23.8891 C   0  0  0  0  0  0
  -17.6467  -30.6592   24.0558 C   0  0  0  0  0  0
  -25.9051  -34.9428   23.5101 C   0  0  0  0  0  0
  -16.5359  -29.9089   23.6326 C   0  0  0  0  0  0
  -16.7279  -28.6500   23.0365 C   0  0  0  0  0  0
  -26.4500  -31.6577   25.0736 C   0  0  0  0  0  0
  -25.3701  -31.3757   26.1448 C   0  0  0  0  0  0
  -27.0357  -30.2986   24.6261 C   0  0  0  0  0  0
  -27.6047  -32.4321   25.7521 C   0  0  0  0  0  0
  -27.5578  -37.1795   24.8462 C   0  0  0  0  0  0
  -21.4200  -29.3058   22.3626 N   0  0  0  0  0  0
  -26.4285  -37.3759   23.9413 N   0  0  0  0  0  0
  -24.6981  -31.0501   22.0942 N   0  0  0  0  0  0
  -23.4183  -28.8148   23.2995 O   0  0  0  0  0  0
  -28.3076  -26.3448   20.1620 O   0  0  0  0  0  0
  -26.5624  -34.8915   22.4671 O   0  0  0  0  0  0
  -23.5476  -32.1341   23.7283 O   0  0  0  0  0  0
  -30.1155  -19.7123   20.5313 C   0  0  0  0  0  0
  -31.3499  -19.5031   21.1260 C   0  0  0  0  0  0
  -30.2201  -17.3136   20.6765 C   0  0  0  0  0  0
  -28.6838  -21.3770   18.8996 C   0  0  0  0  0  0
  -28.3159  -22.9083   18.8588 C   0  0  0  0  0  0
  -29.1630  -22.3456   21.0312 C   0  0  0  0  0  0
  -29.6545  -21.1799   20.0748 C   0  0  1  0  0  0
  -28.9008  -23.6277   20.1093 C   0  0  2  0  0  0
  -28.0904  -24.9349   20.6598 C   0  0  0  0  0  0
  -29.4637  -18.4247   20.3425 N   0  0  0  0  0  0
  -32.2913  -20.4536   21.5100 N   0  0  0  0  0  0
  -29.8247  -15.8883   20.5617 N   0  0  0  0  0  0
  -31.7627  -17.8107   21.3563 S   0  0  0  0  0  0
  -31.4699  -12.5679   19.1699 H   0  0  0  0  0  0
  -30.3618  -11.4739   19.9499 H   0  0  0  0  0  0
  -29.7857  -11.7288   17.5167 H   0  0  0  0  0  0
  -29.6390  -13.4572   17.7133 H   0  0  0  0  0  0
  -27.8874  -11.2844   18.9067 H   0  0  0  0  0  0
  -27.3735  -12.5264   17.7973 H   0  0  0  0  0  0
  -27.6300  -14.2535   19.4728 H   0  0  0  0  0  0
  -28.7230  -12.1648   21.4168 H   0  0  0  0  0  0
  -28.4261  -13.8429   21.7956 H   0  0  0  0  0  0
  -25.2747   -9.5699   22.4765 H   0  0  0  0  0  0
  -24.0009   -7.4634   22.7476 H   0  0  0  0  0  0
  -21.0826   -8.8738   19.8959 H   0  0  0  0  0  0
  -22.3653  -10.9657   19.6172 H   0  0  0  0  0  0
  -21.2001   -7.6132   23.9710 H   0  0  0  0  0  0
  -21.1494   -6.0521   25.9083 H   0  0  0  0  0  0
  -22.0589   -2.7600   23.2868 H   0  0  0  0  0  0
  -22.4068  -11.9857   22.4831 H   0  0  0  0  0  0
  -21.1078  -13.1235   22.2654 H   0  0  0  0  0  0
  -24.6455  -15.8413   20.5263 H   0  0  0  0  0  0
  -26.2547  -15.6393   20.0638 H   0  0  0  0  0  0
  -26.7216  -32.5387   23.1082 H   0  0  0  0  0  0
  -25.0060  -33.9655   25.0391 H   0  0  0  0  0  0
  -22.7276  -31.3005   21.3897 H   0  0  0  0  0  0
  -23.3749  -35.9607   23.3285 H   0  0  0  0  0  0
  -24.3574  -36.8918   22.2058 H   0  0  0  0  0  0
  -23.7239  -37.6481   23.6668 H   0  0  0  0  0  0
  -26.1129  -31.5238   20.6050 H   0  0  0  0  0  0
  -26.8529  -30.8174   22.0096 H   0  0  0  0  0  0
  -28.1275  -28.9213   21.2007 H   0  0  0  0  0  0
  -25.9757  -25.8791   19.0321 H   0  0  0  0  0  0
  -23.9766  -27.2926   19.0072 H   0  0  0  0  0  0
  -23.7680  -30.5768   19.3957 H   0  0  0  0  0  0
  -22.7658  -29.2352   19.8595 H   0  0  0  0  0  0
  -25.1289  -36.1903   25.0825 H   0  0  0  0  0  0
  -21.0004  -28.3299   24.1359 H   0  0  0  0  0  0
  -20.5655  -26.2327   23.3607 H   0  0  0  0  0  0
  -21.6655  -26.7425   22.1204 H   0  0  0  0  0  0
  -19.6925  -25.6279   21.1261 H   0  0  0  0  0  0
  -19.6714  -27.3160   20.6705 H   0  0  0  0  0  0
  -17.4206  -26.6666   21.4030 H   0  0  0  0  0  0
  -18.0363  -26.0068   22.9012 H   0  0  0  0  0  0
  -19.7942  -30.7279   24.2263 H   0  0  0  0  0  0
  -17.5024  -31.6277   24.5155 H   0  0  0  0  0  0
  -15.5363  -30.3000   23.7656 H   0  0  0  0  0  0
  -15.8675  -28.0815   22.7107 H   0  0  0  0  0  0
  -24.5882  -30.7097   25.7788 H   0  0  0  0  0  0
  -24.8882  -32.2940   26.4816 H   0  0  0  0  0  0
  -25.7994  -30.8979   27.0265 H   0  0  0  0  0  0
  -26.2972  -29.6732   24.1235 H   0  0  0  0  0  0
  -27.3969  -29.7259   25.4818 H   0  0  0  0  0  0
  -27.8871  -30.4255   23.9569 H   0  0  0  0  0  0
  -27.2653  -33.3632   26.2079 H   0  0  0  0  0  0
  -28.3882  -32.6867   25.0367 H   0  0  0  0  0  0
  -28.0690  -31.8453   26.5464 H   0  0  0  0  0  0
  -28.2583  -38.0102   24.7505 H   0  0  0  0  0  0
  -28.1089  -36.2634   24.6284 H   0  0  0  0  0  0
  -27.2294  -37.1436   25.8864 H   0  0  0  0  0  0
  -20.9375  -29.8777   21.6835 H   0  0  0  0  0  0
  -26.0163  -38.2835   24.1410 H   0  0  0  0  0  0
  -29.1172  -21.0357   17.9586 H   0  0  0  0  0  0
  -27.7820  -20.7872   19.0710 H   0  0  0  0  0  0
  -27.2312  -23.0173   18.8290 H   0  0  0  0  0  0
  -28.6939  -23.3753   17.9481 H   0  0  0  0  0  0
  -29.8987  -22.5651   21.8055 H   0  0  0  0  0  0
  -28.2441  -22.0410   21.5348 H   0  0  0  0  0  0
  -30.5820  -21.5980   19.6791 H   0  0  0  0  0  0
  -29.8925  -23.9929   19.8375 H   0  0  0  0  0  0
  -28.3372  -25.0034   21.7199 H   0  0  0  0  0  0
  -27.0285  -24.6899   20.6651 H   0  0  0  0  0  0
  -32.1434  -21.4580   21.4619 H   0  0  0  0  0  0
  -33.1696  -20.2122   21.9615 H   0  0  0  0  0  0
  -28.8334  -15.7199   20.5659 H   0  0  0  0  0  0
  1 25  1  0  0  0
  1 30  2  0  0  0
  1 82  1  0  0  0
  2  3  1  0  0  0
  2 25  1  0  0  0
  2 84  1  0  0  0
  2 85  1  0  0  0
  3  4  1  0  0  0
  3 86  1  0  0  0
  3 87  1  0  0  0
  4  5  1  0  0  0
  4 88  1  0  0  0
  4 89  1  0  0  0
  5  6  1  0  0  0
  5 26  1  0  0  0
  5 90  1  0  0  0
  6 25  1  0  0  0
  6 91  1  0  0  0
  6 92  1  0  0  0
  7  8  2  0  0  0
  7 26  1  0  0  0
  7 29  1  0  0  0
  8  9  1  0  0  0
  8 22  1  0  0  0
  9 10  1  0  0  0
  9 27  2  0  0  0
 10 11  2  0  0  0
 10 15  1  0  0  0
 11 12  1  0  0  0
 11 93  1  0  0  0
 12 13  2  0  0  0
 12 94  1  0  0  0
 13 14  1  0  0  0
 13 31  1  0  0  0
 14 15  2  0  0  0
 14 95  1  0  0  0
 15 96  1  0  0  0
 16 17  2  0  0  0
 16 21  1  0  0  0
 16 31  1  0  0  0
 17 18  1  0  0  0
 17 97  1  0  0  0
 18 19  2  0  0  0
 18 98  1  0  0  0
 19 20  1  0  0  0
 19 24  1  0  0  0
 20 21  2  0  0  0
 20 99  1  0  0  0
 21 23  1  0  0  0
 22 28  1  0  0  0
 22 32  2  0  0  0
 26 27  1  0  0  0
 28100  1  0  0  0
 28101  1  0  0  0
 29102  1  0  0  0
 29103  1  0  0  0
 33 34  1  0  0  0
 33 66  1  0  0  0
 33 70  2  0  0  0
 34 36  1  0  0  0
 34 59  1  0  0  0
 34104  1  0  0  0
 35 44  2  0  0  0
 35 45  1  0  0  0
 35 68  1  0  0  0
 36 56  1  0  0  0
 36105  1  0  0  0
 37 39  1  0  0  0
 37 47  1  0  0  0
 37 66  1  0  0  0
 37106  1  0  0  0
 38 43  2  0  0  0
 38 46  1  0  0  0
 38 47  1  0  0  0
 39 64  1  0  0  0
 39 67  2  0  0  0
 40 52  1  0  0  0
 40 53  2  0  0  0
 40 58  1  0  0  0
 41107  1  0  0  0
 41108  1  0  0  0
 41109  1  0  0  0
 41 48  1  0  0  0
 42 43  1  0  0  0
 42 66  1  0  0  0
 42110  1  0  0  0
 42111  1  0  0  0
 43 44  1  0  0  0
 44112  1  0  0  0
 45 46  2  0  0  0
 45113  1  0  0  0
 46114  1  0  0  0
 47115  1  0  0  0
 47116  1  0  0  0
 48 56  1  0  0  0
 48 65  1  0  0  0
 48117  1  0  0  0
 49 50  1  0  0  0
 49 53  1  0  0  0
 49 64  1  0  0  0
 49118  1  0  0  0
 50 51  1  0  0  0
 50119  1  0  0  0
 50120  1  0  0  0
 51 52  1  0  0  0
 51121  1  0  0  0
 51122  1  0  0  0
 52123  1  0  0  0
 52124  1  0  0  0
 53 54  1  0  0  0
 54 55  2  0  0  0
 54125  1  0  0  0
 55 57  1  0  0  0
 55126  1  0  0  0
 56 69  2  0  0  0
 57 58  2  0  0  0
 57127  1  0  0  0
 58128  1  0  0  0
 59 60  1  0  0  0
 59 61  1  0  0  0
 59 62  1  0  0  0
 60129  1  0  0  0
 60130  1  0  0  0
 60131  1  0  0  0
 61132  1  0  0  0
 61133  1  0  0  0
 61134  1  0  0  0
 62135  1  0  0  0
 62136  1  0  0  0
 62137  1  0  0  0
 63 65  1  0  0  0
 63138  1  0  0  0
 63139  1  0  0  0
 63140  1  0  0  0
 64141  1  0  0  0
 65142  1  0  0  0
 68 79  1  0  0  0
 71 72  2  0  0  0
 71 80  1  0  0  0
 71 77  1  0  0  0
 72 81  1  0  0  0
 72 83  1  0  0  0
 73 80  2  0  0  0
 73 82  1  0  0  0
 73 83  1  0  0  0
 74 75  1  0  0  0
 74 77  1  0  0  0
 74143  1  0  0  0
 74144  1  0  0  0
 75 78  1  0  0  0
 75145  1  0  0  0
 75146  1  0  0  0
 76 77  1  0  0  0
 76 78  1  0  0  0
 76147  1  0  0  0
 76148  1  0  0  0
 77149  1  0  0  0
 78 79  1  0  0  0
 78150  1  0  0  0
 79151  1  0  0  0
 79152  1  0  0  0
 81153  1  0  0  0
 81154  1  0  0  0
 82155  1  0  0  0
M  ISO  4   1 100  68 101  79 101  82 100
M  END
> <chiral flag>
0

> <version>
0

> <s_m_source_file>
/data/baiqing/PycharmProjects/Reinvent-master-3.2/result/LINK_invent/BTK/process_docking_weight1_custom_product_contain_oxygen_bond_distance_aromatic_linkinvent_7_9_3/rearranged_h_0153.sdf

> <i_m_source_file_index>
30

> <r_mmod_Potential_Energy-OPLS-2005>
272.692932128906

> <r_mmod_Stretch_Energy-OPLS-2005>
126.007629394531

> <r_mmod_Bend_Energy-OPLS-2005>
228.278656005859

> <r_mmod_Torsional_Energy-OPLS-2005>
274.789337158203

> <r_mmod_Improper_Torsional_Energy-OPLS-2005>
6.8844313621521

> <r_mmod_Van_der_Waal_Energy-OPLS-2005>
112.121459960938

> <r_mmod_Electrostatic_Energy-OPLS-2005>
-347.822875976562

> <r_mmod_Solvation_Energy-OPLS-2005>
-216.18196105957

> <b_mmod_Minimization_Converged-OPLS-2005>
0

> <r_mmod_RMS_Derivative-OPLS-2005>
1.79199039936066

$$$$
30
                    3D
 Structure written by MMmdl.
157166  0  0  1  0            999 V2000
  -30.8005  -14.5146   20.4891 C   0  0  0  0  0  0
  -30.3908  -12.3261   19.4375 C   0  0  0  0  0  0
  -29.4734  -12.4674   18.2091 C   0  0  0  0  0  0
  -28.0081  -12.3136   18.6451 C   0  0  0  0  0  0
  -27.6471  -13.2177   19.8503 C   0  0  2  0  0  0
  -28.7028  -13.1233   20.9776 C   0  0  0  0  0  0
  -25.2561  -13.8229   20.5701 C   0  0  0  0  0  0
  -24.1835  -13.0473   20.9219 C   0  0  0  0  0  0
  -24.6403  -11.6952   20.8759 C   0  0  0  0  0  0
  -23.9079  -10.4322   21.0415 C   0  0  0  0  0  0
  -24.3641   -9.4219   21.9183 C   0  0  0  0  0  0
  -23.6306   -8.2256   22.0754 C   0  0  0  0  0  0
  -22.4286   -8.0311   21.3545 C   0  0  0  0  0  0
  -21.9919   -9.0285   20.4647 C   0  0  0  0  0  0
  -22.7254  -10.2156   20.3049 C   0  0  0  0  0  0
  -21.6871   -6.0756   22.5277 C   0  0  0  0  0  0
  -21.4028   -6.5652   23.8215 C   0  0  0  0  0  0
  -21.3632   -5.6784   24.9167 C   0  0  0  0  0  0
  -21.6037   -4.3048   24.7202 C   0  0  0  0  0  0
  -21.8832   -3.8157   23.4320 C   0  0  0  0  0  0
  -21.9207   -4.6985   22.3390 C   0  0  0  0  0  0
  -22.7842  -13.5241   21.1847 C   0  0  0  0  0  0
  -22.1679   -4.2188   21.0959 F   0  0  0  0  0  0
  -21.5599   -3.4521   25.7700 F   0  0  0  0  0  0
  -30.0237  -13.3924   20.3916 N   0  0  0  0  0  0
  -26.2980  -12.9402   20.3358 N   0  0  0  0  0  0
  -25.9338  -11.6549   20.5802 N   0  0  0  0  0  0
  -22.0481  -12.8231   22.0402 N   0  0  0  0  0  0
  -25.4220  -15.1951   20.4046 N   0  0  0  0  0  0
  -31.9469  -14.5380   20.0467 O   0  0  0  0  0  0
  -21.6643   -6.8915   21.4245 O   0  0  0  0  0  0
  -22.3507  -14.5523   20.6676 O   0  0  0  0  0  0
  -24.6204  -31.8636   23.2049 C   0  0  0  0  0  0
  -25.9088  -32.4752   23.8322 C   0  0  1  0  0  0
  -27.2009  -27.3879   20.1017 C   0  0  0  0  0  0
  -25.5919  -33.8550   24.2233 N   0  0  0  0  0  0
  -23.4044  -30.4911   21.5476 C   0  0  2  0  0  0
  -24.8401  -28.9534   20.1070 C   0  0  0  0  0  0
  -22.7416  -29.4679   22.4995 C   0  0  0  0  0  0
  -18.0305  -28.1376   22.8445 C   0  0  0  0  0  0
  -24.1490  -36.7319   23.2633 C   0  0  0  0  0  0
  -25.9388  -30.8144   21.3622 C   0  0  0  0  0  0
  -26.0076  -29.4511   20.6994 C   0  0  0  0  0  0
  -27.1990  -28.6791   20.6846 C   0  0  0  0  0  0
  -26.0126  -26.9105   19.5048 C   0  0  0  0  0  0
  -24.8385  -27.6829   19.5063 C   0  0  0  0  0  0
  -23.6064  -29.8256   20.1615 C   0  0  0  0  0  0
  -25.4118  -36.3060   24.0303 C   0  0  1  0  0  0
  -20.5876  -28.3669   23.1333 C   0  0  2  0  0  0
  -20.6799  -26.9402   22.5456 C   0  0  0  0  0  0
  -19.5808  -26.6403   21.5227 C   0  0  0  0  0  0
  -18.1968  -26.7919   22.1624 C   0  0  0  0  0  0
  -19.1530  -28.8832   23.2894 C   0  0  0  0  0  0
  -18.9481  -30.1433   23.8878 C   0  0  0  0  0  0
  -17.6477  -30.6550   24.0571 C   0  0  0  0  0  0
  -25.9066  -34.9434   23.5075 C   0  0  0  0  0  0
  -16.5384  -29.9067   23.6301 C   0  0  0  0  0  0
  -16.7286  -28.6487   23.0315 C   0  0  0  0  0  0
  -26.4492  -31.6557   25.0693 C   0  0  0  0  0  0
  -25.3768  -31.3715   26.1460 C   0  0  0  0  0  0
  -27.0318  -30.2970   24.6129 C   0  0  0  0  0  0
  -27.5999  -32.4334   25.7490 C   0  0  0  0  0  0
  -27.5576  -37.1813   24.8461 C   0  0  0  0  0  0
  -21.4137  -29.3068   22.3756 N   0  0  0  0  0  0
  -26.4295  -37.3763   23.9396 N   0  0  0  0  0  0
  -24.6725  -31.0734   22.0946 N   0  0  0  0  0  0
  -23.4214  -28.8227   23.3039 O   0  0  0  0  0  0
  -28.3233  -26.5795   20.1302 O   0  0  0  0  0  0
  -26.5646  -34.8913   22.4648 O   0  0  0  0  0  0
  -23.5391  -32.1397   23.7456 O   0  0  0  0  0  0
  -29.2345  -19.0608   20.4365 C   0  0  0  0  0  0
  -28.7940  -20.2707   22.5674 C   0  0  0  0  0  0
  -29.0930  -17.8755   21.1982 C   0  0  0  0  0  0
  -28.7559  -17.8996   22.5810 C   0  0  0  0  0  0
  -29.0287  -20.2991   21.1465 C   0  0  0  0  0  0
  -28.6379  -19.0745   23.3162 C   0  0  0  0  0  0
  -28.3580  -22.6963   20.7549 C   0  0  0  0  0  0
  -28.6620  -16.3985   22.6973 C   0  0  0  0  0  0
  -29.0745  -16.3404   21.1485 C   0  0  1  0  0  0
  -28.6182  -24.0326   19.9999 C   0  0  0  0  0  0
  -28.1307  -25.2973   20.7829 C   0  0  0  0  0  0
  -28.3929  -19.0742   24.6857 N   0  0  0  0  0  0
  -29.0810  -21.5791   20.4605 N   0  0  0  0  0  0
  -30.3700  -15.6722   21.0301 N   0  0  0  0  0  0
  -27.4523  -22.6816   21.5925 O   0  0  0  0  0  0
  -31.4379  -12.3534   19.1296 H   0  0  0  0  0  0
  -30.2530  -11.3487   19.9063 H   0  0  0  0  0  0
  -29.7176  -11.7084   17.4677 H   0  0  0  0  0  0
  -29.6247  -13.4330   17.7204 H   0  0  0  0  0  0
  -27.8593  -11.2670   18.9107 H   0  0  0  0  0  0
  -27.3409  -12.5072   17.8071 H   0  0  0  0  0  0
  -27.6475  -14.2305   19.4558 H   0  0  0  0  0  0
  -28.6898  -12.1280   21.4282 H   0  0  0  0  0  0
  -28.4691  -13.8146   21.7875 H   0  0  0  0  0  0
  -25.2803   -9.5687   22.4722 H   0  0  0  0  0  0
  -24.0039   -7.4640   22.7442 H   0  0  0  0  0  0
  -21.0877   -8.8804   19.8929 H   0  0  0  0  0  0
  -22.3753  -10.9696   19.6130 H   0  0  0  0  0  0
  -21.2039   -7.6158   23.9743 H   0  0  0  0  0  0
  -21.1425   -6.0496   25.9075 H   0  0  0  0  0  0
  -22.0638   -2.7624   23.2798 H   0  0  0  0  0  0
  -22.4093  -11.9896   22.4806 H   0  0  0  0  0  0
  -21.1071  -13.1211   22.2547 H   0  0  0  0  0  0
  -24.6435  -15.8409   20.4873 H   0  0  0  0  0  0
  -26.2641  -15.6395   20.0607 H   0  0  0  0  0  0
  -26.7139  -32.5422   23.1049 H   0  0  0  0  0  0
  -24.9973  -33.9655   25.0313 H   0  0  0  0  0  0
  -22.6917  -31.3071   21.4110 H   0  0  0  0  0  0
  -23.3719  -35.9690   23.3313 H   0  0  0  0  0  0
  -24.3574  -36.8953   22.2050 H   0  0  0  0  0  0
  -23.7308  -37.6541   23.6677 H   0  0  0  0  0  0
  -26.0669  -31.5759   20.5921 H   0  0  0  0  0  0
  -26.8216  -30.8499   21.9882 H   0  0  0  0  0  0
  -28.1019  -29.0518   21.1453 H   0  0  0  0  0  0
  -25.9829  -25.9262   19.0600 H   0  0  0  0  0  0
  -23.9345  -27.2878   19.0633 H   0  0  0  0  0  0
  -23.7034  -30.5995   19.3984 H   0  0  0  0  0  0
  -22.7254  -29.2462   19.8802 H   0  0  0  0  0  0
  -25.1297  -36.1886   25.0795 H   0  0  0  0  0  0
  -20.9952  -28.3286   24.1446 H   0  0  0  0  0  0
  -20.5653  -26.2238   23.3608 H   0  0  0  0  0  0
  -21.6691  -26.7478   22.1279 H   0  0  0  0  0  0
  -19.6982  -25.6333   21.1191 H   0  0  0  0  0  0
  -19.6770  -27.3278   20.6812 H   0  0  0  0  0  0
  -17.4276  -26.6629   21.4009 H   0  0  0  0  0  0
  -18.0341  -26.0105   22.9063 H   0  0  0  0  0  0
  -19.7961  -30.7233   24.2262 H   0  0  0  0  0  0
  -17.5061  -31.6205   24.5229 H   0  0  0  0  0  0
  -15.5386  -30.2972   23.7580 H   0  0  0  0  0  0
  -15.8681  -28.0818   22.7008 H   0  0  0  0  0  0
  -24.5913  -30.7065   25.7856 H   0  0  0  0  0  0
  -24.9020  -32.2908   26.4894 H   0  0  0  0  0  0
  -25.8149  -30.8918   27.0220 H   0  0  0  0  0  0
  -26.2870  -29.6754   24.1144 H   0  0  0  0  0  0
  -27.3997  -29.7178   25.4610 H   0  0  0  0  0  0
  -27.8745  -30.4236   23.9330 H   0  0  0  0  0  0
  -27.2494  -33.3599   26.2049 H   0  0  0  0  0  0
  -28.3817  -32.6972   25.0356 H   0  0  0  0  0  0
  -28.0650  -31.8510   26.5454 H   0  0  0  0  0  0
  -28.2577  -38.0112   24.7461 H   0  0  0  0  0  0
  -28.1067  -36.2640   24.6314 H   0  0  0  0  0  0
  -27.2288  -37.1496   25.8858 H   0  0  0  0  0  0
  -20.9275  -29.8883   21.7090 H   0  0  0  0  0  0
  -26.0154  -38.2824   24.1406 H   0  0  0  0  0  0
  -29.4365  -19.0202   19.3750 H   0  0  0  0  0  0
  -28.7108  -21.2080   23.0928 H   0  0  0  0  0  0
  -29.3973  -15.9802   23.3858 H   0  0  0  0  0  0
  -27.6480  -16.0465   22.8944 H   0  0  0  0  0  0
  -28.2928  -15.9952   20.4792 H   0  0  0  0  0  0
  -28.0940  -23.9805   19.0465 H   0  0  0  0  0  0
  -29.6794  -24.1264   19.7684 H   0  0  0  0  0  0
  -28.6696  -25.3394   21.7288 H   0  0  0  0  0  0
  -27.0853  -25.1579   21.0699 H   0  0  0  0  0  0
  -28.5908  -19.9250   25.2048 H   0  0  0  0  0  0
  -28.6301  -18.2362   25.2074 H   0  0  0  0  0  0
  -29.7116  -21.6533   19.6712 H   0  0  0  0  0  0
  -31.1316  -16.3312   21.0982 H   0  0  0  0  0  0
  1 25  1  0  0  0
  1 30  2  0  0  0
  1 84  1  0  0  0
  2  3  1  0  0  0
  2 25  1  0  0  0
  2 86  1  0  0  0
  2 87  1  0  0  0
  3  4  1  0  0  0
  3 88  1  0  0  0
  3 89  1  0  0  0
  4  5  1  0  0  0
  4 90  1  0  0  0
  4 91  1  0  0  0
  5  6  1  0  0  0
  5 26  1  0  0  0
  5 92  1  0  0  0
  6 25  1  0  0  0
  6 93  1  0  0  0
  6 94  1  0  0  0
  7  8  2  0  0  0
  7 26  1  0  0  0
  7 29  1  0  0  0
  8  9  1  0  0  0
  8 22  1  0  0  0
  9 10  1  0  0  0
  9 27  2  0  0  0
 10 11  2  0  0  0
 10 15  1  0  0  0
 11 12  1  0  0  0
 11 95  1  0  0  0
 12 13  2  0  0  0
 12 96  1  0  0  0
 13 14  1  0  0  0
 13 31  1  0  0  0
 14 15  2  0  0  0
 14 97  1  0  0  0
 15 98  1  0  0  0
 16 17  2  0  0  0
 16 21  1  0  0  0
 16 31  1  0  0  0
 17 18  1  0  0  0
 17 99  1  0  0  0
 18 19  2  0  0  0
 18100  1  0  0  0
 19 20  1  0  0  0
 19 24  1  0  0  0
 20 21  2  0  0  0
 20101  1  0  0  0
 21 23  1  0  0  0
 22 28  1  0  0  0
 22 32  2  0  0  0
 26 27  1  0  0  0
 28102  1  0  0  0
 28103  1  0  0  0
 29104  1  0  0  0
 29105  1  0  0  0
 33 34  1  0  0  0
 33 66  1  0  0  0
 33 70  2  0  0  0
 34 36  1  0  0  0
 34 59  1  0  0  0
 34106  1  0  0  0
 35 44  2  0  0  0
 35 45  1  0  0  0
 35 68  1  0  0  0
 36 56  1  0  0  0
 36107  1  0  0  0
 37 39  1  0  0  0
 37 47  1  0  0  0
 37 66  1  0  0  0
 37108  1  0  0  0
 38 43  2  0  0  0
 38 46  1  0  0  0
 38 47  1  0  0  0
 39 64  1  0  0  0
 39 67  2  0  0  0
 40 52  1  0  0  0
 40 53  2  0  0  0
 40 58  1  0  0  0
 41109  1  0  0  0
 41110  1  0  0  0
 41111  1  0  0  0
 41 48  1  0  0  0
 42 43  1  0  0  0
 42 66  1  0  0  0
 42112  1  0  0  0
 42113  1  0  0  0
 43 44  1  0  0  0
 44114  1  0  0  0
 45 46  2  0  0  0
 45115  1  0  0  0
 46116  1  0  0  0
 47117  1  0  0  0
 47118  1  0  0  0
 48 56  1  0  0  0
 48 65  1  0  0  0
 48119  1  0  0  0
 49 50  1  0  0  0
 49 53  1  0  0  0
 49 64  1  0  0  0
 49120  1  0  0  0
 50 51  1  0  0  0
 50121  1  0  0  0
 50122  1  0  0  0
 51 52  1  0  0  0
 51123  1  0  0  0
 51124  1  0  0  0
 52125  1  0  0  0
 52126  1  0  0  0
 53 54  1  0  0  0
 54 55  2  0  0  0
 54127  1  0  0  0
 55 57  1  0  0  0
 55128  1  0  0  0
 56 69  2  0  0  0
 57 58  2  0  0  0
 57129  1  0  0  0
 58130  1  0  0  0
 59 60  1  0  0  0
 59 61  1  0  0  0
 59 62  1  0  0  0
 60131  1  0  0  0
 60132  1  0  0  0
 60133  1  0  0  0
 61134  1  0  0  0
 61135  1  0  0  0
 61136  1  0  0  0
 62137  1  0  0  0
 62138  1  0  0  0
 62139  1  0  0  0
 63 65  1  0  0  0
 63140  1  0  0  0
 63141  1  0  0  0
 63142  1  0  0  0
 64143  1  0  0  0
 65144  1  0  0  0
 68 81  1  0  0  0
 71 73  2  0  0  0
 71 75  1  0  0  0
 71145  1  0  0  0
 72 75  2  0  0  0
 72 76  1  0  0  0
 72146  1  0  0  0
 73 74  1  0  0  0
 73 79  1  0  0  0
 74 76  2  0  0  0
 74 78  1  0  0  0
 75 83  1  0  0  0
 76 82  1  0  0  0
 77 80  1  0  0  0
 77 83  1  0  0  0
 77 85  2  0  0  0
 78 79  1  0  0  0
 78147  1  0  0  0
 78148  1  0  0  0
 79 84  1  0  0  0
 79149  1  0  0  0
 80 81  1  0  0  0
 80150  1  0  0  0
 80151  1  0  0  0
 81152  1  0  0  0
 81153  1  0  0  0
 82154  1  0  0  0
 82155  1  0  0  0
 83156  1  0  0  0
 84157  1  0  0  0
M  ISO  4   1 100  68 101  81 101  84 100
M  END
> <chiral flag>
0

> <version>
0

> <s_m_source_file>
/data/baiqing/PycharmProjects/Reinvent-master-3.2/result/LINK_invent/BTK/process_docking_weight1_custom_product_contain_oxygen_bond_distance_aromatic_linkinvent_7_9_3/rearranged_h_0153.sdf

> <i_m_source_file_index>
31

> <r_mmod_Potential_Energy-OPLS-2005>
336.425750732422

> <r_mmod_Stretch_Energy-OPLS-2005>
66.7394104003906

> <r_mmod_Bend_Energy-OPLS-2005>
507.966522216797

> <r_mmod_Torsional_Energy-OPLS-2005>
296.520416259766

> <r_mmod_Improper_Torsional_Energy-OPLS-2005>
6.92362689971924

> <r_mmod_Van_der_Waal_Energy-OPLS-2005>
148.294937133789

> <r_mmod_Electrostatic_Energy-OPLS-2005>
-481.535003662109

> <r_mmod_Solvation_Energy-OPLS-2005>
-242.694030761719

> <b_mmod_Minimization_Converged-OPLS-2005>
0

> <r_mmod_RMS_Derivative-OPLS-2005>
5.35960960388184

$$$$
31
                    3D
 Structure written by MMmdl.
155163  0  0  1  0            999 V2000
  -30.6517  -14.5158   20.5376 C   0  0  0  0  0  0
  -30.4228  -12.3113   19.4520 C   0  0  0  0  0  0
  -29.4992  -12.4908   18.2274 C   0  0  0  0  0  0
  -28.0177  -12.3553   18.6304 C   0  0  0  0  0  0
  -27.6526  -13.2089   19.8746 C   0  0  2  0  0  0
  -28.6880  -12.9991   21.0023 C   0  0  0  0  0  0
  -25.2506  -13.8173   20.5689 C   0  0  0  0  0  0
  -24.1774  -13.0445   20.9162 C   0  0  0  0  0  0
  -24.6340  -11.6909   20.8737 C   0  0  0  0  0  0
  -23.9034  -10.4279   21.0419 C   0  0  0  0  0  0
  -24.3614   -9.4201   21.9191 C   0  0  0  0  0  0
  -23.6305   -8.2230   22.0766 C   0  0  0  0  0  0
  -22.4281   -8.0259   21.3559 C   0  0  0  0  0  0
  -21.9910   -9.0218   20.4666 C   0  0  0  0  0  0
  -22.7209  -10.2101   20.3069 C   0  0  0  0  0  0
  -21.6836   -6.0723   22.5261 C   0  0  0  0  0  0
  -21.3985   -6.5624   23.8198 C   0  0  0  0  0  0
  -21.3686   -5.6781   24.9171 C   0  0  0  0  0  0
  -21.6059   -4.3046   24.7214 C   0  0  0  0  0  0
  -21.8819   -3.8130   23.4328 C   0  0  0  0  0  0
  -21.9189   -4.6958   22.3390 C   0  0  0  0  0  0
  -22.7785  -13.5249   21.1843 C   0  0  0  0  0  0
  -22.1650   -4.2131   21.0961 F   0  0  0  0  0  0
  -21.5690   -3.4549   25.7734 F   0  0  0  0  0  0
  -30.0233  -13.3079   20.4610 N   0  0  0  0  0  0
  -26.2933  -12.9353   20.3351 N   0  0  0  0  0  0
  -25.9260  -11.6509   20.5729 N   0  0  0  0  0  0
  -22.0444  -12.8245   22.0411 N   0  0  0  0  0  0
  -25.4266  -15.1894   20.4160 N   0  0  0  0  0  0
  -31.7867  -14.6997   20.0829 O   0  0  0  0  0  0
  -21.6648   -6.8859   21.4225 O   0  0  0  0  0  0
  -22.3456  -14.5550   20.6680 O   0  0  0  0  0  0
  -24.6153  -31.8652   23.2079 C   0  0  0  0  0  0
  -25.9054  -32.4771   23.8393 C   0  0  1  0  0  0
  -27.2270  -27.4159   20.0945 C   0  0  0  0  0  0
  -25.5904  -33.8569   24.2314 N   0  0  0  0  0  0
  -23.4045  -30.4896   21.5495 C   0  0  2  0  0  0
  -24.8519  -28.9550   20.1103 C   0  0  0  0  0  0
  -22.7413  -29.4671   22.5006 C   0  0  0  0  0  0
  -18.0272  -28.1355   22.8492 C   0  0  0  0  0  0
  -24.1492  -36.7337   23.2637 C   0  0  0  0  0  0
  -25.9339  -30.8231   21.3640 C   0  0  0  0  0  0
  -26.0135  -29.4575   20.7108 C   0  0  0  0  0  0
  -27.2087  -28.6987   20.6952 C   0  0  0  0  0  0
  -26.0510  -26.9340   19.4834 C   0  0  0  0  0  0
  -24.8683  -27.6961   19.4879 C   0  0  0  0  0  0
  -23.6136  -29.8210   20.1644 C   0  0  0  0  0  0
  -25.4088  -36.3098   24.0351 C   0  0  1  0  0  0
  -20.5848  -28.3680   23.1297 C   0  0  2  0  0  0
  -20.6776  -26.9420   22.5402 C   0  0  0  0  0  0
  -19.5763  -26.6379   21.5192 C   0  0  0  0  0  0
  -18.1938  -26.7899   22.1610 C   0  0  0  0  0  0
  -19.1516  -28.8831   23.2899 C   0  0  0  0  0  0
  -18.9441  -30.1429   23.8934 C   0  0  0  0  0  0
  -17.6446  -30.6577   24.0554 C   0  0  0  0  0  0
  -25.9016  -34.9451   23.5128 C   0  0  0  0  0  0
  -16.5340  -29.9077   23.6306 C   0  0  0  0  0  0
  -16.7259  -28.6469   23.0365 C   0  0  0  0  0  0
  -26.4481  -31.6545   25.0710 C   0  0  0  0  0  0
  -25.3760  -31.3656   26.1479 C   0  0  0  0  0  0
  -27.0277  -30.2983   24.6040 C   0  0  0  0  0  0
  -27.6055  -32.4270   25.7473 C   0  0  0  0  0  0
  -27.5587  -37.1795   24.8436 C   0  0  0  0  0  0
  -21.4139  -29.3059   22.3723 N   0  0  0  0  0  0
  -26.4272  -37.3786   23.9419 N   0  0  0  0  0  0
  -24.6703  -31.0728   22.0999 N   0  0  0  0  0  0
  -23.4166  -28.8225   23.3072 O   0  0  0  0  0  0
  -28.3637  -26.6353   20.0857 O   0  0  0  0  0  0
  -26.5591  -34.8909   22.4698 O   0  0  0  0  0  0
  -23.5344  -32.1475   23.7443 O   0  0  0  0  0  0
  -29.8001  -18.0629   21.3096 C   0  0  0  0  0  0
  -29.7593  -17.1467   19.1516 C   0  0  0  0  0  0
  -29.8525  -16.8753   20.4954 C   0  0  0  0  0  0
  -29.7515  -19.2370   20.5736 C   0  0  0  0  0  0
  -29.8464  -20.6263   21.0384 C   0  0  0  0  0  0
  -28.6970  -24.1475   19.9726 C   0  0  0  0  0  0
  -31.1129  -23.4781   20.3775 C   0  0  0  0  0  0
  -28.2277  -25.3782   20.7910 C   0  0  0  0  0  0
  -29.6352  -23.1359   20.6873 C   0  0  2  0  0  0
  -30.5026  -20.8501   22.1879 N   0  0  0  0  0  0
  -29.9149  -15.5412   21.0280 N   0  0  0  0  0  0
  -29.3516  -21.7031   20.3610 N   0  3  0  0  0  0
  -28.3198  -23.9916   18.8070 O   0  0  0  0  0  0
  -29.6878  -18.8724   18.8589 S   0  0  0  0  0  0
  -31.4664  -12.4066   19.1506 H   0  0  0  0  0  0
  -30.3284  -11.3031   19.8619 H   0  0  0  0  0  0
  -29.7466  -11.7543   17.4613 H   0  0  0  0  0  0
  -29.6675  -13.4691   17.7766 H   0  0  0  0  0  0
  -27.8313  -11.2991   18.8385 H   0  0  0  0  0  0
  -27.3773  -12.6175   17.7879 H   0  0  0  0  0  0
  -27.6930  -14.2549   19.5679 H   0  0  0  0  0  0
  -28.6573  -11.9632   21.3438 H   0  0  0  0  0  0
  -28.4425  -13.6014   21.8788 H   0  0  0  0  0  0
  -25.2763   -9.5670   22.4753 H   0  0  0  0  0  0
  -24.0018   -7.4630   22.7488 H   0  0  0  0  0  0
  -21.0847   -8.8746   19.8959 H   0  0  0  0  0  0
  -22.3704  -10.9654   19.6168 H   0  0  0  0  0  0
  -21.1929   -7.6119   23.9689 H   0  0  0  0  0  0
  -21.1540   -6.0515   25.9081 H   0  0  0  0  0  0
  -22.0587   -2.7586   23.2828 H   0  0  0  0  0  0
  -22.4098  -11.9930   22.4791 H   0  0  0  0  0  0
  -21.1073  -13.1268   22.2676 H   0  0  0  0  0  0
  -24.6723  -15.8548   20.5427 H   0  0  0  0  0  0
  -26.2969  -15.6259   20.1378 H   0  0  0  0  0  0
  -26.7092  -32.5473   23.1132 H   0  0  0  0  0  0
  -25.0039  -33.9705   25.0451 H   0  0  0  0  0  0
  -22.6938  -31.3069   21.4054 H   0  0  0  0  0  0
  -23.3734  -35.9688   23.3239 H   0  0  0  0  0  0
  -24.3617  -36.9005   22.2062 H   0  0  0  0  0  0
  -23.7250  -37.6531   23.6683 H   0  0  0  0  0  0
  -26.0316  -31.5830   20.5891 H   0  0  0  0  0  0
  -26.8265  -30.8794   21.9754 H   0  0  0  0  0  0
  -28.1044  -29.0867   21.1597 H   0  0  0  0  0  0
  -26.0447  -25.9690   18.9967 H   0  0  0  0  0  0
  -23.9777  -27.3067   19.0140 H   0  0  0  0  0  0
  -23.7168  -30.5937   19.4027 H   0  0  0  0  0  0
  -22.7383  -29.2387   19.8736 H   0  0  0  0  0  0
  -25.1227  -36.1977   25.0839 H   0  0  0  0  0  0
  -20.9907  -28.3226   24.1425 H   0  0  0  0  0  0
  -20.5657  -26.2292   23.3595 H   0  0  0  0  0  0
  -21.6652  -26.7483   22.1193 H   0  0  0  0  0  0
  -19.6952  -25.6286   21.1226 H   0  0  0  0  0  0
  -19.6675  -27.3186   20.6709 H   0  0  0  0  0  0
  -17.4205  -26.6654   21.4013 H   0  0  0  0  0  0
  -18.0375  -26.0018   22.8986 H   0  0  0  0  0  0
  -19.7916  -30.7221   24.2343 H   0  0  0  0  0  0
  -17.5003  -31.6255   24.5149 H   0  0  0  0  0  0
  -15.5348  -30.2998   23.7584 H   0  0  0  0  0  0
  -15.8663  -28.0770   22.7112 H   0  0  0  0  0  0
  -24.5948  -30.6953   25.7879 H   0  0  0  0  0  0
  -24.8925  -32.2795   26.4933 H   0  0  0  0  0  0
  -25.8148  -30.8874   27.0242 H   0  0  0  0  0  0
  -26.2789  -29.6766   24.1106 H   0  0  0  0  0  0
  -27.4083  -29.7169   25.4450 H   0  0  0  0  0  0
  -27.8618  -30.4293   23.9136 H   0  0  0  0  0  0
  -27.2659  -33.3558   26.2068 H   0  0  0  0  0  0
  -28.3862  -32.6839   25.0302 H   0  0  0  0  0  0
  -28.0728  -31.8387   26.5381 H   0  0  0  0  0  0
  -28.2531  -38.0162   24.7558 H   0  0  0  0  0  0
  -28.1155  -36.2694   24.6141 H   0  0  0  0  0  0
  -27.2327  -37.1299   25.8841 H   0  0  0  0  0  0
  -20.9348  -29.8795   21.6927 H   0  0  0  0  0  0
  -26.0163  -38.2860   24.1444 H   0  0  0  0  0  0
  -29.8441  -18.0199   22.3885 H   0  0  0  0  0  0
  -29.7364  -16.4550   18.3155 H   0  0  0  0  0  0
  -31.5731  -23.9949   21.2177 H   0  0  0  0  0  0
  -31.2345  -24.1212   19.5029 H   0  0  0  0  0  0
  -31.7094  -22.5847   20.1918 H   0  0  0  0  0  0
  -28.7870  -25.4427   21.7228 H   0  0  0  0  0  0
  -27.1908  -25.1934   21.0745 H   0  0  0  0  0  0
  -29.4792  -23.2469   21.7609 H   0  0  0  0  0  0
  -30.8915  -20.0852   22.7183 H   0  0  0  0  0  0
  -30.6242  -21.7818   22.5489 H   0  0  0  0  0  0
  -29.1478  -15.2721   21.6288 H   0  0  0  0  0  0
  -28.7819  -21.5430   19.5407 H   0  0  0  0  0  0
  1 25  1  0  0  0
  1 30  2  0  0  0
  1 81  1  0  0  0
  2  3  1  0  0  0
  2 25  1  0  0  0
  2 85  1  0  0  0
  2 86  1  0  0  0
  3  4  1  0  0  0
  3 87  1  0  0  0
  3 88  1  0  0  0
  4  5  1  0  0  0
  4 89  1  0  0  0
  4 90  1  0  0  0
  5  6  1  0  0  0
  5 26  1  0  0  0
  5 91  1  0  0  0
  6 25  1  0  0  0
  6 92  1  0  0  0
  6 93  1  0  0  0
  7  8  2  0  0  0
  7 26  1  0  0  0
  7 29  1  0  0  0
  8  9  1  0  0  0
  8 22  1  0  0  0
  9 10  1  0  0  0
  9 27  2  0  0  0
 10 11  2  0  0  0
 10 15  1  0  0  0
 11 12  1  0  0  0
 11 94  1  0  0  0
 12 13  2  0  0  0
 12 95  1  0  0  0
 13 14  1  0  0  0
 13 31  1  0  0  0
 14 15  2  0  0  0
 14 96  1  0  0  0
 15 97  1  0  0  0
 16 17  2  0  0  0
 16 21  1  0  0  0
 16 31  1  0  0  0
 17 18  1  0  0  0
 17 98  1  0  0  0
 18 19  2  0  0  0
 18 99  1  0  0  0
 19 20  1  0  0  0
 19 24  1  0  0  0
 20 21  2  0  0  0
 20100  1  0  0  0
 21 23  1  0  0  0
 22 28  1  0  0  0
 22 32  2  0  0  0
 26 27  1  0  0  0
 28101  1  0  0  0
 28102  1  0  0  0
 29103  1  0  0  0
 29104  1  0  0  0
 33 34  1  0  0  0
 33 66  1  0  0  0
 33 70  2  0  0  0
 34 36  1  0  0  0
 34 59  1  0  0  0
 34105  1  0  0  0
 35 44  2  0  0  0
 35 45  1  0  0  0
 35 68  1  0  0  0
 36 56  1  0  0  0
 36106  1  0  0  0
 37 39  1  0  0  0
 37 47  1  0  0  0
 37 66  1  0  0  0
 37107  1  0  0  0
 38 43  2  0  0  0
 38 46  1  0  0  0
 38 47  1  0  0  0
 39 64  1  0  0  0
 39 67  2  0  0  0
 40 52  1  0  0  0
 40 53  2  0  0  0
 40 58  1  0  0  0
 41108  1  0  0  0
 41109  1  0  0  0
 41110  1  0  0  0
 41 48  1  0  0  0
 42 43  1  0  0  0
 42 66  1  0  0  0
 42111  1  0  0  0
 42112  1  0  0  0
 43 44  1  0  0  0
 44113  1  0  0  0
 45 46  2  0  0  0
 45114  1  0  0  0
 46115  1  0  0  0
 47116  1  0  0  0
 47117  1  0  0  0
 48 56  1  0  0  0
 48 65  1  0  0  0
 48118  1  0  0  0
 49 50  1  0  0  0
 49 53  1  0  0  0
 49 64  1  0  0  0
 49119  1  0  0  0
 50 51  1  0  0  0
 50120  1  0  0  0
 50121  1  0  0  0
 51 52  1  0  0  0
 51122  1  0  0  0
 51123  1  0  0  0
 52124  1  0  0  0
 52125  1  0  0  0
 53 54  1  0  0  0
 54 55  2  0  0  0
 54126  1  0  0  0
 55 57  1  0  0  0
 55127  1  0  0  0
 56 69  2  0  0  0
 57 58  2  0  0  0
 57128  1  0  0  0
 58129  1  0  0  0
 59 60  1  0  0  0
 59 61  1  0  0  0
 59 62  1  0  0  0
 60130  1  0  0  0
 60131  1  0  0  0
 60132  1  0  0  0
 61133  1  0  0  0
 61134  1  0  0  0
 61135  1  0  0  0
 62136  1  0  0  0
 62137  1  0  0  0
 62138  1  0  0  0
 63 65  1  0  0  0
 63139  1  0  0  0
 63140  1  0  0  0
 63141  1  0  0  0
 64142  1  0  0  0
 65143  1  0  0  0
 68 78  1  0  0  0
 71 73  1  0  0  0
 71 74  2  0  0  0
 71144  1  0  0  0
 72 73  2  0  0  0
 72 84  1  0  0  0
 72145  1  0  0  0
 73 81  1  0  0  0
 74 75  1  0  0  0
 74 84  1  0  0  0
 75 80  1  0  0  0
 75 82  2  0  0  0
 76 78  1  0  0  0
 76 79  1  0  0  0
 76 83  2  0  0  0
 77146  1  0  0  0
 77147  1  0  0  0
 77148  1  0  0  0
 77 79  1  0  0  0
 78149  1  0  0  0
 78150  1  0  0  0
 79 82  1  0  0  0
 79151  1  0  0  0
 80152  1  0  0  0
 80153  1  0  0  0
 81154  1  0  0  0
 82155  1  0  0  0
M  CHG  1  82   1
M  ISO  4   1 100  68 101  78 101  81 100
M  END
> <chiral flag>
0

> <version>
0

> <s_m_source_file>
/data/baiqing/PycharmProjects/Reinvent-master-3.2/result/LINK_invent/BTK/process_docking_weight1_custom_product_contain_oxygen_bond_distance_aromatic_linkinvent_7_9_3/rearranged_h_0153.sdf

> <i_m_source_file_index>
32

> <r_mmod_Potential_Energy-OPLS-2005>
-212.642761230469

> <r_mmod_Stretch_Energy-OPLS-2005>
43.3771667480469

> <r_mmod_Bend_Energy-OPLS-2005>
98.3791809082031

> <r_mmod_Torsional_Energy-OPLS-2005>
267.012298583984

> <r_mmod_Improper_Torsional_Energy-OPLS-2005>
4.51449346542358

> <r_mmod_Van_der_Waal_Energy-OPLS-2005>
125.299880981445

> <r_mmod_Electrostatic_Energy-OPLS-2005>
-279.878570556641

> <r_mmod_Solvation_Energy-OPLS-2005>
-489.296539306641

> <b_mmod_Minimization_Converged-OPLS-2005>
0

> <r_mmod_RMS_Derivative-OPLS-2005>
4.01739549636841

$$$$
32
                    3D
 Structure written by MMmdl.
164173  0  0  1  0            999 V2000
  -30.6807  -14.4796   20.5685 C   0  0  0  0  0  0
  -30.4253  -12.3081   19.4290 C   0  0  0  0  0  0
  -29.4962  -12.5049   18.2126 C   0  0  0  0  0  0
  -28.0165  -12.3663   18.6211 C   0  0  0  0  0  0
  -27.6616  -13.2043   19.8779 C   0  0  2  0  0  0
  -28.7011  -12.9817   21.0010 C   0  0  0  0  0  0
  -25.2571  -13.8159   20.5664 C   0  0  0  0  0  0
  -24.1829  -13.0441   20.9161 C   0  0  0  0  0  0
  -24.6384  -11.6909   20.8740 C   0  0  0  0  0  0
  -23.9061  -10.4297   21.0406 C   0  0  0  0  0  0
  -24.3617   -9.4211   21.9183 C   0  0  0  0  0  0
  -23.6281   -8.2255   22.0762 C   0  0  0  0  0  0
  -22.4267   -8.0291   21.3552 C   0  0  0  0  0  0
  -21.9906   -9.0268   20.4655 C   0  0  0  0  0  0
  -22.7237  -10.2141   20.3056 C   0  0  0  0  0  0
  -21.6854   -6.0731   22.5273 C   0  0  0  0  0  0
  -21.4017   -6.5631   23.8207 C   0  0  0  0  0  0
  -21.3658   -5.6786   24.9170 C   0  0  0  0  0  0
  -21.6038   -4.3050   24.7221 C   0  0  0  0  0  0
  -21.8817   -3.8146   23.4339 C   0  0  0  0  0  0
  -21.9194   -4.6961   22.3395 C   0  0  0  0  0  0
  -22.7853  -13.5241   21.1821 C   0  0  0  0  0  0
  -22.1658   -4.2141   21.0973 F   0  0  0  0  0  0
  -21.5624   -3.4534   25.7731 F   0  0  0  0  0  0
  -30.0340  -13.2884   20.4545 N   0  0  0  0  0  0
  -26.3013  -12.9329   20.3366 N   0  0  0  0  0  0
  -25.9311  -11.6498   20.5784 N   0  0  0  0  0  0
  -22.0486  -12.8259   22.0385 N   0  0  0  0  0  0
  -25.4288  -15.1887   20.4067 N   0  0  0  0  0  0
  -31.8012  -14.6848   20.0950 O   0  0  0  0  0  0
  -21.6640   -6.8883   21.4240 O   0  0  0  0  0  0
  -22.3554  -14.5551   20.6665 O   0  0  0  0  0  0
  -24.6153  -31.8680   23.2086 C   0  0  0  0  0  0
  -25.9039  -32.4824   23.8396 C   0  0  1  0  0  0
  -27.2355  -27.4269   20.1090 C   0  0  0  0  0  0
  -25.5897  -33.8624   24.2333 N   0  0  0  0  0  0
  -23.4048  -30.4891   21.5499 C   0  0  2  0  0  0
  -24.8550  -28.9548   20.1147 C   0  0  0  0  0  0
  -22.7419  -29.4656   22.4993 C   0  0  0  0  0  0
  -18.0275  -28.1372   22.8497 C   0  0  0  0  0  0
  -24.1487  -36.7311   23.2639 C   0  0  0  0  0  0
  -25.9341  -30.8312   21.3640 C   0  0  0  0  0  0
  -26.0151  -29.4652   20.7118 C   0  0  0  0  0  0
  -27.2121  -28.7097   20.7049 C   0  0  0  0  0  0
  -26.0630  -26.9352   19.4980 C   0  0  0  0  0  0
  -24.8740  -27.6885   19.5033 C   0  0  0  0  0  0
  -23.6146  -29.8195   20.1655 C   0  0  0  0  0  0
  -25.4109  -36.3114   24.0339 C   0  0  1  0  0  0
  -20.5864  -28.3665   23.1317 C   0  0  2  0  0  0
  -20.6765  -26.9402   22.5420 C   0  0  0  0  0  0
  -19.5746  -26.6386   21.5213 C   0  0  0  0  0  0
  -18.1924  -26.7921   22.1625 C   0  0  0  0  0  0
  -19.1524  -28.8836   23.2903 C   0  0  0  0  0  0
  -18.9454  -30.1441   23.8912 C   0  0  0  0  0  0
  -17.6457  -30.6585   24.0561 C   0  0  0  0  0  0
  -25.9038  -34.9478   23.5136 C   0  0  0  0  0  0
  -16.5346  -29.9082   23.6330 C   0  0  0  0  0  0
  -16.7264  -28.6495   23.0358 C   0  0  0  0  0  0
  -26.4467  -31.6599   25.0721 C   0  0  0  0  0  0
  -25.3728  -31.3697   26.1464 C   0  0  0  0  0  0
  -27.0304  -30.3046   24.6098 C   0  0  0  0  0  0
  -27.6063  -32.4307   25.7470 C   0  0  0  0  0  0
  -27.5588  -37.1807   24.8469 C   0  0  0  0  0  0
  -21.4147  -29.3024   22.3720 N   0  0  0  0  0  0
  -26.4298  -37.3797   23.9412 N   0  0  0  0  0  0
  -24.6695  -31.0767   22.0995 N   0  0  0  0  0  0
  -23.4180  -28.8206   23.3054 O   0  0  0  0  0  0
  -28.3671  -26.6398   20.1313 O   0  0  0  0  0  0
  -26.5604  -34.8925   22.4697 O   0  0  0  0  0  0
  -23.5341  -32.1440   23.7464 O   0  0  0  0  0  0
  -30.6215  -19.9945   20.3649 C   0  0  0  0  0  0
  -30.3157  -21.3840   20.1912 C   0  0  0  0  0  0
  -29.9076  -19.3863   21.3691 C   0  0  0  0  0  0
  -29.3626  -21.8644   21.0619 C   0  0  0  0  0  0
  -29.0240  -24.2506   20.5094 C   0  0  0  0  0  0
  -30.8603  -18.6560   24.2590 C   0  0  0  0  0  0
  -31.1869  -17.3967   25.0484 C   0  0  0  0  0  0
  -31.0440  -17.8067   22.9915 C   0  0  2  0  0  0
  -32.4701  -17.7541   22.4024 C   0  0  0  0  0  0
  -28.2442  -25.4939   21.0058 C   0  0  0  0  0  0
  -30.0921  -16.9139   20.7058 C   0  0  0  0  0  0
  -29.9732  -17.9501   21.8728 C   0  0  2  0  0  0
  -28.8364  -23.1161   21.2219 N   0  0  0  0  0  0
  -29.9390  -15.4882   21.0738 N   0  0  0  0  0  0
  -30.7965  -16.6413   23.8641 N   0  3  0  0  0  0
  -29.7598  -24.3243   19.5205 O   0  0  0  0  0  0
  -28.8187  -20.5532   22.0938 S   0  0  0  0  0  0
  -31.4691  -12.4111   19.1292 H   0  0  0  0  0  0
  -30.3317  -11.2958   19.8238 H   0  0  0  0  0  0
  -29.7386  -11.7817   17.4329 H   0  0  0  0  0  0
  -29.6642  -13.4915   17.7788 H   0  0  0  0  0  0
  -27.8242  -11.3106   18.8152 H   0  0  0  0  0  0
  -27.3697  -12.6436   17.7870 H   0  0  0  0  0  0
  -27.7072  -14.2522   19.5809 H   0  0  0  0  0  0
  -28.6746  -11.9446   21.3380 H   0  0  0  0  0  0
  -28.4633  -13.5791   21.8823 H   0  0  0  0  0  0
  -25.2763   -9.5678   22.4764 H   0  0  0  0  0  0
  -23.9978   -7.4648   22.7495 H   0  0  0  0  0  0
  -21.0832   -8.8795   19.8965 H   0  0  0  0  0  0
  -22.3697  -10.9687   19.6170 H   0  0  0  0  0  0
  -21.2006   -7.6140   23.9706 H   0  0  0  0  0  0
  -21.1483   -6.0517   25.9070 H   0  0  0  0  0  0
  -22.0599   -2.7607   23.2844 H   0  0  0  0  0  0
  -22.4083  -11.9905   22.4762 H   0  0  0  0  0  0
  -21.1115  -13.1326   22.2599 H   0  0  0  0  0  0
  -24.6569  -15.8399   20.4988 H   0  0  0  0  0  0
  -26.2713  -15.6274   20.0578 H   0  0  0  0  0  0
  -26.7115  -32.5539   23.1169 H   0  0  0  0  0  0
  -25.0054  -33.9799   25.0483 H   0  0  0  0  0  0
  -22.6938  -31.3053   21.4086 H   0  0  0  0  0  0
  -23.3757  -35.9636   23.3303 H   0  0  0  0  0  0
  -24.3582  -36.8920   22.2052 H   0  0  0  0  0  0
  -23.7227  -37.6512   23.6651 H   0  0  0  0  0  0
  -26.0469  -31.5953   20.5936 H   0  0  0  0  0  0
  -26.8207  -30.8861   21.9841 H   0  0  0  0  0  0
  -28.1057  -29.0965   21.1745 H   0  0  0  0  0  0
  -26.0677  -25.9604   19.0300 H   0  0  0  0  0  0
  -23.9821  -27.2885   19.0411 H   0  0  0  0  0  0
  -23.7190  -30.5933   19.4044 H   0  0  0  0  0  0
  -22.7393  -29.2366   19.8733 H   0  0  0  0  0  0
  -25.1278  -36.1990   25.0832 H   0  0  0  0  0  0
  -20.9953  -28.3228   24.1439 H   0  0  0  0  0  0
  -20.5680  -26.2269   23.3603 H   0  0  0  0  0  0
  -21.6633  -26.7450   22.1205 H   0  0  0  0  0  0
  -19.6908  -25.6300   21.1238 H   0  0  0  0  0  0
  -19.6687  -27.3196   20.6741 H   0  0  0  0  0  0
  -17.4198  -26.6674   21.4022 H   0  0  0  0  0  0
  -18.0319  -26.0052   22.9011 H   0  0  0  0  0  0
  -19.7929  -30.7248   24.2296 H   0  0  0  0  0  0
  -17.5013  -31.6272   24.5147 H   0  0  0  0  0  0
  -15.5345  -30.2988   23.7651 H   0  0  0  0  0  0
  -15.8664  -28.0815   22.7074 H   0  0  0  0  0  0
  -24.5903  -30.7047   25.7786 H   0  0  0  0  0  0
  -24.8911  -32.2845   26.4930 H   0  0  0  0  0  0
  -25.8067  -30.8853   27.0219 H   0  0  0  0  0  0
  -26.2848  -29.6798   24.1165 H   0  0  0  0  0  0
  -27.4092  -29.7288   25.4555 H   0  0  0  0  0  0
  -27.8669  -30.4374   23.9231 H   0  0  0  0  0  0
  -27.2723  -33.3625   26.2048 H   0  0  0  0  0  0
  -28.3862  -32.6833   25.0271 H   0  0  0  0  0  0
  -28.0736  -31.8418   26.5377 H   0  0  0  0  0  0
  -28.2607  -38.0109   24.7535 H   0  0  0  0  0  0
  -28.1089  -36.2641   24.6278 H   0  0  0  0  0  0
  -27.2310  -37.1429   25.8875 H   0  0  0  0  0  0
  -20.9309  -29.8745   21.6940 H   0  0  0  0  0  0
  -26.0195  -38.2879   24.1417 H   0  0  0  0  0  0
  -31.3629  -19.5015   19.7519 H   0  0  0  0  0  0
  -30.8203  -21.9713   19.4372 H   0  0  0  0  0  0
  -31.5742  -19.4725   24.3763 H   0  0  0  0  0  0
  -29.8348  -18.9952   24.4204 H   0  0  0  0  0  0
  -30.5527  -17.2191   25.9176 H   0  0  0  0  0  0
  -32.2459  -17.2844   25.2862 H   0  0  0  0  0  0
  -32.6674  -18.6050   21.7509 H   0  0  0  0  0  0
  -32.6466  -16.8518   21.8152 H   0  0  0  0  0  0
  -33.2389  -17.7811   23.1752 H   0  0  0  0  0  0
  -28.6223  -25.7721   21.9906 H   0  0  0  0  0  0
  -27.2041  -25.1971   21.1523 H   0  0  0  0  0  0
  -29.2975  -17.1223   19.9875 H   0  0  0  0  0  0
  -31.0155  -17.0792   20.1504 H   0  0  0  0  0  0
  -28.9967  -17.7630   22.3240 H   0  0  0  0  0  0
  -28.1950  -23.2155   21.9974 H   0  0  0  0  0  0
  -29.0273  -15.2035   21.4029 H   0  0  0  0  0  0
  -29.8221  -16.3928   23.9240 H   0  0  0  0  0  0
  -31.3754  -15.8346   23.6926 H   0  0  0  0  0  0
  1 25  1  0  0  0
  1 30  2  0  0  0
  1 84  1  0  0  0
  2  3  1  0  0  0
  2 25  1  0  0  0
  2 88  1  0  0  0
  2 89  1  0  0  0
  3  4  1  0  0  0
  3 90  1  0  0  0
  3 91  1  0  0  0
  4  5  1  0  0  0
  4 92  1  0  0  0
  4 93  1  0  0  0
  5  6  1  0  0  0
  5 26  1  0  0  0
  5 94  1  0  0  0
  6 25  1  0  0  0
  6 95  1  0  0  0
  6 96  1  0  0  0
  7  8  2  0  0  0
  7 26  1  0  0  0
  7 29  1  0  0  0
  8  9  1  0  0  0
  8 22  1  0  0  0
  9 10  1  0  0  0
  9 27  2  0  0  0
 10 11  2  0  0  0
 10 15  1  0  0  0
 11 12  1  0  0  0
 11 97  1  0  0  0
 12 13  2  0  0  0
 12 98  1  0  0  0
 13 14  1  0  0  0
 13 31  1  0  0  0
 14 15  2  0  0  0
 14 99  1  0  0  0
 15100  1  0  0  0
 16 17  2  0  0  0
 16 21  1  0  0  0
 16 31  1  0  0  0
 17 18  1  0  0  0
 17101  1  0  0  0
 18 19  2  0  0  0
 18102  1  0  0  0
 19 20  1  0  0  0
 19 24  1  0  0  0
 20 21  2  0  0  0
 20103  1  0  0  0
 21 23  1  0  0  0
 22 28  1  0  0  0
 22 32  2  0  0  0
 26 27  1  0  0  0
 28104  1  0  0  0
 28105  1  0  0  0
 29106  1  0  0  0
 29107  1  0  0  0
 33 34  1  0  0  0
 33 66  1  0  0  0
 33 70  2  0  0  0
 34 36  1  0  0  0
 34 59  1  0  0  0
 34108  1  0  0  0
 35 44  2  0  0  0
 35 45  1  0  0  0
 35 68  1  0  0  0
 36 56  1  0  0  0
 36109  1  0  0  0
 37 39  1  0  0  0
 37 47  1  0  0  0
 37 66  1  0  0  0
 37110  1  0  0  0
 38 43  2  0  0  0
 38 46  1  0  0  0
 38 47  1  0  0  0
 39 64  1  0  0  0
 39 67  2  0  0  0
 40 52  1  0  0  0
 40 53  2  0  0  0
 40 58  1  0  0  0
 41111  1  0  0  0
 41112  1  0  0  0
 41113  1  0  0  0
 41 48  1  0  0  0
 42 43  1  0  0  0
 42 66  1  0  0  0
 42114  1  0  0  0
 42115  1  0  0  0
 43 44  1  0  0  0
 44116  1  0  0  0
 45 46  2  0  0  0
 45117  1  0  0  0
 46118  1  0  0  0
 47119  1  0  0  0
 47120  1  0  0  0
 48 56  1  0  0  0
 48 65  1  0  0  0
 48121  1  0  0  0
 49 50  1  0  0  0
 49 53  1  0  0  0
 49 64  1  0  0  0
 49122  1  0  0  0
 50 51  1  0  0  0
 50123  1  0  0  0
 50124  1  0  0  0
 51 52  1  0  0  0
 51125  1  0  0  0
 51126  1  0  0  0
 52127  1  0  0  0
 52128  1  0  0  0
 53 54  1  0  0  0
 54 55  2  0  0  0
 54129  1  0  0  0
 55 57  1  0  0  0
 55130  1  0  0  0
 56 69  2  0  0  0
 57 58  2  0  0  0
 57131  1  0  0  0
 58132  1  0  0  0
 59 60  1  0  0  0
 59 61  1  0  0  0
 59 62  1  0  0  0
 60133  1  0  0  0
 60134  1  0  0  0
 60135  1  0  0  0
 61136  1  0  0  0
 61137  1  0  0  0
 61138  1  0  0  0
 62139  1  0  0  0
 62140  1  0  0  0
 62141  1  0  0  0
 63 65  1  0  0  0
 63142  1  0  0  0
 63143  1  0  0  0
 63144  1  0  0  0
 64145  1  0  0  0
 65146  1  0  0  0
 68 80  1  0  0  0
 71 72  1  0  0  0
 71 73  2  0  0  0
 71147  1  0  0  0
 72 74  2  0  0  0
 72148  1  0  0  0
 73 82  1  0  0  0
 73 87  1  0  0  0
 74 83  1  0  0  0
 74 87  1  0  0  0
 75 80  1  0  0  0
 75 83  1  0  0  0
 75 86  2  0  0  0
 76 77  1  0  0  0
 76 78  1  0  0  0
 76149  1  0  0  0
 76150  1  0  0  0
 77 85  1  0  0  0
 77151  1  0  0  0
 77152  1  0  0  0
 78 79  1  0  0  0
 78 82  1  0  0  0
 78 85  1  0  0  0
 79153  1  0  0  0
 79154  1  0  0  0
 79155  1  0  0  0
 80156  1  0  0  0
 80157  1  0  0  0
 81 84  1  0  0  0
 81158  1  0  0  0
 81159  1  0  0  0
 81 82  1  0  0  0
 82160  1  0  0  0
 83161  1  0  0  0
 84162  1  0  0  0
 85163  1  0  0  0
 85164  1  0  0  0
M  CHG  1  85   1
M  ISO  4   1 100  68 101  80 101  84 100
M  END
> <chiral flag>
0

> <version>
0

> <s_m_source_file>
/data/baiqing/PycharmProjects/Reinvent-master-3.2/result/LINK_invent/BTK/process_docking_weight1_custom_product_contain_oxygen_bond_distance_aromatic_linkinvent_7_9_3/rearranged_h_0153.sdf

> <i_m_source_file_index>
33

> <r_mmod_Potential_Energy-OPLS-2005>
-225.680236816406

> <r_mmod_Stretch_Energy-OPLS-2005>
42.7163200378418

> <r_mmod_Bend_Energy-OPLS-2005>
124.93433380127

> <r_mmod_Torsional_Energy-OPLS-2005>
270.326477050781

> <r_mmod_Improper_Torsional_Energy-OPLS-2005>
5.77993679046631

> <r_mmod_Van_der_Waal_Energy-OPLS-2005>
127.158271789551

> <r_mmod_Electrostatic_Energy-OPLS-2005>
-299.226104736328

> <r_mmod_Solvation_Energy-OPLS-2005>
-511.690216064453

> <b_mmod_Minimization_Converged-OPLS-2005>
0

> <r_mmod_RMS_Derivative-OPLS-2005>
1.35101461410522

$$$$
33
                    3D
 Structure written by MMmdl.
154163  0  0  1  0            999 V2000
  -30.5145  -14.8373   20.4654 C   0  0  0  0  0  0
  -30.4513  -12.5141   19.4767 C   0  0  0  0  0  0
  -29.5154  -12.5305   18.2426 C   0  0  0  0  0  0
  -28.0449  -12.3291   18.6603 C   0  0  0  0  0  0
  -27.6432  -13.2283   19.8582 C   0  0  2  0  0  0
  -28.6886  -13.1450   20.9926 C   0  0  0  0  0  0
  -25.2523  -13.8196   20.5730 C   0  0  0  0  0  0
  -24.1799  -13.0448   20.9231 C   0  0  0  0  0  0
  -24.6378  -11.6921   20.8768 C   0  0  0  0  0  0
  -23.9064  -10.4299   21.0422 C   0  0  0  0  0  0
  -24.3616   -9.4207   21.9197 C   0  0  0  0  0  0
  -23.6295   -8.2233   22.0748 C   0  0  0  0  0  0
  -22.4277   -8.0277   21.3535 C   0  0  0  0  0  0
  -21.9914   -9.0256   20.4640 C   0  0  0  0  0  0
  -22.7241  -10.2140   20.3063 C   0  0  0  0  0  0
  -21.6847   -6.0740   22.5289 C   0  0  0  0  0  0
  -21.4004   -6.5638   23.8225 C   0  0  0  0  0  0
  -21.3664   -5.6788   24.9183 C   0  0  0  0  0  0
  -21.6047   -4.3052   24.7229 C   0  0  0  0  0  0
  -21.8817   -3.8150   23.4347 C   0  0  0  0  0  0
  -21.9186   -4.6968   22.3406 C   0  0  0  0  0  0
  -22.7819  -13.5225   21.1901 C   0  0  0  0  0  0
  -22.1659   -4.2154   21.0986 F   0  0  0  0  0  0
  -21.5638   -3.4537   25.7740 F   0  0  0  0  0  0
  -29.9824  -13.5585   20.4233 N   0  0  0  0  0  0
  -26.2937  -12.9383   20.3322 N   0  0  0  0  0  0
  -25.9307  -11.6534   20.5772 N   0  0  0  0  0  0
  -22.0466  -12.8201   22.0447 N   0  0  0  0  0  0
  -25.4256  -15.1922   20.4166 N   0  0  0  0  0  0
  -31.6798  -15.0232   20.0937 O   0  0  0  0  0  0
  -21.6630   -6.8882   21.4245 O   0  0  0  0  0  0
  -22.3513  -14.5539   20.6764 O   0  0  0  0  0  0
  -24.6313  -31.8502   23.1905 C   0  0  0  0  0  0
  -25.9110  -32.4742   23.8278 C   0  0  1  0  0  0
  -27.2265  -27.2019   20.1281 C   0  0  0  0  0  0
  -25.5892  -33.8542   24.2194 N   0  0  0  0  0  0
  -23.4341  -30.4694   21.5359 C   0  0  2  0  0  0
  -24.8849  -28.9063   20.1085 C   0  0  0  0  0  0
  -22.7517  -29.4569   22.4881 C   0  0  0  0  0  0
  -18.0304  -28.1411   22.8528 C   0  0  0  0  0  0
  -24.1474  -36.7230   23.2652 C   0  0  0  0  0  0
  -25.9852  -30.7442   21.3803 C   0  0  0  0  0  0
  -26.0581  -29.3612   20.7222 C   0  0  0  0  0  0
  -27.2266  -28.5215   20.7207 C   0  0  0  0  0  0
  -26.0199  -26.8269   19.4941 C   0  0  0  0  0  0
  -24.8747  -27.6502   19.4852 C   0  0  0  0  0  0
  -23.6565  -29.7977   20.1552 C   0  0  0  0  0  0
  -25.4118  -36.3047   24.0324 C   0  0  1  0  0  0
  -20.5903  -28.3680   23.1287 C   0  0  2  0  0  0
  -20.6761  -26.9388   22.5427 C   0  0  0  0  0  0
  -19.5738  -26.6391   21.5233 C   0  0  0  0  0  0
  -18.1924  -26.7954   22.1647 C   0  0  0  0  0  0
  -19.1568  -28.8860   23.2897 C   0  0  0  0  0  0
  -18.9494  -30.1470   23.8897 C   0  0  0  0  0  0
  -17.6494  -30.6612   24.0581 C   0  0  0  0  0  0
  -25.9068  -34.9433   23.5066 C   0  0  0  0  0  0
  -16.5377  -29.9127   23.6361 C   0  0  0  0  0  0
  -16.7288  -28.6547   23.0376 C   0  0  0  0  0  0
  -26.4469  -31.6603   25.0700 C   0  0  0  0  0  0
  -25.3664  -31.3810   26.1410 C   0  0  0  0  0  0
  -27.0295  -30.3002   24.6209 C   0  0  0  0  0  0
  -27.5995  -32.4345   25.7496 C   0  0  0  0  0  0
  -27.5559  -37.1770   24.8485 C   0  0  0  0  0  0
  -21.4212  -29.3031   22.3656 N   0  0  0  0  0  0
  -26.4276  -37.3755   23.9433 N   0  0  0  0  0  0
  -24.7026  -31.0410   22.0911 N   0  0  0  0  0  0
  -23.4205  -28.8099   23.2977 O   0  0  0  0  0  0
  -28.3284  -26.2946   20.2234 O   0  0  0  0  0  0
  -26.5665  -34.8925   22.4657 O   0  0  0  0  0  0
  -23.5447  -32.1324   23.7183 O   0  0  0  0  0  0
  -30.0992  -18.4862   20.0893 C   0  0  0  0  0  0
  -28.3356  -17.8582   21.4492 C   0  0  0  0  0  0
  -29.4314  -17.3588   20.7770 C   0  0  0  0  0  0
  -29.4740  -19.7718   20.1920 C   0  0  0  0  0  0
  -29.7547  -21.0715   19.4312 C   0  0  0  0  0  0
  -29.7044  -24.8428   18.8319 C   0  0  0  0  0  0
  -29.9392  -23.3667   18.4535 C   0  0  0  0  0  0
  -28.5806  -23.4368   20.3917 C   0  0  0  0  0  0
  -28.4072  -24.8832   19.6264 C   0  0  1  0  0  0
  -29.4045  -22.4677   19.5181 N   0  0  0  0  0  0
  -29.6264  -15.8592   20.8272 N   0  0  0  0  0  0
  -30.5232  -20.7626   18.3692 N   0  3  0  0  0  0
  -28.0892  -19.5993   21.2400 S   0  0  0  0  0  0
  -31.4826  -12.6890   19.1660 H   0  0  0  0  0  0
  -30.4425  -11.5330   19.9535 H   0  0  0  0  0  0
  -29.8090  -11.7580   17.5301 H   0  0  0  0  0  0
  -29.6179  -13.4826   17.7202 H   0  0  0  0  0  0
  -27.9224  -11.2815   18.9358 H   0  0  0  0  0  0
  -27.3773  -12.5025   17.8153 H   0  0  0  0  0  0
  -27.6378  -14.2508   19.4811 H   0  0  0  0  0  0
  -28.7477  -12.1286   21.3842 H   0  0  0  0  0  0
  -28.4000  -13.7713   21.8383 H   0  0  0  0  0  0
  -25.2753   -9.5677   22.4785 H   0  0  0  0  0  0
  -24.0008   -7.4605   22.7442 H   0  0  0  0  0  0
  -21.0859   -8.8770   19.8930 H   0  0  0  0  0  0
  -22.3702  -10.9682   19.6177 H   0  0  0  0  0  0
  -21.1985   -7.6145   23.9735 H   0  0  0  0  0  0
  -21.1494   -6.0514   25.9091 H   0  0  0  0  0  0
  -22.0589   -2.7613   23.2847 H   0  0  0  0  0  0
  -22.4060  -11.9828   22.4792 H   0  0  0  0  0  0
  -21.1090  -13.1232   22.2683 H   0  0  0  0  0  0
  -24.6570  -15.8474   20.5080 H   0  0  0  0  0  0
  -26.2699  -15.6254   20.0662 H   0  0  0  0  0  0
  -26.7175  -32.5378   23.1003 H   0  0  0  0  0  0
  -25.0020  -33.9703   25.0314 H   0  0  0  0  0  0
  -22.7334  -31.2922   21.3843 H   0  0  0  0  0  0
  -23.3769  -35.9531   23.3331 H   0  0  0  0  0  0
  -24.3553  -36.8833   22.2059 H   0  0  0  0  0  0
  -23.7185  -37.6417   23.6670 H   0  0  0  0  0  0
  -26.1298  -31.5019   20.6095 H   0  0  0  0  0  0
  -26.8582  -30.7939   22.0185 H   0  0  0  0  0  0
  -28.1216  -28.8654   21.2213 H   0  0  0  0  0  0
  -25.9076  -25.8610   19.0299 H   0  0  0  0  0  0
  -23.9714  -27.2953   19.0070 H   0  0  0  0  0  0
  -23.7785  -30.5705   19.3945 H   0  0  0  0  0  0
  -22.7749  -29.2290   19.8519 H   0  0  0  0  0  0
  -25.1294  -36.1871   25.0811 H   0  0  0  0  0  0
  -21.0019  -28.3251   24.1396 H   0  0  0  0  0  0
  -20.5635  -26.2279   23.3632 H   0  0  0  0  0  0
  -21.6632  -26.7399   22.1225 H   0  0  0  0  0  0
  -19.6882  -25.6311   21.1251 H   0  0  0  0  0  0
  -19.6688  -27.3221   20.6778 H   0  0  0  0  0  0
  -17.4185  -26.6734   21.4052 H   0  0  0  0  0  0
  -18.0301  -26.0107   22.9039 H   0  0  0  0  0  0
  -19.7972  -30.7304   24.2232 H   0  0  0  0  0  0
  -17.5071  -31.6299   24.5186 H   0  0  0  0  0  0
  -15.5389  -30.3044   23.7692 H   0  0  0  0  0  0
  -15.8687  -28.0884   22.7076 H   0  0  0  0  0  0
  -24.5918  -30.7033   25.7796 H   0  0  0  0  0  0
  -24.8756  -32.3002   26.4630 H   0  0  0  0  0  0
  -25.7964  -30.9204   27.0304 H   0  0  0  0  0  0
  -26.2864  -29.6793   24.1198 H   0  0  0  0  0  0
  -27.3921  -29.7235   25.4725 H   0  0  0  0  0  0
  -27.8771  -30.4273   23.9472 H   0  0  0  0  0  0
  -27.2612  -33.3737   26.1882 H   0  0  0  0  0  0
  -28.3923  -32.6733   25.0392 H   0  0  0  0  0  0
  -28.0504  -31.8574   26.5571 H   0  0  0  0  0  0
  -28.2583  -38.0058   24.7521 H   0  0  0  0  0  0
  -28.1027  -36.2580   24.6317 H   0  0  0  0  0  0
  -27.2269  -37.1419   25.8886 H   0  0  0  0  0  0
  -20.9367  -29.8766   21.6897 H   0  0  0  0  0  0
  -26.0138  -38.2806   24.1494 H   0  0  0  0  0  0
  -30.9786  -18.2996   19.4888 H   0  0  0  0  0  0
  -27.6154  -17.3141   22.0513 H   0  0  0  0  0  0
  -29.6412  -25.4735   17.9437 H   0  0  0  0  0  0
  -30.5363  -25.2095   19.4329 H   0  0  0  0  0  0
  -31.0059  -23.2147   18.2894 H   0  0  0  0  0  0
  -29.4154  -23.1389   17.5234 H   0  0  0  0  0  0
  -27.6095  -23.0003   20.6230 H   0  0  0  0  0  0
  -29.1082  -23.5671   21.3351 H   0  0  0  0  0  0
  -27.6128  -24.7528   18.8956 H   0  0  0  0  0  0
  -28.8073  -15.4040   21.1978 H   0  0  0  0  0  0
  -30.7709  -19.8028   18.1901 H   0  0  0  0  0  0
  -30.8404  -21.4583   17.7130 H   0  0  0  0  0  0
  1 25  1  0  0  0
  1 30  2  0  0  0
  1 81  1  0  0  0
  2  3  1  0  0  0
  2 25  1  0  0  0
  2 84  1  0  0  0
  2 85  1  0  0  0
  3  4  1  0  0  0
  3 86  1  0  0  0
  3 87  1  0  0  0
  4  5  1  0  0  0
  4 88  1  0  0  0
  4 89  1  0  0  0
  5  6  1  0  0  0
  5 26  1  0  0  0
  5 90  1  0  0  0
  6 25  1  0  0  0
  6 91  1  0  0  0
  6 92  1  0  0  0
  7  8  2  0  0  0
  7 26  1  0  0  0
  7 29  1  0  0  0
  8  9  1  0  0  0
  8 22  1  0  0  0
  9 10  1  0  0  0
  9 27  2  0  0  0
 10 11  2  0  0  0
 10 15  1  0  0  0
 11 12  1  0  0  0
 11 93  1  0  0  0
 12 13  2  0  0  0
 12 94  1  0  0  0
 13 14  1  0  0  0
 13 31  1  0  0  0
 14 15  2  0  0  0
 14 95  1  0  0  0
 15 96  1  0  0  0
 16 17  2  0  0  0
 16 21  1  0  0  0
 16 31  1  0  0  0
 17 18  1  0  0  0
 17 97  1  0  0  0
 18 19  2  0  0  0
 18 98  1  0  0  0
 19 20  1  0  0  0
 19 24  1  0  0  0
 20 21  2  0  0  0
 20 99  1  0  0  0
 21 23  1  0  0  0
 22 28  1  0  0  0
 22 32  2  0  0  0
 26 27  1  0  0  0
 28100  1  0  0  0
 28101  1  0  0  0
 29102  1  0  0  0
 29103  1  0  0  0
 33 34  1  0  0  0
 33 66  1  0  0  0
 33 70  2  0  0  0
 34 36  1  0  0  0
 34 59  1  0  0  0
 34104  1  0  0  0
 35 44  2  0  0  0
 35 45  1  0  0  0
 35 68  1  0  0  0
 36 56  1  0  0  0
 36105  1  0  0  0
 37 39  1  0  0  0
 37 47  1  0  0  0
 37 66  1  0  0  0
 37106  1  0  0  0
 38 43  2  0  0  0
 38 46  1  0  0  0
 38 47  1  0  0  0
 39 64  1  0  0  0
 39 67  2  0  0  0
 40 52  1  0  0  0
 40 53  2  0  0  0
 40 58  1  0  0  0
 41107  1  0  0  0
 41108  1  0  0  0
 41109  1  0  0  0
 41 48  1  0  0  0
 42 43  1  0  0  0
 42 66  1  0  0  0
 42110  1  0  0  0
 42111  1  0  0  0
 43 44  1  0  0  0
 44112  1  0  0  0
 45 46  2  0  0  0
 45113  1  0  0  0
 46114  1  0  0  0
 47115  1  0  0  0
 47116  1  0  0  0
 48 56  1  0  0  0
 48 65  1  0  0  0
 48117  1  0  0  0
 49 50  1  0  0  0
 49 53  1  0  0  0
 49 64  1  0  0  0
 49118  1  0  0  0
 50 51  1  0  0  0
 50119  1  0  0  0
 50120  1  0  0  0
 51 52  1  0  0  0
 51121  1  0  0  0
 51122  1  0  0  0
 52123  1  0  0  0
 52124  1  0  0  0
 53 54  1  0  0  0
 54 55  2  0  0  0
 54125  1  0  0  0
 55 57  1  0  0  0
 55126  1  0  0  0
 56 69  2  0  0  0
 57 58  2  0  0  0
 57127  1  0  0  0
 58128  1  0  0  0
 59 60  1  0  0  0
 59 61  1  0  0  0
 59 62  1  0  0  0
 60129  1  0  0  0
 60130  1  0  0  0
 60131  1  0  0  0
 61132  1  0  0  0
 61133  1  0  0  0
 61134  1  0  0  0
 62135  1  0  0  0
 62136  1  0  0  0
 62137  1  0  0  0
 63 65  1  0  0  0
 63138  1  0  0  0
 63139  1  0  0  0
 63140  1  0  0  0
 64141  1  0  0  0
 65142  1  0  0  0
 68 79  1  0  0  0
 71 73  1  0  0  0
 71 74  2  0  0  0
 71143  1  0  0  0
 72 73  2  0  0  0
 72 83  1  0  0  0
 72144  1  0  0  0
 73 81  1  0  0  0
 74 75  1  0  0  0
 74 83  1  0  0  0
 75 80  1  0  0  0
 75 82  2  0  0  0
 76 77  1  0  0  0
 76 79  1  0  0  0
 76145  1  0  0  0
 76146  1  0  0  0
 77 80  1  0  0  0
 77147  1  0  0  0
 77148  1  0  0  0
 78 79  1  0  0  0
 78 80  1  0  0  0
 78149  1  0  0  0
 78150  1  0  0  0
 79151  1  0  0  0
 81152  1  0  0  0
 82153  1  0  0  0
 82154  1  0  0  0
M  CHG  1  82   1
M  ISO  4   1 100  68 101  79 101  81 100
M  END
> <chiral flag>
0

> <version>
0

> <s_m_source_file>
/data/baiqing/PycharmProjects/Reinvent-master-3.2/result/LINK_invent/BTK/process_docking_weight1_custom_product_contain_oxygen_bond_distance_aromatic_linkinvent_7_9_3/rearranged_h_0153.sdf

> <i_m_source_file_index>
34

> <r_mmod_Potential_Energy-OPLS-2005>
315.019317626953

> <r_mmod_Stretch_Energy-OPLS-2005>
175.910064697266

> <r_mmod_Bend_Energy-OPLS-2005>
337.504852294922

> <r_mmod_Torsional_Energy-OPLS-2005>
267.397338867188

> <r_mmod_Improper_Torsional_Energy-OPLS-2005>
4.1916446685791

> <r_mmod_Van_der_Waal_Energy-OPLS-2005>
126.061447143555

> <r_mmod_Electrostatic_Energy-OPLS-2005>
-262.419830322266

> <r_mmod_Solvation_Energy-OPLS-2005>
-461.882385253906

> <b_mmod_Minimization_Converged-OPLS-2005>
0

> <r_mmod_RMS_Derivative-OPLS-2005>
2.92753219604492

$$$$
34
                    3D
 Structure written by MMmdl.
161170  0  0  1  0            999 V2000
  -30.5890  -14.7506   20.4598 C   0  0  0  0  0  0
  -30.4335  -12.4612   19.4629 C   0  0  0  0  0  0
  -29.5113  -12.5121   18.2254 C   0  0  0  0  0  0
  -28.0335  -12.3386   18.6338 C   0  0  0  0  0  0
  -27.6377  -13.2285   19.8427 C   0  0  2  0  0  0
  -28.6821  -13.1517   20.9752 C   0  0  0  0  0  0
  -25.2503  -13.8191   20.5671 C   0  0  0  0  0  0
  -24.1811  -13.0437   20.9210 C   0  0  0  0  0  0
  -24.6400  -11.6912   20.8749 C   0  0  0  0  0  0
  -23.9074  -10.4290   21.0418 C   0  0  0  0  0  0
  -24.3625   -9.4205   21.9189 C   0  0  0  0  0  0
  -23.6300   -8.2243   22.0756 C   0  0  0  0  0  0
  -22.4278   -8.0284   21.3549 C   0  0  0  0  0  0
  -21.9916   -9.0260   20.4646 C   0  0  0  0  0  0
  -22.7250  -10.2137   20.3060 C   0  0  0  0  0  0
  -21.6850   -6.0746   22.5284 C   0  0  0  0  0  0
  -21.4012   -6.5646   23.8216 C   0  0  0  0  0  0
  -21.3659   -5.6796   24.9175 C   0  0  0  0  0  0
  -21.6038   -4.3059   24.7220 C   0  0  0  0  0  0
  -21.8821   -3.8154   23.4341 C   0  0  0  0  0  0
  -21.9190   -4.6976   22.3398 C   0  0  0  0  0  0
  -22.7832  -13.5231   21.1859 C   0  0  0  0  0  0
  -22.1661   -4.2168   21.0977 F   0  0  0  0  0  0
  -21.5623   -3.4536   25.7727 F   0  0  0  0  0  0
  -29.9747  -13.5207   20.3877 N   0  0  0  0  0  0
  -26.2913  -12.9383   20.3227 N   0  0  0  0  0  0
  -25.9321  -11.6532   20.5721 N   0  0  0  0  0  0
  -22.0461  -12.8229   22.0409 N   0  0  0  0  0  0
  -25.4180  -15.1914   20.4074 N   0  0  0  0  0  0
  -31.7900  -14.8475   20.1902 O   0  0  0  0  0  0
  -21.6636   -6.8891   21.4251 O   0  0  0  0  0  0
  -22.3519  -14.5532   20.6688 O   0  0  0  0  0  0
  -24.6319  -31.8525   23.1915 C   0  0  0  0  0  0
  -25.9141  -32.4736   23.8264 C   0  0  1  0  0  0
  -27.2207  -27.2350   20.1563 C   0  0  0  0  0  0
  -25.5919  -33.8535   24.2193 N   0  0  0  0  0  0
  -23.4314  -30.4739   21.5347 C   0  0  2  0  0  0
  -24.8795  -28.9018   20.1178 C   0  0  0  0  0  0
  -22.7502  -29.4621   22.4884 C   0  0  0  0  0  0
  -18.0312  -28.1435   22.8499 C   0  0  0  0  0  0
  -24.1484  -36.7265   23.2640 C   0  0  0  0  0  0
  -25.9772  -30.7583   21.3742 C   0  0  0  0  0  0
  -26.0493  -29.3744   20.7253 C   0  0  0  0  0  0
  -27.2264  -28.5581   20.7214 C   0  0  0  0  0  0
  -26.0272  -26.8183   19.5360 C   0  0  0  0  0  0
  -24.8723  -27.6323   19.5126 C   0  0  0  0  0  0
  -23.6533  -29.7971   20.1544 C   0  0  0  0  0  0
  -25.4118  -36.3055   24.0316 C   0  0  1  0  0  0
  -20.5915  -28.3729   23.1281 C   0  0  2  0  0  0
  -20.6802  -26.9441   22.5423 C   0  0  0  0  0  0
  -19.5762  -26.6420   21.5242 C   0  0  0  0  0  0
  -18.1946  -26.7977   22.1652 C   0  0  0  0  0  0
  -19.1569  -28.8900   23.2896 C   0  0  0  0  0  0
  -18.9492  -30.1508   23.8901 C   0  0  0  0  0  0
  -17.6490  -30.6625   24.0595 C   0  0  0  0  0  0
  -25.9065  -34.9431   23.5070 C   0  0  0  0  0  0
  -16.5380  -29.9127   23.6359 C   0  0  0  0  0  0
  -16.7304  -28.6557   23.0362 C   0  0  0  0  0  0
  -26.4484  -31.6585   25.0684 C   0  0  0  0  0  0
  -25.3694  -31.3805   26.1396 C   0  0  0  0  0  0
  -27.0331  -30.2988   24.6217 C   0  0  0  0  0  0
  -27.6021  -32.4335   25.7467 C   0  0  0  0  0  0
  -27.5580  -37.1799   24.8471 C   0  0  0  0  0  0
  -21.4207  -29.3077   22.3637 N   0  0  0  0  0  0
  -26.4278  -37.3771   23.9421 N   0  0  0  0  0  0
  -24.6995  -31.0484   22.0889 N   0  0  0  0  0  0
  -23.4194  -28.8187   23.3015 O   0  0  0  0  0  0
  -28.3492  -26.3811   20.1131 O   0  0  0  0  0  0
  -26.5653  -34.8921   22.4645 O   0  0  0  0  0  0
  -23.5471  -32.1337   23.7221 O   0  0  0  0  0  0
  -29.3544  -19.8643   19.9010 C   0  0  0  0  0  0
  -28.5908  -21.0608   21.9313 C   0  0  0  0  0  0
  -29.4364  -18.6517   20.6859 C   0  0  0  0  0  0
  -29.3234  -18.7616   22.0998 C   0  0  0  0  0  0
  -28.8945  -21.1095   20.5336 C   0  0  0  0  0  0
  -28.8562  -19.9193   22.7440 C   0  0  0  0  0  0
  -30.2491  -17.3230   20.9232 C   0  0  1  0  0  0
  -27.7634  -25.1206   22.1295 C   0  0  0  0  0  0
  -29.9675  -24.8988   21.0020 C   0  0  0  0  0  0
  -29.3463  -16.7115   23.3493 C   0  0  0  0  0  0
  -27.9518  -23.6099   20.0570 C   0  0  0  0  0  0
  -28.4518  -25.0086   20.7549 C   0  0  0  0  0  0
  -30.0433  -17.5832   22.4093 N   0  0  0  0  0  0
  -28.8686  -22.3984   19.8571 N   0  0  0  0  0  0
  -29.8008  -15.8827   20.6521 N   0  0  0  0  0  0
  -28.7587  -19.9849   24.0943 F   0  0  0  0  0  0
  -31.4749  -12.5971   19.1649 H   0  0  0  0  0  0
  -30.3846  -11.4822   19.9431 H   0  0  0  0  0  0
  -29.7961  -11.7427   17.5067 H   0  0  0  0  0  0
  -29.6400  -13.4671   17.7139 H   0  0  0  0  0  0
  -27.8799  -11.2880   18.8822 H   0  0  0  0  0  0
  -27.3831  -12.5473   17.7846 H   0  0  0  0  0  0
  -27.6328  -14.2525   19.4698 H   0  0  0  0  0  0
  -28.7249  -12.1447   21.3951 H   0  0  0  0  0  0
  -28.4197  -13.8178   21.7991 H   0  0  0  0  0  0
  -25.2777   -9.5672   22.4754 H   0  0  0  0  0  0
  -24.0004   -7.4633   22.7475 H   0  0  0  0  0  0
  -21.0844   -8.8786   19.8951 H   0  0  0  0  0  0
  -22.3721  -10.9674   19.6160 H   0  0  0  0  0  0
  -21.2013   -7.6152   23.9727 H   0  0  0  0  0  0
  -21.1475   -6.0518   25.9076 H   0  0  0  0  0  0
  -22.0601   -2.7621   23.2828 H   0  0  0  0  0  0
  -22.4068  -11.9906   22.4825 H   0  0  0  0  0  0
  -21.1073  -13.1264   22.2592 H   0  0  0  0  0  0
  -24.6377  -15.8331   20.4967 H   0  0  0  0  0  0
  -26.2435  -15.6272   20.0188 H   0  0  0  0  0  0
  -26.7199  -32.5397   23.1008 H   0  0  0  0  0  0
  -25.0038  -33.9655   25.0313 H   0  0  0  0  0  0
  -22.7304  -31.2975   21.3833 H   0  0  0  0  0  0
  -23.3751  -35.9600   23.3310 H   0  0  0  0  0  0
  -24.3572  -36.8878   22.2057 H   0  0  0  0  0  0
  -23.7226  -37.6460   23.6662 H   0  0  0  0  0  0
  -26.1232  -31.5111   20.5986 H   0  0  0  0  0  0
  -26.8506  -30.8085   22.0119 H   0  0  0  0  0  0
  -28.1305  -28.9264   21.1847 H   0  0  0  0  0  0
  -25.9862  -25.8469   19.0646 H   0  0  0  0  0  0
  -23.9742  -27.2678   19.0353 H   0  0  0  0  0  0
  -23.7881  -30.5655   19.3915 H   0  0  0  0  0  0
  -22.7696  -29.2355   19.8476 H   0  0  0  0  0  0
  -25.1313  -36.1882   25.0810 H   0  0  0  0  0  0
  -21.0062  -28.3330   24.1385 H   0  0  0  0  0  0
  -20.5746  -26.2330   23.3632 H   0  0  0  0  0  0
  -21.6664  -26.7487   22.1194 H   0  0  0  0  0  0
  -19.6895  -25.6333   21.1270 H   0  0  0  0  0  0
  -19.6706  -27.3239   20.6774 H   0  0  0  0  0  0
  -17.4225  -26.6771   21.4038 H   0  0  0  0  0  0
  -18.0320  -26.0126   22.9048 H   0  0  0  0  0  0
  -19.7966  -30.7347   24.2254 H   0  0  0  0  0  0
  -17.5042  -31.6299   24.5205 H   0  0  0  0  0  0
  -15.5386  -30.3036   23.7674 H   0  0  0  0  0  0
  -15.8708  -28.0888   22.7049 H   0  0  0  0  0  0
  -24.5865  -30.7148   25.7753 H   0  0  0  0  0  0
  -24.8890  -32.3011   26.4729 H   0  0  0  0  0  0
  -25.7982  -30.9060   27.0220 H   0  0  0  0  0  0
  -26.2927  -29.6758   24.1196 H   0  0  0  0  0  0
  -27.3918  -29.7264   25.4776 H   0  0  0  0  0  0
  -27.8845  -30.4236   23.9524 H   0  0  0  0  0  0
  -27.2610  -33.3636   26.2032 H   0  0  0  0  0  0
  -28.3859  -32.6898   25.0326 H   0  0  0  0  0  0
  -28.0656  -31.8466   26.5404 H   0  0  0  0  0  0
  -28.2619  -38.0078   24.7523 H   0  0  0  0  0  0
  -28.1050  -36.2616   24.6296 H   0  0  0  0  0  0
  -27.2301  -37.1457   25.8872 H   0  0  0  0  0  0
  -20.9367  -29.8759   21.6811 H   0  0  0  0  0  0
  -26.0149  -38.2839   24.1413 H   0  0  0  0  0  0
  -29.7040  -19.8561   18.8782 H   0  0  0  0  0  0
  -28.2708  -21.9604   22.4309 H   0  0  0  0  0  0
  -31.2941  -17.4851   20.6518 H   0  0  0  0  0  0
  -27.9730  -24.2519   22.7522 H   0  0  0  0  0  0
  -26.6800  -25.1915   22.0272 H   0  0  0  0  0  0
  -28.1072  -25.9992   22.6743 H   0  0  0  0  0  0
  -30.2126  -24.0259   21.6095 H   0  0  0  0  0  0
  -30.3527  -25.7745   21.5268 H   0  0  0  0  0  0
  -30.5162  -24.8111   20.0639 H   0  0  0  0  0  0
  -29.3912  -17.1357   24.3543 H   0  0  0  0  0  0
  -29.8208  -15.7300   23.3905 H   0  0  0  0  0  0
  -28.2972  -16.5755   23.0830 H   0  0  0  0  0  0
  -27.5965  -23.8746   19.0600 H   0  0  0  0  0  0
  -27.0525  -23.2582   20.5662 H   0  0  0  0  0  0
  -29.2813  -22.3836   18.9265 H   0  0  0  0  0  0
  -28.8091  -15.7143   20.6889 H   0  0  0  0  0  0
  1 25  1  0  0  0
  1 30  2  0  0  0
  1 85  1  0  0  0
  2  3  1  0  0  0
  2 25  1  0  0  0
  2 87  1  0  0  0
  2 88  1  0  0  0
  3  4  1  0  0  0
  3 89  1  0  0  0
  3 90  1  0  0  0
  4  5  1  0  0  0
  4 91  1  0  0  0
  4 92  1  0  0  0
  5  6  1  0  0  0
  5 26  1  0  0  0
  5 93  1  0  0  0
  6 25  1  0  0  0
  6 94  1  0  0  0
  6 95  1  0  0  0
  7  8  2  0  0  0
  7 26  1  0  0  0
  7 29  1  0  0  0
  8  9  1  0  0  0
  8 22  1  0  0  0
  9 10  1  0  0  0
  9 27  2  0  0  0
 10 11  2  0  0  0
 10 15  1  0  0  0
 11 12  1  0  0  0
 11 96  1  0  0  0
 12 13  2  0  0  0
 12 97  1  0  0  0
 13 14  1  0  0  0
 13 31  1  0  0  0
 14 15  2  0  0  0
 14 98  1  0  0  0
 15 99  1  0  0  0
 16 17  2  0  0  0
 16 21  1  0  0  0
 16 31  1  0  0  0
 17 18  1  0  0  0
 17100  1  0  0  0
 18 19  2  0  0  0
 18101  1  0  0  0
 19 20  1  0  0  0
 19 24  1  0  0  0
 20 21  2  0  0  0
 20102  1  0  0  0
 21 23  1  0  0  0
 22 28  1  0  0  0
 22 32  2  0  0  0
 26 27  1  0  0  0
 28103  1  0  0  0
 28104  1  0  0  0
 29105  1  0  0  0
 29106  1  0  0  0
 33 34  1  0  0  0
 33 66  1  0  0  0
 33 70  2  0  0  0
 34 36  1  0  0  0
 34 59  1  0  0  0
 34107  1  0  0  0
 35 44  2  0  0  0
 35 45  1  0  0  0
 35 68  1  0  0  0
 36 56  1  0  0  0
 36108  1  0  0  0
 37 39  1  0  0  0
 37 47  1  0  0  0
 37 66  1  0  0  0
 37109  1  0  0  0
 38 43  2  0  0  0
 38 46  1  0  0  0
 38 47  1  0  0  0
 39 64  1  0  0  0
 39 67  2  0  0  0
 40 52  1  0  0  0
 40 53  2  0  0  0
 40 58  1  0  0  0
 41110  1  0  0  0
 41111  1  0  0  0
 41112  1  0  0  0
 41 48  1  0  0  0
 42 43  1  0  0  0
 42 66  1  0  0  0
 42113  1  0  0  0
 42114  1  0  0  0
 43 44  1  0  0  0
 44115  1  0  0  0
 45 46  2  0  0  0
 45116  1  0  0  0
 46117  1  0  0  0
 47118  1  0  0  0
 47119  1  0  0  0
 48 56  1  0  0  0
 48 65  1  0  0  0
 48120  1  0  0  0
 49 50  1  0  0  0
 49 53  1  0  0  0
 49 64  1  0  0  0
 49121  1  0  0  0
 50 51  1  0  0  0
 50122  1  0  0  0
 50123  1  0  0  0
 51 52  1  0  0  0
 51124  1  0  0  0
 51125  1  0  0  0
 52126  1  0  0  0
 52127  1  0  0  0
 53 54  1  0  0  0
 54 55  2  0  0  0
 54128  1  0  0  0
 55 57  1  0  0  0
 55129  1  0  0  0
 56 69  2  0  0  0
 57 58  2  0  0  0
 57130  1  0  0  0
 58131  1  0  0  0
 59 60  1  0  0  0
 59 61  1  0  0  0
 59 62  1  0  0  0
 60132  1  0  0  0
 60133  1  0  0  0
 60134  1  0  0  0
 61135  1  0  0  0
 61136  1  0  0  0
 61137  1  0  0  0
 62138  1  0  0  0
 62139  1  0  0  0
 62140  1  0  0  0
 63 65  1  0  0  0
 63141  1  0  0  0
 63142  1  0  0  0
 63143  1  0  0  0
 64144  1  0  0  0
 65145  1  0  0  0
 68 82  1  0  0  0
 71 73  2  0  0  0
 71 75  1  0  0  0
 71146  1  0  0  0
 72 75  2  0  0  0
 72 76  1  0  0  0
 72147  1  0  0  0
 73 74  1  0  0  0
 73 77  1  0  0  0
 74 76  2  0  0  0
 74 83  1  0  0  0
 75 84  1  0  0  0
 76 86  1  0  0  0
 77 83  1  0  0  0
 77 85  1  0  0  0
 77148  1  0  0  0
 78149  1  0  0  0
 78150  1  0  0  0
 78151  1  0  0  0
 78 82  1  0  0  0
 79 82  1  0  0  0
 79152  1  0  0  0
 79153  1  0  0  0
 79154  1  0  0  0
 80 83  1  0  0  0
 80155  1  0  0  0
 80156  1  0  0  0
 80157  1  0  0  0
 81 82  1  0  0  0
 81 84  1  0  0  0
 81158  1  0  0  0
 81159  1  0  0  0
 84160  1  0  0  0
 85161  1  0  0  0
M  ISO  4   1 100  68 101  82 101  85 100
M  END
> <chiral flag>
0

> <version>
0

> <s_m_source_file>
/data/baiqing/PycharmProjects/Reinvent-master-3.2/result/LINK_invent/BTK/process_docking_weight1_custom_product_contain_oxygen_bond_distance_aromatic_linkinvent_7_9_3/rearranged_h_0153.sdf

> <i_m_source_file_index>
35

> <r_mmod_Potential_Energy-OPLS-2005>
578.597717285156

> <r_mmod_Stretch_Energy-OPLS-2005>
151.571411132812

> <r_mmod_Bend_Energy-OPLS-2005>
546.122253417969

> <r_mmod_Torsional_Energy-OPLS-2005>
287.061248779297

> <r_mmod_Improper_Torsional_Energy-OPLS-2005>
28.0392284393311

> <r_mmod_Van_der_Waal_Energy-OPLS-2005>
126.643707275391

> <r_mmod_Electrostatic_Energy-OPLS-2005>
-417.405120849609

> <r_mmod_Solvation_Energy-OPLS-2005>
-232.548446655273

> <b_mmod_Minimization_Converged-OPLS-2005>
0

> <r_mmod_RMS_Derivative-OPLS-2005>
2.7490382194519

$$$$
35
                    3D
 Structure written by MMmdl.
154162  0  0  1  0            999 V2000
  -30.6274  -14.7317   20.4460 C   0  0  0  0  0  0
  -30.4231  -12.4458   19.4713 C   0  0  0  0  0  0
  -29.5062  -12.5087   18.2313 C   0  0  0  0  0  0
  -28.0312  -12.3386   18.6436 C   0  0  0  0  0  0
  -27.6391  -13.2357   19.8488 C   0  0  2  0  0  0
  -28.6849  -13.1783   20.9838 C   0  0  0  0  0  0
  -25.2496  -13.8208   20.5693 C   0  0  0  0  0  0
  -24.1796  -13.0443   20.9207 C   0  0  0  0  0  0
  -24.6388  -11.6922   20.8737 C   0  0  0  0  0  0
  -23.9064  -10.4298   21.0407 C   0  0  0  0  0  0
  -24.3620   -9.4216   21.9180 C   0  0  0  0  0  0
  -23.6299   -8.2247   22.0745 C   0  0  0  0  0  0
  -22.4286   -8.0279   21.3540 C   0  0  0  0  0  0
  -21.9915   -9.0251   20.4638 C   0  0  0  0  0  0
  -22.7233  -10.2133   20.3050 C   0  0  0  0  0  0
  -21.6857   -6.0732   22.5279 C   0  0  0  0  0  0
  -21.4018   -6.5637   23.8207 C   0  0  0  0  0  0
  -21.3661   -5.6793   24.9169 C   0  0  0  0  0  0
  -21.6048   -4.3056   24.7228 C   0  0  0  0  0  0
  -21.8818   -3.8143   23.4347 C   0  0  0  0  0  0
  -21.9193   -4.6958   22.3402 C   0  0  0  0  0  0
  -22.7816  -13.5217   21.1875 C   0  0  0  0  0  0
  -22.1663   -4.2143   21.0980 F   0  0  0  0  0  0
  -21.5627   -3.4538   25.7739 F   0  0  0  0  0  0
  -29.9858  -13.5157   20.3965 N   0  0  0  0  0  0
  -26.2924  -12.9423   20.3277 N   0  0  0  0  0  0
  -25.9321  -11.6561   20.5742 N   0  0  0  0  0  0
  -22.0471  -12.8195   22.0427 N   0  0  0  0  0  0
  -25.4157  -15.1938   20.4125 N   0  0  0  0  0  0
  -31.8199  -14.8061   20.1384 O   0  0  0  0  0  0
  -21.6644   -6.8877   21.4241 O   0  0  0  0  0  0
  -22.3495  -14.5517   20.6714 O   0  0  0  0  0  0
  -24.6317  -31.8523   23.1948 C   0  0  0  0  0  0
  -25.9144  -32.4735   23.8297 C   0  0  1  0  0  0
  -27.2283  -27.2602   20.1210 C   0  0  0  0  0  0
  -25.5932  -33.8540   24.2228 N   0  0  0  0  0  0
  -23.4284  -30.4730   21.5366 C   0  0  2  0  0  0
  -24.8758  -28.9148   20.1077 C   0  0  0  0  0  0
  -22.7506  -29.4589   22.4896 C   0  0  0  0  0  0
  -18.0297  -28.1384   22.8484 C   0  0  0  0  0  0
  -24.1487  -36.7268   23.2638 C   0  0  0  0  0  0
  -25.9726  -30.7646   21.3740 C   0  0  0  0  0  0
  -26.0444  -29.3865   20.7159 C   0  0  0  0  0  0
  -27.2181  -28.5697   20.7125 C   0  0  0  0  0  0
  -26.0323  -26.8466   19.4950 C   0  0  0  0  0  0
  -24.8743  -27.6533   19.4892 C   0  0  0  0  0  0
  -23.6460  -29.8017   20.1540 C   0  0  0  0  0  0
  -25.4120  -36.3051   24.0321 C   0  0  1  0  0  0
  -20.5897  -28.3701   23.1266 C   0  0  2  0  0  0
  -20.6783  -26.9415   22.5414 C   0  0  0  0  0  0
  -19.5762  -26.6380   21.5214 C   0  0  0  0  0  0
  -18.1942  -26.7927   22.1620 C   0  0  0  0  0  0
  -19.1548  -28.8857   23.2869 C   0  0  0  0  0  0
  -18.9473  -30.1458   23.8893 C   0  0  0  0  0  0
  -17.6479  -30.6585   24.0562 C   0  0  0  0  0  0
  -25.9062  -34.9428   23.5078 C   0  0  0  0  0  0
  -16.5366  -29.9088   23.6324 C   0  0  0  0  0  0
  -16.7281  -28.6504   23.0352 C   0  0  0  0  0  0
  -26.4507  -31.6575   25.0700 C   0  0  0  0  0  0
  -25.3719  -31.3751   26.1415 C   0  0  0  0  0  0
  -27.0370  -30.2988   24.6217 C   0  0  0  0  0  0
  -27.6045  -32.4332   25.7484 C   0  0  0  0  0  0
  -27.5574  -37.1788   24.8466 C   0  0  0  0  0  0
  -21.4207  -29.3039   22.3645 N   0  0  0  0  0  0
  -26.4288  -37.3759   23.9407 N   0  0  0  0  0  0
  -24.6965  -31.0487   22.0914 N   0  0  0  0  0  0
  -23.4210  -28.8148   23.3005 O   0  0  0  0  0  0
  -28.3564  -26.4127   20.2132 O   0  0  0  0  0  0
  -26.5641  -34.8907   22.4648 O   0  0  0  0  0  0
  -23.5470  -32.1355   23.7238 O   0  0  0  0  0  0
  -29.8498  -19.9317   20.1121 C   0  0  0  0  0  0
  -28.8461  -20.9800   20.3483 C   0  0  0  0  0  0
  -29.5198  -18.6145   20.4843 C   0  0  0  0  0  0
  -27.7368  -20.3974   20.9168 C   0  0  0  0  0  0
  -29.8913  -25.1271   18.9708 C   0  0  0  0  0  0
  -30.4081  -17.3112   20.4005 C   0  0  0  0  0  0
  -28.4080  -23.6871   20.5182 C   0  0  0  0  0  0
  -28.4978  -25.0410   19.6139 C   0  0  1  0  0  0
  -26.5544  -21.0307   21.2548 N   0  0  0  0  0  0
  -29.0027  -22.3950   19.9700 N   0  0  0  0  0  0
  -29.8866  -15.8921   20.6121 N   0  0  0  0  0  0
  -27.9049  -18.6514   21.1525 S   0  0  0  0  0  0
  -31.4671  -12.5523   19.1734 H   0  0  0  0  0  0
  -30.3499  -11.4708   19.9562 H   0  0  0  0  0  0
  -29.7861  -11.7380   17.5123 H   0  0  0  0  0  0
  -29.6390  -13.4643   17.7210 H   0  0  0  0  0  0
  -27.8812  -11.2885   18.8992 H   0  0  0  0  0  0
  -27.3772  -12.5397   17.7944 H   0  0  0  0  0  0
  -27.6301  -14.2569   19.4672 H   0  0  0  0  0  0
  -28.7167  -12.1871   21.4384 H   0  0  0  0  0  0
  -28.4267  -13.8754   21.7823 H   0  0  0  0  0  0
  -25.2766   -9.5696   22.4753 H   0  0  0  0  0  0
  -24.0007   -7.4644   22.7470 H   0  0  0  0  0  0
  -21.0839   -8.8766   19.8949 H   0  0  0  0  0  0
  -22.3686  -10.9670   19.6159 H   0  0  0  0  0  0
  -21.2015   -7.6145   23.9708 H   0  0  0  0  0  0
  -21.1485   -6.0523   25.9072 H   0  0  0  0  0  0
  -22.0597   -2.7605   23.2850 H   0  0  0  0  0  0
  -22.4103  -11.9865   22.4815 H   0  0  0  0  0  0
  -21.1088  -13.1200   22.2644 H   0  0  0  0  0  0
  -24.6408  -15.8402   20.5148 H   0  0  0  0  0  0
  -26.2580  -15.6389   20.0733 H   0  0  0  0  0  0
  -26.7211  -32.5385   23.1032 H   0  0  0  0  0  0
  -25.0061  -33.9670   25.0365 H   0  0  0  0  0  0
  -22.7245  -31.2950   21.3886 H   0  0  0  0  0  0
  -23.3744  -35.9603   23.3301 H   0  0  0  0  0  0
  -24.3570  -36.8897   22.2052 H   0  0  0  0  0  0
  -23.7259  -37.6473   23.6676 H   0  0  0  0  0  0
  -26.1148  -31.5255   20.6048 H   0  0  0  0  0  0
  -26.8476  -30.8123   22.0112 H   0  0  0  0  0  0
  -28.1137  -28.9264   21.2005 H   0  0  0  0  0  0
  -25.9549  -25.8745   19.0346 H   0  0  0  0  0  0
  -23.9755  -27.2852   19.0140 H   0  0  0  0  0  0
  -23.7729  -30.5755   19.3953 H   0  0  0  0  0  0
  -22.7636  -29.2347   19.8492 H   0  0  0  0  0  0
  -25.1306  -36.1875   25.0816 H   0  0  0  0  0  0
  -20.9999  -28.3288   24.1381 H   0  0  0  0  0  0
  -20.5688  -26.2311   23.3626 H   0  0  0  0  0  0
  -21.6655  -26.7437   22.1208 H   0  0  0  0  0  0
  -19.6926  -25.6292   21.1248 H   0  0  0  0  0  0
  -19.6694  -27.3185   20.6742 H   0  0  0  0  0  0
  -17.4212  -26.6671   21.4019 H   0  0  0  0  0  0
  -18.0338  -26.0073   22.9020 H   0  0  0  0  0  0
  -19.7959  -30.7271   24.2260 H   0  0  0  0  0  0
  -17.5039  -31.6267   24.5164 H   0  0  0  0  0  0
  -15.5372  -30.2994   23.7654 H   0  0  0  0  0  0
  -15.8682  -28.0826   22.7066 H   0  0  0  0  0  0
  -24.5883  -30.7105   25.7751 H   0  0  0  0  0  0
  -24.8914  -32.2932   26.4800 H   0  0  0  0  0  0
  -25.8013  -30.8953   27.0217 H   0  0  0  0  0  0
  -26.2965  -29.6709   24.1237 H   0  0  0  0  0  0
  -27.4045  -29.7275   25.4753 H   0  0  0  0  0  0
  -27.8845  -30.4254   23.9475 H   0  0  0  0  0  0
  -27.2637  -33.3642   26.2025 H   0  0  0  0  0  0
  -28.3875  -32.6877   25.0330 H   0  0  0  0  0  0
  -28.0691  -31.8484   26.5430 H   0  0  0  0  0  0
  -28.2587  -38.0086   24.7507 H   0  0  0  0  0  0
  -28.1073  -36.2615   24.6299 H   0  0  0  0  0  0
  -27.2291  -37.1451   25.8869 H   0  0  0  0  0  0
  -20.9406  -29.8754   21.6836 H   0  0  0  0  0  0
  -26.0148  -38.2824   24.1412 H   0  0  0  0  0  0
  -30.8044  -20.1853   19.6749 H   0  0  0  0  0  0
  -30.1167  -24.2478   18.3694 H   0  0  0  0  0  0
  -30.6677  -25.2209   19.7298 H   0  0  0  0  0  0
  -29.9645  -25.9929   18.3113 H   0  0  0  0  0  0
  -31.2332  -17.4356   21.1041 H   0  0  0  0  0  0
  -30.8888  -17.3132   19.4206 H   0  0  0  0  0  0
  -28.9212  -23.8834   21.4610 H   0  0  0  0  0  0
  -27.3639  -23.5273   20.7823 H   0  0  0  0  0  0
  -27.8046  -24.9261   18.7821 H   0  0  0  0  0  0
  -26.4678  -21.9188   20.7740 H   0  0  0  0  0  0
  -25.7100  -20.4783   21.1469 H   0  0  0  0  0  0
  -29.8376  -22.5646   19.4197 H   0  0  0  0  0  0
  -28.9053  -15.7866   20.8196 H   0  0  0  0  0  0
  1 25  1  0  0  0
  1 30  2  0  0  0
  1 81  1  0  0  0
  2  3  1  0  0  0
  2 25  1  0  0  0
  2 83  1  0  0  0
  2 84  1  0  0  0
  3  4  1  0  0  0
  3 85  1  0  0  0
  3 86  1  0  0  0
  4  5  1  0  0  0
  4 87  1  0  0  0
  4 88  1  0  0  0
  5  6  1  0  0  0
  5 26  1  0  0  0
  5 89  1  0  0  0
  6 25  1  0  0  0
  6 90  1  0  0  0
  6 91  1  0  0  0
  7  8  2  0  0  0
  7 26  1  0  0  0
  7 29  1  0  0  0
  8  9  1  0  0  0
  8 22  1  0  0  0
  9 10  1  0  0  0
  9 27  2  0  0  0
 10 11  2  0  0  0
 10 15  1  0  0  0
 11 12  1  0  0  0
 11 92  1  0  0  0
 12 13  2  0  0  0
 12 93  1  0  0  0
 13 14  1  0  0  0
 13 31  1  0  0  0
 14 15  2  0  0  0
 14 94  1  0  0  0
 15 95  1  0  0  0
 16 17  2  0  0  0
 16 21  1  0  0  0
 16 31  1  0  0  0
 17 18  1  0  0  0
 17 96  1  0  0  0
 18 19  2  0  0  0
 18 97  1  0  0  0
 19 20  1  0  0  0
 19 24  1  0  0  0
 20 21  2  0  0  0
 20 98  1  0  0  0
 21 23  1  0  0  0
 22 28  1  0  0  0
 22 32  2  0  0  0
 26 27  1  0  0  0
 28 99  1  0  0  0
 28100  1  0  0  0
 29101  1  0  0  0
 29102  1  0  0  0
 33 34  1  0  0  0
 33 66  1  0  0  0
 33 70  2  0  0  0
 34 36  1  0  0  0
 34 59  1  0  0  0
 34103  1  0  0  0
 35 44  2  0  0  0
 35 45  1  0  0  0
 35 68  1  0  0  0
 36 56  1  0  0  0
 36104  1  0  0  0
 37 39  1  0  0  0
 37 47  1  0  0  0
 37 66  1  0  0  0
 37105  1  0  0  0
 38 43  2  0  0  0
 38 46  1  0  0  0
 38 47  1  0  0  0
 39 64  1  0  0  0
 39 67  2  0  0  0
 40 52  1  0  0  0
 40 53  2  0  0  0
 40 58  1  0  0  0
 41106  1  0  0  0
 41107  1  0  0  0
 41108  1  0  0  0
 41 48  1  0  0  0
 42 43  1  0  0  0
 42 66  1  0  0  0
 42109  1  0  0  0
 42110  1  0  0  0
 43 44  1  0  0  0
 44111  1  0  0  0
 45 46  2  0  0  0
 45112  1  0  0  0
 46113  1  0  0  0
 47114  1  0  0  0
 47115  1  0  0  0
 48 56  1  0  0  0
 48 65  1  0  0  0
 48116  1  0  0  0
 49 50  1  0  0  0
 49 53  1  0  0  0
 49 64  1  0  0  0
 49117  1  0  0  0
 50 51  1  0  0  0
 50118  1  0  0  0
 50119  1  0  0  0
 51 52  1  0  0  0
 51120  1  0  0  0
 51121  1  0  0  0
 52122  1  0  0  0
 52123  1  0  0  0
 53 54  1  0  0  0
 54 55  2  0  0  0
 54124  1  0  0  0
 55 57  1  0  0  0
 55125  1  0  0  0
 56 69  2  0  0  0
 57 58  2  0  0  0
 57126  1  0  0  0
 58127  1  0  0  0
 59 60  1  0  0  0
 59 61  1  0  0  0
 59 62  1  0  0  0
 60128  1  0  0  0
 60129  1  0  0  0
 60130  1  0  0  0
 61131  1  0  0  0
 61132  1  0  0  0
 61133  1  0  0  0
 62134  1  0  0  0
 62135  1  0  0  0
 62136  1  0  0  0
 63 65  1  0  0  0
 63137  1  0  0  0
 63138  1  0  0  0
 63139  1  0  0  0
 64140  1  0  0  0
 65141  1  0  0  0
 68 78  1  0  0  0
 71 72  1  0  0  0
 71 73  2  0  0  0
 71142  1  0  0  0
 72 74  2  0  0  0
 72 80  1  0  0  0
 73 76  1  0  0  0
 73 82  1  0  0  0
 74 79  1  0  0  0
 74 82  1  0  0  0
 75143  1  0  0  0
 75144  1  0  0  0
 75145  1  0  0  0
 75 78  1  0  0  0
 76 81  1  0  0  0
 76146  1  0  0  0
 76147  1  0  0  0
 77 78  1  0  0  0
 77 80  1  0  0  0
 77148  1  0  0  0
 77149  1  0  0  0
 78150  1  0  0  0
 79151  1  0  0  0
 79152  1  0  0  0
 80153  1  0  0  0
 81154  1  0  0  0
M  ISO  4   1 100  68 101  78 101  81 100
M  END
> <chiral flag>
0

> <version>
0

> <s_m_source_file>
/data/baiqing/PycharmProjects/Reinvent-master-3.2/result/LINK_invent/BTK/process_docking_weight1_custom_product_contain_oxygen_bond_distance_aromatic_linkinvent_7_9_3/rearranged_h_0153.sdf

> <i_m_source_file_index>
36

> <r_mmod_Potential_Energy-OPLS-2005>
12.3769197463989

> <r_mmod_Stretch_Energy-OPLS-2005>
115.500915527344

> <r_mmod_Bend_Energy-OPLS-2005>
188.516128540039

> <r_mmod_Torsional_Energy-OPLS-2005>
213.815322875977

> <r_mmod_Improper_Torsional_Energy-OPLS-2005>
11.555214881897

> <r_mmod_Van_der_Waal_Energy-OPLS-2005>
115.88037109375

> <r_mmod_Electrostatic_Energy-OPLS-2005>
-488.170166015625

> <r_mmod_Solvation_Energy-OPLS-2005>
-226.336486816406

> <b_mmod_Minimization_Converged-OPLS-2005>
0

> <r_mmod_RMS_Derivative-OPLS-2005>
1.84433603286743

$$$$
36
                    3D
 Structure written by MMmdl.
156165  0  0  1  0            999 V2000
  -30.5806  -14.8051   20.4284 C   0  0  0  0  0  0
  -30.4308  -12.4882   19.4977 C   0  0  0  0  0  0
  -29.5172  -12.5224   18.2506 C   0  0  0  0  0  0
  -28.0410  -12.3420   18.6540 C   0  0  0  0  0  0
  -27.6395  -13.2392   19.8554 C   0  0  2  0  0  0
  -28.6797  -13.1921   20.9961 C   0  0  0  0  0  0
  -25.2499  -13.8218   20.5711 C   0  0  0  0  0  0
  -24.1789  -13.0456   20.9211 C   0  0  0  0  0  0
  -24.6379  -11.6934   20.8745 C   0  0  0  0  0  0
  -23.9063  -10.4308   21.0402 C   0  0  0  0  0  0
  -24.3617   -9.4218   21.9173 C   0  0  0  0  0  0
  -23.6294   -8.2249   22.0743 C   0  0  0  0  0  0
  -22.4270   -8.0282   21.3534 C   0  0  0  0  0  0
  -21.9904   -9.0260   20.4636 C   0  0  0  0  0  0
  -22.7236  -10.2142   20.3048 C   0  0  0  0  0  0
  -21.6863   -6.0736   22.5267 C   0  0  0  0  0  0
  -21.4021   -6.5634   23.8198 C   0  0  0  0  0  0
  -21.3660   -5.6779   24.9160 C   0  0  0  0  0  0
  -21.6054   -4.3048   24.7208 C   0  0  0  0  0  0
  -21.8820   -3.8144   23.4324 C   0  0  0  0  0  0
  -21.9197   -4.6964   22.3388 C   0  0  0  0  0  0
  -22.7814  -13.5244   21.1868 C   0  0  0  0  0  0
  -22.1660   -4.2152   21.0970 F   0  0  0  0  0  0
  -21.5636   -3.4534   25.7721 F   0  0  0  0  0  0
  -29.9774  -13.5614   20.4194 N   0  0  0  0  0  0
  -26.2919  -12.9433   20.3288 N   0  0  0  0  0  0
  -25.9309  -11.6569   20.5728 N   0  0  0  0  0  0
  -22.0455  -12.8232   22.0418 N   0  0  0  0  0  0
  -25.4233  -15.1934   20.4127 N   0  0  0  0  0  0
  -31.7662  -14.8879   20.0923 O   0  0  0  0  0  0
  -21.6633   -6.8881   21.4231 O   0  0  0  0  0  0
  -22.3508  -14.5559   20.6719 O   0  0  0  0  0  0
  -24.6366  -31.8524   23.1936 C   0  0  0  0  0  0
  -25.9172  -32.4735   23.8311 C   0  0  1  0  0  0
  -27.2217  -27.2309   20.1228 C   0  0  0  0  0  0
  -25.5954  -33.8540   24.2249 N   0  0  0  0  0  0
  -23.4353  -30.4730   21.5376 C   0  0  2  0  0  0
  -24.8828  -28.9148   20.1021 C   0  0  0  0  0  0
  -22.7538  -29.4591   22.4883 C   0  0  0  0  0  0
  -18.0309  -28.1397   22.8479 C   0  0  0  0  0  0
  -24.1496  -36.7262   23.2640 C   0  0  0  0  0  0
  -25.9834  -30.7537   21.3791 C   0  0  0  0  0  0
  -26.0549  -29.3755   20.7158 C   0  0  0  0  0  0
  -27.2252  -28.5446   20.7146 C   0  0  0  0  0  0
  -26.0249  -26.8424   19.4825 C   0  0  0  0  0  0
  -24.8758  -27.6594   19.4738 C   0  0  0  0  0  0
  -23.6532  -29.8053   20.1539 C   0  0  0  0  0  0
  -25.4120  -36.3066   24.0334 C   0  0  1  0  0  0
  -20.5914  -28.3727   23.1241 C   0  0  2  0  0  0
  -20.6790  -26.9437   22.5401 C   0  0  0  0  0  0
  -19.5763  -26.6389   21.5209 C   0  0  0  0  0  0
  -18.1944  -26.7936   22.1619 C   0  0  0  0  0  0
  -19.1560  -28.8877   23.2852 C   0  0  0  0  0  0
  -18.9473  -30.1470   23.8884 C   0  0  0  0  0  0
  -17.6474  -30.6594   24.0558 C   0  0  0  0  0  0
  -25.9068  -34.9437   23.5103 C   0  0  0  0  0  0
  -16.5367  -29.9087   23.6329 C   0  0  0  0  0  0
  -16.7300  -28.6503   23.0353 C   0  0  0  0  0  0
  -26.4511  -31.6565   25.0719 C   0  0  0  0  0  0
  -25.3714  -31.3716   26.1424 C   0  0  0  0  0  0
  -27.0348  -30.2970   24.6236 C   0  0  0  0  0  0
  -27.6086  -32.4298   25.7475 C   0  0  0  0  0  0
  -27.5588  -37.1791   24.8470 C   0  0  0  0  0  0
  -21.4236  -29.3065   22.3624 N   0  0  0  0  0  0
  -26.4298  -37.3772   23.9411 N   0  0  0  0  0  0
  -24.7042  -31.0457   22.0924 N   0  0  0  0  0  0
  -23.4219  -28.8143   23.3007 O   0  0  0  0  0  0
  -28.2932  -26.3046   20.2412 O   0  0  0  0  0  0
  -26.5637  -34.8933   22.4673 O   0  0  0  0  0  0
  -23.5506  -32.1370   23.7197 O   0  0  0  0  0  0
  -29.9163  -19.7623   18.4538 C   0  0  0  0  0  0
  -29.3735  -18.6036   20.5169 C   0  0  0  0  0  0
  -30.4130  -17.3678   18.6930 C   0  0  0  0  0  0
  -29.3822  -19.8682   19.7606 C   0  0  0  0  0  0
  -30.4249  -18.5541   17.9326 C   0  0  0  0  0  0
  -29.8857  -17.3183   20.0037 C   0  0  0  0  0  0
  -28.5525  -23.7304   20.0973 C   0  0  0  0  0  0
  -28.3131  -25.0198   19.6026 C   0  0  0  0  0  0
  -28.7305  -23.2711   21.5350 C   0  0  0  0  0  0
  -28.6999  -22.3998   19.2824 C   0  0  0  0  0  0
  -29.0696  -21.7299   21.5309 C   0  0  0  0  0  0
  -28.9005  -21.1988   20.1751 N   0  0  0  0  0  0
  -30.9382  -18.5294   16.6329 N   0  0  0  0  0  0
  -29.8178  -15.9623   20.6596 N   0  0  0  0  0  0
  -31.4735  -12.6130   19.1995 H   0  0  0  0  0  0
  -30.3794  -11.5158   19.9887 H   0  0  0  0  0  0
  -29.8111  -11.7440   17.5443 H   0  0  0  0  0  0
  -29.6394  -13.4732   17.7284 H   0  0  0  0  0  0
  -27.8962  -11.2934   18.9106 H   0  0  0  0  0  0
  -27.3921  -12.5423   17.7999 H   0  0  0  0  0  0
  -27.6316  -14.2589   19.4699 H   0  0  0  0  0  0
  -28.7265  -12.1961   21.4385 H   0  0  0  0  0  0
  -28.4011  -13.8731   21.8025 H   0  0  0  0  0  0
  -25.2761   -9.5717   22.4738 H   0  0  0  0  0  0
  -24.0019   -7.4646   22.7452 H   0  0  0  0  0  0
  -21.0843   -8.8798   19.8927 H   0  0  0  0  0  0
  -22.3701  -10.9693   19.6158 H   0  0  0  0  0  0
  -21.2010   -7.6136   23.9715 H   0  0  0  0  0  0
  -21.1483   -6.0496   25.9067 H   0  0  0  0  0  0
  -22.0601   -2.7610   23.2814 H   0  0  0  0  0  0
  -22.4073  -11.9885   22.4798 H   0  0  0  0  0  0
  -21.1064  -13.1250   22.2627 H   0  0  0  0  0  0
  -24.6653  -15.8567   20.5255 H   0  0  0  0  0  0
  -26.2769  -15.6241   20.0818 H   0  0  0  0  0  0
  -26.7244  -32.5369   23.1053 H   0  0  0  0  0  0
  -25.0105  -33.9668   25.0399 H   0  0  0  0  0  0
  -22.7331  -31.2962   21.3902 H   0  0  0  0  0  0
  -23.3784  -35.9569   23.3289 H   0  0  0  0  0  0
  -24.3596  -36.8893   22.2060 H   0  0  0  0  0  0
  -23.7235  -37.6455   23.6660 H   0  0  0  0  0  0
  -26.1348  -31.5152   20.6123 H   0  0  0  0  0  0
  -26.8554  -30.7942   22.0202 H   0  0  0  0  0  0
  -28.1194  -28.8862   21.2147 H   0  0  0  0  0  0
  -25.9466  -25.8691   19.0189 H   0  0  0  0  0  0
  -23.9783  -27.2985   18.9911 H   0  0  0  0  0  0
  -23.7766  -30.5812   19.3971 H   0  0  0  0  0  0
  -22.7693  -29.2400   19.8526 H   0  0  0  0  0  0
  -25.1303  -36.1909   25.0829 H   0  0  0  0  0  0
  -21.0018  -28.3333   24.1358 H   0  0  0  0  0  0
  -20.5682  -26.2359   23.3623 H   0  0  0  0  0  0
  -21.6657  -26.7460   22.1201 H   0  0  0  0  0  0
  -19.6920  -25.6295   21.1252 H   0  0  0  0  0  0
  -19.6676  -27.3184   20.6718 H   0  0  0  0  0  0
  -17.4213  -26.6702   21.4015 H   0  0  0  0  0  0
  -18.0333  -26.0080   22.9017 H   0  0  0  0  0  0
  -19.7951  -30.7279   24.2261 H   0  0  0  0  0  0
  -17.5031  -31.6271   24.5162 H   0  0  0  0  0  0
  -15.5361  -30.2977   23.7655 H   0  0  0  0  0  0
  -15.8706  -28.0809   22.7070 H   0  0  0  0  0  0
  -24.5900  -30.7062   25.7733 H   0  0  0  0  0  0
  -24.8876  -32.2868   26.4838 H   0  0  0  0  0  0
  -25.8003  -30.8891   27.0213 H   0  0  0  0  0  0
  -26.2929  -29.6707   24.1263 H   0  0  0  0  0  0
  -27.4005  -29.7250   25.4770 H   0  0  0  0  0  0
  -27.8826  -30.4212   23.9500 H   0  0  0  0  0  0
  -27.2735  -33.3628   26.2014 H   0  0  0  0  0  0
  -28.3894  -32.6805   25.0285 H   0  0  0  0  0  0
  -28.0751  -31.8439   26.5400 H   0  0  0  0  0  0
  -28.2607  -38.0089   24.7539 H   0  0  0  0  0  0
  -28.1085  -36.2626   24.6264 H   0  0  0  0  0  0
  -27.2312  -37.1425   25.8877 H   0  0  0  0  0  0
  -20.9440  -29.8772   21.6797 H   0  0  0  0  0  0
  -26.0174  -38.2853   24.1383 H   0  0  0  0  0  0
  -29.9521  -20.6290   17.8139 H   0  0  0  0  0  0
  -28.9443  -18.6175   21.5090 H   0  0  0  0  0  0
  -30.7924  -16.4655   18.2363 H   0  0  0  0  0  0
  -28.2060  -25.1528   18.5331 H   0  0  0  0  0  0
  -27.7916  -23.4506   22.0604 H   0  0  0  0  0  0
  -29.5032  -23.8545   22.0360 H   0  0  0  0  0  0
  -29.5562  -22.5282   18.6203 H   0  0  0  0  0  0
  -27.8187  -22.2613   18.6527 H   0  0  0  0  0  0
  -28.4380  -21.1865   22.2347 H   0  0  0  0  0  0
  -30.1039  -21.5750   21.8422 H   0  0  0  0  0  0
  -30.7076  -19.2855   15.9944 H   0  0  0  0  0  0
  -31.0510  -17.6374   16.1607 H   0  0  0  0  0  0
  -28.9808  -15.8010   21.1992 H   0  0  0  0  0  0
  1 25  1  0  0  0
  1 30  2  0  0  0
  1 84  1  0  0  0
  2  3  1  0  0  0
  2 25  1  0  0  0
  2 85  1  0  0  0
  2 86  1  0  0  0
  3  4  1  0  0  0
  3 87  1  0  0  0
  3 88  1  0  0  0
  4  5  1  0  0  0
  4 89  1  0  0  0
  4 90  1  0  0  0
  5  6  1  0  0  0
  5 26  1  0  0  0
  5 91  1  0  0  0
  6 25  1  0  0  0
  6 92  1  0  0  0
  6 93  1  0  0  0
  7  8  2  0  0  0
  7 26  1  0  0  0
  7 29  1  0  0  0
  8  9  1  0  0  0
  8 22  1  0  0  0
  9 10  1  0  0  0
  9 27  2  0  0  0
 10 11  2  0  0  0
 10 15  1  0  0  0
 11 12  1  0  0  0
 11 94  1  0  0  0
 12 13  2  0  0  0
 12 95  1  0  0  0
 13 14  1  0  0  0
 13 31  1  0  0  0
 14 15  2  0  0  0
 14 96  1  0  0  0
 15 97  1  0  0  0
 16 17  2  0  0  0
 16 21  1  0  0  0
 16 31  1  0  0  0
 17 18  1  0  0  0
 17 98  1  0  0  0
 18 19  2  0  0  0
 18 99  1  0  0  0
 19 20  1  0  0  0
 19 24  1  0  0  0
 20 21  2  0  0  0
 20100  1  0  0  0
 21 23  1  0  0  0
 22 28  1  0  0  0
 22 32  2  0  0  0
 26 27  1  0  0  0
 28101  1  0  0  0
 28102  1  0  0  0
 29103  1  0  0  0
 29104  1  0  0  0
 33 34  1  0  0  0
 33 66  1  0  0  0
 33 70  2  0  0  0
 34 36  1  0  0  0
 34 59  1  0  0  0
 34105  1  0  0  0
 35 44  2  0  0  0
 35 45  1  0  0  0
 35 68  1  0  0  0
 36 56  1  0  0  0
 36106  1  0  0  0
 37 39  1  0  0  0
 37 47  1  0  0  0
 37 66  1  0  0  0
 37107  1  0  0  0
 38 43  2  0  0  0
 38 46  1  0  0  0
 38 47  1  0  0  0
 39 64  1  0  0  0
 39 67  2  0  0  0
 40 52  1  0  0  0
 40 53  2  0  0  0
 40 58  1  0  0  0
 41108  1  0  0  0
 41109  1  0  0  0
 41110  1  0  0  0
 41 48  1  0  0  0
 42 43  1  0  0  0
 42 66  1  0  0  0
 42111  1  0  0  0
 42112  1  0  0  0
 43 44  1  0  0  0
 44113  1  0  0  0
 45 46  2  0  0  0
 45114  1  0  0  0
 46115  1  0  0  0
 47116  1  0  0  0
 47117  1  0  0  0
 48 56  1  0  0  0
 48 65  1  0  0  0
 48118  1  0  0  0
 49 50  1  0  0  0
 49 53  1  0  0  0
 49 64  1  0  0  0
 49119  1  0  0  0
 50 51  1  0  0  0
 50120  1  0  0  0
 50121  1  0  0  0
 51 52  1  0  0  0
 51122  1  0  0  0
 51123  1  0  0  0
 52124  1  0  0  0
 52125  1  0  0  0
 53 54  1  0  0  0
 54 55  2  0  0  0
 54126  1  0  0  0
 55 57  1  0  0  0
 55127  1  0  0  0
 56 69  2  0  0  0
 57 58  2  0  0  0
 57128  1  0  0  0
 58129  1  0  0  0
 59 60  1  0  0  0
 59 61  1  0  0  0
 59 62  1  0  0  0
 60130  1  0  0  0
 60131  1  0  0  0
 60132  1  0  0  0
 61133  1  0  0  0
 61134  1  0  0  0
 61135  1  0  0  0
 62136  1  0  0  0
 62137  1  0  0  0
 62138  1  0  0  0
 63 65  1  0  0  0
 63139  1  0  0  0
 63140  1  0  0  0
 63141  1  0  0  0
 64142  1  0  0  0
 65143  1  0  0  0
 68 78  1  0  0  0
 71 74  2  0  0  0
 71 75  1  0  0  0
 71144  1  0  0  0
 72 74  1  0  0  0
 72 76  2  0  0  0
 72145  1  0  0  0
 73 75  2  0  0  0
 73 76  1  0  0  0
 73146  1  0  0  0
 74 82  1  0  0  0
 75 83  1  0  0  0
 76 84  1  0  0  0
 77 78  2  0  0  0
 77 79  1  0  0  0
 77 80  1  0  0  0
 78147  1  0  0  0
 79 81  1  0  0  0
 79148  1  0  0  0
 79149  1  0  0  0
 80 82  1  0  0  0
 80150  1  0  0  0
 80151  1  0  0  0
 81 82  1  0  0  0
 81152  1  0  0  0
 81153  1  0  0  0
 83154  1  0  0  0
 83155  1  0  0  0
 84156  1  0  0  0
M  ISO  4   1 100  68 101  78 101  84 100
M  END
> <chiral flag>
0

> <version>
0

> <s_m_source_file>
/data/baiqing/PycharmProjects/Reinvent-master-3.2/result/LINK_invent/BTK/process_docking_weight1_custom_product_contain_oxygen_bond_distance_aromatic_linkinvent_7_9_3/rearranged_h_0153.sdf

> <i_m_source_file_index>
37

> <r_mmod_Potential_Energy-OPLS-2005>
350.111114501953

> <r_mmod_Stretch_Energy-OPLS-2005>
142.939971923828

> <r_mmod_Bend_Energy-OPLS-2005>
211.743209838867

> <r_mmod_Torsional_Energy-OPLS-2005>
262.2734375

> <r_mmod_Improper_Torsional_Energy-OPLS-2005>
9.041015625

> <r_mmod_Van_der_Waal_Energy-OPLS-2005>
135.414688110352

> <r_mmod_Electrostatic_Energy-OPLS-2005>
-281.833984375

> <r_mmod_Solvation_Energy-OPLS-2005>
-242.391967773438

> <b_mmod_Minimization_Converged-OPLS-2005>
0

> <r_mmod_RMS_Derivative-OPLS-2005>
2.31480765342712

$$$$
37
                    3D
 Structure written by MMmdl.
154163  0  0  1  0            999 V2000
  -30.5510  -14.8678   20.3816 C   0  0  0  0  0  0
  -30.4441  -12.5272   19.4831 C   0  0  0  0  0  0
  -29.5280  -12.5415   18.2393 C   0  0  0  0  0  0
  -28.0500  -12.3473   18.6430 C   0  0  0  0  0  0
  -27.6397  -13.2518   19.8414 C   0  0  2  0  0  0
  -28.6910  -13.2183   20.9768 C   0  0  0  0  0  0
  -25.2479  -13.8205   20.5729 C   0  0  0  0  0  0
  -24.1787  -13.0437   20.9223 C   0  0  0  0  0  0
  -24.6413  -11.6954   20.8718 C   0  0  0  0  0  0
  -23.9064  -10.4331   21.0352 C   0  0  0  0  0  0
  -24.3612   -9.4247   21.9128 C   0  0  0  0  0  0
  -23.6313   -8.2267   22.0722 C   0  0  0  0  0  0
  -22.4307   -8.0278   21.3515 C   0  0  0  0  0  0
  -21.9924   -9.0245   20.4620 C   0  0  0  0  0  0
  -22.7228  -10.2136   20.3022 C   0  0  0  0  0  0
  -21.6868   -6.0753   22.5280 C   0  0  0  0  0  0
  -21.4033   -6.5633   23.8217 C   0  0  0  0  0  0
  -21.3673   -5.6776   24.9164 C   0  0  0  0  0  0
  -21.6074   -4.3053   24.7195 C   0  0  0  0  0  0
  -21.8793   -3.8128   23.4311 C   0  0  0  0  0  0
  -21.9194   -4.6979   22.3386 C   0  0  0  0  0  0
  -22.7783  -13.5213   21.1869 C   0  0  0  0  0  0
  -22.1622   -4.2134   21.0958 F   0  0  0  0  0  0
  -21.5670   -3.4528   25.7701 F   0  0  0  0  0  0
  -29.9819  -13.6069   20.3905 N   0  0  0  0  0  0
  -26.2946  -12.9473   20.3230 N   0  0  0  0  0  0
  -25.9354  -11.6601   20.5675 N   0  0  0  0  0  0
  -22.0402  -12.8244   22.0438 N   0  0  0  0  0  0
  -25.4125  -15.1960   20.4254 N   0  0  0  0  0  0
  -31.7399  -14.9768   20.0708 O   0  0  0  0  0  0
  -21.6678   -6.8881   21.4242 O   0  0  0  0  0  0
  -22.3489  -14.5517   20.6726 O   0  0  0  0  0  0
  -24.6413  -31.8465   23.1927 C   0  0  0  0  0  0
  -25.9209  -32.4714   23.8280 C   0  0  1  0  0  0
  -27.2274  -27.1756   20.1546 C   0  0  0  0  0  0
  -25.5990  -33.8513   24.2212 N   0  0  0  0  0  0
  -23.4472  -30.4687   21.5350 C   0  0  2  0  0  0
  -24.8975  -28.8924   20.1234 C   0  0  0  0  0  0
  -22.7567  -29.4587   22.4907 C   0  0  0  0  0  0
  -18.0299  -28.1378   22.8477 C   0  0  0  0  0  0
  -24.1492  -36.7266   23.2633 C   0  0  0  0  0  0
  -25.9997  -30.7368   21.3852 C   0  0  0  0  0  0
  -26.0763  -29.3467   20.7322 C   0  0  0  0  0  0
  -27.2434  -28.5030   20.7280 C   0  0  0  0  0  0
  -26.0350  -26.8244   19.4851 C   0  0  0  0  0  0
  -24.8870  -27.6461   19.4824 C   0  0  0  0  0  0
  -23.6758  -29.7944   20.1571 C   0  0  0  0  0  0
  -25.4123  -36.3063   24.0323 C   0  0  1  0  0  0
  -20.5904  -28.3727   23.1241 C   0  0  2  0  0  0
  -20.6787  -26.9438   22.5423 C   0  0  0  0  0  0
  -19.5771  -26.6374   21.5201 C   0  0  0  0  0  0
  -18.1952  -26.7915   22.1624 C   0  0  0  0  0  0
  -19.1556  -28.8862   23.2857 C   0  0  0  0  0  0
  -18.9464  -30.1463   23.8881 C   0  0  0  0  0  0
  -17.6473  -30.6582   24.0552 C   0  0  0  0  0  0
  -25.9067  -34.9423   23.5071 C   0  0  0  0  0  0
  -16.5367  -29.9085   23.6335 C   0  0  0  0  0  0
  -16.7296  -28.6497   23.0363 C   0  0  0  0  0  0
  -26.4514  -31.6562   25.0697 C   0  0  0  0  0  0
  -25.3704  -31.3728   26.1406 C   0  0  0  0  0  0
  -27.0371  -30.2970   24.6250 C   0  0  0  0  0  0
  -27.6069  -32.4270   25.7489 C   0  0  0  0  0  0
  -27.5580  -37.1789   24.8463 C   0  0  0  0  0  0
  -21.4244  -29.3052   22.3604 N   0  0  0  0  0  0
  -26.4294  -37.3773   23.9411 N   0  0  0  0  0  0
  -24.7166  -31.0363   22.0946 N   0  0  0  0  0  0
  -23.4199  -28.8125   23.3026 O   0  0  0  0  0  0
  -28.2955  -26.2218   20.1801 O   0  0  0  0  0  0
  -26.5668  -34.8900   22.4642 O   0  0  0  0  0  0
  -23.5544  -32.1342   23.7162 O   0  0  0  0  0  0
  -30.0375  -19.4100   19.2241 C   0  0  0  0  0  0
  -30.2662  -17.9788   19.1210 C   0  0  0  0  0  0
  -29.4513  -19.7135   20.4366 C   0  0  0  0  0  0
  -29.8354  -17.3829   20.2906 C   0  0  0  0  0  0
  -29.1034  -20.9335   21.2958 C   0  0  0  0  0  0
  -28.1073  -24.5321   22.0337 C   0  0  0  0  0  0
  -28.8155  -23.1840   22.3366 C   0  0  0  0  0  0
  -28.8187  -23.3957   19.9918 C   0  0  0  0  0  0
  -28.0265  -24.7364   20.5153 C   0  0  2  0  0  0
  -28.8824  -22.3425   21.1121 N   0  0  0  0  0  0
  -29.7272  -15.9931   20.5812 N   0  0  0  0  0  0
  -29.0391  -20.4783   22.5637 N   0  3  0  0  0  0
  -29.2884  -18.4330   21.0631 O   0  0  0  0  0  0
  -31.4831  -12.6692   19.1832 H   0  0  0  0  0  0
  -30.3963  -11.5561   19.9838 H   0  0  0  0  0  0
  -29.8444  -11.7699   17.5382 H   0  0  0  0  0  0
  -29.6420  -13.4956   17.7154 H   0  0  0  0  0  0
  -27.9141  -11.2942   18.8983 H   0  0  0  0  0  0
  -27.3986  -12.5363   17.7875 H   0  0  0  0  0  0
  -27.6150  -14.2709   19.4499 H   0  0  0  0  0  0
  -28.7496  -12.2289   21.4280 H   0  0  0  0  0  0
  -28.4160  -13.9081   21.7750 H   0  0  0  0  0  0
  -25.2745   -9.5776   22.4715 H   0  0  0  0  0  0
  -24.0047   -7.4701   22.7506 H   0  0  0  0  0  0
  -21.0853   -8.8737   19.8982 H   0  0  0  0  0  0
  -22.3633  -10.9646   19.6148 H   0  0  0  0  0  0
  -21.1986   -7.6128   23.9714 H   0  0  0  0  0  0
  -21.1557   -6.0489   25.9072 H   0  0  0  0  0  0
  -22.0570   -2.7600   23.2787 H   0  0  0  0  0  0
  -22.3989  -11.9917   22.4878 H   0  0  0  0  0  0
  -21.1008  -13.1312   22.2558 H   0  0  0  0  0  0
  -24.6565  -15.8467   20.6012 H   0  0  0  0  0  0
  -26.2683  -15.6599   20.1461 H   0  0  0  0  0  0
  -26.7304  -32.5335   23.1024 H   0  0  0  0  0  0
  -25.0154  -33.9629   25.0398 H   0  0  0  0  0  0
  -22.7492  -31.2945   21.3783 H   0  0  0  0  0  0
  -23.3758  -35.9594   23.3297 H   0  0  0  0  0  0
  -24.3614  -36.8899   22.2063 H   0  0  0  0  0  0
  -23.7214  -37.6441   23.6673 H   0  0  0  0  0  0
  -26.1517  -31.4835   20.6083 H   0  0  0  0  0  0
  -26.8705  -30.7907   22.0264 H   0  0  0  0  0  0
  -28.1380  -28.8490   21.2263 H   0  0  0  0  0  0
  -25.9752  -25.8805   18.9685 H   0  0  0  0  0  0
  -23.9982  -27.2927   18.9717 H   0  0  0  0  0  0
  -23.8265  -30.5648   19.4013 H   0  0  0  0  0  0
  -22.7896  -29.2419   19.8376 H   0  0  0  0  0  0
  -25.1295  -36.1896   25.0806 H   0  0  0  0  0  0
  -21.0034  -28.3310   24.1338 H   0  0  0  0  0  0
  -20.5687  -26.2332   23.3631 H   0  0  0  0  0  0
  -21.6655  -26.7469   22.1190 H   0  0  0  0  0  0
  -19.6948  -25.6270   21.1244 H   0  0  0  0  0  0
  -19.6693  -27.3153   20.6697 H   0  0  0  0  0  0
  -17.4243  -26.6690   21.4022 H   0  0  0  0  0  0
  -18.0371  -26.0047   22.8997 H   0  0  0  0  0  0
  -19.7948  -30.7270   24.2261 H   0  0  0  0  0  0
  -17.5038  -31.6253   24.5159 H   0  0  0  0  0  0
  -15.5381  -30.2980   23.7656 H   0  0  0  0  0  0
  -15.8693  -28.0814   22.7080 H   0  0  0  0  0  0
  -24.5906  -30.7057   25.7725 H   0  0  0  0  0  0
  -24.8873  -32.2903   26.4770 H   0  0  0  0  0  0
  -25.7999  -30.8941   27.0239 H   0  0  0  0  0  0
  -26.2988  -29.6675   24.1296 H   0  0  0  0  0  0
  -27.4059  -29.7246   25.4786 H   0  0  0  0  0  0
  -27.8856  -30.4198   23.9512 H   0  0  0  0  0  0
  -27.2713  -33.3595   26.2027 H   0  0  0  0  0  0
  -28.3920  -32.6777   25.0345 H   0  0  0  0  0  0
  -28.0710  -31.8417   26.5453 H   0  0  0  0  0  0
  -28.2572  -38.0114   24.7557 H   0  0  0  0  0  0
  -28.1102  -36.2648   24.6224 H   0  0  0  0  0  0
  -27.2337  -37.1354   25.8877 H   0  0  0  0  0  0
  -20.9480  -29.8766   21.6795 H   0  0  0  0  0  0
  -26.0155  -38.2846   24.1415 H   0  0  0  0  0  0
  -30.2993  -20.1540   18.4840 H   0  0  0  0  0  0
  -30.6806  -17.4635   18.2635 H   0  0  0  0  0  0
  -28.6654  -25.3463   22.4999 H   0  0  0  0  0  0
  -27.1061  -24.5448   22.4763 H   0  0  0  0  0  0
  -28.3013  -22.6902   23.1644 H   0  0  0  0  0  0
  -29.8444  -23.3617   22.6643 H   0  0  0  0  0  0
  -29.8332  -23.6518   19.6933 H   0  0  0  0  0  0
  -28.3291  -22.9759   19.1101 H   0  0  0  0  0  0
  -26.9945  -24.5267   20.2303 H   0  0  0  0  0  0
  -28.8113  -15.7257   20.9080 H   0  0  0  0  0  0
  -29.1173  -19.4754   22.6744 H   0  0  0  0  0  0
  -28.8888  -21.0427   23.3839 H   0  0  0  0  0  0
  1 25  1  0  0  0
  1 30  2  0  0  0
  1 81  1  0  0  0
  2  3  1  0  0  0
  2 25  1  0  0  0
  2 84  1  0  0  0
  2 85  1  0  0  0
  3  4  1  0  0  0
  3 86  1  0  0  0
  3 87  1  0  0  0
  4  5  1  0  0  0
  4 88  1  0  0  0
  4 89  1  0  0  0
  5  6  1  0  0  0
  5 26  1  0  0  0
  5 90  1  0  0  0
  6 25  1  0  0  0
  6 91  1  0  0  0
  6 92  1  0  0  0
  7  8  2  0  0  0
  7 26  1  0  0  0
  7 29  1  0  0  0
  8  9  1  0  0  0
  8 22  1  0  0  0
  9 10  1  0  0  0
  9 27  2  0  0  0
 10 11  2  0  0  0
 10 15  1  0  0  0
 11 12  1  0  0  0
 11 93  1  0  0  0
 12 13  2  0  0  0
 12 94  1  0  0  0
 13 14  1  0  0  0
 13 31  1  0  0  0
 14 15  2  0  0  0
 14 95  1  0  0  0
 15 96  1  0  0  0
 16 17  2  0  0  0
 16 21  1  0  0  0
 16 31  1  0  0  0
 17 18  1  0  0  0
 17 97  1  0  0  0
 18 19  2  0  0  0
 18 98  1  0  0  0
 19 20  1  0  0  0
 19 24  1  0  0  0
 20 21  2  0  0  0
 20 99  1  0  0  0
 21 23  1  0  0  0
 22 28  1  0  0  0
 22 32  2  0  0  0
 26 27  1  0  0  0
 28100  1  0  0  0
 28101  1  0  0  0
 29102  1  0  0  0
 29103  1  0  0  0
 33 34  1  0  0  0
 33 66  1  0  0  0
 33 70  2  0  0  0
 34 36  1  0  0  0
 34 59  1  0  0  0
 34104  1  0  0  0
 35 44  2  0  0  0
 35 45  1  0  0  0
 35 68  1  0  0  0
 36 56  1  0  0  0
 36105  1  0  0  0
 37 39  1  0  0  0
 37 47  1  0  0  0
 37 66  1  0  0  0
 37106  1  0  0  0
 38 43  2  0  0  0
 38 46  1  0  0  0
 38 47  1  0  0  0
 39 64  1  0  0  0
 39 67  2  0  0  0
 40 52  1  0  0  0
 40 53  2  0  0  0
 40 58  1  0  0  0
 41107  1  0  0  0
 41108  1  0  0  0
 41109  1  0  0  0
 41 48  1  0  0  0
 42 43  1  0  0  0
 42 66  1  0  0  0
 42110  1  0  0  0
 42111  1  0  0  0
 43 44  1  0  0  0
 44112  1  0  0  0
 45 46  2  0  0  0
 45113  1  0  0  0
 46114  1  0  0  0
 47115  1  0  0  0
 47116  1  0  0  0
 48 56  1  0  0  0
 48 65  1  0  0  0
 48117  1  0  0  0
 49 50  1  0  0  0
 49 53  1  0  0  0
 49 64  1  0  0  0
 49118  1  0  0  0
 50 51  1  0  0  0
 50119  1  0  0  0
 50120  1  0  0  0
 51 52  1  0  0  0
 51121  1  0  0  0
 51122  1  0  0  0
 52123  1  0  0  0
 52124  1  0  0  0
 53 54  1  0  0  0
 54 55  2  0  0  0
 54125  1  0  0  0
 55 57  1  0  0  0
 55126  1  0  0  0
 56 69  2  0  0  0
 57 58  2  0  0  0
 57127  1  0  0  0
 58128  1  0  0  0
 59 60  1  0  0  0
 59 61  1  0  0  0
 59 62  1  0  0  0
 60129  1  0  0  0
 60130  1  0  0  0
 60131  1  0  0  0
 61132  1  0  0  0
 61133  1  0  0  0
 61134  1  0  0  0
 62135  1  0  0  0
 62136  1  0  0  0
 62137  1  0  0  0
 63 65  1  0  0  0
 63138  1  0  0  0
 63139  1  0  0  0
 63140  1  0  0  0
 64141  1  0  0  0
 65142  1  0  0  0
 68 79  1  0  0  0
 71 72  1  0  0  0
 71 73  2  0  0  0
 71143  1  0  0  0
 72 74  2  0  0  0
 72144  1  0  0  0
 73 75  1  0  0  0
 73 83  1  0  0  0
 74 81  1  0  0  0
 74 83  1  0  0  0
 75 80  1  0  0  0
 75 82  2  0  0  0
 76 77  1  0  0  0
 76 79  1  0  0  0
 76145  1  0  0  0
 76146  1  0  0  0
 77 80  1  0  0  0
 77147  1  0  0  0
 77148  1  0  0  0
 78 79  1  0  0  0
 78 80  1  0  0  0
 78149  1  0  0  0
 78150  1  0  0  0
 79151  1  0  0  0
 81152  1  0  0  0
 82153  1  0  0  0
 82154  1  0  0  0
M  CHG  1  82   1
M  ISO  4   1 100  68 101  79 101  81 100
M  END
> <chiral flag>
0

> <version>
0

> <s_m_source_file>
/data/baiqing/PycharmProjects/Reinvent-master-3.2/result/LINK_invent/BTK/process_docking_weight1_custom_product_contain_oxygen_bond_distance_aromatic_linkinvent_7_9_3/rearranged_h_0153.sdf

> <i_m_source_file_index>
38

> <r_mmod_Potential_Energy-OPLS-2005>
289.771331787109

> <r_mmod_Stretch_Energy-OPLS-2005>
174.714141845703

> <r_mmod_Bend_Energy-OPLS-2005>
293.281921386719

> <r_mmod_Torsional_Energy-OPLS-2005>
314.561096191406

> <r_mmod_Improper_Torsional_Energy-OPLS-2005>
5.30288457870483

> <r_mmod_Van_der_Waal_Energy-OPLS-2005>
129.877380371094

> <r_mmod_Electrostatic_Energy-OPLS-2005>
-312.311401367188

> <r_mmod_Solvation_Energy-OPLS-2005>
-464.339263916016

> <b_mmod_Minimization_Converged-OPLS-2005>
0

> <r_mmod_RMS_Derivative-OPLS-2005>
8.91529178619385

$$$$
38
                    3D
 Structure written by MMmdl.
151160  0  0  1  0            999 V2000
  -30.4736  -15.0864   20.3969 C   0  0  0  0  0  0
  -30.4493  -12.6777   19.5150 C   0  0  0  0  0  0
  -29.5336  -12.5575   18.2718 C   0  0  0  0  0  0
  -28.0714  -12.3122   18.6904 C   0  0  0  0  0  0
  -27.6272  -13.2561   19.8361 C   0  0  2  0  0  0
  -28.6676  -13.3294   20.9750 C   0  0  0  0  0  0
  -25.2448  -13.8219   20.5710 C   0  0  0  0  0  0
  -24.1774  -13.0434   20.9231 C   0  0  0  0  0  0
  -24.6398  -11.6921   20.8749 C   0  0  0  0  0  0
  -23.9076  -10.4293   21.0398 C   0  0  0  0  0  0
  -24.3622   -9.4211   21.9179 C   0  0  0  0  0  0
  -23.6294   -8.2246   22.0754 C   0  0  0  0  0  0
  -22.4277   -8.0282   21.3544 C   0  0  0  0  0  0
  -21.9911   -9.0253   20.4643 C   0  0  0  0  0  0
  -22.7243  -10.2131   20.3050 C   0  0  0  0  0  0
  -21.6859   -6.0728   22.5269 C   0  0  0  0  0  0
  -21.4018   -6.5632   23.8202 C   0  0  0  0  0  0
  -21.3663   -5.6787   24.9164 C   0  0  0  0  0  0
  -21.6051   -4.3048   24.7220 C   0  0  0  0  0  0
  -21.8818   -3.8140   23.4340 C   0  0  0  0  0  0
  -21.9192   -4.6957   22.3394 C   0  0  0  0  0  0
  -22.7790  -13.5202   21.1880 C   0  0  0  0  0  0
  -22.1664   -4.2139   21.0974 F   0  0  0  0  0  0
  -21.5631   -3.4535   25.7733 F   0  0  0  0  0  0
  -29.9300  -13.7883   20.3747 N   0  0  0  0  0  0
  -26.2874  -12.9461   20.3221 N   0  0  0  0  0  0
  -25.9331  -11.6583   20.5715 N   0  0  0  0  0  0
  -22.0446  -12.8188   22.0436 N   0  0  0  0  0  0
  -25.4111  -15.1952   20.4134 N   0  0  0  0  0  0
  -31.6769  -15.1677   20.1161 O   0  0  0  0  0  0
  -21.6644   -6.8877   21.4234 O   0  0  0  0  0  0
  -22.3472  -14.5512   20.6733 O   0  0  0  0  0  0
  -24.6540  -31.8353   23.1805 C   0  0  0  0  0  0
  -25.9264  -32.4654   23.8234 C   0  0  1  0  0  0
  -27.2164  -27.0325   20.1631 C   0  0  0  0  0  0
  -25.5971  -33.8463   24.2148 N   0  0  0  0  0  0
  -23.4636  -30.4528   21.5279 C   0  0  2  0  0  0
  -24.9163  -28.8641   20.1124 C   0  0  0  0  0  0
  -22.7626  -29.4513   22.4818 C   0  0  0  0  0  0
  -18.0318  -28.1410   22.8477 C   0  0  0  0  0  0
  -24.1491  -36.7236   23.2644 C   0  0  0  0  0  0
  -26.0286  -30.6742   21.3986 C   0  0  0  0  0  0
  -26.0984  -29.2750   20.7414 C   0  0  0  0  0  0
  -27.2476  -28.3780   20.7484 C   0  0  0  0  0  0
  -26.0102  -26.7625   19.4757 C   0  0  0  0  0  0
  -24.8913  -27.6238   19.4618 C   0  0  0  0  0  0
  -23.6982  -29.7783   20.1505 C   0  0  0  0  0  0
  -25.4129  -36.3009   24.0308 C   0  0  1  0  0  0
  -20.5939  -28.3751   23.1208 C   0  0  2  0  0  0
  -20.6798  -26.9442   22.5404 C   0  0  0  0  0  0
  -19.5769  -26.6388   21.5216 C   0  0  0  0  0  0
  -18.1952  -26.7946   22.1628 C   0  0  0  0  0  0
  -19.1578  -28.8899   23.2834 C   0  0  0  0  0  0
  -18.9488  -30.1486   23.8871 C   0  0  0  0  0  0
  -17.6481  -30.6600   24.0559 C   0  0  0  0  0  0
  -25.9085  -34.9387   23.5042 C   0  0  0  0  0  0
  -16.5373  -29.9092   23.6341 C   0  0  0  0  0  0
  -16.7301  -28.6510   23.0362 C   0  0  0  0  0  0
  -26.4551  -31.6552   25.0714 C   0  0  0  0  0  0
  -25.3704  -31.3771   26.1386 C   0  0  0  0  0  0
  -27.0425  -30.2928   24.6373 C   0  0  0  0  0  0
  -27.6052  -32.4342   25.7519 C   0  0  0  0  0  0
  -27.5576  -37.1778   24.8468 C   0  0  0  0  0  0
  -21.4305  -29.3059   22.3566 N   0  0  0  0  0  0
  -26.4289  -37.3729   23.9407 N   0  0  0  0  0  0
  -24.7359  -31.0110   22.0896 N   0  0  0  0  0  0
  -23.4224  -28.8060   23.3008 O   0  0  0  0  0  0
  -28.2193  -25.9561   20.2269 O   0  0  0  0  0  0
  -26.5678  -34.8898   22.4627 O   0  0  0  0  0  0
  -23.5632  -32.1280   23.6953 O   0  0  0  0  0  0
  -30.5018  -18.7545   20.0719 C   0  0  0  0  0  0
  -30.0451  -20.2000   20.0954 C   0  0  0  0  0  0
  -28.7638  -20.3741   20.5176 C   0  0  0  0  0  0
  -29.6111  -17.7187   20.4678 C   0  0  0  0  0  0
  -28.6566  -22.9478   20.2965 C   0  0  0  0  0  0
  -30.7901  -21.5134   19.7188 C   0  0  0  0  0  0
  -27.1364  -24.3789   21.7942 C   0  0  0  0  0  0
  -27.7995  -24.4159   20.4062 C   0  0  1  0  0  0
  -28.0998  -21.6862   20.6212 N   0  0  0  0  0  0
  -29.9454  -22.7957   19.8632 N   0  3  0  0  0  0
  -29.6248  -16.2471   20.5693 N   0  0  0  0  0  0
  -28.1300  -18.7081   20.8845 S   0  0  0  0  0  0
  -31.4770  -12.8623   19.1994 H   0  0  0  0  0  0
  -30.4741  -11.7386   20.0705 H   0  0  0  0  0  0
  -29.8806  -11.7556   17.6187 H   0  0  0  0  0  0
  -29.5939  -13.4765   17.6865 H   0  0  0  0  0  0
  -27.9921  -11.2760   19.0204 H   0  0  0  0  0  0
  -27.4065  -12.4131   17.8318 H   0  0  0  0  0  0
  -27.5754  -14.2475   19.3863 H   0  0  0  0  0  0
  -28.7849  -12.3614   21.4643 H   0  0  0  0  0  0
  -28.3405  -14.0276   21.7471 H   0  0  0  0  0  0
  -25.2767   -9.5688   22.4751 H   0  0  0  0  0  0
  -24.0006   -7.4636   22.7470 H   0  0  0  0  0  0
  -21.0845   -8.8765   19.8943 H   0  0  0  0  0  0
  -22.3700  -10.9666   19.6160 H   0  0  0  0  0  0
  -21.2017   -7.6141   23.9703 H   0  0  0  0  0  0
  -21.1491   -6.0517   25.9067 H   0  0  0  0  0  0
  -22.0599   -2.7601   23.2838 H   0  0  0  0  0  0
  -22.4078  -11.9860   22.4830 H   0  0  0  0  0  0
  -21.1059  -13.1197   22.2637 H   0  0  0  0  0  0
  -24.6347  -15.8407   20.5123 H   0  0  0  0  0  0
  -26.2390  -15.6310   20.0298 H   0  0  0  0  0  0
  -26.7332  -32.5225   23.0956 H   0  0  0  0  0  0
  -25.0084  -33.9562   25.0276 H   0  0  0  0  0  0
  -22.7715  -31.2817   21.3656 H   0  0  0  0  0  0
  -23.3759  -35.9561   23.3295 H   0  0  0  0  0  0
  -24.3570  -36.8884   22.2060 H   0  0  0  0  0  0
  -23.7242  -37.6425   23.6694 H   0  0  0  0  0  0
  -26.1992  -31.4202   20.6211 H   0  0  0  0  0  0
  -26.8932  -30.7281   22.0484 H   0  0  0  0  0  0
  -28.1416  -28.6858   21.2722 H   0  0  0  0  0  0
  -25.8904  -25.8317   18.9453 H   0  0  0  0  0  0
  -23.9951  -27.3081   18.9457 H   0  0  0  0  0  0
  -23.8469  -30.5505   19.3955 H   0  0  0  0  0  0
  -22.8102  -29.2283   19.8339 H   0  0  0  0  0  0
  -25.1320  -36.1828   25.0799 H   0  0  0  0  0  0
  -21.0036  -28.3352   24.1327 H   0  0  0  0  0  0
  -20.5682  -26.2369   23.3638 H   0  0  0  0  0  0
  -21.6660  -26.7427   22.1203 H   0  0  0  0  0  0
  -19.6924  -25.6288   21.1269 H   0  0  0  0  0  0
  -19.6700  -27.3176   20.6727 H   0  0  0  0  0  0
  -17.4217  -26.6694   21.4033 H   0  0  0  0  0  0
  -18.0347  -26.0095   22.9032 H   0  0  0  0  0  0
  -19.7958  -30.7309   24.2237 H   0  0  0  0  0  0
  -17.5031  -31.6276   24.5163 H   0  0  0  0  0  0
  -15.5371  -30.2981   23.7677 H   0  0  0  0  0  0
  -15.8705  -28.0813   22.7100 H   0  0  0  0  0  0
  -24.5899  -30.7103   25.7707 H   0  0  0  0  0  0
  -24.8878  -32.2958   26.4722 H   0  0  0  0  0  0
  -25.7963  -30.9007   27.0223 H   0  0  0  0  0  0
  -26.3066  -29.6634   24.1354 H   0  0  0  0  0  0
  -27.3965  -29.7258   25.4992 H   0  0  0  0  0  0
  -27.9012  -30.4133   23.9765 H   0  0  0  0  0  0
  -27.2619  -33.3667   26.2015 H   0  0  0  0  0  0
  -28.3913  -32.6865   25.0389 H   0  0  0  0  0  0
  -28.0666  -31.8522   26.5508 H   0  0  0  0  0  0
  -28.2581  -38.0084   24.7505 H   0  0  0  0  0  0
  -28.1081  -36.2608   24.6307 H   0  0  0  0  0  0
  -27.2288  -37.1439   25.8870 H   0  0  0  0  0  0
  -20.9538  -29.8769   21.6727 H   0  0  0  0  0  0
  -26.0147  -38.2797   24.1399 H   0  0  0  0  0  0
  -31.5085  -18.5370   19.7430 H   0  0  0  0  0  0
  -31.1463  -21.4555   18.6903 H   0  0  0  0  0  0
  -31.6803  -21.6237   20.3383 H   0  0  0  0  0  0
  -26.6337  -23.4316   21.9805 H   0  0  0  0  0  0
  -26.3826  -25.1565   21.9117 H   0  0  0  0  0  0
  -27.8813  -24.5186   22.5781 H   0  0  0  0  0  0
  -27.0116  -24.2553   19.6756 H   0  0  0  0  0  0
  -27.1424  -21.6287   20.9387 H   0  0  0  0  0  0
  -30.4164  -23.6430   19.5789 H   0  0  0  0  0  0
  -28.7087  -15.9065   20.8201 H   0  0  0  0  0  0
  1 25  1  0  0  0
  1 30  2  0  0  0
  1 81  1  0  0  0
  2  3  1  0  0  0
  2 25  1  0  0  0
  2 83  1  0  0  0
  2 84  1  0  0  0
  3  4  1  0  0  0
  3 85  1  0  0  0
  3 86  1  0  0  0
  4  5  1  0  0  0
  4 87  1  0  0  0
  4 88  1  0  0  0
  5  6  1  0  0  0
  5 26  1  0  0  0
  5 89  1  0  0  0
  6 25  1  0  0  0
  6 90  1  0  0  0
  6 91  1  0  0  0
  7  8  2  0  0  0
  7 26  1  0  0  0
  7 29  1  0  0  0
  8  9  1  0  0  0
  8 22  1  0  0  0
  9 10  1  0  0  0
  9 27  2  0  0  0
 10 11  2  0  0  0
 10 15  1  0  0  0
 11 12  1  0  0  0
 11 92  1  0  0  0
 12 13  2  0  0  0
 12 93  1  0  0  0
 13 14  1  0  0  0
 13 31  1  0  0  0
 14 15  2  0  0  0
 14 94  1  0  0  0
 15 95  1  0  0  0
 16 17  2  0  0  0
 16 21  1  0  0  0
 16 31  1  0  0  0
 17 18  1  0  0  0
 17 96  1  0  0  0
 18 19  2  0  0  0
 18 97  1  0  0  0
 19 20  1  0  0  0
 19 24  1  0  0  0
 20 21  2  0  0  0
 20 98  1  0  0  0
 21 23  1  0  0  0
 22 28  1  0  0  0
 22 32  2  0  0  0
 26 27  1  0  0  0
 28 99  1  0  0  0
 28100  1  0  0  0
 29101  1  0  0  0
 29102  1  0  0  0
 33 34  1  0  0  0
 33 66  1  0  0  0
 33 70  2  0  0  0
 34 36  1  0  0  0
 34 59  1  0  0  0
 34103  1  0  0  0
 35 44  2  0  0  0
 35 45  1  0  0  0
 35 68  1  0  0  0
 36 56  1  0  0  0
 36104  1  0  0  0
 37 39  1  0  0  0
 37 47  1  0  0  0
 37 66  1  0  0  0
 37105  1  0  0  0
 38 43  2  0  0  0
 38 46  1  0  0  0
 38 47  1  0  0  0
 39 64  1  0  0  0
 39 67  2  0  0  0
 40 52  1  0  0  0
 40 53  2  0  0  0
 40 58  1  0  0  0
 41106  1  0  0  0
 41107  1  0  0  0
 41108  1  0  0  0
 41 48  1  0  0  0
 42 43  1  0  0  0
 42 66  1  0  0  0
 42109  1  0  0  0
 42110  1  0  0  0
 43 44  1  0  0  0
 44111  1  0  0  0
 45 46  2  0  0  0
 45112  1  0  0  0
 46113  1  0  0  0
 47114  1  0  0  0
 47115  1  0  0  0
 48 56  1  0  0  0
 48 65  1  0  0  0
 48116  1  0  0  0
 49 50  1  0  0  0
 49 53  1  0  0  0
 49 64  1  0  0  0
 49117  1  0  0  0
 50 51  1  0  0  0
 50118  1  0  0  0
 50119  1  0  0  0
 51 52  1  0  0  0
 51120  1  0  0  0
 51121  1  0  0  0
 52122  1  0  0  0
 52123  1  0  0  0
 53 54  1  0  0  0
 54 55  2  0  0  0
 54124  1  0  0  0
 55 57  1  0  0  0
 55125  1  0  0  0
 56 69  2  0  0  0
 57 58  2  0  0  0
 57126  1  0  0  0
 58127  1  0  0  0
 59 60  1  0  0  0
 59 61  1  0  0  0
 59 62  1  0  0  0
 60128  1  0  0  0
 60129  1  0  0  0
 60130  1  0  0  0
 61131  1  0  0  0
 61132  1  0  0  0
 61133  1  0  0  0
 62134  1  0  0  0
 62135  1  0  0  0
 62136  1  0  0  0
 63 65  1  0  0  0
 63137  1  0  0  0
 63138  1  0  0  0
 63139  1  0  0  0
 64140  1  0  0  0
 65141  1  0  0  0
 68 78  1  0  0  0
 71 72  1  0  0  0
 71 74  2  0  0  0
 71142  1  0  0  0
 72 73  2  0  0  0
 72 76  1  0  0  0
 73 79  1  0  0  0
 73 82  1  0  0  0
 74 81  1  0  0  0
 74 82  1  0  0  0
 75 78  1  0  0  0
 75 79  1  0  0  0
 75 80  2  0  0  0
 76 80  1  0  0  0
 76143  1  0  0  0
 76144  1  0  0  0
 77145  1  0  0  0
 77146  1  0  0  0
 77147  1  0  0  0
 77 78  1  0  0  0
 78148  1  0  0  0
 79149  1  0  0  0
 80150  1  0  0  0
 81151  1  0  0  0
M  CHG  1  80   1
M  ISO  4   1 100  68 101  78 101  81 100
M  END
> <chiral flag>
0

> <version>
0

> <s_m_source_file>
/data/baiqing/PycharmProjects/Reinvent-master-3.2/result/LINK_invent/BTK/process_docking_weight1_custom_product_contain_oxygen_bond_distance_aromatic_linkinvent_7_9_3/rearranged_h_0153.sdf

> <i_m_source_file_index>
39

> <r_mmod_Potential_Energy-OPLS-2005>
533.253173828125

> <r_mmod_Stretch_Energy-OPLS-2005>
328.256896972656

> <r_mmod_Bend_Energy-OPLS-2005>
338.732452392578

> <r_mmod_Torsional_Energy-OPLS-2005>
211.183074951172

> <r_mmod_Improper_Torsional_Energy-OPLS-2005>
3.76861262321472

> <r_mmod_Van_der_Waal_Energy-OPLS-2005>
119.864967346191

> <r_mmod_Electrostatic_Energy-OPLS-2005>
-330.020874023438

> <r_mmod_Solvation_Energy-OPLS-2005>
-443.907043457031

> <b_mmod_Minimization_Converged-OPLS-2005>
0

> <r_mmod_RMS_Derivative-OPLS-2005>
1.13370704650879

$$$$
39
                    3D
 Structure written by MMmdl.
153161  0  0  1  0            999 V2000
  -30.5691  -14.7306   20.5066 C   0  0  0  0  0  0
  -30.4504  -12.4541   19.4602 C   0  0  0  0  0  0
  -29.5151  -12.5268   18.2302 C   0  0  0  0  0  0
  -28.0372  -12.3510   18.6366 C   0  0  0  0  0  0
  -27.6515  -13.2216   19.8614 C   0  0  2  0  0  0
  -28.6961  -13.0865   20.9914 C   0  0  0  0  0  0
  -25.2545  -13.8173   20.5677 C   0  0  0  0  0  0
  -24.1814  -13.0431   20.9169 C   0  0  0  0  0  0
  -24.6395  -11.6907   20.8721 C   0  0  0  0  0  0
  -23.9059  -10.4289   21.0391 C   0  0  0  0  0  0
  -24.3613   -9.4213   21.9175 C   0  0  0  0  0  0
  -23.6291   -8.2244   22.0756 C   0  0  0  0  0  0
  -22.4273   -8.0277   21.3544 C   0  0  0  0  0  0
  -21.9902   -9.0246   20.4642 C   0  0  0  0  0  0
  -22.7230  -10.2124   20.3050 C   0  0  0  0  0  0
  -21.6858   -6.0733   22.5280 C   0  0  0  0  0  0
  -21.4012   -6.5635   23.8210 C   0  0  0  0  0  0
  -21.3660   -5.6790   24.9174 C   0  0  0  0  0  0
  -21.6046   -4.3054   24.7221 C   0  0  0  0  0  0
  -21.8821   -3.8144   23.4347 C   0  0  0  0  0  0
  -21.9192   -4.6955   22.3400 C   0  0  0  0  0  0
  -22.7839  -13.5217   21.1844 C   0  0  0  0  0  0
  -22.1661   -4.2142   21.0980 F   0  0  0  0  0  0
  -21.5627   -3.4540   25.7736 F   0  0  0  0  0  0
  -30.0035  -13.4757   20.4336 N   0  0  0  0  0  0
  -26.2982  -12.9361   20.3302 N   0  0  0  0  0  0
  -25.9326  -11.6511   20.5737 N   0  0  0  0  0  0
  -22.0488  -12.8200   22.0404 N   0  0  0  0  0  0
  -25.4254  -15.1897   20.4086 N   0  0  0  0  0  0
  -31.7152  -14.9297   20.0893 O   0  0  0  0  0  0
  -21.6641   -6.8872   21.4241 O   0  0  0  0  0  0
  -22.3511  -14.5525   20.6702 O   0  0  0  0  0  0
  -24.6311  -31.8558   23.1964 C   0  0  0  0  0  0
  -25.9130  -32.4767   23.8313 C   0  0  1  0  0  0
  -27.2318  -27.2622   20.1237 C   0  0  0  0  0  0
  -25.5931  -33.8563   24.2243 N   0  0  0  0  0  0
  -23.4293  -30.4794   21.5393 C   0  0  2  0  0  0
  -24.8790  -28.9245   20.1128 C   0  0  0  0  0  0
  -22.7520  -29.4608   22.4881 C   0  0  0  0  0  0
  -18.0304  -28.1408   22.8470 C   0  0  0  0  0  0
  -24.1481  -36.7287   23.2645 C   0  0  0  0  0  0
  -25.9770  -30.7683   21.3765 C   0  0  0  0  0  0
  -26.0520  -29.3906   20.7195 C   0  0  0  0  0  0
  -27.2312  -28.5737   20.7094 C   0  0  0  0  0  0
  -26.0303  -26.8684   19.4870 C   0  0  0  0  0  0
  -24.8741  -27.6714   19.4853 C   0  0  0  0  0  0
  -23.6496  -29.8117   20.1576 C   0  0  0  0  0  0
  -25.4107  -36.3086   24.0329 C   0  0  1  0  0  0
  -20.5917  -28.3709   23.1270 C   0  0  2  0  0  0
  -20.6795  -26.9417   22.5415 C   0  0  0  0  0  0
  -19.5766  -26.6384   21.5224 C   0  0  0  0  0  0
  -18.1940  -26.7951   22.1617 C   0  0  0  0  0  0
  -19.1564  -28.8869   23.2876 C   0  0  0  0  0  0
  -18.9479  -30.1470   23.8889 C   0  0  0  0  0  0
  -17.6483  -30.6599   24.0559 C   0  0  0  0  0  0
  -25.9056  -34.9458   23.5092 C   0  0  0  0  0  0
  -16.5372  -29.9091   23.6332 C   0  0  0  0  0  0
  -16.7298  -28.6522   23.0339 C   0  0  0  0  0  0
  -26.4477  -31.6601   25.0726 C   0  0  0  0  0  0
  -25.3671  -31.3763   26.1434 C   0  0  0  0  0  0
  -27.0316  -30.3019   24.6204 C   0  0  0  0  0  0
  -27.6040  -32.4324   25.7505 C   0  0  0  0  0  0
  -27.5571  -37.1797   24.8471 C   0  0  0  0  0  0
  -21.4222  -29.3061   22.3645 N   0  0  0  0  0  0
  -26.4284  -37.3789   23.9417 N   0  0  0  0  0  0
  -24.6985  -31.0526   22.0942 N   0  0  0  0  0  0
  -23.4222  -28.8150   23.2974 O   0  0  0  0  0  0
  -28.3379  -26.3740   20.1555 O   0  0  0  0  0  0
  -26.5644  -34.8937   22.4676 O   0  0  0  0  0  0
  -23.5460  -32.1366   23.7268 O   0  0  0  0  0  0
  -28.9035  -19.2619   21.8340 C   0  0  0  0  0  0
  -28.9664  -17.8259   21.9661 C   0  0  0  0  0  0
  -29.5305  -19.8026   20.7312 C   0  0  0  0  0  0
  -29.6904  -17.1354   21.0163 C   0  0  0  0  0  0
  -28.8673  -22.1964   20.5346 C   0  0  0  0  0  0
  -27.4664  -22.0241   21.1079 C   0  0  0  0  0  0
  -30.4258  -24.1563   21.1377 C   0  0  0  0  0  0
  -28.0823  -24.8958   20.3199 C   0  0  0  0  0  0
  -29.2390  -23.7505   20.2466 C   0  0  2  0  0  0
  -29.6821  -21.1700   20.3265 N   0  0  0  0  0  0
  -29.7398  -15.7311   20.9772 N   0  0  0  0  0  0
  -30.3159  -18.3983   19.9006 S   0  0  0  0  0  0
  -31.4875  -12.6097   19.1549 H   0  0  0  0  0  0
  -30.4161  -11.4608   19.9101 H   0  0  0  0  0  0
  -29.7945  -11.7682   17.4973 H   0  0  0  0  0  0
  -29.6406  -13.4903   17.7336 H   0  0  0  0  0  0
  -27.8781  -11.2970   18.8690 H   0  0  0  0  0  0
  -27.3852  -12.5798   17.7924 H   0  0  0  0  0  0
  -27.6640  -14.2559   19.5173 H   0  0  0  0  0  0
  -28.7300  -12.0587   21.3571 H   0  0  0  0  0  0
  -28.4198  -13.6963   21.8530 H   0  0  0  0  0  0
  -25.2766   -9.5682   22.4741 H   0  0  0  0  0  0
  -24.0002   -7.4636   22.7483 H   0  0  0  0  0  0
  -21.0837   -8.8757   19.8952 H   0  0  0  0  0  0
  -22.3694  -10.9654   19.6147 H   0  0  0  0  0  0
  -21.2008   -7.6146   23.9706 H   0  0  0  0  0  0
  -21.1481   -6.0525   25.9073 H   0  0  0  0  0  0
  -22.0600   -2.7608   23.2849 H   0  0  0  0  0  0
  -22.4116  -11.9860   22.4790 H   0  0  0  0  0  0
  -21.1111  -13.1225   22.2626 H   0  0  0  0  0  0
  -24.6554  -15.8430   20.5030 H   0  0  0  0  0  0
  -26.2718  -15.6270   20.0661 H   0  0  0  0  0  0
  -26.7205  -32.5399   23.1062 H   0  0  0  0  0  0
  -25.0071  -33.9679   25.0384 H   0  0  0  0  0  0
  -22.7275  -31.3020   21.3907 H   0  0  0  0  0  0
  -23.3761  -35.9608   23.3315 H   0  0  0  0  0  0
  -24.3579  -36.8894   22.2062 H   0  0  0  0  0  0
  -23.7207  -37.6478   23.6661 H   0  0  0  0  0  0
  -26.1182  -31.5236   20.6025 H   0  0  0  0  0  0
  -26.8558  -30.8211   22.0072 H   0  0  0  0  0  0
  -28.1297  -28.9307   21.1953 H   0  0  0  0  0  0
  -25.9504  -25.9253   18.9707 H   0  0  0  0  0  0
  -23.9790  -27.3093   18.9973 H   0  0  0  0  0  0
  -23.7753  -30.5859   19.3998 H   0  0  0  0  0  0
  -22.7677  -29.2464   19.8508 H   0  0  0  0  0  0
  -25.1287  -36.1936   25.0818 H   0  0  0  0  0  0
  -21.0015  -28.3296   24.1393 H   0  0  0  0  0  0
  -20.5687  -26.2316   23.3616 H   0  0  0  0  0  0
  -21.6655  -26.7433   22.1195 H   0  0  0  0  0  0
  -19.6925  -25.6294   21.1255 H   0  0  0  0  0  0
  -19.6725  -27.3194   20.6756 H   0  0  0  0  0  0
  -17.4214  -26.6711   21.4017 H   0  0  0  0  0  0
  -18.0316  -26.0110   22.9021 H   0  0  0  0  0  0
  -19.7957  -30.7288   24.2244 H   0  0  0  0  0  0
  -17.5043  -31.6272   24.5173 H   0  0  0  0  0  0
  -15.5374  -30.2998   23.7663 H   0  0  0  0  0  0
  -15.8699  -28.0848   22.7046 H   0  0  0  0  0  0
  -24.5940  -30.6987   25.7791 H   0  0  0  0  0  0
  -24.8746  -32.2921   26.4717 H   0  0  0  0  0  0
  -25.7990  -30.9094   27.0294 H   0  0  0  0  0  0
  -26.2899  -29.6792   24.1198 H   0  0  0  0  0  0
  -27.3990  -29.7270   25.4712 H   0  0  0  0  0  0
  -27.8776  -30.4316   23.9452 H   0  0  0  0  0  0
  -27.2701  -33.3707   26.1939 H   0  0  0  0  0  0
  -28.3933  -32.6723   25.0370 H   0  0  0  0  0  0
  -28.0592  -31.8510   26.5524 H   0  0  0  0  0  0
  -28.2594  -38.0094   24.7537 H   0  0  0  0  0  0
  -28.1059  -36.2630   24.6280 H   0  0  0  0  0  0
  -27.2296  -37.1427   25.8877 H   0  0  0  0  0  0
  -20.9411  -29.8805   21.6863 H   0  0  0  0  0  0
  -26.0170  -38.2861   24.1443 H   0  0  0  0  0  0
  -28.3798  -19.8455   22.5785 H   0  0  0  0  0  0
  -28.4517  -17.3455   22.7873 H   0  0  0  0  0  0
  -26.7422  -22.6156   20.5515 H   0  0  0  0  0  0
  -27.4467  -22.3393   22.1513 H   0  0  0  0  0  0
  -27.1106  -20.9983   21.0376 H   0  0  0  0  0  0
  -31.2585  -23.4589   21.0305 H   0  0  0  0  0  0
  -30.1424  -24.1772   22.1908 H   0  0  0  0  0  0
  -30.7985  -25.1465   20.8753 H   0  0  0  0  0  0
  -27.5771  -24.8000   21.2818 H   0  0  0  0  0  0
  -27.3615  -24.5841   19.5693 H   0  0  0  0  0  0
  -29.6070  -23.7757   19.2210 H   0  0  0  0  0  0
  -28.9248  -15.3121   21.3992 H   0  0  0  0  0  0
  1 25  1  0  0  0
  1 30  2  0  0  0
  1 81  1  0  0  0
  2  3  1  0  0  0
  2 25  1  0  0  0
  2 83  1  0  0  0
  2 84  1  0  0  0
  3  4  1  0  0  0
  3 85  1  0  0  0
  3 86  1  0  0  0
  4  5  1  0  0  0
  4 87  1  0  0  0
  4 88  1  0  0  0
  5  6  1  0  0  0
  5 26  1  0  0  0
  5 89  1  0  0  0
  6 25  1  0  0  0
  6 90  1  0  0  0
  6 91  1  0  0  0
  7  8  2  0  0  0
  7 26  1  0  0  0
  7 29  1  0  0  0
  8  9  1  0  0  0
  8 22  1  0  0  0
  9 10  1  0  0  0
  9 27  2  0  0  0
 10 11  2  0  0  0
 10 15  1  0  0  0
 11 12  1  0  0  0
 11 92  1  0  0  0
 12 13  2  0  0  0
 12 93  1  0  0  0
 13 14  1  0  0  0
 13 31  1  0  0  0
 14 15  2  0  0  0
 14 94  1  0  0  0
 15 95  1  0  0  0
 16 17  2  0  0  0
 16 21  1  0  0  0
 16 31  1  0  0  0
 17 18  1  0  0  0
 17 96  1  0  0  0
 18 19  2  0  0  0
 18 97  1  0  0  0
 19 20  1  0  0  0
 19 24  1  0  0  0
 20 21  2  0  0  0
 20 98  1  0  0  0
 21 23  1  0  0  0
 22 28  1  0  0  0
 22 32  2  0  0  0
 26 27  1  0  0  0
 28 99  1  0  0  0
 28100  1  0  0  0
 29101  1  0  0  0
 29102  1  0  0  0
 33 34  1  0  0  0
 33 66  1  0  0  0
 33 70  2  0  0  0
 34 36  1  0  0  0
 34 59  1  0  0  0
 34103  1  0  0  0
 35 44  2  0  0  0
 35 45  1  0  0  0
 35 68  1  0  0  0
 36 56  1  0  0  0
 36104  1  0  0  0
 37 39  1  0  0  0
 37 47  1  0  0  0
 37 66  1  0  0  0
 37105  1  0  0  0
 38 43  2  0  0  0
 38 46  1  0  0  0
 38 47  1  0  0  0
 39 64  1  0  0  0
 39 67  2  0  0  0
 40 52  1  0  0  0
 40 53  2  0  0  0
 40 58  1  0  0  0
 41106  1  0  0  0
 41107  1  0  0  0
 41108  1  0  0  0
 41 48  1  0  0  0
 42 43  1  0  0  0
 42 66  1  0  0  0
 42109  1  0  0  0
 42110  1  0  0  0
 43 44  1  0  0  0
 44111  1  0  0  0
 45 46  2  0  0  0
 45112  1  0  0  0
 46113  1  0  0  0
 47114  1  0  0  0
 47115  1  0  0  0
 48 56  1  0  0  0
 48 65  1  0  0  0
 48116  1  0  0  0
 49 50  1  0  0  0
 49 53  1  0  0  0
 49 64  1  0  0  0
 49117  1  0  0  0
 50 51  1  0  0  0
 50118  1  0  0  0
 50119  1  0  0  0
 51 52  1  0  0  0
 51120  1  0  0  0
 51121  1  0  0  0
 52122  1  0  0  0
 52123  1  0  0  0
 53 54  1  0  0  0
 54 55  2  0  0  0
 54124  1  0  0  0
 55 57  1  0  0  0
 55125  1  0  0  0
 56 69  2  0  0  0
 57 58  2  0  0  0
 57126  1  0  0  0
 58127  1  0  0  0
 59 60  1  0  0  0
 59 61  1  0  0  0
 59 62  1  0  0  0
 60128  1  0  0  0
 60129  1  0  0  0
 60130  1  0  0  0
 61131  1  0  0  0
 61132  1  0  0  0
 61133  1  0  0  0
 62134  1  0  0  0
 62135  1  0  0  0
 62136  1  0  0  0
 63 65  1  0  0  0
 63137  1  0  0  0
 63138  1  0  0  0
 63139  1  0  0  0
 64140  1  0  0  0
 65141  1  0  0  0
 68 78  1  0  0  0
 71 72  1  0  0  0
 71 73  2  0  0  0
 71142  1  0  0  0
 72 74  2  0  0  0
 72143  1  0  0  0
 73 80  1  0  0  0
 73 82  1  0  0  0
 74 81  1  0  0  0
 74 82  1  0  0  0
 75 76  1  0  0  0
 75 79  1  0  0  0
 75 80  2  0  0  0
 76144  1  0  0  0
 76145  1  0  0  0
 76146  1  0  0  0
 77147  1  0  0  0
 77148  1  0  0  0
 77149  1  0  0  0
 77 79  1  0  0  0
 78 79  1  0  0  0
 78150  1  0  0  0
 78151  1  0  0  0
 79152  1  0  0  0
 81153  1  0  0  0
M  ISO  4   1 100  68 101  78 101  81 100
M  END
> <chiral flag>
0

> <version>
0

> <s_m_source_file>
/data/baiqing/PycharmProjects/Reinvent-master-3.2/result/LINK_invent/BTK/process_docking_weight1_custom_product_contain_oxygen_bond_distance_aromatic_linkinvent_7_9_3/rearranged_h_0153.sdf

> <i_m_source_file_index>
40

> <r_mmod_Potential_Energy-OPLS-2005>
174.23161315918

> <r_mmod_Stretch_Energy-OPLS-2005>
123.880249023438

> <r_mmod_Bend_Energy-OPLS-2005>
202.386260986328

> <r_mmod_Torsional_Energy-OPLS-2005>
229.309982299805

> <r_mmod_Improper_Torsional_Energy-OPLS-2005>
3.27899169921875

> <r_mmod_Van_der_Waal_Energy-OPLS-2005>
126.664443969727

> <r_mmod_Electrostatic_Energy-OPLS-2005>
-370.112670898438

> <r_mmod_Solvation_Energy-OPLS-2005>
-220.836212158203

> <b_mmod_Minimization_Converged-OPLS-2005>
0

> <r_mmod_RMS_Derivative-OPLS-2005>
2.24143075942993

$$$$
40
                    3D
 Structure written by MMmdl.
160169  0  0  1  0            999 V2000
  -30.5602  -14.8257   20.4433 C   0  0  0  0  0  0
  -30.4435  -12.5086   19.4657 C   0  0  0  0  0  0
  -29.5137  -12.5093   18.2313 C   0  0  0  0  0  0
  -28.0432  -12.3109   18.6533 C   0  0  0  0  0  0
  -27.6336  -13.2296   19.8353 C   0  0  2  0  0  0
  -28.6803  -13.2017   20.9677 C   0  0  0  0  0  0
  -25.2480  -13.8177   20.5675 C   0  0  0  0  0  0
  -24.1779  -13.0421   20.9203 C   0  0  0  0  0  0
  -24.6378  -11.6905   20.8741 C   0  0  0  0  0  0
  -23.9055  -10.4290   21.0417 C   0  0  0  0  0  0
  -24.3612   -9.4203   21.9189 C   0  0  0  0  0  0
  -23.6288   -8.2232   22.0752 C   0  0  0  0  0  0
  -22.4271   -8.0275   21.3540 C   0  0  0  0  0  0
  -21.9908   -9.0251   20.4647 C   0  0  0  0  0  0
  -22.7232  -10.2133   20.3054 C   0  0  0  0  0  0
  -21.6851   -6.0734   22.5279 C   0  0  0  0  0  0
  -21.4018   -6.5635   23.8215 C   0  0  0  0  0  0
  -21.3658   -5.6784   24.9174 C   0  0  0  0  0  0
  -21.6038   -4.3043   24.7226 C   0  0  0  0  0  0
  -21.8817   -3.8140   23.4350 C   0  0  0  0  0  0
  -21.9190   -4.6957   22.3403 C   0  0  0  0  0  0
  -22.7804  -13.5207   21.1871 C   0  0  0  0  0  0
  -22.1656   -4.2143   21.0983 F   0  0  0  0  0  0
  -21.5635   -3.4531   25.7740 F   0  0  0  0  0  0
  -29.9653  -13.5807   20.3688 N   0  0  0  0  0  0
  -26.2893  -12.9379   20.3214 N   0  0  0  0  0  0
  -25.9297  -11.6528   20.5713 N   0  0  0  0  0  0
  -22.0445  -12.8212   22.0434 N   0  0  0  0  0  0
  -25.4124  -15.1910   20.4099 N   0  0  0  0  0  0
  -31.7748  -14.9238   20.2405 O   0  0  0  0  0  0
  -21.6627   -6.8875   21.4239 O   0  0  0  0  0  0
  -22.3484  -14.5514   20.6709 O   0  0  0  0  0  0
  -24.6353  -31.8508   23.1934 C   0  0  0  0  0  0
  -25.9158  -32.4729   23.8300 C   0  0  1  0  0  0
  -27.2197  -27.2142   20.1522 C   0  0  0  0  0  0
  -25.5929  -33.8534   24.2217 N   0  0  0  0  0  0
  -23.4353  -30.4699   21.5390 C   0  0  2  0  0  0
  -24.8821  -28.8972   20.1246 C   0  0  0  0  0  0
  -22.7525  -29.4580   22.4913 C   0  0  0  0  0  0
  -18.0297  -28.1398   22.8484 C   0  0  0  0  0  0
  -24.1490  -36.7272   23.2641 C   0  0  0  0  0  0
  -25.9842  -30.7488   21.3798 C   0  0  0  0  0  0
  -26.0566  -29.3624   20.7316 C   0  0  0  0  0  0
  -27.2319  -28.5367   20.7256 C   0  0  0  0  0  0
  -26.0208  -26.8162   19.5293 C   0  0  0  0  0  0
  -24.8701  -27.6322   19.5142 C   0  0  0  0  0  0
  -23.6574  -29.7938   20.1604 C   0  0  0  0  0  0
  -25.4119  -36.3050   24.0317 C   0  0  1  0  0  0
  -20.5901  -28.3705   23.1266 C   0  0  2  0  0  0
  -20.6783  -26.9416   22.5415 C   0  0  0  0  0  0
  -19.5759  -26.6386   21.5219 C   0  0  0  0  0  0
  -18.1937  -26.7940   22.1626 C   0  0  0  0  0  0
  -19.1552  -28.8872   23.2869 C   0  0  0  0  0  0
  -18.9469  -30.1470   23.8894 C   0  0  0  0  0  0
  -17.6465  -30.6595   24.0568 C   0  0  0  0  0  0
  -25.9065  -34.9425   23.5072 C   0  0  0  0  0  0
  -16.5356  -29.9091   23.6334 C   0  0  0  0  0  0
  -16.7283  -28.6510   23.0354 C   0  0  0  0  0  0
  -26.4502  -31.6585   25.0722 C   0  0  0  0  0  0
  -25.3701  -31.3768   26.1428 C   0  0  0  0  0  0
  -27.0355  -30.2990   24.6254 C   0  0  0  0  0  0
  -27.6034  -32.4357   25.7504 C   0  0  0  0  0  0
  -27.5578  -37.1787   24.8459 C   0  0  0  0  0  0
  -21.4229  -29.3039   22.3650 N   0  0  0  0  0  0
  -26.4283  -37.3758   23.9408 N   0  0  0  0  0  0
  -24.7046  -31.0427   22.0934 N   0  0  0  0  0  0
  -23.4203  -28.8126   23.3034 O   0  0  0  0  0  0
  -28.3256  -26.3311   20.0607 O   0  0  0  0  0  0
  -26.5649  -34.8909   22.4649 O   0  0  0  0  0  0
  -23.5493  -32.1344   23.7200 O   0  0  0  0  0  0
  -29.4489  -18.6279   20.0892 C   0  0  0  0  0  0
  -30.3963  -17.7160   22.0293 C   0  0  0  0  0  0
  -29.8936  -17.3895   20.7983 C   0  0  0  0  0  0
  -29.6641  -19.8614   20.7659 C   0  0  0  0  0  0
  -30.4731  -22.7194   18.4391 C   0  0  0  0  0  0
  -30.8992  -21.6806   19.4754 C   0  0  0  0  0  0
  -28.9513  -22.6560   18.4449 C   0  0  0  0  0  0
  -29.6969  -21.4396   20.4156 C   0  0  1  0  0  0
  -29.8840  -24.9976   21.3952 C   0  0  0  0  0  0
  -27.8744  -23.5255   20.5467 C   0  0  0  0  0  0
  -28.4532  -25.0406   20.8498 C   0  0  2  0  0  0
  -29.7240  -15.9514   20.4082 N   0  0  0  0  0  0
  -28.5622  -22.3169   19.8274 N   0  3  1  0  0  0
  -30.3427  -19.4454   22.3354 S   0  0  0  0  0  0
  -31.4785  -12.6677   19.1578 H   0  0  0  0  0  0
  -30.4235  -11.5416   19.9711 H   0  0  0  0  0  0
  -29.8133  -11.7275   17.5319 H   0  0  0  0  0  0
  -29.6162  -13.4547   17.6962 H   0  0  0  0  0  0
  -27.9248  -11.2662   18.9447 H   0  0  0  0  0  0
  -27.3785  -12.4660   17.8025 H   0  0  0  0  0  0
  -27.6117  -14.2402   19.4268 H   0  0  0  0  0  0
  -28.7391  -12.2130   21.4253 H   0  0  0  0  0  0
  -28.4061  -13.8979   21.7629 H   0  0  0  0  0  0
  -25.2762   -9.5678   22.4759 H   0  0  0  0  0  0
  -23.9995   -7.4623   22.7468 H   0  0  0  0  0  0
  -21.0836   -8.8774   19.8961 H   0  0  0  0  0  0
  -22.3691  -10.9667   19.6162 H   0  0  0  0  0  0
  -21.2013   -7.6145   23.9720 H   0  0  0  0  0  0
  -21.1481   -6.0512   25.9075 H   0  0  0  0  0  0
  -22.0598   -2.7601   23.2846 H   0  0  0  0  0  0
  -22.4043  -11.9884   22.4864 H   0  0  0  0  0  0
  -21.1064  -13.1250   22.2628 H   0  0  0  0  0  0
  -24.6390  -15.8373   20.5268 H   0  0  0  0  0  0
  -26.2525  -15.6418   20.0736 H   0  0  0  0  0  0
  -26.7227  -32.5360   23.1042 H   0  0  0  0  0  0
  -25.0050  -33.9665   25.0345 H   0  0  0  0  0  0
  -22.7337  -31.2926   21.3864 H   0  0  0  0  0  0
  -23.3753  -35.9603   23.3294 H   0  0  0  0  0  0
  -24.3577  -36.8915   22.2058 H   0  0  0  0  0  0
  -23.7245  -37.6465   23.6689 H   0  0  0  0  0  0
  -26.1283  -31.5035   20.6051 H   0  0  0  0  0  0
  -26.8593  -30.8015   22.0162 H   0  0  0  0  0  0
  -28.1419  -28.8995   21.1832 H   0  0  0  0  0  0
  -25.9731  -25.8503   19.0465 H   0  0  0  0  0  0
  -23.9704  -27.2706   19.0352 H   0  0  0  0  0  0
  -23.7895  -30.5642   19.4002 H   0  0  0  0  0  0
  -22.7740  -29.2303   19.8556 H   0  0  0  0  0  0
  -25.1307  -36.1880   25.0810 H   0  0  0  0  0  0
  -20.9997  -28.3291   24.1386 H   0  0  0  0  0  0
  -20.5686  -26.2313   23.3626 H   0  0  0  0  0  0
  -21.6650  -26.7442   22.1205 H   0  0  0  0  0  0
  -19.6915  -25.6293   21.1259 H   0  0  0  0  0  0
  -19.6700  -27.3192   20.6745 H   0  0  0  0  0  0
  -17.4206  -26.6694   21.4025 H   0  0  0  0  0  0
  -18.0329  -26.0089   22.9033 H   0  0  0  0  0  0
  -19.7943  -30.7292   24.2267 H   0  0  0  0  0  0
  -17.5015  -31.6273   24.5174 H   0  0  0  0  0  0
  -15.5354  -30.2989   23.7667 H   0  0  0  0  0  0
  -15.8682  -28.0829   22.7067 H   0  0  0  0  0  0
  -24.5849  -30.7154   25.7746 H   0  0  0  0  0  0
  -24.8920  -32.2956   26.4838 H   0  0  0  0  0  0
  -25.7978  -30.8933   27.0221 H   0  0  0  0  0  0
  -26.2953  -29.6731   24.1251 H   0  0  0  0  0  0
  -27.3982  -29.7267   25.4805 H   0  0  0  0  0  0
  -27.8859  -30.4247   23.9546 H   0  0  0  0  0  0
  -27.2606  -33.3656   26.2063 H   0  0  0  0  0  0
  -28.3845  -32.6936   25.0340 H   0  0  0  0  0  0
  -28.0708  -31.8510   26.5439 H   0  0  0  0  0  0
  -28.2581  -38.0097   24.7513 H   0  0  0  0  0  0
  -28.1085  -36.2623   24.6273 H   0  0  0  0  0  0
  -27.2297  -37.1424   25.8862 H   0  0  0  0  0  0
  -20.9434  -29.8730   21.6815 H   0  0  0  0  0  0
  -26.0152  -38.2824   24.1420 H   0  0  0  0  0  0
  -29.0452  -18.5705   19.0874 H   0  0  0  0  0  0
  -30.7679  -17.0568   22.8050 H   0  0  0  0  0  0
  -30.8853  -22.5143   17.4501 H   0  0  0  0  0  0
  -30.8141  -23.7121   18.7276 H   0  0  0  0  0  0
  -31.7992  -21.9740   20.0171 H   0  0  0  0  0  0
  -31.1424  -20.7596   18.9432 H   0  0  0  0  0  0
  -28.6186  -21.8486   17.7909 H   0  0  0  0  0  0
  -28.4933  -23.5758   18.0789 H   0  0  0  0  0  0
  -29.9332  -21.9493   21.3492 H   0  0  0  0  0  0
  -29.9951  -24.2210   22.1514 H   0  0  0  0  0  0
  -30.1430  -25.9458   21.8659 H   0  0  0  0  0  0
  -30.6121  -24.8156   20.6099 H   0  0  0  0  0  0
  -26.9127  -23.6639   20.0517 H   0  0  0  0  0  0
  -27.6067  -23.1151   21.5211 H   0  0  0  0  0  0
  -27.8606  -25.3067   21.7270 H   0  0  0  0  0  0
  -28.7727  -15.7054   20.1884 H   0  0  0  0  0  0
  -27.8020  -21.6607   19.7253 H   0  0  0  0  0  0
  1 25  1  0  0  0
  1 30  2  0  0  0
  1 82  1  0  0  0
  2  3  1  0  0  0
  2 25  1  0  0  0
  2 85  1  0  0  0
  2 86  1  0  0  0
  3  4  1  0  0  0
  3 87  1  0  0  0
  3 88  1  0  0  0
  4  5  1  0  0  0
  4 89  1  0  0  0
  4 90  1  0  0  0
  5  6  1  0  0  0
  5 26  1  0  0  0
  5 91  1  0  0  0
  6 25  1  0  0  0
  6 92  1  0  0  0
  6 93  1  0  0  0
  7  8  2  0  0  0
  7 26  1  0  0  0
  7 29  1  0  0  0
  8  9  1  0  0  0
  8 22  1  0  0  0
  9 10  1  0  0  0
  9 27  2  0  0  0
 10 11  2  0  0  0
 10 15  1  0  0  0
 11 12  1  0  0  0
 11 94  1  0  0  0
 12 13  2  0  0  0
 12 95  1  0  0  0
 13 14  1  0  0  0
 13 31  1  0  0  0
 14 15  2  0  0  0
 14 96  1  0  0  0
 15 97  1  0  0  0
 16 17  2  0  0  0
 16 21  1  0  0  0
 16 31  1  0  0  0
 17 18  1  0  0  0
 17 98  1  0  0  0
 18 19  2  0  0  0
 18 99  1  0  0  0
 19 20  1  0  0  0
 19 24  1  0  0  0
 20 21  2  0  0  0
 20100  1  0  0  0
 21 23  1  0  0  0
 22 28  1  0  0  0
 22 32  2  0  0  0
 26 27  1  0  0  0
 28101  1  0  0  0
 28102  1  0  0  0
 29103  1  0  0  0
 29104  1  0  0  0
 33 34  1  0  0  0
 33 66  1  0  0  0
 33 70  2  0  0  0
 34 36  1  0  0  0
 34 59  1  0  0  0
 34105  1  0  0  0
 35 44  2  0  0  0
 35 45  1  0  0  0
 35 68  1  0  0  0
 36 56  1  0  0  0
 36106  1  0  0  0
 37 39  1  0  0  0
 37 47  1  0  0  0
 37 66  1  0  0  0
 37107  1  0  0  0
 38 43  2  0  0  0
 38 46  1  0  0  0
 38 47  1  0  0  0
 39 64  1  0  0  0
 39 67  2  0  0  0
 40 52  1  0  0  0
 40 53  2  0  0  0
 40 58  1  0  0  0
 41108  1  0  0  0
 41109  1  0  0  0
 41110  1  0  0  0
 41 48  1  0  0  0
 42 43  1  0  0  0
 42 66  1  0  0  0
 42111  1  0  0  0
 42112  1  0  0  0
 43 44  1  0  0  0
 44113  1  0  0  0
 45 46  2  0  0  0
 45114  1  0  0  0
 46115  1  0  0  0
 47116  1  0  0  0
 47117  1  0  0  0
 48 56  1  0  0  0
 48 65  1  0  0  0
 48118  1  0  0  0
 49 50  1  0  0  0
 49 53  1  0  0  0
 49 64  1  0  0  0
 49119  1  0  0  0
 50 51  1  0  0  0
 50120  1  0  0  0
 50121  1  0  0  0
 51 52  1  0  0  0
 51122  1  0  0  0
 51123  1  0  0  0
 52124  1  0  0  0
 52125  1  0  0  0
 53 54  1  0  0  0
 54 55  2  0  0  0
 54126  1  0  0  0
 55 57  1  0  0  0
 55127  1  0  0  0
 56 69  2  0  0  0
 57 58  2  0  0  0
 57128  1  0  0  0
 58129  1  0  0  0
 59 60  1  0  0  0
 59 61  1  0  0  0
 59 62  1  0  0  0
 60130  1  0  0  0
 60131  1  0  0  0
 60132  1  0  0  0
 61133  1  0  0  0
 61134  1  0  0  0
 61135  1  0  0  0
 62136  1  0  0  0
 62137  1  0  0  0
 62138  1  0  0  0
 63 65  1  0  0  0
 63139  1  0  0  0
 63140  1  0  0  0
 63141  1  0  0  0
 64142  1  0  0  0
 65143  1  0  0  0
 68 81  1  0  0  0
 71 73  1  0  0  0
 71 74  2  0  0  0
 71144  1  0  0  0
 72 73  2  0  0  0
 72 84  1  0  0  0
 72145  1  0  0  0
 73 82  1  0  0  0
 74 84  1  0  0  0
 74 78  1  0  0  0
 75 76  1  0  0  0
 75 77  1  0  0  0
 75146  1  0  0  0
 75147  1  0  0  0
 76 78  1  0  0  0
 76148  1  0  0  0
 76149  1  0  0  0
 77 83  1  0  0  0
 77150  1  0  0  0
 77151  1  0  0  0
 78 83  1  0  0  0
 78152  1  0  0  0
 79153  1  0  0  0
 79154  1  0  0  0
 79155  1  0  0  0
 79 81  1  0  0  0
 80 81  1  0  0  0
 80156  1  0  0  0
 80157  1  0  0  0
 80 83  1  0  0  0
 81158  1  0  0  0
 82159  1  0  0  0
 83160  1  0  0  0
M  CHG  1  83   1
M  ISO  4   1 100  68 101  81 101  82 100
M  END
> <chiral flag>
0

> <version>
0

> <s_m_source_file>
/data/baiqing/PycharmProjects/Reinvent-master-3.2/result/LINK_invent/BTK/process_docking_weight1_custom_product_contain_oxygen_bond_distance_aromatic_linkinvent_7_9_3/rearranged_h_0153.sdf

> <i_m_source_file_index>
41

> <r_mmod_Potential_Energy-OPLS-2005>
350.550537109375

> <r_mmod_Stretch_Energy-OPLS-2005>
160.215728759766

> <r_mmod_Bend_Energy-OPLS-2005>
311.422027587891

> <r_mmod_Torsional_Energy-OPLS-2005>
344.880645751953

> <r_mmod_Improper_Torsional_Energy-OPLS-2005>
11.5200662612915

> <r_mmod_Van_der_Waal_Energy-OPLS-2005>
98.8162384033203

> <r_mmod_Electrostatic_Energy-OPLS-2005>
-265.712127685547

> <r_mmod_Solvation_Energy-OPLS-2005>
-429.345062255859

> <b_mmod_Minimization_Converged-OPLS-2005>
0

> <r_mmod_RMS_Derivative-OPLS-2005>
1.48927843570709

$$$$
41
                    3D
 Structure written by MMmdl.
154163  0  0  1  0            999 V2000
  -30.6359  -14.7917   20.4324 C   0  0  0  0  0  0
  -30.4035  -12.4739   19.4947 C   0  0  0  0  0  0
  -29.4994  -12.4941   18.2453 C   0  0  0  0  0  0
  -28.0277  -12.3101   18.6613 C   0  0  0  0  0  0
  -27.6255  -13.2397   19.8381 C   0  0  2  0  0  0
  -28.6695  -13.2327   20.9757 C   0  0  0  0  0  0
  -25.2434  -13.8216   20.5727 C   0  0  0  0  0  0
  -24.1752  -13.0463   20.9217 C   0  0  0  0  0  0
  -24.6358  -11.6932   20.8788 C   0  0  0  0  0  0
  -23.9080  -10.4282   21.0435 C   0  0  0  0  0  0
  -24.3622   -9.4193   21.9199 C   0  0  0  0  0  0
  -23.6297   -8.2233   22.0770 C   0  0  0  0  0  0
  -22.4262   -8.0286   21.3565 C   0  0  0  0  0  0
  -21.9913   -9.0255   20.4649 C   0  0  0  0  0  0
  -22.7258  -10.2124   20.3070 C   0  0  0  0  0  0
  -21.6847   -6.0749   22.5281 C   0  0  0  0  0  0
  -21.4009   -6.5651   23.8216 C   0  0  0  0  0  0
  -21.3654   -5.6801   24.9183 C   0  0  0  0  0  0
  -21.6042   -4.3063   24.7215 C   0  0  0  0  0  0
  -21.8817   -3.8150   23.4340 C   0  0  0  0  0  0
  -21.9182   -4.6977   22.3406 C   0  0  0  0  0  0
  -22.7748  -13.5200   21.1881 C   0  0  0  0  0  0
  -22.1651   -4.2162   21.0982 F   0  0  0  0  0  0
  -21.5623   -3.4549   25.7728 F   0  0  0  0  0  0
  -29.9636  -13.5834   20.3797 N   0  0  0  0  0  0
  -26.2854  -12.9430   20.3250 N   0  0  0  0  0  0
  -25.9284  -11.6573   20.5779 N   0  0  0  0  0  0
  -22.0422  -12.8194   22.0440 N   0  0  0  0  0  0
  -25.4151  -15.1956   20.4119 N   0  0  0  0  0  0
  -31.8282  -14.7778   20.1267 O   0  0  0  0  0  0
  -21.6640   -6.8881   21.4233 O   0  0  0  0  0  0
  -22.3446  -14.5509   20.6723 O   0  0  0  0  0  0
  -24.6378  -31.8501   23.1916 C   0  0  0  0  0  0
  -25.9203  -32.4747   23.8256 C   0  0  1  0  0  0
  -27.2508  -27.2240   20.1715 C   0  0  0  0  0  0
  -25.5945  -33.8527   24.2207 N   0  0  0  0  0  0
  -23.4362  -30.4659   21.5391 C   0  0  2  0  0  0
  -24.8884  -28.8885   20.1308 C   0  0  0  0  0  0
  -22.7529  -29.4590   22.4967 C   0  0  0  0  0  0
  -18.0293  -28.1391   22.8512 C   0  0  0  0  0  0
  -24.1496  -36.7267   23.2652 C   0  0  0  0  0  0
  -25.9817  -30.7620   21.3659 C   0  0  0  0  0  0
  -26.0601  -29.3705   20.7267 C   0  0  0  0  0  0
  -27.2444  -28.5558   20.7236 C   0  0  0  0  0  0
  -26.0486  -26.8065   19.5588 C   0  0  0  0  0  0
  -24.8900  -27.6122   19.5360 C   0  0  0  0  0  0
  -23.6558  -29.7794   20.1642 C   0  0  0  0  0  0
  -25.4131  -36.3085   24.0343 C   0  0  1  0  0  0
  -20.5898  -28.3679   23.1298 C   0  0  2  0  0  0
  -20.6776  -26.9378   22.5435 C   0  0  0  0  0  0
  -19.5753  -26.6371   21.5239 C   0  0  0  0  0  0
  -18.1939  -26.7944   22.1630 C   0  0  0  0  0  0
  -19.1552  -28.8852   23.2910 C   0  0  0  0  0  0
  -18.9484  -30.1463   23.8892 C   0  0  0  0  0  0
  -17.6482  -30.6593   24.0551 C   0  0  0  0  0  0
  -25.9039  -34.9449   23.5088 C   0  0  0  0  0  0
  -16.5372  -29.9079   23.6332 C   0  0  0  0  0  0
  -16.7280  -28.6494   23.0375 C   0  0  0  0  0  0
  -26.4487  -31.6603   25.0684 C   0  0  0  0  0  0
  -25.3685  -31.3772   26.1414 C   0  0  0  0  0  0
  -27.0322  -30.3040   24.6158 C   0  0  0  0  0  0
  -27.6065  -32.4318   25.7458 C   0  0  0  0  0  0
  -27.5574  -37.1810   24.8472 C   0  0  0  0  0  0
  -21.4223  -29.3053   22.3719 N   0  0  0  0  0  0
  -26.4276  -37.3819   23.9434 N   0  0  0  0  0  0
  -24.7063  -31.0483   22.0888 N   0  0  0  0  0  0
  -23.4213  -28.8193   23.3137 O   0  0  0  0  0  0
  -28.3666  -26.3376   20.1583 O   0  0  0  0  0  0
  -26.5643  -34.8948   22.4673 O   0  0  0  0  0  0
  -23.5534  -32.1284   23.7229 O   0  0  0  0  0  0
  -31.8485  -17.5936   20.8916 C   0  0  0  0  0  0
  -29.6618  -18.6982   20.4222 C   0  0  0  0  0  0
  -32.3544  -18.8844   20.8743 C   0  0  0  0  0  0
  -31.5827  -20.0644   20.6609 C   0  0  0  0  0  0
  -30.4543  -17.4369   20.6305 C   0  0  0  0  0  0
  -30.2004  -20.0895   20.4279 C   0  0  0  0  0  0
  -28.2800  -24.9533   20.5558 C   0  0  0  0  0  0
  -29.1084  -23.8845   20.1796 C   0  0  0  0  0  0
  -29.0314  -22.4573   20.7383 C   0  0  0  0  0  0
  -33.6727  -19.6049   20.8878 C   0  0  0  0  0  0
  -32.8154  -20.9411   20.6556 C   0  0  0  0  0  0
  -29.6205  -21.4157   20.0163 N   0  0  0  0  0  0
  -29.9439  -16.0114   20.5811 N   0  0  0  0  0  0
  -28.4551  -22.1991   21.7975 O   0  0  0  0  0  0
  -30.0950  -24.1442   19.3023 O   0  0  0  0  0  0
  -31.4508  -12.5487   19.2034 H   0  0  0  0  0  0
  -30.3123  -11.5149   20.0117 H   0  0  0  0  0  0
  -29.7908  -11.7063   17.5501 H   0  0  0  0  0  0
  -29.6183  -13.4381   17.7122 H   0  0  0  0  0  0
  -27.9005  -11.2647   18.9564 H   0  0  0  0  0  0
  -27.3646  -12.4617   17.8082 H   0  0  0  0  0  0
  -27.6024  -14.2454   19.4229 H   0  0  0  0  0  0
  -28.7123  -12.2526   21.4527 H   0  0  0  0  0  0
  -28.3931  -13.9436   21.7554 H   0  0  0  0  0  0
  -25.2755   -9.5658   22.4777 H   0  0  0  0  0  0
  -23.9994   -7.4608   22.7488 H   0  0  0  0  0  0
  -21.0852   -8.8759   19.8943 H   0  0  0  0  0  0
  -22.3713  -10.9666   19.6162 H   0  0  0  0  0  0
  -21.2014   -7.6153   23.9720 H   0  0  0  0  0  0
  -21.1478   -6.0537   25.9083 H   0  0  0  0  0  0
  -22.0601   -2.7616   23.2836 H   0  0  0  0  0  0
  -22.4050  -11.9829   22.4762 H   0  0  0  0  0  0
  -21.1048  -13.1206   22.2700 H   0  0  0  0  0  0
  -24.6501  -15.8530   20.5252 H   0  0  0  0  0  0
  -26.2667  -15.6302   20.0825 H   0  0  0  0  0  0
  -26.7270  -32.5377   23.0975 H   0  0  0  0  0  0
  -25.0078  -33.9625   25.0348 H   0  0  0  0  0  0
  -22.7395  -31.2931   21.3786 H   0  0  0  0  0  0
  -23.3769  -35.9574   23.3315 H   0  0  0  0  0  0
  -24.3565  -36.8893   22.2062 H   0  0  0  0  0  0
  -23.7221  -37.6466   23.6645 H   0  0  0  0  0  0
  -26.1169  -31.5089   20.5834 H   0  0  0  0  0  0
  -26.8622  -30.8239   21.9933 H   0  0  0  0  0  0
  -28.1499  -28.9362   21.1746 H   0  0  0  0  0  0
  -26.0061  -25.8259   19.1142 H   0  0  0  0  0  0
  -23.9926  -27.2267   19.0682 H   0  0  0  0  0  0
  -23.7789  -30.5417   19.3951 H   0  0  0  0  0  0
  -22.7731  -29.2131   19.8637 H   0  0  0  0  0  0
  -25.1316  -36.1880   25.0826 H   0  0  0  0  0  0
  -21.0013  -28.3231   24.1425 H   0  0  0  0  0  0
  -20.5700  -26.2261   23.3646 H   0  0  0  0  0  0
  -21.6632  -26.7426   22.1225 H   0  0  0  0  0  0
  -19.6910  -25.6290   21.1269 H   0  0  0  0  0  0
  -19.6727  -27.3173   20.6776 H   0  0  0  0  0  0
  -17.4238  -26.6741   21.4010 H   0  0  0  0  0  0
  -18.0292  -26.0074   22.8990 H   0  0  0  0  0  0
  -19.7960  -30.7282   24.2299 H   0  0  0  0  0  0
  -17.5029  -31.6295   24.5118 H   0  0  0  0  0  0
  -15.5366  -30.2984   23.7689 H   0  0  0  0  0  0
  -15.8680  -28.0801   22.7131 H   0  0  0  0  0  0
  -24.5868  -30.7091   25.7753 H   0  0  0  0  0  0
  -24.8813  -32.2931   26.4781 H   0  0  0  0  0  0
  -25.7988  -30.8993   27.0234 H   0  0  0  0  0  0
  -26.2875  -29.6823   24.1171 H   0  0  0  0  0  0
  -27.4032  -29.7278   25.4645 H   0  0  0  0  0  0
  -27.8735  -30.4359   23.9354 H   0  0  0  0  0  0
  -27.2740  -33.3702   26.1915 H   0  0  0  0  0  0
  -28.3943  -32.6767   25.0309 H   0  0  0  0  0  0
  -28.0630  -31.8475   26.5466 H   0  0  0  0  0  0
  -28.2646  -38.0070   24.7542 H   0  0  0  0  0  0
  -28.1036  -36.2623   24.6266 H   0  0  0  0  0  0
  -27.2291  -37.1430   25.8876 H   0  0  0  0  0  0
  -20.9430  -29.8717   21.6851 H   0  0  0  0  0  0
  -26.0150  -38.2892   24.1420 H   0  0  0  0  0  0
  -32.5343  -16.7755   21.0544 H   0  0  0  0  0  0
  -28.6105  -18.5861   20.2034 H   0  0  0  0  0  0
  -27.4658  -24.8034   21.2552 H   0  0  0  0  0  0
  -34.2989  -19.3008   20.0470 H   0  0  0  0  0  0
  -34.1875  -19.5212   21.8469 H   0  0  0  0  0  0
  -32.8484  -21.6388   21.4942 H   0  0  0  0  0  0
  -32.9832  -21.4187   19.6885 H   0  0  0  0  0  0
  -29.9562  -21.7201   19.1093 H   0  0  0  0  0  0
  -28.9416  -15.9100   20.6298 H   0  0  0  0  0  0
  -30.7579  -23.4657   19.3908 H   0  0  0  0  0  0
  1 25  1  0  0  0
  1 30  2  0  0  0
  1 83  1  0  0  0
  2  3  1  0  0  0
  2 25  1  0  0  0
  2 86  1  0  0  0
  2 87  1  0  0  0
  3  4  1  0  0  0
  3 88  1  0  0  0
  3 89  1  0  0  0
  4  5  1  0  0  0
  4 90  1  0  0  0
  4 91  1  0  0  0
  5  6  1  0  0  0
  5 26  1  0  0  0
  5 92  1  0  0  0
  6 25  1  0  0  0
  6 93  1  0  0  0
  6 94  1  0  0  0
  7  8  2  0  0  0
  7 26  1  0  0  0
  7 29  1  0  0  0
  8  9  1  0  0  0
  8 22  1  0  0  0
  9 10  1  0  0  0
  9 27  2  0  0  0
 10 11  2  0  0  0
 10 15  1  0  0  0
 11 12  1  0  0  0
 11 95  1  0  0  0
 12 13  2  0  0  0
 12 96  1  0  0  0
 13 14  1  0  0  0
 13 31  1  0  0  0
 14 15  2  0  0  0
 14 97  1  0  0  0
 15 98  1  0  0  0
 16 17  2  0  0  0
 16 21  1  0  0  0
 16 31  1  0  0  0
 17 18  1  0  0  0
 17 99  1  0  0  0
 18 19  2  0  0  0
 18100  1  0  0  0
 19 20  1  0  0  0
 19 24  1  0  0  0
 20 21  2  0  0  0
 20101  1  0  0  0
 21 23  1  0  0  0
 22 28  1  0  0  0
 22 32  2  0  0  0
 26 27  1  0  0  0
 28102  1  0  0  0
 28103  1  0  0  0
 29104  1  0  0  0
 29105  1  0  0  0
 33 34  1  0  0  0
 33 66  1  0  0  0
 33 70  2  0  0  0
 34 36  1  0  0  0
 34 59  1  0  0  0
 34106  1  0  0  0
 35 44  2  0  0  0
 35 45  1  0  0  0
 35 68  1  0  0  0
 36 56  1  0  0  0
 36107  1  0  0  0
 37 39  1  0  0  0
 37 47  1  0  0  0
 37 66  1  0  0  0
 37108  1  0  0  0
 38 43  2  0  0  0
 38 46  1  0  0  0
 38 47  1  0  0  0
 39 64  1  0  0  0
 39 67  2  0  0  0
 40 52  1  0  0  0
 40 53  2  0  0  0
 40 58  1  0  0  0
 41109  1  0  0  0
 41110  1  0  0  0
 41111  1  0  0  0
 41 48  1  0  0  0
 42 43  1  0  0  0
 42 66  1  0  0  0
 42112  1  0  0  0
 42113  1  0  0  0
 43 44  1  0  0  0
 44114  1  0  0  0
 45 46  2  0  0  0
 45115  1  0  0  0
 46116  1  0  0  0
 47117  1  0  0  0
 47118  1  0  0  0
 48 56  1  0  0  0
 48 65  1  0  0  0
 48119  1  0  0  0
 49 50  1  0  0  0
 49 53  1  0  0  0
 49 64  1  0  0  0
 49120  1  0  0  0
 50 51  1  0  0  0
 50121  1  0  0  0
 50122  1  0  0  0
 51 52  1  0  0  0
 51123  1  0  0  0
 51124  1  0  0  0
 52125  1  0  0  0
 52126  1  0  0  0
 53 54  1  0  0  0
 54 55  2  0  0  0
 54127  1  0  0  0
 55 57  1  0  0  0
 55128  1  0  0  0
 56 69  2  0  0  0
 57 58  2  0  0  0
 57129  1  0  0  0
 58130  1  0  0  0
 59 60  1  0  0  0
 59 61  1  0  0  0
 59 62  1  0  0  0
 60131  1  0  0  0
 60132  1  0  0  0
 60133  1  0  0  0
 61134  1  0  0  0
 61135  1  0  0  0
 61136  1  0  0  0
 62137  1  0  0  0
 62138  1  0  0  0
 62139  1  0  0  0
 63 65  1  0  0  0
 63140  1  0  0  0
 63141  1  0  0  0
 63142  1  0  0  0
 64143  1  0  0  0
 65144  1  0  0  0
 68 77  1  0  0  0
 71 73  2  0  0  0
 71 75  1  0  0  0
 71145  1  0  0  0
 72 75  2  0  0  0
 72 76  1  0  0  0
 72146  1  0  0  0
 73 74  1  0  0  0
 73 80  1  0  0  0
 74 76  2  0  0  0
 74 81  1  0  0  0
 75 83  1  0  0  0
 76 82  1  0  0  0
 77 78  2  0  0  0
 77147  1  0  0  0
 78 79  1  0  0  0
 78 85  1  0  0  0
 79 82  1  0  0  0
 79 84  2  0  0  0
 80 81  1  0  0  0
 80148  1  0  0  0
 80149  1  0  0  0
 81150  1  0  0  0
 81151  1  0  0  0
 82152  1  0  0  0
 83153  1  0  0  0
 85154  1  0  0  0
M  ISO  4   1 100  68 101  77 101  83 100
M  END
> <chiral flag>
0

> <version>
0

> <s_m_source_file>
/data/baiqing/PycharmProjects/Reinvent-master-3.2/result/LINK_invent/BTK/process_docking_weight1_custom_product_contain_oxygen_bond_distance_aromatic_linkinvent_7_9_3/rearranged_h_0153.sdf

> <i_m_source_file_index>
42

> <r_mmod_Potential_Energy-OPLS-2005>
626.177734375

> <r_mmod_Stretch_Energy-OPLS-2005>
193.265075683594

> <r_mmod_Bend_Energy-OPLS-2005>
543.937133789062

> <r_mmod_Torsional_Energy-OPLS-2005>
278.133422851562

> <r_mmod_Improper_Torsional_Energy-OPLS-2005>
9.55799865722656

> <r_mmod_Van_der_Waal_Energy-OPLS-2005>
138.851745605469

> <r_mmod_Electrostatic_Energy-OPLS-2005>
-397.101318359375

> <r_mmod_Solvation_Energy-OPLS-2005>
-246.773040771484

> <b_mmod_Minimization_Converged-OPLS-2005>
0

> <r_mmod_RMS_Derivative-OPLS-2005>
6.45575046539307

$$$$
42
                    3D
 Structure written by MMmdl.
156165  0  0  1  0            999 V2000
  -30.5659  -14.7639   20.4657 C   0  0  0  0  0  0
  -30.4468  -12.4704   19.4668 C   0  0  0  0  0  0
  -29.5161  -12.5083   18.2338 C   0  0  0  0  0  0
  -28.0407  -12.3285   18.6460 C   0  0  0  0  0  0
  -27.6411  -13.2234   19.8484 C   0  0  2  0  0  0
  -28.6873  -13.1384   20.9828 C   0  0  0  0  0  0
  -25.2512  -13.8178   20.5680 C   0  0  0  0  0  0
  -24.1796  -13.0432   20.9191 C   0  0  0  0  0  0
  -24.6357  -11.6899   20.8731 C   0  0  0  0  0  0
  -23.9040  -10.4298   21.0396 C   0  0  0  0  0  0
  -24.3593   -9.4213   21.9174 C   0  0  0  0  0  0
  -23.6277   -8.2253   22.0760 C   0  0  0  0  0  0
  -22.4278   -8.0275   21.3540 C   0  0  0  0  0  0
  -21.9896   -9.0235   20.4631 C   0  0  0  0  0  0
  -22.7220  -10.2109   20.3039 C   0  0  0  0  0  0
  -21.6843   -6.0723   22.5263 C   0  0  0  0  0  0
  -21.4012   -6.5634   23.8201 C   0  0  0  0  0  0
  -21.3659   -5.6781   24.9162 C   0  0  0  0  0  0
  -21.6063   -4.3045   24.7216 C   0  0  0  0  0  0
  -21.8820   -3.8128   23.4331 C   0  0  0  0  0  0
  -21.9196   -4.6950   22.3379 C   0  0  0  0  0  0
  -22.7817  -13.5219   21.1830 C   0  0  0  0  0  0
  -22.1666   -4.2131   21.0952 F   0  0  0  0  0  0
  -21.5631   -3.4512   25.7735 F   0  0  0  0  0  0
  -29.9857  -13.5155   20.4056 N   0  0  0  0  0  0
  -26.2915  -12.9334   20.3238 N   0  0  0  0  0  0
  -25.9283  -11.6490   20.5721 N   0  0  0  0  0  0
  -22.0449  -12.8220   22.0381 N   0  0  0  0  0  0
  -25.4229  -15.1899   20.4119 N   0  0  0  0  0  0
  -31.7583  -14.9060   20.1767 O   0  0  0  0  0  0
  -21.6639   -6.8860   21.4241 O   0  0  0  0  0  0
  -22.3502  -14.5521   20.6680 O   0  0  0  0  0  0
  -24.6306  -31.8549   23.1978 C   0  0  0  0  0  0
  -25.9116  -32.4767   23.8336 C   0  0  1  0  0  0
  -27.2136  -27.2594   20.1368 C   0  0  0  0  0  0
  -25.5919  -33.8571   24.2303 N   0  0  0  0  0  0
  -23.4297  -30.4781   21.5390 C   0  0  2  0  0  0
  -24.8791  -28.9198   20.1112 C   0  0  0  0  0  0
  -22.7471  -29.4635   22.4903 C   0  0  0  0  0  0
  -18.0280  -28.1413   22.8503 C   0  0  0  0  0  0
  -24.1488  -36.7248   23.2650 C   0  0  0  0  0  0
  -25.9745  -30.7714   21.3716 C   0  0  0  0  0  0
  -26.0504  -29.3887   20.7232 C   0  0  0  0  0  0
  -27.2256  -28.5700   20.7243 C   0  0  0  0  0  0
  -26.0235  -26.8513   19.5081 C   0  0  0  0  0  0
  -24.8694  -27.6589   19.4931 C   0  0  0  0  0  0
  -23.6515  -29.8093   20.1572 C   0  0  0  0  0  0
  -25.4091  -36.3068   24.0371 C   0  0  1  0  0  0
  -20.5886  -28.3692   23.1280 C   0  0  2  0  0  0
  -20.6806  -26.9421   22.5400 C   0  0  0  0  0  0
  -19.5765  -26.6409   21.5222 C   0  0  0  0  0  0
  -18.1944  -26.7986   22.1609 C   0  0  0  0  0  0
  -19.1556  -28.8858   23.2920 C   0  0  0  0  0  0
  -18.9487  -30.1470   23.8920 C   0  0  0  0  0  0
  -17.6502  -30.6615   24.0581 C   0  0  0  0  0  0
  -25.9012  -34.9448   23.5105 C   0  0  0  0  0  0
  -16.5366  -29.9132   23.6342 C   0  0  0  0  0  0
  -16.7282  -28.6547   23.0348 C   0  0  0  0  0  0
  -26.4496  -31.6569   25.0694 C   0  0  0  0  0  0
  -25.3738  -31.3687   26.1409 C   0  0  0  0  0  0
  -27.0356  -30.3034   24.6071 C   0  0  0  0  0  0
  -27.6102  -32.4226   25.7466 C   0  0  0  0  0  0
  -27.5569  -37.1780   24.8477 C   0  0  0  0  0  0
  -21.4169  -29.3086   22.3689 N   0  0  0  0  0  0
  -26.4275  -37.3755   23.9436 N   0  0  0  0  0  0
  -24.6985  -31.0484   22.0961 N   0  0  0  0  0  0
  -23.4162  -28.8150   23.2982 O   0  0  0  0  0  0
  -28.2890  -26.3516   20.1133 O   0  0  0  0  0  0
  -26.5562  -34.8917   22.4668 O   0  0  0  0  0  0
  -23.5445  -32.1404   23.7255 O   0  0  0  0  0  0
  -30.6495  -19.5017   20.9250 C   0  0  0  0  0  0
  -30.8938  -18.0640   20.9855 C   0  0  0  0  0  0
  -29.4072  -19.8917   20.4636 C   0  0  0  0  0  0
  -29.8475  -17.2474   20.5936 C   0  0  0  0  0  0
  -27.4292  -23.0576   19.4744 C   0  0  0  0  0  0
  -27.6332  -21.5025   19.4735 C   0  0  0  0  0  0
  -29.2812  -22.5330   20.8539 C   0  0  0  0  0  0
  -28.0480  -23.5616   20.7995 C   0  0  2  0  0  0
  -27.0983  -23.1463   21.9653 C   0  0  0  0  0  0
  -28.2608  -25.1809   21.0458 C   0  0  0  0  0  0
  -28.8485  -21.2286   20.2507 N   0  0  0  0  0  0
  -29.7002  -15.8446   20.6025 N   0  0  0  0  0  0
  -28.5267  -18.3678   20.1166 S   0  0  0  0  0  0
  -31.4818  -12.6288   19.1616 H   0  0  0  0  0  0
  -30.4250  -11.4901   19.9434 H   0  0  0  0  0  0
  -29.8087  -11.7391   17.5192 H   0  0  0  0  0  0
  -29.6346  -13.4620   17.7173 H   0  0  0  0  0  0
  -27.8959  -11.2784   18.9048 H   0  0  0  0  0  0
  -27.3834  -12.5184   17.7955 H   0  0  0  0  0  0
  -27.6366  -14.2472   19.4715 H   0  0  0  0  0  0
  -28.7280  -12.1301   21.3940 H   0  0  0  0  0  0
  -28.4141  -13.7938   21.8116 H   0  0  0  0  0  0
  -25.2740   -9.5699   22.4736 H   0  0  0  0  0  0
  -23.9987   -7.4643   22.7477 H   0  0  0  0  0  0
  -21.0833   -8.8720   19.8915 H   0  0  0  0  0  0
  -22.3673  -10.9631   19.6124 H   0  0  0  0  0  0
  -21.2002   -7.6142   23.9705 H   0  0  0  0  0  0
  -21.1483   -6.0499   25.9063 H   0  0  0  0  0  0
  -22.0608   -2.7594   23.2817 H   0  0  0  0  0  0
  -22.4015  -11.9847   22.4759 H   0  0  0  0  0  0
  -21.1052  -13.1224   22.2556 H   0  0  0  0  0  0
  -24.6551  -15.8425   20.5288 H   0  0  0  0  0  0
  -26.2645  -15.6319   20.0724 H   0  0  0  0  0  0
  -26.7185  -32.5413   23.1087 H   0  0  0  0  0  0
  -25.0240  -33.9761   25.0554 H   0  0  0  0  0  0
  -22.7283  -31.3018   21.3852 H   0  0  0  0  0  0
  -23.3808  -35.9522   23.3271 H   0  0  0  0  0  0
  -24.3641  -36.8878   22.2083 H   0  0  0  0  0  0
  -23.7183  -37.6422   23.6651 H   0  0  0  0  0  0
  -26.0923  -31.5265   20.5917 H   0  0  0  0  0  0
  -26.8621  -30.8362   21.9935 H   0  0  0  0  0  0
  -28.1264  -28.9255   21.2058 H   0  0  0  0  0  0
  -25.9891  -25.8763   19.0418 H   0  0  0  0  0  0
  -23.9738  -27.2930   19.0099 H   0  0  0  0  0  0
  -23.7872  -30.5841   19.4016 H   0  0  0  0  0  0
  -22.7676  -29.2493   19.8458 H   0  0  0  0  0  0
  -25.1299  -36.1914   25.0875 H   0  0  0  0  0  0
  -20.9971  -28.3242   24.1389 H   0  0  0  0  0  0
  -20.5713  -26.2291   23.3587 H   0  0  0  0  0  0
  -21.6667  -26.7499   22.1147 H   0  0  0  0  0  0
  -19.6919  -25.6327   21.1241 H   0  0  0  0  0  0
  -19.6718  -27.3228   20.6773 H   0  0  0  0  0  0
  -17.4224  -26.6764   21.4004 H   0  0  0  0  0  0
  -18.0287  -26.0152   22.8989 H   0  0  0  0  0  0
  -19.7989  -30.7280   24.2277 H   0  0  0  0  0  0
  -17.5083  -31.6307   24.5150 H   0  0  0  0  0  0
  -15.5375  -30.3041   23.7702 H   0  0  0  0  0  0
  -15.8674  -28.0893   22.6994 H   0  0  0  0  0  0
  -24.5982  -30.6918   25.7781 H   0  0  0  0  0  0
  -24.8822  -32.2830   26.4716 H   0  0  0  0  0  0
  -25.8092  -30.9010   27.0239 H   0  0  0  0  0  0
  -26.2948  -29.6742   24.1114 H   0  0  0  0  0  0
  -27.4226  -29.7267   25.4470 H   0  0  0  0  0  0
  -27.8695  -30.4473   23.9216 H   0  0  0  0  0  0
  -27.2825  -33.3612   26.1938 H   0  0  0  0  0  0
  -28.3968  -32.6564   25.0278 H   0  0  0  0  0  0
  -28.0639  -31.8327   26.5445 H   0  0  0  0  0  0
  -28.2539  -38.0122   24.7532 H   0  0  0  0  0  0
  -28.1116  -36.2640   24.6272 H   0  0  0  0  0  0
  -27.2308  -37.1371   25.8890 H   0  0  0  0  0  0
  -20.9274  -29.8915   21.7052 H   0  0  0  0  0  0
  -26.0156  -38.2826   24.1443 H   0  0  0  0  0  0
  -31.4253  -20.1953   21.2247 H   0  0  0  0  0  0
  -31.8417  -17.6892   21.3500 H   0  0  0  0  0  0
  -26.3816  -23.3401   19.3551 H   0  0  0  0  0  0
  -27.9701  -23.4810   18.6256 H   0  0  0  0  0  0
  -27.6885  -21.1076   18.4569 H   0  0  0  0  0  0
  -26.7855  -21.0066   19.9510 H   0  0  0  0  0  0
  -29.6300  -22.4025   21.8766 H   0  0  0  0  0  0
  -30.1276  -22.9166   20.2768 H   0  0  0  0  0  0
  -26.9194  -22.0731   22.0131 H   0  0  0  0  0  0
  -26.1201  -23.6267   21.8935 H   0  0  0  0  0  0
  -27.5182  -23.4307   22.9337 H   0  0  0  0  0  0
  -29.1928  -25.2587   21.6032 H   0  0  0  0  0  0
  -27.5229  -25.4885   21.7886 H   0  0  0  0  0  0
  -28.7411  -15.5402   20.6523 H   0  0  0  0  0  0
  1 25  1  0  0  0
  1 30  2  0  0  0
  1 82  1  0  0  0
  2  3  1  0  0  0
  2 25  1  0  0  0
  2 84  1  0  0  0
  2 85  1  0  0  0
  3  4  1  0  0  0
  3 86  1  0  0  0
  3 87  1  0  0  0
  4  5  1  0  0  0
  4 88  1  0  0  0
  4 89  1  0  0  0
  5  6  1  0  0  0
  5 26  1  0  0  0
  5 90  1  0  0  0
  6 25  1  0  0  0
  6 91  1  0  0  0
  6 92  1  0  0  0
  7  8  2  0  0  0
  7 26  1  0  0  0
  7 29  1  0  0  0
  8  9  1  0  0  0
  8 22  1  0  0  0
  9 10  1  0  0  0
  9 27  2  0  0  0
 10 11  2  0  0  0
 10 15  1  0  0  0
 11 12  1  0  0  0
 11 93  1  0  0  0
 12 13  2  0  0  0
 12 94  1  0  0  0
 13 14  1  0  0  0
 13 31  1  0  0  0
 14 15  2  0  0  0
 14 95  1  0  0  0
 15 96  1  0  0  0
 16 17  2  0  0  0
 16 21  1  0  0  0
 16 31  1  0  0  0
 17 18  1  0  0  0
 17 97  1  0  0  0
 18 19  2  0  0  0
 18 98  1  0  0  0
 19 20  1  0  0  0
 19 24  1  0  0  0
 20 21  2  0  0  0
 20 99  1  0  0  0
 21 23  1  0  0  0
 22 28  1  0  0  0
 22 32  2  0  0  0
 26 27  1  0  0  0
 28100  1  0  0  0
 28101  1  0  0  0
 29102  1  0  0  0
 29103  1  0  0  0
 33 34  1  0  0  0
 33 66  1  0  0  0
 33 70  2  0  0  0
 34 36  1  0  0  0
 34 59  1  0  0  0
 34104  1  0  0  0
 35 44  2  0  0  0
 35 45  1  0  0  0
 35 68  1  0  0  0
 36 56  1  0  0  0
 36105  1  0  0  0
 37 39  1  0  0  0
 37 47  1  0  0  0
 37 66  1  0  0  0
 37106  1  0  0  0
 38 43  2  0  0  0
 38 46  1  0  0  0
 38 47  1  0  0  0
 39 64  1  0  0  0
 39 67  2  0  0  0
 40 52  1  0  0  0
 40 53  2  0  0  0
 40 58  1  0  0  0
 41107  1  0  0  0
 41108  1  0  0  0
 41109  1  0  0  0
 41 48  1  0  0  0
 42 43  1  0  0  0
 42 66  1  0  0  0
 42110  1  0  0  0
 42111  1  0  0  0
 43 44  1  0  0  0
 44112  1  0  0  0
 45 46  2  0  0  0
 45113  1  0  0  0
 46114  1  0  0  0
 47115  1  0  0  0
 47116  1  0  0  0
 48 56  1  0  0  0
 48 65  1  0  0  0
 48117  1  0  0  0
 49 50  1  0  0  0
 49 53  1  0  0  0
 49 64  1  0  0  0
 49118  1  0  0  0
 50 51  1  0  0  0
 50119  1  0  0  0
 50120  1  0  0  0
 51 52  1  0  0  0
 51121  1  0  0  0
 51122  1  0  0  0
 52123  1  0  0  0
 52124  1  0  0  0
 53 54  1  0  0  0
 54 55  2  0  0  0
 54125  1  0  0  0
 55 57  1  0  0  0
 55126  1  0  0  0
 56 69  2  0  0  0
 57 58  2  0  0  0
 57127  1  0  0  0
 58128  1  0  0  0
 59 60  1  0  0  0
 59 61  1  0  0  0
 59 62  1  0  0  0
 60129  1  0  0  0
 60130  1  0  0  0
 60131  1  0  0  0
 61132  1  0  0  0
 61133  1  0  0  0
 61134  1  0  0  0
 62135  1  0  0  0
 62136  1  0  0  0
 62137  1  0  0  0
 63 65  1  0  0  0
 63138  1  0  0  0
 63139  1  0  0  0
 63140  1  0  0  0
 64141  1  0  0  0
 65142  1  0  0  0
 68 80  1  0  0  0
 71 72  1  0  0  0
 71 73  2  0  0  0
 71143  1  0  0  0
 72 74  2  0  0  0
 72144  1  0  0  0
 73 81  1  0  0  0
 73 83  1  0  0  0
 74 82  1  0  0  0
 74 83  1  0  0  0
 75 76  1  0  0  0
 75 78  1  0  0  0
 75145  1  0  0  0
 75146  1  0  0  0
 76 81  1  0  0  0
 76147  1  0  0  0
 76148  1  0  0  0
 77 78  1  0  0  0
 77 81  1  0  0  0
 77149  1  0  0  0
 77150  1  0  0  0
 78 79  1  0  0  0
 78 80  1  0  0  0
 79151  1  0  0  0
 79152  1  0  0  0
 79153  1  0  0  0
 80154  1  0  0  0
 80155  1  0  0  0
 82156  1  0  0  0
M  ISO  4   1 100  68 101  80 101  82 100
M  END
> <chiral flag>
0

> <version>
0

> <s_m_source_file>
/data/baiqing/PycharmProjects/Reinvent-master-3.2/result/LINK_invent/BTK/process_docking_weight1_custom_product_contain_oxygen_bond_distance_aromatic_linkinvent_7_9_3/rearranged_h_0153.sdf

> <i_m_source_file_index>
43

> <r_mmod_Potential_Energy-OPLS-2005>
328.135101318359

> <r_mmod_Stretch_Energy-OPLS-2005>
117.715202331543

> <r_mmod_Bend_Energy-OPLS-2005>
248.118362426758

> <r_mmod_Torsional_Energy-OPLS-2005>
316.423706054688

> <r_mmod_Improper_Torsional_Energy-OPLS-2005>
6.24892377853394

> <r_mmod_Van_der_Waal_Energy-OPLS-2005>
112.494110107422

> <r_mmod_Electrostatic_Energy-OPLS-2005>
-343.688079833984

> <r_mmod_Solvation_Energy-OPLS-2005>
-220.522476196289

> <b_mmod_Minimization_Converged-OPLS-2005>
0

> <r_mmod_RMS_Derivative-OPLS-2005>
5.19483232498169

$$$$
43
                    3D
 Structure written by MMmdl.
151160  0  0  1  0            999 V2000
  -30.5889  -14.8102   20.4102 C   0  0  0  0  0  0
  -30.4309  -12.4860   19.4838 C   0  0  0  0  0  0
  -29.5126  -12.5101   18.2412 C   0  0  0  0  0  0
  -28.0373  -12.3370   18.6528 C   0  0  0  0  0  0
  -27.6425  -13.2426   19.8514 C   0  0  2  0  0  0
  -28.6867  -13.1972   20.9873 C   0  0  0  0  0  0
  -25.2521  -13.8286   20.5709 C   0  0  0  0  0  0
  -24.1830  -13.0514   20.9200 C   0  0  0  0  0  0
  -24.6443  -11.6986   20.8776 C   0  0  0  0  0  0
  -23.9119  -10.4331   21.0406 C   0  0  0  0  0  0
  -24.3652   -9.4219   21.9172 C   0  0  0  0  0  0
  -23.6317   -8.2261   22.0744 C   0  0  0  0  0  0
  -22.4300   -8.0319   21.3544 C   0  0  0  0  0  0
  -21.9946   -9.0293   20.4661 C   0  0  0  0  0  0
  -22.7278  -10.2164   20.3067 C   0  0  0  0  0  0
  -21.6855   -6.0755   22.5269 C   0  0  0  0  0  0
  -21.4019   -6.5649   23.8209 C   0  0  0  0  0  0
  -21.3651   -5.6791   24.9160 C   0  0  0  0  0  0
  -21.6033   -4.3057   24.7218 C   0  0  0  0  0  0
  -21.8819   -3.8162   23.4335 C   0  0  0  0  0  0
  -21.9184   -4.6986   22.3404 C   0  0  0  0  0  0
  -22.7826  -13.5241   21.1857 C   0  0  0  0  0  0
  -22.1658   -4.2165   21.0981 F   0  0  0  0  0  0
  -21.5613   -3.4539   25.7734 F   0  0  0  0  0  0
  -29.9833  -13.5627   20.4033 N   0  0  0  0  0  0
  -26.2955  -12.9499   20.3280 N   0  0  0  0  0  0
  -25.9388  -11.6632   20.5811 N   0  0  0  0  0  0
  -22.0505  -12.8217   22.0426 N   0  0  0  0  0  0
  -25.4254  -15.2016   20.4174 N   0  0  0  0  0  0
  -31.7664  -14.8987   20.0565 O   0  0  0  0  0  0
  -21.6668   -6.8917   21.4241 O   0  0  0  0  0  0
  -22.3462  -14.5507   20.6671 O   0  0  0  0  0  0
  -24.6349  -31.8479   23.1942 C   0  0  0  0  0  0
  -25.9138  -32.4722   23.8287 C   0  0  1  0  0  0
  -27.2181  -27.1982   20.1131 C   0  0  0  0  0  0
  -25.5887  -33.8529   24.2189 N   0  0  0  0  0  0
  -23.4340  -30.4716   21.5417 C   0  0  2  0  0  0
  -24.8833  -28.9176   20.1083 C   0  0  0  0  0  0
  -22.7497  -29.4571   22.4897 C   0  0  0  0  0  0
  -18.0267  -28.1376   22.8484 C   0  0  0  0  0  0
  -24.1494  -36.7280   23.2645 C   0  0  0  0  0  0
  -25.9888  -30.7356   21.3922 C   0  0  0  0  0  0
  -26.0582  -29.3553   20.7305 C   0  0  0  0  0  0
  -27.2221  -28.5064   20.7311 C   0  0  0  0  0  0
  -26.0257  -26.8713   19.4236 C   0  0  0  0  0  0
  -24.8771  -27.6844   19.4449 C   0  0  0  0  0  0
  -23.6531  -29.8062   20.1595 C   0  0  0  0  0  0
  -25.4123  -36.3044   24.0318 C   0  0  1  0  0  0
  -20.5883  -28.3687   23.1244 C   0  0  2  0  0  0
  -20.6749  -26.9392   22.5396 C   0  0  0  0  0  0
  -19.5736  -26.6372   21.5188 C   0  0  0  0  0  0
  -18.1924  -26.7915   22.1619 C   0  0  0  0  0  0
  -19.1533  -28.8846   23.2857 C   0  0  0  0  0  0
  -18.9453  -30.1448   23.8884 C   0  0  0  0  0  0
  -17.6463  -30.6592   24.0556 C   0  0  0  0  0  0
  -25.9059  -34.9425   23.5068 C   0  0  0  0  0  0
  -16.5348  -29.9095   23.6328 C   0  0  0  0  0  0
  -16.7261  -28.6496   23.0369 C   0  0  0  0  0  0
  -26.4493  -31.6575   25.0705 C   0  0  0  0  0  0
  -25.3704  -31.3754   26.1415 C   0  0  0  0  0  0
  -27.0334  -30.2968   24.6266 C   0  0  0  0  0  0
  -27.6029  -32.4348   25.7468 C   0  0  0  0  0  0
  -27.5581  -37.1768   24.8449 C   0  0  0  0  0  0
  -21.4202  -29.3043   22.3639 N   0  0  0  0  0  0
  -26.4286  -37.3751   23.9414 N   0  0  0  0  0  0
  -24.7056  -31.0375   22.0965 N   0  0  0  0  0  0
  -23.4163  -28.8111   23.3018 O   0  0  0  0  0  0
  -28.2803  -26.2374   20.2030 O   0  0  0  0  0  0
  -26.5672  -34.8919   22.4674 O   0  0  0  0  0  0
  -23.5481  -32.1337   23.7177 O   0  0  0  0  0  0
  -30.1716  -17.6636   18.9234 C   0  0  0  0  0  0
  -29.9828  -19.0901   18.8384 C   0  0  0  0  0  0
  -29.6253  -19.6030   20.0615 C   0  0  0  0  0  0
  -29.9212  -17.2931   20.2260 C   0  0  0  0  0  0
  -28.9223  -23.0869   21.5547 C   0  0  0  0  0  0
  -28.7682  -23.4598   20.2746 C   0  0  0  0  0  0
  -29.3345  -21.6097   21.7341 C   0  0  0  0  0  0
  -29.0741  -22.1616   19.4388 C   0  0  0  0  0  0
  -28.1024  -24.8082   19.6780 C   0  0  0  0  0  0
  -29.3465  -21.0181   20.3874 N   0  0  0  0  0  0
  -29.8254  -15.9501   20.6850 N   0  0  0  0  0  0
  -29.5633  -18.4846   20.9428 O   0  0  0  0  0  0
  -30.1253  -19.8130   17.6994 F   0  0  0  0  0  0
  -31.4705  -12.6083   19.1799 H   0  0  0  0  0  0
  -30.3866  -11.5178   19.9818 H   0  0  0  0  0  0
  -29.8032  -11.7269   17.5370 H   0  0  0  0  0  0
  -29.6358  -13.4574   17.7130 H   0  0  0  0  0  0
  -27.8913  -11.2900   18.9223 H   0  0  0  0  0  0
  -27.3795  -12.5240   17.8027 H   0  0  0  0  0  0
  -27.6332  -14.2622   19.4650 H   0  0  0  0  0  0
  -28.7269  -12.2065   21.4399 H   0  0  0  0  0  0
  -28.4132  -13.8851   21.7880 H   0  0  0  0  0  0
  -25.2789   -9.5670   22.4751 H   0  0  0  0  0  0
  -24.0007   -7.4631   22.7451 H   0  0  0  0  0  0
  -21.0869   -8.8819   19.8967 H   0  0  0  0  0  0
  -22.3729  -10.9716   19.6194 H   0  0  0  0  0  0
  -21.2025   -7.6162   23.9722 H   0  0  0  0  0  0
  -21.1456   -6.0525   25.9061 H   0  0  0  0  0  0
  -22.0610   -2.7645   23.2828 H   0  0  0  0  0  0
  -22.4184  -11.9867   22.4756 H   0  0  0  0  0  0
  -21.1133  -13.1227   22.2683 H   0  0  0  0  0  0
  -24.6768  -15.8711   20.5588 H   0  0  0  0  0  0
  -26.2922  -15.6378   20.1332 H   0  0  0  0  0  0
  -26.7184  -32.5315   23.0996 H   0  0  0  0  0  0
  -24.9917  -33.9666   25.0245 H   0  0  0  0  0  0
  -22.7330  -31.2959   21.3934 H   0  0  0  0  0  0
  -23.3744  -35.9618   23.3306 H   0  0  0  0  0  0
  -24.3557  -36.8915   22.2046 H   0  0  0  0  0  0
  -23.7250  -37.6488   23.6686 H   0  0  0  0  0  0
  -26.1404  -31.4968   20.6259 H   0  0  0  0  0  0
  -26.8601  -30.7783   22.0343 H   0  0  0  0  0  0
  -28.1129  -28.8341   21.2470 H   0  0  0  0  0  0
  -25.9271  -25.9628   18.8509 H   0  0  0  0  0  0
  -23.9868  -27.3526   18.9285 H   0  0  0  0  0  0
  -23.7722  -30.5824   19.4023 H   0  0  0  0  0  0
  -22.7711  -29.2371   19.8589 H   0  0  0  0  0  0
  -25.1310  -36.1889   25.0808 H   0  0  0  0  0  0
  -20.9967  -28.3267   24.1367 H   0  0  0  0  0  0
  -20.5571  -26.2308   23.3608 H   0  0  0  0  0  0
  -21.6624  -26.7357   22.1235 H   0  0  0  0  0  0
  -19.6907  -25.6279   21.1224 H   0  0  0  0  0  0
  -19.6704  -27.3169   20.6714 H   0  0  0  0  0  0
  -17.4168  -26.6600   21.4056 H   0  0  0  0  0  0
  -18.0400  -26.0066   22.9038 H   0  0  0  0  0  0
  -19.7940  -30.7246   24.2264 H   0  0  0  0  0  0
  -17.5028  -31.6279   24.5154 H   0  0  0  0  0  0
  -15.5362  -30.3002   23.7674 H   0  0  0  0  0  0
  -15.8645  -28.0814   22.7123 H   0  0  0  0  0  0
  -24.5840  -30.7177   25.7708 H   0  0  0  0  0  0
  -24.8946  -32.2942   26.4856 H   0  0  0  0  0  0
  -25.7981  -30.8860   27.0175 H   0  0  0  0  0  0
  -26.2935  -29.6713   24.1258 H   0  0  0  0  0  0
  -27.3928  -29.7256   25.4833 H   0  0  0  0  0  0
  -27.8870  -30.4193   23.9598 H   0  0  0  0  0  0
  -27.2606  -33.3648   26.2040 H   0  0  0  0  0  0
  -28.3831  -32.6921   25.0286 H   0  0  0  0  0  0
  -28.0734  -31.8479   26.5372 H   0  0  0  0  0  0
  -28.2571  -38.0088   24.7520 H   0  0  0  0  0  0
  -28.1108  -36.2612   24.6264 H   0  0  0  0  0  0
  -27.2298  -37.1410   25.8849 H   0  0  0  0  0  0
  -20.9388  -29.8751   21.6832 H   0  0  0  0  0  0
  -26.0165  -38.2824   24.1440 H   0  0  0  0  0  0
  -30.4126  -16.9976   18.1090 H   0  0  0  0  0  0
  -28.6970  -23.7180   22.4039 H   0  0  0  0  0  0
  -28.6176  -21.0898   22.3695 H   0  0  0  0  0  0
  -30.3206  -21.5464   22.1999 H   0  0  0  0  0  0
  -29.9317  -22.3348   18.7858 H   0  0  0  0  0  0
  -28.2192  -21.9188   18.8087 H   0  0  0  0  0  0
  -27.0534  -24.5259   19.7118 H   0  0  0  0  0  0
  -28.3752  -24.8412   18.6233 H   0  0  0  0  0  0
  -28.9568  -15.7399   21.1511 H   0  0  0  0  0  0
  1 25  1  0  0  0
  1 30  2  0  0  0
  1 81  1  0  0  0
  2  3  1  0  0  0
  2 25  1  0  0  0
  2 84  1  0  0  0
  2 85  1  0  0  0
  3  4  1  0  0  0
  3 86  1  0  0  0
  3 87  1  0  0  0
  4  5  1  0  0  0
  4 88  1  0  0  0
  4 89  1  0  0  0
  5  6  1  0  0  0
  5 26  1  0  0  0
  5 90  1  0  0  0
  6 25  1  0  0  0
  6 91  1  0  0  0
  6 92  1  0  0  0
  7  8  2  0  0  0
  7 26  1  0  0  0
  7 29  1  0  0  0
  8  9  1  0  0  0
  8 22  1  0  0  0
  9 10  1  0  0  0
  9 27  2  0  0  0
 10 11  2  0  0  0
 10 15  1  0  0  0
 11 12  1  0  0  0
 11 93  1  0  0  0
 12 13  2  0  0  0
 12 94  1  0  0  0
 13 14  1  0  0  0
 13 31  1  0  0  0
 14 15  2  0  0  0
 14 95  1  0  0  0
 15 96  1  0  0  0
 16 17  2  0  0  0
 16 21  1  0  0  0
 16 31  1  0  0  0
 17 18  1  0  0  0
 17 97  1  0  0  0
 18 19  2  0  0  0
 18 98  1  0  0  0
 19 20  1  0  0  0
 19 24  1  0  0  0
 20 21  2  0  0  0
 20 99  1  0  0  0
 21 23  1  0  0  0
 22 28  1  0  0  0
 22 32  2  0  0  0
 26 27  1  0  0  0
 28100  1  0  0  0
 28101  1  0  0  0
 29102  1  0  0  0
 29103  1  0  0  0
 33 34  1  0  0  0
 33 66  1  0  0  0
 33 70  2  0  0  0
 34 36  1  0  0  0
 34 59  1  0  0  0
 34104  1  0  0  0
 35 44  2  0  0  0
 35 45  1  0  0  0
 35 68  1  0  0  0
 36 56  1  0  0  0
 36105  1  0  0  0
 37 39  1  0  0  0
 37 47  1  0  0  0
 37 66  1  0  0  0
 37106  1  0  0  0
 38 43  2  0  0  0
 38 46  1  0  0  0
 38 47  1  0  0  0
 39 64  1  0  0  0
 39 67  2  0  0  0
 40 52  1  0  0  0
 40 53  2  0  0  0
 40 58  1  0  0  0
 41107  1  0  0  0
 41108  1  0  0  0
 41109  1  0  0  0
 41 48  1  0  0  0
 42 43  1  0  0  0
 42 66  1  0  0  0
 42110  1  0  0  0
 42111  1  0  0  0
 43 44  1  0  0  0
 44112  1  0  0  0
 45 46  2  0  0  0
 45113  1  0  0  0
 46114  1  0  0  0
 47115  1  0  0  0
 47116  1  0  0  0
 48 56  1  0  0  0
 48 65  1  0  0  0
 48117  1  0  0  0
 49 50  1  0  0  0
 49 53  1  0  0  0
 49 64  1  0  0  0
 49118  1  0  0  0
 50 51  1  0  0  0
 50119  1  0  0  0
 50120  1  0  0  0
 51 52  1  0  0  0
 51121  1  0  0  0
 51122  1  0  0  0
 52123  1  0  0  0
 52124  1  0  0  0
 53 54  1  0  0  0
 54 55  2  0  0  0
 54125  1  0  0  0
 55 57  1  0  0  0
 55126  1  0  0  0
 56 69  2  0  0  0
 57 58  2  0  0  0
 57127  1  0  0  0
 58128  1  0  0  0
 59 60  1  0  0  0
 59 61  1  0  0  0
 59 62  1  0  0  0
 60129  1  0  0  0
 60130  1  0  0  0
 60131  1  0  0  0
 61132  1  0  0  0
 61133  1  0  0  0
 61134  1  0  0  0
 62135  1  0  0  0
 62136  1  0  0  0
 62137  1  0  0  0
 63 65  1  0  0  0
 63138  1  0  0  0
 63139  1  0  0  0
 63140  1  0  0  0
 64141  1  0  0  0
 65142  1  0  0  0
 68 79  1  0  0  0
 71 72  1  0  0  0
 71 74  2  0  0  0
 71143  1  0  0  0
 72 73  2  0  0  0
 72 83  1  0  0  0
 73 80  1  0  0  0
 73 82  1  0  0  0
 74 81  1  0  0  0
 74 82  1  0  0  0
 75 76  2  0  0  0
 75 77  1  0  0  0
 75144  1  0  0  0
 76 78  1  0  0  0
 76 79  1  0  0  0
 77 80  1  0  0  0
 77145  1  0  0  0
 77146  1  0  0  0
 78 80  1  0  0  0
 78147  1  0  0  0
 78148  1  0  0  0
 79149  1  0  0  0
 79150  1  0  0  0
 81151  1  0  0  0
M  ISO  4   1 100  68 101  79 101  81 100
M  END
> <chiral flag>
0

> <version>
0

> <s_m_source_file>
/data/baiqing/PycharmProjects/Reinvent-master-3.2/result/LINK_invent/BTK/process_docking_weight1_custom_product_contain_oxygen_bond_distance_aromatic_linkinvent_7_9_3/rearranged_h_0153.sdf

> <i_m_source_file_index>
44

> <r_mmod_Potential_Energy-OPLS-2005>
363.573028564453

> <r_mmod_Stretch_Energy-OPLS-2005>
153.453964233398

> <r_mmod_Bend_Energy-OPLS-2005>
278.027130126953

> <r_mmod_Torsional_Energy-OPLS-2005>
228.170654296875

> <r_mmod_Improper_Torsional_Energy-OPLS-2005>
5.09219264984131

> <r_mmod_Van_der_Waal_Energy-OPLS-2005>
117.934547424316

> <r_mmod_Electrostatic_Energy-OPLS-2005>
-310.080413818359

> <r_mmod_Solvation_Energy-OPLS-2005>
-233.557189941406

> <b_mmod_Minimization_Converged-OPLS-2005>
0

> <r_mmod_RMS_Derivative-OPLS-2005>
4.49875354766846

$$$$
44
                    3D
 Structure written by MMmdl.
153161  0  0  1  0            999 V2000
  -30.6976  -14.7128   20.4941 C   0  0  0  0  0  0
  -30.4221  -12.4294   19.5023 C   0  0  0  0  0  0
  -29.5085  -12.4880   18.2591 C   0  0  0  0  0  0
  -28.0446  -12.2984   18.6948 C   0  0  0  0  0  0
  -27.6546  -13.2305   19.8759 C   0  0  2  0  0  0
  -28.7087  -13.1851   21.0124 C   0  0  0  0  0  0
  -25.2578  -13.8275   20.5866 C   0  0  0  0  0  0
  -24.1818  -13.0476   20.9232 C   0  0  0  0  0  0
  -24.6422  -11.6992   20.8806 C   0  0  0  0  0  0
  -23.9112  -10.4354   21.0466 C   0  0  0  0  0  0
  -24.3691   -9.4275   21.9202 C   0  0  0  0  0  0
  -23.6372   -8.2311   22.0755 C   0  0  0  0  0  0
  -22.4333   -8.0339   21.3564 C   0  0  0  0  0  0
  -21.9987   -9.0335   20.4679 C   0  0  0  0  0  0
  -22.7321  -10.2200   20.3104 C   0  0  0  0  0  0
  -21.6902   -6.0764   22.5270 C   0  0  0  0  0  0
  -21.4038   -6.5689   23.8190 C   0  0  0  0  0  0
  -21.3675   -5.6853   24.9164 C   0  0  0  0  0  0
  -21.6042   -4.3107   24.7240 C   0  0  0  0  0  0
  -21.8833   -3.8181   23.4371 C   0  0  0  0  0  0
  -21.9219   -4.6979   22.3416 C   0  0  0  0  0  0
  -22.7858  -13.5275   21.1917 C   0  0  0  0  0  0
  -22.1708   -4.2141   21.1000 F   0  0  0  0  0  0
  -21.5618   -3.4622   25.7772 F   0  0  0  0  0  0
  -30.0079  -13.5183   20.4207 N   0  0  0  0  0  0
  -26.3025  -12.9484   20.3565 N   0  0  0  0  0  0
  -25.9371  -11.6619   20.5964 N   0  0  0  0  0  0
  -22.0591  -12.8158   22.0485 N   0  0  0  0  0  0
  -25.4253  -15.1987   20.4443 N   0  0  0  0  0  0
  -31.8366  -14.7814   20.0285 O   0  0  0  0  0  0
  -21.6712   -6.8916   21.4233 O   0  0  0  0  0  0
  -22.3530  -14.5587   20.6832 O   0  0  0  0  0  0
  -24.6329  -31.8534   23.2005 C   0  0  0  0  0  0
  -25.9141  -32.4732   23.8353 C   0  0  1  0  0  0
  -27.2169  -27.2553   20.1490 C   0  0  0  0  0  0
  -25.5947  -33.8556   24.2257 N   0  0  0  0  0  0
  -23.4280  -30.4804   21.5443 C   0  0  2  0  0  0
  -24.8785  -28.9364   20.1134 C   0  0  0  0  0  0
  -22.7522  -29.4613   22.4923 C   0  0  0  0  0  0
  -18.0328  -28.1397   22.8494 C   0  0  0  0  0  0
  -24.1499  -36.7281   23.2642 C   0  0  0  0  0  0
  -25.9761  -30.7714   21.3843 C   0  0  0  0  0  0
  -26.0537  -29.3964   20.7221 C   0  0  0  0  0  0
  -27.2264  -28.5731   20.7296 C   0  0  0  0  0  0
  -26.0184  -26.8755   19.4926 C   0  0  0  0  0  0
  -24.8705  -27.6826   19.4888 C   0  0  0  0  0  0
  -23.6490  -29.8218   20.1569 C   0  0  0  0  0  0
  -25.4120  -36.3052   24.0332 C   0  0  1  0  0  0
  -20.5909  -28.3716   23.1323 C   0  0  2  0  0  0
  -20.6833  -26.9456   22.5438 C   0  0  0  0  0  0
  -19.5827  -26.6424   21.5224 C   0  0  0  0  0  0
  -18.2021  -26.7919   22.1671 C   0  0  0  0  0  0
  -19.1557  -28.8873   23.2897 C   0  0  0  0  0  0
  -18.9479  -30.1492   23.8878 C   0  0  0  0  0  0
  -17.6473  -30.6581   24.0562 C   0  0  0  0  0  0
  -25.9065  -34.9421   23.5091 C   0  0  0  0  0  0
  -16.5381  -29.9060   23.6340 C   0  0  0  0  0  0
  -16.7300  -28.6488   23.0343 C   0  0  0  0  0  0
  -26.4513  -31.6567   25.0749 C   0  0  0  0  0  0
  -25.3727  -31.3743   26.1468 C   0  0  0  0  0  0
  -27.0397  -30.2980   24.6251 C   0  0  0  0  0  0
  -27.6057  -32.4332   25.7523 C   0  0  0  0  0  0
  -27.5591  -37.1800   24.8465 C   0  0  0  0  0  0
  -21.4215  -29.3097   22.3741 N   0  0  0  0  0  0
  -26.4303  -37.3749   23.9386 N   0  0  0  0  0  0
  -24.6960  -31.0537   22.0965 N   0  0  0  0  0  0
  -23.4235  -28.8129   23.2985 O   0  0  0  0  0  0
  -28.2820  -26.3211   20.2441 O   0  0  0  0  0  0
  -26.5647  -34.8916   22.4667 O   0  0  0  0  0  0
  -23.5505  -32.1405   23.7285 O   0  0  0  0  0  0
  -29.6504  -18.4380   20.8861 C   0  0  0  0  0  0
  -29.1847  -19.3838   18.7294 C   0  0  0  0  0  0
  -29.6503  -17.0908   18.8922 C   0  0  0  0  0  0
  -29.3341  -19.6289   20.1168 C   0  0  0  0  0  0
  -29.8147  -17.1163   20.2986 C   0  0  0  0  0  0
  -28.8454  -23.6724   20.5241 C   0  0  0  0  0  0
  -30.5317  -16.0415   22.4549 C   0  0  0  0  0  0
  -28.4402  -22.1480   20.1757 C   0  0  0  0  0  0
  -27.9392  -24.8742   19.9835 C   0  0  0  0  0  0
  -29.3513  -18.1755   18.1400 N   0  0  0  0  0  0
  -29.2436  -20.9641   20.6949 N   0  0  0  0  0  0
  -30.1380  -15.8599   21.0467 N   0  0  0  0  0  0
  -29.8323  -23.8957   21.2347 O   0  0  0  0  0  0
  -31.4712  -12.5025   19.2199 H   0  0  0  0  0  0
  -30.3305  -11.4608   20.0008 H   0  0  0  0  0  0
  -29.7942  -11.7202   17.5377 H   0  0  0  0  0  0
  -29.6319  -13.4496   17.7617 H   0  0  0  0  0  0
  -27.9570  -11.2562   19.0137 H   0  0  0  0  0  0
  -27.3618  -12.4264   17.8519 H   0  0  0  0  0  0
  -27.6515  -14.2495   19.4861 H   0  0  0  0  0  0
  -28.7564  -12.1966   21.4767 H   0  0  0  0  0  0
  -28.4707  -13.8800   21.8135 H   0  0  0  0  0  0
  -25.2887   -9.5758   22.4691 H   0  0  0  0  0  0
  -24.0143   -7.4726   22.7441 H   0  0  0  0  0  0
  -21.0955   -8.8888   19.8968 H   0  0  0  0  0  0
  -22.3871  -10.9730   19.6170 H   0  0  0  0  0  0
  -21.2039   -7.6190   23.9697 H   0  0  0  0  0  0
  -21.1467   -6.0577   25.9049 H   0  0  0  0  0  0
  -22.0579   -2.7636   23.2883 H   0  0  0  0  0  0
  -22.4404  -11.9776   22.4630 H   0  0  0  0  0  0
  -21.1171  -13.0986   22.2865 H   0  0  0  0  0  0
  -24.6599  -15.8486   20.5949 H   0  0  0  0  0  0
  -26.3134  -15.6604   20.3063 H   0  0  0  0  0  0
  -26.7206  -32.5380   23.1119 H   0  0  0  0  0  0
  -25.0024  -33.9665   25.0348 H   0  0  0  0  0  0
  -22.7222  -31.3012   21.4007 H   0  0  0  0  0  0
  -23.3760  -35.9626   23.3293 H   0  0  0  0  0  0
  -24.3593  -36.8911   22.2064 H   0  0  0  0  0  0
  -23.7293  -37.6500   23.6666 H   0  0  0  0  0  0
  -26.1338  -31.5389   20.6243 H   0  0  0  0  0  0
  -26.8477  -30.8079   22.0281 H   0  0  0  0  0  0
  -28.1217  -28.9217   21.2264 H   0  0  0  0  0  0
  -25.9190  -25.9195   18.9985 H   0  0  0  0  0  0
  -23.9709  -27.3143   19.0173 H   0  0  0  0  0  0
  -23.7883  -30.6043   19.4092 H   0  0  0  0  0  0
  -22.7646  -29.2647   19.8385 H   0  0  0  0  0  0
  -25.1323  -36.1906   25.0841 H   0  0  0  0  0  0
  -20.9990  -28.3241   24.1458 H   0  0  0  0  0  0
  -20.5786  -26.2320   23.3617 H   0  0  0  0  0  0
  -21.6699  -26.7515   22.1217 H   0  0  0  0  0  0
  -19.6974  -25.6342   21.1239 H   0  0  0  0  0  0
  -19.6746  -27.3247   20.6765 H   0  0  0  0  0  0
  -17.4350  -26.6729   21.4036 H   0  0  0  0  0  0
  -18.0394  -26.0034   22.9027 H   0  0  0  0  0  0
  -19.7921  -30.7342   24.2222 H   0  0  0  0  0  0
  -17.5007  -31.6252   24.5191 H   0  0  0  0  0  0
  -15.5382  -30.2950   23.7700 H   0  0  0  0  0  0
  -15.8685  -28.0824   22.7048 H   0  0  0  0  0  0
  -24.5899  -30.7087   25.7802 H   0  0  0  0  0  0
  -24.8952  -32.2945   26.4852 H   0  0  0  0  0  0
  -25.8072  -30.8964   27.0256 H   0  0  0  0  0  0
  -26.3023  -29.6692   24.1262 H   0  0  0  0  0  0
  -27.4058  -29.7276   25.4791 H   0  0  0  0  0  0
  -27.8894  -30.4247   23.9543 H   0  0  0  0  0  0
  -27.2623  -33.3616   26.2101 H   0  0  0  0  0  0
  -28.3876  -32.6913   25.0364 H   0  0  0  0  0  0
  -28.0709  -31.8462   26.5449 H   0  0  0  0  0  0
  -28.2617  -38.0084   24.7503 H   0  0  0  0  0  0
  -28.1078  -36.2628   24.6305 H   0  0  0  0  0  0
  -27.2300  -37.1485   25.8864 H   0  0  0  0  0  0
  -20.9369  -29.8856   21.7023 H   0  0  0  0  0  0
  -26.0184  -38.2838   24.1333 H   0  0  0  0  0  0
  -29.7705  -18.5637   21.9505 H   0  0  0  0  0  0
  -28.9612  -20.1901   18.0441 H   0  0  0  0  0  0
  -29.7818  -16.1767   18.3263 H   0  0  0  0  0  0
  -29.8009  -16.6135   23.0287 H   0  0  0  0  0  0
  -31.4936  -16.5583   22.5183 H   0  0  0  0  0  0
  -30.6665  -15.0907   22.9729 H   0  0  0  0  0  0
  -28.3024  -22.0599   19.0996 H   0  0  0  0  0  0
  -27.4463  -22.0140   20.6052 H   0  0  0  0  0  0
  -26.9605  -24.6773   20.4209 H   0  0  0  0  0  0
  -27.8301  -24.7347   18.9081 H   0  0  0  0  0  0
  -29.4218  -21.0367   21.6957 H   0  0  0  0  0  0
  1 25  1  0  0  0
  1 30  2  0  0  0
  1 82  1  0  0  0
  2  3  1  0  0  0
  2 25  1  0  0  0
  2 84  1  0  0  0
  2 85  1  0  0  0
  3  4  1  0  0  0
  3 86  1  0  0  0
  3 87  1  0  0  0
  4  5  1  0  0  0
  4 88  1  0  0  0
  4 89  1  0  0  0
  5  6  1  0  0  0
  5 26  1  0  0  0
  5 90  1  0  0  0
  6 25  1  0  0  0
  6 91  1  0  0  0
  6 92  1  0  0  0
  7  8  2  0  0  0
  7 26  1  0  0  0
  7 29  1  0  0  0
  8  9  1  0  0  0
  8 22  1  0  0  0
  9 10  1  0  0  0
  9 27  2  0  0  0
 10 11  2  0  0  0
 10 15  1  0  0  0
 11 12  1  0  0  0
 11 93  1  0  0  0
 12 13  2  0  0  0
 12 94  1  0  0  0
 13 14  1  0  0  0
 13 31  1  0  0  0
 14 15  2  0  0  0
 14 95  1  0  0  0
 15 96  1  0  0  0
 16 17  2  0  0  0
 16 21  1  0  0  0
 16 31  1  0  0  0
 17 18  1  0  0  0
 17 97  1  0  0  0
 18 19  2  0  0  0
 18 98  1  0  0  0
 19 20  1  0  0  0
 19 24  1  0  0  0
 20 21  2  0  0  0
 20 99  1  0  0  0
 21 23  1  0  0  0
 22 28  1  0  0  0
 22 32  2  0  0  0
 26 27  1  0  0  0
 28100  1  0  0  0
 28101  1  0  0  0
 29102  1  0  0  0
 29103  1  0  0  0
 33 34  1  0  0  0
 33 66  1  0  0  0
 33 70  2  0  0  0
 34 36  1  0  0  0
 34 59  1  0  0  0
 34104  1  0  0  0
 35 44  2  0  0  0
 35 45  1  0  0  0
 35 68  1  0  0  0
 36 56  1  0  0  0
 36105  1  0  0  0
 37 39  1  0  0  0
 37 47  1  0  0  0
 37 66  1  0  0  0
 37106  1  0  0  0
 38 43  2  0  0  0
 38 46  1  0  0  0
 38 47  1  0  0  0
 39 64  1  0  0  0
 39 67  2  0  0  0
 40 52  1  0  0  0
 40 53  2  0  0  0
 40 58  1  0  0  0
 41107  1  0  0  0
 41108  1  0  0  0
 41109  1  0  0  0
 41 48  1  0  0  0
 42 43  1  0  0  0
 42 66  1  0  0  0
 42110  1  0  0  0
 42111  1  0  0  0
 43 44  1  0  0  0
 44112  1  0  0  0
 45 46  2  0  0  0
 45113  1  0  0  0
 46114  1  0  0  0
 47115  1  0  0  0
 47116  1  0  0  0
 48 56  1  0  0  0
 48 65  1  0  0  0
 48117  1  0  0  0
 49 50  1  0  0  0
 49 53  1  0  0  0
 49 64  1  0  0  0
 49118  1  0  0  0
 50 51  1  0  0  0
 50119  1  0  0  0
 50120  1  0  0  0
 51 52  1  0  0  0
 51121  1  0  0  0
 51122  1  0  0  0
 52123  1  0  0  0
 52124  1  0  0  0
 53 54  1  0  0  0
 54 55  2  0  0  0
 54125  1  0  0  0
 55 57  1  0  0  0
 55126  1  0  0  0
 56 69  2  0  0  0
 57 58  2  0  0  0
 57127  1  0  0  0
 58128  1  0  0  0
 59 60  1  0  0  0
 59 61  1  0  0  0
 59 62  1  0  0  0
 60129  1  0  0  0
 60130  1  0  0  0
 60131  1  0  0  0
 61132  1  0  0  0
 61133  1  0  0  0
 61134  1  0  0  0
 62135  1  0  0  0
 62136  1  0  0  0
 62137  1  0  0  0
 63 65  1  0  0  0
 63138  1  0  0  0
 63139  1  0  0  0
 63140  1  0  0  0
 64141  1  0  0  0
 65142  1  0  0  0
 68 79  1  0  0  0
 71 74  2  0  0  0
 71 75  1  0  0  0
 71143  1  0  0  0
 72 74  1  0  0  0
 72 80  2  0  0  0
 72144  1  0  0  0
 73 75  2  0  0  0
 73 80  1  0  0  0
 73145  1  0  0  0
 74 81  1  0  0  0
 75 82  1  0  0  0
 76 78  1  0  0  0
 76 79  1  0  0  0
 76 83  2  0  0  0
 77 82  1  0  0  0
 77146  1  0  0  0
 77147  1  0  0  0
 77148  1  0  0  0
 78 81  1  0  0  0
 78149  1  0  0  0
 78150  1  0  0  0
 79151  1  0  0  0
 79152  1  0  0  0
 81153  1  0  0  0
M  ISO  4   1 100  68 101  79 101  82 100
M  END
> <chiral flag>
0

> <version>
0

> <s_m_source_file>
/data/baiqing/PycharmProjects/Reinvent-master-3.2/result/LINK_invent/BTK/process_docking_weight1_custom_product_contain_oxygen_bond_distance_aromatic_linkinvent_7_9_3/rearranged_h_0153.sdf

> <i_m_source_file_index>
45

> <r_mmod_Potential_Energy-OPLS-2005>
282.581848144531

> <r_mmod_Stretch_Energy-OPLS-2005>
129.306137084961

> <r_mmod_Bend_Energy-OPLS-2005>
186.208480834961

> <r_mmod_Torsional_Energy-OPLS-2005>
262.705352783203

> <r_mmod_Improper_Torsional_Energy-OPLS-2005>
5.64088726043701

> <r_mmod_Van_der_Waal_Energy-OPLS-2005>
147.735412597656

> <r_mmod_Electrostatic_Energy-OPLS-2005>
-287.901885986328

> <r_mmod_Solvation_Energy-OPLS-2005>
-247.617538452148

> <b_mmod_Minimization_Converged-OPLS-2005>
0

> <r_mmod_RMS_Derivative-OPLS-2005>
7.68959140777588

$$$$
45
                    3D
 Structure written by MMmdl.
156164  0  0  1  0            999 V2000
  -30.6558  -14.5470   20.4862 C   0  0  0  0  0  0
  -30.4222  -12.3295   19.4389 C   0  0  0  0  0  0
  -29.4974  -12.4886   18.2133 C   0  0  0  0  0  0
  -28.0109  -12.3563   18.6110 C   0  0  0  0  0  0
  -27.6445  -13.2079   19.8570 C   0  0  2  0  0  0
  -28.6910  -13.0479   20.9814 C   0  0  0  0  0  0
  -25.2484  -13.8128   20.5608 C   0  0  0  0  0  0
  -24.1761  -13.0420   20.9108 C   0  0  0  0  0  0
  -24.6340  -11.6878   20.8671 C   0  0  0  0  0  0
  -23.8984  -10.4276   21.0366 C   0  0  0  0  0  0
  -24.3576   -9.4201   21.9130 C   0  0  0  0  0  0
  -23.6263   -8.2237   22.0739 C   0  0  0  0  0  0
  -22.4254   -8.0260   21.3547 C   0  0  0  0  0  0
  -21.9858   -9.0188   20.4652 C   0  0  0  0  0  0
  -22.7143  -10.2078   20.3030 C   0  0  0  0  0  0
  -21.6839   -6.0676   22.5221 C   0  0  0  0  0  0
  -21.4034   -6.5602   23.8152 C   0  0  0  0  0  0
  -21.3667   -5.6769   24.9120 C   0  0  0  0  0  0
  -21.6053   -4.3037   24.7179 C   0  0  0  0  0  0
  -21.8830   -3.8098   23.4318 C   0  0  0  0  0  0
  -21.9191   -4.6903   22.3351 C   0  0  0  0  0  0
  -22.7795  -13.5212   21.1774 C   0  0  0  0  0  0
  -22.1679   -4.2094   21.0924 F   0  0  0  0  0  0
  -21.5639   -3.4531   25.7704 F   0  0  0  0  0  0
  -30.0067  -13.3548   20.4052 N   0  0  0  0  0  0
  -26.2935  -12.9293   20.3280 N   0  0  0  0  0  0
  -25.9268  -11.6456   20.5678 N   0  0  0  0  0  0
  -22.0483  -12.8198   22.0377 N   0  0  0  0  0  0
  -25.4198  -15.1859   20.4004 N   0  0  0  0  0  0
  -31.8480  -14.6715   20.1836 O   0  0  0  0  0  0
  -21.6677   -6.8830   21.4204 O   0  0  0  0  0  0
  -22.3435  -14.5472   20.6554 O   0  0  0  0  0  0
  -24.6184  -31.8648   23.2034 C   0  0  0  0  0  0
  -25.9060  -32.4795   23.8369 C   0  0  1  0  0  0
  -27.2187  -27.4044   20.0966 C   0  0  0  0  0  0
  -25.5892  -33.8600   24.2296 N   0  0  0  0  0  0
  -23.4059  -30.4929   21.5402 C   0  0  2  0  0  0
  -24.8494  -28.9578   20.1085 C   0  0  0  0  0  0
  -22.7436  -29.4671   22.4878 C   0  0  0  0  0  0
  -18.0296  -28.1370   22.8463 C   0  0  0  0  0  0
  -24.1486  -36.7348   23.2626 C   0  0  0  0  0  0
  -25.9370  -30.8224   21.3636 C   0  0  0  0  0  0
  -26.0119  -29.4511   20.7147 C   0  0  0  0  0  0
  -27.2026  -28.6834   20.7076 C   0  0  0  0  0  0
  -26.0437  -26.9448   19.4616 C   0  0  0  0  0  0
  -24.8618  -27.7060   19.4738 C   0  0  0  0  0  0
  -23.6145  -29.8311   20.1525 C   0  0  0  0  0  0
  -25.4084  -36.3127   24.0340 C   0  0  1  0  0  0
  -20.5892  -28.3662   23.1256 C   0  0  2  0  0  0
  -20.6777  -26.9386   22.5355 C   0  0  0  0  0  0
  -19.5753  -26.6371   21.5176 C   0  0  0  0  0  0
  -18.1948  -26.7906   22.1613 C   0  0  0  0  0  0
  -19.1539  -28.8835   23.2873 C   0  0  0  0  0  0
  -18.9481  -30.1451   23.8867 C   0  0  0  0  0  0
  -17.6472  -30.6549   24.0569 C   0  0  0  0  0  0
  -25.9019  -34.9473   23.5121 C   0  0  0  0  0  0
  -16.5364  -29.9067   23.6320 C   0  0  0  0  0  0
  -16.7303  -28.6523   23.0300 C   0  0  0  0  0  0
  -26.4468  -31.6553   25.0690 C   0  0  0  0  0  0
  -25.3741  -31.3679   26.1470 C   0  0  0  0  0  0
  -27.0247  -30.2978   24.6035 C   0  0  0  0  0  0
  -27.6048  -32.4231   25.7467 C   0  0  0  0  0  0
  -27.5579  -37.1834   24.8454 C   0  0  0  0  0  0
  -21.4141  -29.3087   22.3680 N   0  0  0  0  0  0
  -26.4288  -37.3795   23.9410 N   0  0  0  0  0  0
  -24.6719  -31.0744   22.0928 N   0  0  0  0  0  0
  -23.4212  -28.8203   23.2926 O   0  0  0  0  0  0
  -28.3500  -26.6054   20.1142 O   0  0  0  0  0  0
  -26.5587  -34.8932   22.4700 O   0  0  0  0  0  0
  -23.5375  -32.1400   23.7422 O   0  0  0  0  0  0
  -30.1054  -19.5453   20.3707 C   0  0  0  0  0  0
  -29.8418  -18.1534   20.0684 C   0  0  0  0  0  0
  -29.5735  -20.4600   19.4741 C   0  0  0  0  0  0
  -29.1175  -18.0643   18.8979 C   0  0  0  0  0  0
  -28.1929  -25.1907   22.0840 C   0  0  0  0  0  0
  -28.8290  -22.7177   19.9905 C   0  0  0  0  0  0
  -27.0394  -24.5164   22.8256 C   0  0  0  0  0  0
  -30.3409  -17.0193   20.9781 C   0  0  0  0  0  0
  -29.1702  -24.2346   19.8800 C   0  0  0  0  0  0
  -28.1434  -25.2245   20.5400 C   0  0  2  0  0  0
  -29.7134  -21.8219   19.4888 N   0  0  0  0  0  0
  -29.8818  -15.6294   20.7330 N   0  0  0  0  0  0
  -29.1173  -25.7143   22.7131 O   0  0  0  0  0  0
  -27.7749  -22.3506   20.5163 O   0  0  0  0  0  0
  -28.7077  -16.9078   18.3147 F   0  0  0  0  0  0
  -28.7228  -19.6109   18.1905 S   0  0  0  0  0  0
  -31.4706  -12.4393   19.1531 H   0  0  0  0  0  0
  -30.3331  -11.3323   19.8726 H   0  0  0  0  0  0
  -29.7542  -11.7610   17.4441 H   0  0  0  0  0  0
  -29.6537  -13.4699   17.7570 H   0  0  0  0  0  0
  -27.7951  -11.2999   18.7908 H   0  0  0  0  0  0
  -27.3806  -12.6478   17.7703 H   0  0  0  0  0  0
  -27.6703  -14.2501   19.5360 H   0  0  0  0  0  0
  -28.6712  -12.0308   21.3724 H   0  0  0  0  0  0
  -28.4587  -13.6985   21.8249 H   0  0  0  0  0  0
  -25.2743   -9.5699   22.4674 H   0  0  0  0  0  0
  -23.9983   -7.4648   22.7472 H   0  0  0  0  0  0
  -21.0789   -8.8612   19.8976 H   0  0  0  0  0  0
  -22.3535  -10.9572   19.6131 H   0  0  0  0  0  0
  -21.2079   -7.6127   23.9616 H   0  0  0  0  0  0
  -21.1505   -6.0528   25.9015 H   0  0  0  0  0  0
  -22.0635   -2.7563   23.2792 H   0  0  0  0  0  0
  -22.4238  -11.9975   22.4832 H   0  0  0  0  0  0
  -21.1095  -13.1157   22.2637 H   0  0  0  0  0  0
  -24.6506  -15.8351   20.5319 H   0  0  0  0  0  0
  -26.2694  -15.6301   20.0723 H   0  0  0  0  0  0
  -26.7116  -32.5488   23.1129 H   0  0  0  0  0  0
  -25.0085  -33.9711   25.0498 H   0  0  0  0  0  0
  -22.7018  -31.3174   21.4001 H   0  0  0  0  0  0
  -23.3750  -35.9684   23.3283 H   0  0  0  0  0  0
  -24.3587  -36.8955   22.2033 H   0  0  0  0  0  0
  -23.7246  -37.6566   23.6640 H   0  0  0  0  0  0
  -26.0437  -31.5844   20.5916 H   0  0  0  0  0  0
  -26.8298  -30.8801   21.9741 H   0  0  0  0  0  0
  -28.0923  -29.0553   21.1930 H   0  0  0  0  0  0
  -26.0319  -26.0013   18.9335 H   0  0  0  0  0  0
  -23.9776  -27.3377   18.9723 H   0  0  0  0  0  0
  -23.7245  -30.6103   19.3951 H   0  0  0  0  0  0
  -22.7408  -29.2528   19.8496 H   0  0  0  0  0  0
  -25.1265  -36.1981   25.0832 H   0  0  0  0  0  0
  -21.0014  -28.3225   24.1370 H   0  0  0  0  0  0
  -20.5599  -26.2303   23.3554 H   0  0  0  0  0  0
  -21.6662  -26.7375   22.1195 H   0  0  0  0  0  0
  -19.6888  -25.6301   21.1196 H   0  0  0  0  0  0
  -19.6671  -27.3191   20.6711 H   0  0  0  0  0  0
  -17.4187  -26.6636   21.4043 H   0  0  0  0  0  0
  -18.0388  -26.0052   22.9023 H   0  0  0  0  0  0
  -19.7948  -30.7283   24.2198 H   0  0  0  0  0  0
  -17.5019  -31.6203   24.5203 H   0  0  0  0  0  0
  -15.5362  -30.2949   23.7621 H   0  0  0  0  0  0
  -15.8718  -28.0829   22.6946 H   0  0  0  0  0  0
  -24.5947  -30.6939   25.7914 H   0  0  0  0  0  0
  -24.8906  -32.2820   26.4916 H   0  0  0  0  0  0
  -25.8141  -30.8928   27.0256 H   0  0  0  0  0  0
  -26.2752  -29.6772   24.1097 H   0  0  0  0  0  0
  -27.4047  -29.7153   25.4455 H   0  0  0  0  0  0
  -27.8594  -30.4318   23.9143 H   0  0  0  0  0  0
  -27.2712  -33.3585   26.1999 H   0  0  0  0  0  0
  -28.3930  -32.6667   25.0322 H   0  0  0  0  0  0
  -28.0633  -31.8334   26.5429 H   0  0  0  0  0  0
  -28.2615  -38.0128   24.7527 H   0  0  0  0  0  0
  -28.1065  -36.2656   24.6264 H   0  0  0  0  0  0
  -27.2293  -37.1472   25.8860 H   0  0  0  0  0  0
  -20.9255  -29.8943   21.7042 H   0  0  0  0  0  0
  -26.0183  -38.2887   24.1422 H   0  0  0  0  0  0
  -30.6786  -19.8393   21.2418 H   0  0  0  0  0  0
  -26.1954  -25.1997   22.9299 H   0  0  0  0  0  0
  -27.3597  -24.1887   23.8164 H   0  0  0  0  0  0
  -26.6890  -23.6386   22.2866 H   0  0  0  0  0  0
  -31.4297  -17.0543   21.0261 H   0  0  0  0  0  0
  -30.0216  -17.2371   21.9977 H   0  0  0  0  0  0
  -29.2482  -24.4612   18.8151 H   0  0  0  0  0  0
  -30.1608  -24.4115   20.3004 H   0  0  0  0  0  0
  -27.1479  -24.8840   20.2655 H   0  0  0  0  0  0
  -30.5107  -22.2017   18.9954 H   0  0  0  0  0  0
  -28.8949  -15.4609   20.8590 H   0  0  0  0  0  0
  1 25  1  0  0  0
  1 30  2  0  0  0
  1 82  1  0  0  0
  2  3  1  0  0  0
  2 25  1  0  0  0
  2 87  1  0  0  0
  2 88  1  0  0  0
  3  4  1  0  0  0
  3 89  1  0  0  0
  3 90  1  0  0  0
  4  5  1  0  0  0
  4 91  1  0  0  0
  4 92  1  0  0  0
  5  6  1  0  0  0
  5 26  1  0  0  0
  5 93  1  0  0  0
  6 25  1  0  0  0
  6 94  1  0  0  0
  6 95  1  0  0  0
  7  8  2  0  0  0
  7 26  1  0  0  0
  7 29  1  0  0  0
  8  9  1  0  0  0
  8 22  1  0  0  0
  9 10  1  0  0  0
  9 27  2  0  0  0
 10 11  2  0  0  0
 10 15  1  0  0  0
 11 12  1  0  0  0
 11 96  1  0  0  0
 12 13  2  0  0  0
 12 97  1  0  0  0
 13 14  1  0  0  0
 13 31  1  0  0  0
 14 15  2  0  0  0
 14 98  1  0  0  0
 15 99  1  0  0  0
 16 17  2  0  0  0
 16 21  1  0  0  0
 16 31  1  0  0  0
 17 18  1  0  0  0
 17100  1  0  0  0
 18 19  2  0  0  0
 18101  1  0  0  0
 19 20  1  0  0  0
 19 24  1  0  0  0
 20 21  2  0  0  0
 20102  1  0  0  0
 21 23  1  0  0  0
 22 28  1  0  0  0
 22 32  2  0  0  0
 26 27  1  0  0  0
 28103  1  0  0  0
 28104  1  0  0  0
 29105  1  0  0  0
 29106  1  0  0  0
 33 34  1  0  0  0
 33 66  1  0  0  0
 33 70  2  0  0  0
 34 36  1  0  0  0
 34 59  1  0  0  0
 34107  1  0  0  0
 35 44  2  0  0  0
 35 45  1  0  0  0
 35 68  1  0  0  0
 36 56  1  0  0  0
 36108  1  0  0  0
 37 39  1  0  0  0
 37 47  1  0  0  0
 37 66  1  0  0  0
 37109  1  0  0  0
 38 43  2  0  0  0
 38 46  1  0  0  0
 38 47  1  0  0  0
 39 64  1  0  0  0
 39 67  2  0  0  0
 40 52  1  0  0  0
 40 53  2  0  0  0
 40 58  1  0  0  0
 41110  1  0  0  0
 41111  1  0  0  0
 41112  1  0  0  0
 41 48  1  0  0  0
 42 43  1  0  0  0
 42 66  1  0  0  0
 42113  1  0  0  0
 42114  1  0  0  0
 43 44  1  0  0  0
 44115  1  0  0  0
 45 46  2  0  0  0
 45116  1  0  0  0
 46117  1  0  0  0
 47118  1  0  0  0
 47119  1  0  0  0
 48 56  1  0  0  0
 48 65  1  0  0  0
 48120  1  0  0  0
 49 50  1  0  0  0
 49 53  1  0  0  0
 49 64  1  0  0  0
 49121  1  0  0  0
 50 51  1  0  0  0
 50122  1  0  0  0
 50123  1  0  0  0
 51 52  1  0  0  0
 51124  1  0  0  0
 51125  1  0  0  0
 52126  1  0  0  0
 52127  1  0  0  0
 53 54  1  0  0  0
 54 55  2  0  0  0
 54128  1  0  0  0
 55 57  1  0  0  0
 55129  1  0  0  0
 56 69  2  0  0  0
 57 58  2  0  0  0
 57130  1  0  0  0
 58131  1  0  0  0
 59 60  1  0  0  0
 59 61  1  0  0  0
 59 62  1  0  0  0
 60132  1  0  0  0
 60133  1  0  0  0
 60134  1  0  0  0
 61135  1  0  0  0
 61136  1  0  0  0
 61137  1  0  0  0
 62138  1  0  0  0
 62139  1  0  0  0
 62140  1  0  0  0
 63 65  1  0  0  0
 63141  1  0  0  0
 63142  1  0  0  0
 63143  1  0  0  0
 64144  1  0  0  0
 65145  1  0  0  0
 68 80  1  0  0  0
 71 72  1  0  0  0
 71 73  2  0  0  0
 71146  1  0  0  0
 72 74  2  0  0  0
 72 78  1  0  0  0
 73 81  1  0  0  0
 73 86  1  0  0  0
 74 85  1  0  0  0
 74 86  1  0  0  0
 75 77  1  0  0  0
 75 80  1  0  0  0
 75 83  2  0  0  0
 76 79  1  0  0  0
 76 81  1  0  0  0
 76 84  2  0  0  0
 77147  1  0  0  0
 77148  1  0  0  0
 77149  1  0  0  0
 78 82  1  0  0  0
 78150  1  0  0  0
 78151  1  0  0  0
 79152  1  0  0  0
 79153  1  0  0  0
 79 80  1  0  0  0
 80154  1  0  0  0
 81155  1  0  0  0
 82156  1  0  0  0
M  ISO  4   1 100  68 101  80 101  82 100
M  END
> <chiral flag>
0

> <version>
0

> <s_m_source_file>
/data/baiqing/PycharmProjects/Reinvent-master-3.2/result/LINK_invent/BTK/process_docking_weight1_custom_product_contain_oxygen_bond_distance_aromatic_linkinvent_7_9_3/rearranged_h_0153.sdf

> <i_m_source_file_index>
46

> <r_mmod_Potential_Energy-OPLS-2005>
-145.245864868164

> <r_mmod_Stretch_Energy-OPLS-2005>
46.8014144897461

> <r_mmod_Bend_Energy-OPLS-2005>
112.106498718262

> <r_mmod_Torsional_Energy-OPLS-2005>
256.558380126953

> <r_mmod_Improper_Torsional_Energy-OPLS-2005>
4.20173025131226

> <r_mmod_Van_der_Waal_Energy-OPLS-2005>
123.328094482422

> <r_mmod_Electrostatic_Energy-OPLS-2005>
-476.637603759766

> <r_mmod_Solvation_Energy-OPLS-2005>
-238.804077148438

> <b_mmod_Minimization_Converged-OPLS-2005>
0

> <r_mmod_RMS_Derivative-OPLS-2005>
7.25411701202393

$$$$
46
                    3D
 Structure written by MMmdl.
155163  0  0  1  0            999 V2000
  -30.5772  -14.7703   20.4484 C   0  0  0  0  0  0
  -30.4462  -12.4759   19.4544 C   0  0  0  0  0  0
  -29.5073  -12.5044   18.2271 C   0  0  0  0  0  0
  -28.0386  -12.3121   18.6526 C   0  0  0  0  0  0
  -27.6399  -13.2233   19.8446 C   0  0  2  0  0  0
  -28.6921  -13.1671   20.9745 C   0  0  0  0  0  0
  -25.2527  -13.8174   20.5701 C   0  0  0  0  0  0
  -24.1812  -13.0429   20.9229 C   0  0  0  0  0  0
  -24.6404  -11.6904   20.8759 C   0  0  0  0  0  0
  -23.9074  -10.4288   21.0419 C   0  0  0  0  0  0
  -24.3629   -9.4203   21.9197 C   0  0  0  0  0  0
  -23.6305   -8.2235   22.0759 C   0  0  0  0  0  0
  -22.4275   -8.0281   21.3560 C   0  0  0  0  0  0
  -21.9921   -9.0255   20.4649 C   0  0  0  0  0  0
  -22.7246  -10.2138   20.3063 C   0  0  0  0  0  0
  -21.6856   -6.0758   22.5287 C   0  0  0  0  0  0
  -21.4013   -6.5647   23.8226 C   0  0  0  0  0  0
  -21.3647   -5.6788   24.9178 C   0  0  0  0  0  0
  -21.6059   -4.3060   24.7216 C   0  0  0  0  0  0
  -21.8809   -3.8164   23.4332 C   0  0  0  0  0  0
  -21.9190   -4.6990   22.3405 C   0  0  0  0  0  0
  -22.7835  -13.5229   21.1885 C   0  0  0  0  0  0
  -22.1659   -4.2171   21.0984 F   0  0  0  0  0  0
  -21.5624   -3.4543   25.7733 F   0  0  0  0  0  0
  -29.9820  -13.5329   20.3765 N   0  0  0  0  0  0
  -26.2940  -12.9357   20.3259 N   0  0  0  0  0  0
  -25.9323  -11.6514   20.5760 N   0  0  0  0  0  0
  -22.0468  -12.8211   22.0421 N   0  0  0  0  0  0
  -25.4201  -15.1904   20.4159 N   0  0  0  0  0  0
  -31.7888  -14.8847   20.2380 O   0  0  0  0  0  0
  -21.6632   -6.8882   21.4245 O   0  0  0  0  0  0
  -22.3525  -14.5550   20.6739 O   0  0  0  0  0  0
  -24.6282  -31.8537   23.1992 C   0  0  0  0  0  0
  -25.9120  -32.4738   23.8318 C   0  0  1  0  0  0
  -27.2144  -27.2494   20.1432 C   0  0  0  0  0  0
  -25.5937  -33.8551   24.2239 N   0  0  0  0  0  0
  -23.4252  -30.4787   21.5426 C   0  0  2  0  0  0
  -24.8764  -28.9252   20.1117 C   0  0  0  0  0  0
  -22.7511  -29.4557   22.4900 C   0  0  0  0  0  0
  -18.0296  -28.1360   22.8451 C   0  0  0  0  0  0
  -24.1501  -36.7287   23.2641 C   0  0  0  0  0  0
  -25.9732  -30.7654   21.3816 C   0  0  0  0  0  0
  -26.0473  -29.3875   20.7248 C   0  0  0  0  0  0
  -27.2194  -28.5622   20.7268 C   0  0  0  0  0  0
  -26.0265  -26.8635   19.4848 C   0  0  0  0  0  0
  -24.8719  -27.6745   19.4754 C   0  0  0  0  0  0
  -23.6473  -29.8158   20.1593 C   0  0  0  0  0  0
  -25.4105  -36.3075   24.0336 C   0  0  1  0  0  0
  -20.5894  -28.3658   23.1265 C   0  0  2  0  0  0
  -20.6791  -26.9383   22.5407 C   0  0  0  0  0  0
  -19.5773  -26.6338   21.5204 C   0  0  0  0  0  0
  -18.1933  -26.7882   22.1599 C   0  0  0  0  0  0
  -19.1553  -28.8823   23.2847 C   0  0  0  0  0  0
  -18.9479  -30.1426   23.8877 C   0  0  0  0  0  0
  -17.6485  -30.6573   24.0543 C   0  0  0  0  0  0
  -25.9049  -34.9438   23.5086 C   0  0  0  0  0  0
  -16.5369  -29.9066   23.6330 C   0  0  0  0  0  0
  -16.7279  -28.6487   23.0330 C   0  0  0  0  0  0
  -26.4493  -31.6583   25.0708 C   0  0  0  0  0  0
  -25.3691  -31.3776   26.1441 C   0  0  0  0  0  0
  -27.0311  -30.3009   24.6155 C   0  0  0  0  0  0
  -27.6049  -32.4323   25.7484 C   0  0  0  0  0  0
  -27.5565  -37.1787   24.8464 C   0  0  0  0  0  0
  -21.4205  -29.3028   22.3687 N   0  0  0  0  0  0
  -26.4272  -37.3767   23.9408 N   0  0  0  0  0  0
  -24.6947  -31.0501   22.0982 N   0  0  0  0  0  0
  -23.4238  -28.8044   23.2929 O   0  0  0  0  0  0
  -28.3051  -26.3438   20.1854 O   0  0  0  0  0  0
  -26.5597  -34.8931   22.4645 O   0  0  0  0  0  0
  -23.5432  -32.1328   23.7321 O   0  0  0  0  0  0
  -29.4178  -18.3869   19.9744 C   0  0  0  0  0  0
  -29.6730  -19.7040   20.5925 C   0  0  0  0  0  0
  -29.8970  -17.2481   20.6599 C   0  0  0  0  0  0
  -30.3066  -19.5372   21.8054 C   0  0  0  0  0  0
  -29.3974  -21.0878   19.9471 C   0  0  0  0  0  0
  -27.9145  -24.8877   22.0824 C   0  0  0  0  0  0
  -29.1369  -23.7537   20.0919 C   0  0  0  0  0  0
  -28.0698  -24.8922   20.5519 C   0  0  2  0  0  0
  -30.7387  -20.4863   22.7281 N   0  0  0  0  0  0
  -29.5651  -21.1571   18.6175 N   0  0  0  0  0  0
  -29.7295  -15.8719   20.4022 N   0  0  0  0  0  0
  -29.0520  -22.2841   20.5889 N   0  3  0  0  0  0
  -30.6511  -17.8334   22.1334 S   0  0  0  0  0  0
  -31.4773  -12.6404   19.1367 H   0  0  0  0  0  0
  -30.4281  -11.4982   19.9398 H   0  0  0  0  0  0
  -29.7916  -11.7278   17.5140 H   0  0  0  0  0  0
  -29.6161  -13.4546   17.7042 H   0  0  0  0  0  0
  -27.9152  -11.2651   18.9342 H   0  0  0  0  0  0
  -27.3722  -12.4780   17.8044 H   0  0  0  0  0  0
  -27.6226  -14.2388   19.4493 H   0  0  0  0  0  0
  -28.7351  -12.1729   21.4209 H   0  0  0  0  0  0
  -28.4256  -13.8567   21.7797 H   0  0  0  0  0  0
  -25.2772   -9.5682   22.4775 H   0  0  0  0  0  0
  -24.0016   -7.4621   22.7479 H   0  0  0  0  0  0
  -21.0853   -8.8787   19.8947 H   0  0  0  0  0  0
  -22.3719  -10.9690   19.6177 H   0  0  0  0  0  0
  -21.1996   -7.6151   23.9733 H   0  0  0  0  0  0
  -21.1481   -6.0524   25.9087 H   0  0  0  0  0  0
  -22.0599   -2.7620   23.2833 H   0  0  0  0  0  0
  -22.4065  -11.9860   22.4790 H   0  0  0  0  0  0
  -21.1107  -13.1265   22.2639 H   0  0  0  0  0  0
  -24.6495  -15.8390   20.5380 H   0  0  0  0  0  0
  -26.2663  -15.6428   20.0989 H   0  0  0  0  0  0
  -26.7172  -32.5396   23.1030 H   0  0  0  0  0  0
  -25.0189  -33.9713   25.0454 H   0  0  0  0  0  0
  -22.7181  -31.2978   21.3909 H   0  0  0  0  0  0
  -23.3802  -35.9585   23.3288 H   0  0  0  0  0  0
  -24.3603  -36.8913   22.2060 H   0  0  0  0  0  0
  -23.7216  -37.6465   23.6661 H   0  0  0  0  0  0
  -26.1019  -31.5265   20.6081 H   0  0  0  0  0  0
  -26.8562  -30.8182   22.0063 H   0  0  0  0  0  0
  -28.1160  -28.9027   21.2262 H   0  0  0  0  0  0
  -25.9707  -25.9162   18.9747 H   0  0  0  0  0  0
  -23.9800  -27.3232   18.9761 H   0  0  0  0  0  0
  -23.7829  -30.5954   19.4116 H   0  0  0  0  0  0
  -22.7621  -29.2578   19.8456 H   0  0  0  0  0  0
  -25.1286  -36.1925   25.0830 H   0  0  0  0  0  0
  -20.9960  -28.3232   24.1401 H   0  0  0  0  0  0
  -20.5698  -26.2258   23.3590 H   0  0  0  0  0  0
  -21.6638  -26.7378   22.1186 H   0  0  0  0  0  0
  -19.6959  -25.6258   21.1224 H   0  0  0  0  0  0
  -19.6755  -27.3151   20.6729 H   0  0  0  0  0  0
  -17.4213  -26.6649   21.4016 H   0  0  0  0  0  0
  -18.0349  -26.0016   22.8994 H   0  0  0  0  0  0
  -19.7977  -30.7230   24.2242 H   0  0  0  0  0  0
  -17.5062  -31.6255   24.5129 H   0  0  0  0  0  0
  -15.5381  -30.2977   23.7662 H   0  0  0  0  0  0
  -15.8662  -28.0819   22.7030 H   0  0  0  0  0  0
  -24.5911  -30.7049   25.7791 H   0  0  0  0  0  0
  -24.8838  -32.2986   26.4744 H   0  0  0  0  0  0
  -25.8020  -30.9071   27.0298 H   0  0  0  0  0  0
  -26.2863  -29.6792   24.1165 H   0  0  0  0  0  0
  -27.4014  -29.7231   25.4630 H   0  0  0  0  0  0
  -27.8740  -30.4324   23.9363 H   0  0  0  0  0  0
  -27.2687  -33.3717   26.1928 H   0  0  0  0  0  0
  -28.3952  -32.6713   25.0352 H   0  0  0  0  0  0
  -28.0587  -31.8497   26.5534 H   0  0  0  0  0  0
  -28.2537  -38.0121   24.7506 H   0  0  0  0  0  0
  -28.1120  -36.2633   24.6293 H   0  0  0  0  0  0
  -27.2310  -37.1424   25.8883 H   0  0  0  0  0  0
  -20.9386  -29.8817   21.6956 H   0  0  0  0  0  0
  -26.0195  -38.2848   24.1470 H   0  0  0  0  0  0
  -28.8958  -18.3280   19.0293 H   0  0  0  0  0  0
  -27.5646  -23.9217   22.4425 H   0  0  0  0  0  0
  -27.1859  -25.6305   22.4130 H   0  0  0  0  0  0
  -28.8597  -25.1029   22.5801 H   0  0  0  0  0  0
  -30.1247  -24.1011   20.3917 H   0  0  0  0  0  0
  -29.1526  -23.7449   19.0026 H   0  0  0  0  0  0
  -27.1163  -24.5690   20.1358 H   0  0  0  0  0  0
  -31.4580  -21.1114   22.3762 H   0  0  0  0  0  0
  -31.0765  -20.0902   23.6032 H   0  0  0  0  0  0
  -29.8644  -20.3413   18.1019 H   0  0  0  0  0  0
  -29.4359  -22.0035   18.0900 H   0  0  0  0  0  0
  -28.7759  -15.6002   20.2213 H   0  0  0  0  0  0
  -28.9542  -22.1927   21.5930 H   0  0  0  0  0  0
  1 25  1  0  0  0
  1 30  2  0  0  0
  1 81  1  0  0  0
  2  3  1  0  0  0
  2 25  1  0  0  0
  2 84  1  0  0  0
  2 85  1  0  0  0
  3  4  1  0  0  0
  3 86  1  0  0  0
  3 87  1  0  0  0
  4  5  1  0  0  0
  4 88  1  0  0  0
  4 89  1  0  0  0
  5  6  1  0  0  0
  5 26  1  0  0  0
  5 90  1  0  0  0
  6 25  1  0  0  0
  6 91  1  0  0  0
  6 92  1  0  0  0
  7  8  2  0  0  0
  7 26  1  0  0  0
  7 29  1  0  0  0
  8  9  1  0  0  0
  8 22  1  0  0  0
  9 10  1  0  0  0
  9 27  2  0  0  0
 10 11  2  0  0  0
 10 15  1  0  0  0
 11 12  1  0  0  0
 11 93  1  0  0  0
 12 13  2  0  0  0
 12 94  1  0  0  0
 13 14  1  0  0  0
 13 31  1  0  0  0
 14 15  2  0  0  0
 14 95  1  0  0  0
 15 96  1  0  0  0
 16 17  2  0  0  0
 16 21  1  0  0  0
 16 31  1  0  0  0
 17 18  1  0  0  0
 17 97  1  0  0  0
 18 19  2  0  0  0
 18 98  1  0  0  0
 19 20  1  0  0  0
 19 24  1  0  0  0
 20 21  2  0  0  0
 20 99  1  0  0  0
 21 23  1  0  0  0
 22 28  1  0  0  0
 22 32  2  0  0  0
 26 27  1  0  0  0
 28100  1  0  0  0
 28101  1  0  0  0
 29102  1  0  0  0
 29103  1  0  0  0
 33 34  1  0  0  0
 33 66  1  0  0  0
 33 70  2  0  0  0
 34 36  1  0  0  0
 34 59  1  0  0  0
 34104  1  0  0  0
 35 44  2  0  0  0
 35 45  1  0  0  0
 35 68  1  0  0  0
 36 56  1  0  0  0
 36105  1  0  0  0
 37 39  1  0  0  0
 37 47  1  0  0  0
 37 66  1  0  0  0
 37106  1  0  0  0
 38 43  2  0  0  0
 38 46  1  0  0  0
 38 47  1  0  0  0
 39 64  1  0  0  0
 39 67  2  0  0  0
 40 52  1  0  0  0
 40 53  2  0  0  0
 40 58  1  0  0  0
 41107  1  0  0  0
 41108  1  0  0  0
 41109  1  0  0  0
 41 48  1  0  0  0
 42 43  1  0  0  0
 42 66  1  0  0  0
 42110  1  0  0  0
 42111  1  0  0  0
 43 44  1  0  0  0
 44112  1  0  0  0
 45 46  2  0  0  0
 45113  1  0  0  0
 46114  1  0  0  0
 47115  1  0  0  0
 47116  1  0  0  0
 48 56  1  0  0  0
 48 65  1  0  0  0
 48117  1  0  0  0
 49 50  1  0  0  0
 49 53  1  0  0  0
 49 64  1  0  0  0
 49118  1  0  0  0
 50 51  1  0  0  0
 50119  1  0  0  0
 50120  1  0  0  0
 51 52  1  0  0  0
 51121  1  0  0  0
 51122  1  0  0  0
 52123  1  0  0  0
 52124  1  0  0  0
 53 54  1  0  0  0
 54 55  2  0  0  0
 54125  1  0  0  0
 55 57  1  0  0  0
 55126  1  0  0  0
 56 69  2  0  0  0
 57 58  2  0  0  0
 57127  1  0  0  0
 58128  1  0  0  0
 59 60  1  0  0  0
 59 61  1  0  0  0
 59 62  1  0  0  0
 60129  1  0  0  0
 60130  1  0  0  0
 60131  1  0  0  0
 61132  1  0  0  0
 61133  1  0  0  0
 61134  1  0  0  0
 62135  1  0  0  0
 62136  1  0  0  0
 62137  1  0  0  0
 63 65  1  0  0  0
 63138  1  0  0  0
 63139  1  0  0  0
 63140  1  0  0  0
 64141  1  0  0  0
 65142  1  0  0  0
 68 78  1  0  0  0
 71 72  1  0  0  0
 71 73  2  0  0  0
 71143  1  0  0  0
 72 74  2  0  0  0
 72 75  1  0  0  0
 73 81  1  0  0  0
 73 83  1  0  0  0
 74 79  1  0  0  0
 74 83  1  0  0  0
 75 80  1  0  0  0
 75 82  2  0  0  0
 76144  1  0  0  0
 76145  1  0  0  0
 76146  1  0  0  0
 76 78  1  0  0  0
 77 78  1  0  0  0
 77 82  1  0  0  0
 77147  1  0  0  0
 77148  1  0  0  0
 78149  1  0  0  0
 79150  1  0  0  0
 79151  1  0  0  0
 80152  1  0  0  0
 80153  1  0  0  0
 81154  1  0  0  0
 82155  1  0  0  0
M  CHG  1  82   1
M  ISO  4   1 100  68 101  78 101  81 100
M  END
> <chiral flag>
0

> <version>
0

> <s_m_source_file>
/data/baiqing/PycharmProjects/Reinvent-master-3.2/result/LINK_invent/BTK/process_docking_weight1_custom_product_contain_oxygen_bond_distance_aromatic_linkinvent_7_9_3/rearranged_h_0153.sdf

> <i_m_source_file_index>
47

> <r_mmod_Potential_Energy-OPLS-2005>
83.6210556030273

> <r_mmod_Stretch_Energy-OPLS-2005>
126.452430725098

> <r_mmod_Bend_Energy-OPLS-2005>
167.154739379883

> <r_mmod_Torsional_Energy-OPLS-2005>
259.72412109375

> <r_mmod_Improper_Torsional_Energy-OPLS-2005>
16.4669551849365

> <r_mmod_Van_der_Waal_Energy-OPLS-2005>
114.35620880127

> <r_mmod_Electrostatic_Energy-OPLS-2005>
-226.449569702148

> <r_mmod_Solvation_Energy-OPLS-2005>
-473.024566650391

> <b_mmod_Minimization_Converged-OPLS-2005>
0

> <r_mmod_RMS_Derivative-OPLS-2005>
4.77839994430542

$$$$
47
                    3D
 Structure written by MMmdl.
157166  0  0  1  0            999 V2000
  -30.6222  -14.7337   20.4543 C   0  0  0  0  0  0
  -30.4375  -12.4458   19.4698 C   0  0  0  0  0  0
  -29.5111  -12.4957   18.2343 C   0  0  0  0  0  0
  -28.0380  -12.3178   18.6528 C   0  0  0  0  0  0
  -27.6446  -13.2263   19.8475 C   0  0  2  0  0  0
  -28.6920  -13.1635   20.9827 C   0  0  0  0  0  0
  -25.2544  -13.8188   20.5698 C   0  0  0  0  0  0
  -24.1826  -13.0448   20.9216 C   0  0  0  0  0  0
  -24.6400  -11.6922   20.8755 C   0  0  0  0  0  0
  -23.9069  -10.4297   21.0410 C   0  0  0  0  0  0
  -24.3625   -9.4203   21.9177 C   0  0  0  0  0  0
  -23.6304   -8.2237   22.0740 C   0  0  0  0  0  0
  -22.4283   -8.0278   21.3540 C   0  0  0  0  0  0
  -21.9915   -9.0251   20.4640 C   0  0  0  0  0  0
  -22.7243  -10.2130   20.3056 C   0  0  0  0  0  0
  -21.6851   -6.0739   22.5283 C   0  0  0  0  0  0
  -21.4012   -6.5645   23.8215 C   0  0  0  0  0  0
  -21.3659   -5.6795   24.9179 C   0  0  0  0  0  0
  -21.6044   -4.3057   24.7228 C   0  0  0  0  0  0
  -21.8823   -3.8149   23.4347 C   0  0  0  0  0  0
  -21.9194   -4.6967   22.3405 C   0  0  0  0  0  0
  -22.7850  -13.5229   21.1875 C   0  0  0  0  0  0
  -22.1665   -4.2153   21.0979 F   0  0  0  0  0  0
  -21.5627   -3.4536   25.7735 F   0  0  0  0  0  0
  -29.9959  -13.5083   20.4007 N   0  0  0  0  0  0
  -26.2963  -12.9383   20.3278 N   0  0  0  0  0  0
  -25.9329  -11.6535   20.5754 N   0  0  0  0  0  0
  -22.0501  -12.8207   22.0428 N   0  0  0  0  0  0
  -25.4251  -15.1909   20.4114 N   0  0  0  0  0  0
  -31.8131  -14.8269   20.1409 O   0  0  0  0  0  0
  -21.6644   -6.8879   21.4237 O   0  0  0  0  0  0
  -22.3536  -14.5522   20.6708 O   0  0  0  0  0  0
  -24.6333  -31.8550   23.1989 C   0  0  0  0  0  0
  -25.9158  -32.4753   23.8333 C   0  0  1  0  0  0
  -27.2227  -27.2560   20.1245 C   0  0  0  0  0  0
  -25.5963  -33.8554   24.2260 N   0  0  0  0  0  0
  -23.4306  -30.4782   21.5426 C   0  0  2  0  0  0
  -24.8798  -28.9323   20.1072 C   0  0  0  0  0  0
  -22.7508  -29.4600   22.4904 C   0  0  0  0  0  0
  -18.0289  -28.1394   22.8488 C   0  0  0  0  0  0
  -24.1491  -36.7276   23.2633 C   0  0  0  0  0  0
  -25.9789  -30.7649   21.3836 C   0  0  0  0  0  0
  -26.0514  -29.3885   20.7233 C   0  0  0  0  0  0
  -27.2235  -28.5625   20.7255 C   0  0  0  0  0  0
  -26.0280  -26.8856   19.4593 C   0  0  0  0  0  0
  -24.8730  -27.6878   19.4648 C   0  0  0  0  0  0
  -23.6495  -29.8164   20.1577 C   0  0  0  0  0  0
  -25.4116  -36.3057   24.0322 C   0  0  1  0  0  0
  -20.5901  -28.3707   23.1265 C   0  0  2  0  0  0
  -20.6782  -26.9416   22.5406 C   0  0  0  0  0  0
  -19.5750  -26.6389   21.5218 C   0  0  0  0  0  0
  -18.1933  -26.7945   22.1622 C   0  0  0  0  0  0
  -19.1547  -28.8868   23.2868 C   0  0  0  0  0  0
  -18.9466  -30.1473   23.8875 C   0  0  0  0  0  0
  -17.6463  -30.6596   24.0560 C   0  0  0  0  0  0
  -25.9064  -34.9436   23.5088 C   0  0  0  0  0  0
  -16.5354  -29.9091   23.6346 C   0  0  0  0  0  0
  -16.7277  -28.6514   23.0361 C   0  0  0  0  0  0
  -26.4519  -31.6579   25.0725 C   0  0  0  0  0  0
  -25.3752  -31.3799   26.1468 C   0  0  0  0  0  0
  -27.0330  -30.2974   24.6241 C   0  0  0  0  0  0
  -27.6100  -32.4307   25.7473 C   0  0  0  0  0  0
  -27.5584  -37.1767   24.8451 C   0  0  0  0  0  0
  -21.4219  -29.3046   22.3650 N   0  0  0  0  0  0
  -26.4281  -37.3764   23.9423 N   0  0  0  0  0  0
  -24.6997  -31.0507   22.0976 N   0  0  0  0  0  0
  -23.4201  -28.8147   23.3009 O   0  0  0  0  0  0
  -28.3009  -26.3334   20.2062 O   0  0  0  0  0  0
  -26.5602  -34.8911   22.4636 O   0  0  0  0  0  0
  -23.5476  -32.1376   23.7277 O   0  0  0  0  0  0
  -31.3228  -17.8845   20.3883 C   0  0  0  0  0  0
  -31.2705  -19.3323   20.3690 C   0  0  0  0  0  0
  -30.0230  -19.9269   20.5098 C   0  0  0  0  0  0
  -30.1148  -17.2383   20.5533 C   0  0  0  0  0  0
  -29.8719  -23.6503   21.3017 C   0  0  0  0  0  0
  -28.9165  -23.6701   20.3670 C   0  0  0  0  0  0
  -32.5254  -20.0757   20.1953 C   0  0  0  0  0  0
  -30.4195  -22.2474   21.5588 C   0  0  0  0  0  0
  -28.7252  -22.1932   19.8822 C   0  0  0  0  0  0
  -28.0267  -24.8896   19.8662 C   0  0  0  0  0  0
  -29.6814  -21.3431   20.6617 N   0  0  0  0  0  0
  -33.6052  -19.7532   20.9185 N   0  0  0  0  0  0
  -29.8343  -15.8603   20.6496 N   0  0  0  0  0  0
  -32.6241  -21.0571   19.2914 N   0  3  0  0  0  0
  -28.8769  -18.5516   20.6305 S   0  0  0  0  0  0
  -31.4777  -12.5711   19.1649 H   0  0  0  0  0  0
  -30.3853  -11.4698   19.9547 H   0  0  0  0  0  0
  -29.7917  -11.7191   17.5210 H   0  0  0  0  0  0
  -29.6350  -13.4476   17.7164 H   0  0  0  0  0  0
  -27.9011  -11.2708   18.9272 H   0  0  0  0  0  0
  -27.3756  -12.4956   17.8053 H   0  0  0  0  0  0
  -27.6377  -14.2442   19.4576 H   0  0  0  0  0  0
  -28.7256  -12.1683   21.4274 H   0  0  0  0  0  0
  -28.4287  -13.8489   21.7890 H   0  0  0  0  0  0
  -25.2776   -9.5686   22.4740 H   0  0  0  0  0  0
  -24.0023   -7.4619   22.7445 H   0  0  0  0  0  0
  -21.0847   -8.8768   19.8943 H   0  0  0  0  0  0
  -22.3698  -10.9670   19.6162 H   0  0  0  0  0  0
  -21.2001   -7.6157   23.9720 H   0  0  0  0  0  0
  -21.1475   -6.0527   25.9080 H   0  0  0  0  0  0
  -22.0597   -2.7616   23.2842 H   0  0  0  0  0  0
  -22.4127  -11.9877   22.4830 H   0  0  0  0  0  0
  -21.1117  -13.1226   22.2627 H   0  0  0  0  0  0
  -24.6573  -15.8451   20.5172 H   0  0  0  0  0  0
  -26.2684  -15.6268   20.0626 H   0  0  0  0  0  0
  -26.7223  -32.5399   23.1075 H   0  0  0  0  0  0
  -25.0177  -33.9698   25.0451 H   0  0  0  0  0  0
  -22.7274  -31.3010   21.3977 H   0  0  0  0  0  0
  -23.3768  -35.9593   23.3278 H   0  0  0  0  0  0
  -24.3601  -36.8903   22.2051 H   0  0  0  0  0  0
  -23.7216  -37.6463   23.6667 H   0  0  0  0  0  0
  -26.1208  -31.5279   20.6162 H   0  0  0  0  0  0
  -26.8546  -30.8119   22.0185 H   0  0  0  0  0  0
  -28.1155  -28.9052   21.2310 H   0  0  0  0  0  0
  -25.9411  -25.9477   18.9324 H   0  0  0  0  0  0
  -23.9800  -27.3350   18.9668 H   0  0  0  0  0  0
  -23.7681  -30.5941   19.4019 H   0  0  0  0  0  0
  -22.7696  -29.2466   19.8544 H   0  0  0  0  0  0
  -25.1288  -36.1885   25.0813 H   0  0  0  0  0  0
  -20.9990  -28.3271   24.1385 H   0  0  0  0  0  0
  -20.5692  -26.2308   23.3623 H   0  0  0  0  0  0
  -21.6641  -26.7440   22.1191 H   0  0  0  0  0  0
  -19.6909  -25.6294   21.1258 H   0  0  0  0  0  0
  -19.6703  -27.3191   20.6741 H   0  0  0  0  0  0
  -17.4213  -26.6714   21.4014 H   0  0  0  0  0  0
  -18.0310  -26.0085   22.9016 H   0  0  0  0  0  0
  -19.7939  -30.7301   24.2227 H   0  0  0  0  0  0
  -17.5023  -31.6274   24.5161 H   0  0  0  0  0  0
  -15.5356  -30.2983   23.7702 H   0  0  0  0  0  0
  -15.8677  -28.0825   22.7075 H   0  0  0  0  0  0
  -24.5869  -30.7200   25.7832 H   0  0  0  0  0  0
  -24.9023  -32.3012   26.4881 H   0  0  0  0  0  0
  -25.8067  -30.8977   27.0253 H   0  0  0  0  0  0
  -26.2896  -29.6731   24.1281 H   0  0  0  0  0  0
  -27.3986  -29.7230   25.4763 H   0  0  0  0  0  0
  -27.8806  -30.4197   23.9500 H   0  0  0  0  0  0
  -27.2737  -33.3648   26.1990 H   0  0  0  0  0  0
  -28.3944  -32.6789   25.0308 H   0  0  0  0  0  0
  -28.0746  -31.8460   26.5423 H   0  0  0  0  0  0
  -28.2564  -38.0098   24.7538 H   0  0  0  0  0  0
  -28.1107  -36.2627   24.6218 H   0  0  0  0  0  0
  -27.2327  -37.1333   25.8858 H   0  0  0  0  0  0
  -20.9404  -29.8777   21.6866 H   0  0  0  0  0  0
  -26.0153  -38.2825   24.1476 H   0  0  0  0  0  0
  -32.2707  -17.3771   20.2805 H   0  0  0  0  0  0
  -30.2151  -24.5088   21.8608 H   0  0  0  0  0  0
  -30.2428  -21.9698   22.6000 H   0  0  0  0  0  0
  -31.4939  -22.2245   21.3767 H   0  0  0  0  0  0
  -28.9341  -22.1257   18.8140 H   0  0  0  0  0  0
  -27.6970  -21.8716   20.0507 H   0  0  0  0  0  0
  -27.0376  -24.6254   20.2418 H   0  0  0  0  0  0
  -27.9821  -24.8133   18.7799 H   0  0  0  0  0  0
  -33.5353  -19.0369   21.6267 H   0  0  0  0  0  0
  -34.4961  -20.2135   20.8252 H   0  0  0  0  0  0
  -28.8690  -15.6376   20.8381 H   0  0  0  0  0  0
  -31.8018  -21.3095   18.7623 H   0  0  0  0  0  0
  -33.4755  -21.5620   19.1063 H   0  0  0  0  0  0
  1 25  1  0  0  0
  1 30  2  0  0  0
  1 83  1  0  0  0
  2  3  1  0  0  0
  2 25  1  0  0  0
  2 86  1  0  0  0
  2 87  1  0  0  0
  3  4  1  0  0  0
  3 88  1  0  0  0
  3 89  1  0  0  0
  4  5  1  0  0  0
  4 90  1  0  0  0
  4 91  1  0  0  0
  5  6  1  0  0  0
  5 26  1  0  0  0
  5 92  1  0  0  0
  6 25  1  0  0  0
  6 93  1  0  0  0
  6 94  1  0  0  0
  7  8  2  0  0  0
  7 26  1  0  0  0
  7 29  1  0  0  0
  8  9  1  0  0  0
  8 22  1  0  0  0
  9 10  1  0  0  0
  9 27  2  0  0  0
 10 11  2  0  0  0
 10 15  1  0  0  0
 11 12  1  0  0  0
 11 95  1  0  0  0
 12 13  2  0  0  0
 12 96  1  0  0  0
 13 14  1  0  0  0
 13 31  1  0  0  0
 14 15  2  0  0  0
 14 97  1  0  0  0
 15 98  1  0  0  0
 16 17  2  0  0  0
 16 21  1  0  0  0
 16 31  1  0  0  0
 17 18  1  0  0  0
 17 99  1  0  0  0
 18 19  2  0  0  0
 18100  1  0  0  0
 19 20  1  0  0  0
 19 24  1  0  0  0
 20 21  2  0  0  0
 20101  1  0  0  0
 21 23  1  0  0  0
 22 28  1  0  0  0
 22 32  2  0  0  0
 26 27  1  0  0  0
 28102  1  0  0  0
 28103  1  0  0  0
 29104  1  0  0  0
 29105  1  0  0  0
 33 34  1  0  0  0
 33 66  1  0  0  0
 33 70  2  0  0  0
 34 36  1  0  0  0
 34 59  1  0  0  0
 34106  1  0  0  0
 35 44  2  0  0  0
 35 45  1  0  0  0
 35 68  1  0  0  0
 36 56  1  0  0  0
 36107  1  0  0  0
 37 39  1  0  0  0
 37 47  1  0  0  0
 37 66  1  0  0  0
 37108  1  0  0  0
 38 43  2  0  0  0
 38 46  1  0  0  0
 38 47  1  0  0  0
 39 64  1  0  0  0
 39 67  2  0  0  0
 40 52  1  0  0  0
 40 53  2  0  0  0
 40 58  1  0  0  0
 41109  1  0  0  0
 41110  1  0  0  0
 41111  1  0  0  0
 41 48  1  0  0  0
 42 43  1  0  0  0
 42 66  1  0  0  0
 42112  1  0  0  0
 42113  1  0  0  0
 43 44  1  0  0  0
 44114  1  0  0  0
 45 46  2  0  0  0
 45115  1  0  0  0
 46116  1  0  0  0
 47117  1  0  0  0
 47118  1  0  0  0
 48 56  1  0  0  0
 48 65  1  0  0  0
 48119  1  0  0  0
 49 50  1  0  0  0
 49 53  1  0  0  0
 49 64  1  0  0  0
 49120  1  0  0  0
 50 51  1  0  0  0
 50121  1  0  0  0
 50122  1  0  0  0
 51 52  1  0  0  0
 51123  1  0  0  0
 51124  1  0  0  0
 52125  1  0  0  0
 52126  1  0  0  0
 53 54  1  0  0  0
 54 55  2  0  0  0
 54127  1  0  0  0
 55 57  1  0  0  0
 55128  1  0  0  0
 56 69  2  0  0  0
 57 58  2  0  0  0
 57129  1  0  0  0
 58130  1  0  0  0
 59 60  1  0  0  0
 59 61  1  0  0  0
 59 62  1  0  0  0
 60131  1  0  0  0
 60132  1  0  0  0
 60133  1  0  0  0
 61134  1  0  0  0
 61135  1  0  0  0
 61136  1  0  0  0
 62137  1  0  0  0
 62138  1  0  0  0
 62139  1  0  0  0
 63 65  1  0  0  0
 63140  1  0  0  0
 63141  1  0  0  0
 63142  1  0  0  0
 64143  1  0  0  0
 65144  1  0  0  0
 68 80  1  0  0  0
 71 72  1  0  0  0
 71 74  2  0  0  0
 71145  1  0  0  0
 72 73  2  0  0  0
 72 77  1  0  0  0
 73 81  1  0  0  0
 73 85  1  0  0  0
 74 83  1  0  0  0
 74 85  1  0  0  0
 75 76  2  0  0  0
 75 78  1  0  0  0
 75146  1  0  0  0
 76 79  1  0  0  0
 76 80  1  0  0  0
 77 82  1  0  0  0
 77 84  2  0  0  0
 78 81  1  0  0  0
 78147  1  0  0  0
 78148  1  0  0  0
 79 81  1  0  0  0
 79149  1  0  0  0
 79150  1  0  0  0
 80151  1  0  0  0
 80152  1  0  0  0
 82153  1  0  0  0
 82154  1  0  0  0
 83155  1  0  0  0
 84156  1  0  0  0
 84157  1  0  0  0
M  CHG  1  84   1
M  ISO  4   1 100  68 101  80 101  83 100
M  END
> <chiral flag>
0

> <version>
0

> <s_m_source_file>
/data/baiqing/PycharmProjects/Reinvent-master-3.2/result/LINK_invent/BTK/process_docking_weight1_custom_product_contain_oxygen_bond_distance_aromatic_linkinvent_7_9_3/rearranged_h_0153.sdf

> <i_m_source_file_index>
48

> <r_mmod_Potential_Energy-OPLS-2005>
34.604736328125

> <r_mmod_Stretch_Energy-OPLS-2005>
109.912696838379

> <r_mmod_Bend_Energy-OPLS-2005>
232.280960083008

> <r_mmod_Torsional_Energy-OPLS-2005>
223.52946472168

> <r_mmod_Improper_Torsional_Energy-OPLS-2005>
5.5167031288147

> <r_mmod_Van_der_Waal_Energy-OPLS-2005>
118.807075500488

> <r_mmod_Electrostatic_Energy-OPLS-2005>
-259.55419921875

> <r_mmod_Solvation_Energy-OPLS-2005>
-483.739898681641

> <b_mmod_Minimization_Converged-OPLS-2005>
0

> <r_mmod_RMS_Derivative-OPLS-2005>
1.89948451519012

$$$$
48
                    3D
 Structure written by MMmdl.
150158  0  0  1  0            999 V2000
  -30.5708  -14.7083   20.5070 C   0  0  0  0  0  0
  -30.4539  -12.4387   19.4562 C   0  0  0  0  0  0
  -29.5149  -12.5227   18.2294 C   0  0  0  0  0  0
  -28.0384  -12.3461   18.6409 C   0  0  0  0  0  0
  -27.6551  -13.2159   19.8666 C   0  0  2  0  0  0
  -28.7011  -13.0683   20.9947 C   0  0  0  0  0  0
  -25.2572  -13.8158   20.5682 C   0  0  0  0  0  0
  -24.1837  -13.0433   20.9194 C   0  0  0  0  0  0
  -24.6403  -11.6903   20.8744 C   0  0  0  0  0  0
  -23.9069  -10.4290   21.0408 C   0  0  0  0  0  0
  -24.3618   -9.4202   21.9183 C   0  0  0  0  0  0
  -23.6289   -8.2241   22.0756 C   0  0  0  0  0  0
  -22.4270   -8.0283   21.3546 C   0  0  0  0  0  0
  -21.9908   -9.0259   20.4651 C   0  0  0  0  0  0
  -22.7241  -10.2136   20.3059 C   0  0  0  0  0  0
  -21.6854   -6.0735   22.5278 C   0  0  0  0  0  0
  -21.4017   -6.5640   23.8210 C   0  0  0  0  0  0
  -21.3658   -5.6794   24.9174 C   0  0  0  0  0  0
  -21.6042   -4.3057   24.7225 C   0  0  0  0  0  0
  -21.8818   -3.8148   23.4348 C   0  0  0  0  0  0
  -21.9192   -4.6963   22.3404 C   0  0  0  0  0  0
  -22.7860  -13.5233   21.1853 C   0  0  0  0  0  0
  -22.1661   -4.2146   21.0982 F   0  0  0  0  0  0
  -21.5628   -3.4540   25.7739 F   0  0  0  0  0  0
  -30.0108  -13.4525   20.4378 N   0  0  0  0  0  0
  -26.3002  -12.9338   20.3329 N   0  0  0  0  0  0
  -25.9332  -11.6496   20.5761 N   0  0  0  0  0  0
  -22.0503  -12.8227   22.0412 N   0  0  0  0  0  0
  -25.4289  -15.1874   20.4063 N   0  0  0  0  0  0
  -31.7147  -14.9209   20.0913 O   0  0  0  0  0  0
  -21.6640   -6.8877   21.4239 O   0  0  0  0  0  0
  -22.3547  -14.5538   20.6698 O   0  0  0  0  0  0
  -24.6297  -31.8565   23.1999 C   0  0  0  0  0  0
  -25.9125  -32.4765   23.8341 C   0  0  1  0  0  0
  -27.2238  -27.2794   20.1294 C   0  0  0  0  0  0
  -25.5923  -33.8566   24.2262 N   0  0  0  0  0  0
  -23.4265  -30.4790   21.5433 C   0  0  2  0  0  0
  -24.8757  -28.9291   20.1123 C   0  0  0  0  0  0
  -22.7500  -29.4603   22.4922 C   0  0  0  0  0  0
  -18.0292  -28.1388   22.8487 C   0  0  0  0  0  0
  -24.1490  -36.7292   23.2638 C   0  0  0  0  0  0
  -25.9714  -30.7749   21.3783 C   0  0  0  0  0  0
  -26.0466  -29.3984   20.7219 C   0  0  0  0  0  0
  -27.2257  -28.5866   20.7192 C   0  0  0  0  0  0
  -26.0344  -26.8807   19.4800 C   0  0  0  0  0  0
  -24.8739  -27.6771   19.4797 C   0  0  0  0  0  0
  -23.6451  -29.8134   20.1595 C   0  0  0  0  0  0
  -25.4116  -36.3076   24.0326 C   0  0  1  0  0  0
  -20.5895  -28.3694   23.1277 C   0  0  2  0  0  0
  -20.6782  -26.9413   22.5412 C   0  0  0  0  0  0
  -19.5756  -26.6385   21.5215 C   0  0  0  0  0  0
  -18.1937  -26.7929   22.1629 C   0  0  0  0  0  0
  -19.1545  -28.8859   23.2876 C   0  0  0  0  0  0
  -18.9464  -30.1460   23.8893 C   0  0  0  0  0  0
  -17.6462  -30.6588   24.0563 C   0  0  0  0  0  0
  -25.9052  -34.9445   23.5097 C   0  0  0  0  0  0
  -16.5355  -29.9086   23.6328 C   0  0  0  0  0  0
  -16.7278  -28.6504   23.0349 C   0  0  0  0  0  0
  -26.4499  -31.6586   25.0723 C   0  0  0  0  0  0
  -25.3723  -31.3739   26.1445 C   0  0  0  0  0  0
  -27.0344  -30.3003   24.6201 C   0  0  0  0  0  0
  -27.6054  -32.4324   25.7495 C   0  0  0  0  0  0
  -27.5580  -37.1802   24.8463 C   0  0  0  0  0  0
  -21.4208  -29.3043   22.3669 N   0  0  0  0  0  0
  -26.4294  -37.3771   23.9405 N   0  0  0  0  0  0
  -24.6948  -31.0541   22.0971 N   0  0  0  0  0  0
  -23.4206  -28.8138   23.3012 O   0  0  0  0  0  0
  -28.3101  -26.3792   20.1644 O   0  0  0  0  0  0
  -26.5623  -34.8916   22.4666 O   0  0  0  0  0  0
  -23.5449  -32.1376   23.7302 O   0  0  0  0  0  0
  -28.6352  -17.7654   21.6668 C   0  0  0  0  0  0
  -29.6059  -17.0911   20.9368 C   0  0  0  0  0  0
  -29.4330  -19.6852   20.6336 C   0  0  0  0  0  0
  -28.9731  -23.7718   20.2072 C   0  0  0  0  0  0
  -27.6485  -17.1458   22.6134 C   0  0  0  0  0  0
  -28.6268  -22.2893   20.6970 C   0  0  0  0  0  0
  -27.9916  -24.9741   20.5917 C   0  0  0  0  0  0
  -28.5515  -19.1676   21.4890 N   0  0  0  0  0  0
  -29.7249  -15.6923   20.9688 N   0  0  0  0  0  0
  -29.4734  -21.0905   20.3138 N   0  0  0  0  0  0
  -29.9908  -23.9683   19.5343 O   0  0  0  0  0  0
  -30.4799  -18.3449   19.9916 S   0  0  0  0  0  0
  -31.4895  -12.5959   19.1500 H   0  0  0  0  0  0
  -30.4220  -11.4424   19.8998 H   0  0  0  0  0  0
  -29.7901  -11.7677   17.4918 H   0  0  0  0  0  0
  -29.6417  -13.4888   17.7385 H   0  0  0  0  0  0
  -27.8834  -11.2923   18.8749 H   0  0  0  0  0  0
  -27.3815  -12.5693   17.7991 H   0  0  0  0  0  0
  -27.6714  -14.2513   19.5261 H   0  0  0  0  0  0
  -28.7317  -12.0382   21.3530 H   0  0  0  0  0  0
  -28.4288  -13.6682   21.8638 H   0  0  0  0  0  0
  -25.2764   -9.5674   22.4755 H   0  0  0  0  0  0
  -23.9997   -7.4632   22.7474 H   0  0  0  0  0  0
  -21.0839   -8.8783   19.8957 H   0  0  0  0  0  0
  -22.3702  -10.9678   19.6171 H   0  0  0  0  0  0
  -21.2014   -7.6149   23.9712 H   0  0  0  0  0  0
  -21.1480   -6.0527   25.9075 H   0  0  0  0  0  0
  -22.0599   -2.7610   23.2851 H   0  0  0  0  0  0
  -22.4120  -11.9886   22.4794 H   0  0  0  0  0  0
  -21.1124  -13.1257   22.2626 H   0  0  0  0  0  0
  -24.6530  -15.8348   20.4913 H   0  0  0  0  0  0
  -26.2630  -15.6176   20.0290 H   0  0  0  0  0  0
  -26.7190  -32.5425   23.1083 H   0  0  0  0  0  0
  -25.0061  -33.9706   25.0402 H   0  0  0  0  0  0
  -22.7218  -31.3005   21.3977 H   0  0  0  0  0  0
  -23.3749  -35.9629   23.3304 H   0  0  0  0  0  0
  -24.3579  -36.8911   22.2052 H   0  0  0  0  0  0
  -23.7250  -37.6498   23.6660 H   0  0  0  0  0  0
  -26.1066  -31.5350   20.6076 H   0  0  0  0  0  0
  -26.8501  -30.8256   22.0097 H   0  0  0  0  0  0
  -28.1216  -28.9409   21.2096 H   0  0  0  0  0  0
  -25.9841  -25.9324   18.9655 H   0  0  0  0  0  0
  -23.9813  -27.3162   18.9872 H   0  0  0  0  0  0
  -23.7690  -30.5898   19.4037 H   0  0  0  0  0  0
  -22.7643  -29.2457   19.8541 H   0  0  0  0  0  0
  -25.1299  -36.1927   25.0819 H   0  0  0  0  0  0
  -20.9987  -28.3270   24.1397 H   0  0  0  0  0  0
  -20.5685  -26.2302   23.3615 H   0  0  0  0  0  0
  -21.6649  -26.7442   22.1201 H   0  0  0  0  0  0
  -19.6918  -25.6295   21.1247 H   0  0  0  0  0  0
  -19.6695  -27.3196   20.6745 H   0  0  0  0  0  0
  -17.4206  -26.6672   21.4033 H   0  0  0  0  0  0
  -18.0339  -26.0075   22.9030 H   0  0  0  0  0  0
  -19.7939  -30.7279   24.2260 H   0  0  0  0  0  0
  -17.5015  -31.6266   24.5168 H   0  0  0  0  0  0
  -15.5354  -30.2986   23.7654 H   0  0  0  0  0  0
  -15.8680  -28.0823   22.7062 H   0  0  0  0  0  0
  -24.5893  -30.7093   25.7775 H   0  0  0  0  0  0
  -24.8919  -32.2912   26.4859 H   0  0  0  0  0  0
  -25.8035  -30.8922   27.0229 H   0  0  0  0  0  0
  -26.2929  -29.6753   24.1210 H   0  0  0  0  0  0
  -27.4015  -29.7261   25.4718 H   0  0  0  0  0  0
  -27.8810  -30.4281   23.9451 H   0  0  0  0  0  0
  -27.2662  -33.3626   26.2066 H   0  0  0  0  0  0
  -28.3867  -32.6881   25.0326 H   0  0  0  0  0  0
  -28.0718  -31.8452   26.5416 H   0  0  0  0  0  0
  -28.2599  -38.0096   24.7501 H   0  0  0  0  0  0
  -28.1074  -36.2626   24.6301 H   0  0  0  0  0  0
  -27.2295  -37.1466   25.8866 H   0  0  0  0  0  0
  -20.9393  -29.8768   21.6877 H   0  0  0  0  0  0
  -26.0175  -38.2848   24.1400 H   0  0  0  0  0  0
  -27.8702  -16.1008   22.8258 H   0  0  0  0  0  0
  -26.6370  -17.1877   22.2098 H   0  0  0  0  0  0
  -27.6406  -17.6680   23.5701 H   0  0  0  0  0  0
  -27.6061  -22.0831   20.3730 H   0  0  0  0  0  0
  -28.5811  -22.3226   21.7860 H   0  0  0  0  0  0
  -27.9146  -24.9823   21.6790 H   0  0  0  0  0  0
  -27.0077  -24.6717   20.2403 H   0  0  0  0  0  0
  -28.9128  -15.2548   21.3757 H   0  0  0  0  0  0
  -30.2049  -21.3393   19.6523 H   0  0  0  0  0  0
  1 25  1  0  0  0
  1 30  2  0  0  0
  1 79  1  0  0  0
  2  3  1  0  0  0
  2 25  1  0  0  0
  2 83  1  0  0  0
  2 84  1  0  0  0
  3  4  1  0  0  0
  3 85  1  0  0  0
  3 86  1  0  0  0
  4  5  1  0  0  0
  4 87  1  0  0  0
  4 88  1  0  0  0
  5  6  1  0  0  0
  5 26  1  0  0  0
  5 89  1  0  0  0
  6 25  1  0  0  0
  6 90  1  0  0  0
  6 91  1  0  0  0
  7  8  2  0  0  0
  7 26  1  0  0  0
  7 29  1  0  0  0
  8  9  1  0  0  0
  8 22  1  0  0  0
  9 10  1  0  0  0
  9 27  2  0  0  0
 10 11  2  0  0  0
 10 15  1  0  0  0
 11 12  1  0  0  0
 11 92  1  0  0  0
 12 13  2  0  0  0
 12 93  1  0  0  0
 13 14  1  0  0  0
 13 31  1  0  0  0
 14 15  2  0  0  0
 14 94  1  0  0  0
 15 95  1  0  0  0
 16 17  2  0  0  0
 16 21  1  0  0  0
 16 31  1  0  0  0
 17 18  1  0  0  0
 17 96  1  0  0  0
 18 19  2  0  0  0
 18 97  1  0  0  0
 19 20  1  0  0  0
 19 24  1  0  0  0
 20 21  2  0  0  0
 20 98  1  0  0  0
 21 23  1  0  0  0
 22 28  1  0  0  0
 22 32  2  0  0  0
 26 27  1  0  0  0
 28 99  1  0  0  0
 28100  1  0  0  0
 29101  1  0  0  0
 29102  1  0  0  0
 33 34  1  0  0  0
 33 66  1  0  0  0
 33 70  2  0  0  0
 34 36  1  0  0  0
 34 59  1  0  0  0
 34103  1  0  0  0
 35 44  2  0  0  0
 35 45  1  0  0  0
 35 68  1  0  0  0
 36 56  1  0  0  0
 36104  1  0  0  0
 37 39  1  0  0  0
 37 47  1  0  0  0
 37 66  1  0  0  0
 37105  1  0  0  0
 38 43  2  0  0  0
 38 46  1  0  0  0
 38 47  1  0  0  0
 39 64  1  0  0  0
 39 67  2  0  0  0
 40 52  1  0  0  0
 40 53  2  0  0  0
 40 58  1  0  0  0
 41106  1  0  0  0
 41107  1  0  0  0
 41108  1  0  0  0
 41 48  1  0  0  0
 42 43  1  0  0  0
 42 66  1  0  0  0
 42109  1  0  0  0
 42110  1  0  0  0
 43 44  1  0  0  0
 44111  1  0  0  0
 45 46  2  0  0  0
 45112  1  0  0  0
 46113  1  0  0  0
 47114  1  0  0  0
 47115  1  0  0  0
 48 56  1  0  0  0
 48 65  1  0  0  0
 48116  1  0  0  0
 49 50  1  0  0  0
 49 53  1  0  0  0
 49 64  1  0  0  0
 49117  1  0  0  0
 50 51  1  0  0  0
 50118  1  0  0  0
 50119  1  0  0  0
 51 52  1  0  0  0
 51120  1  0  0  0
 51121  1  0  0  0
 52122  1  0  0  0
 52123  1  0  0  0
 53 54  1  0  0  0
 54 55  2  0  0  0
 54124  1  0  0  0
 55 57  1  0  0  0
 55125  1  0  0  0
 56 69  2  0  0  0
 57 58  2  0  0  0
 57126  1  0  0  0
 58127  1  0  0  0
 59 60  1  0  0  0
 59 61  1  0  0  0
 59 62  1  0  0  0
 60128  1  0  0  0
 60129  1  0  0  0
 60130  1  0  0  0
 61131  1  0  0  0
 61132  1  0  0  0
 61133  1  0  0  0
 62134  1  0  0  0
 62135  1  0  0  0
 62136  1  0  0  0
 63 65  1  0  0  0
 63137  1  0  0  0
 63138  1  0  0  0
 63139  1  0  0  0
 64140  1  0  0  0
 65141  1  0  0  0
 68 77  1  0  0  0
 71 72  2  0  0  0
 71 75  1  0  0  0
 71 78  1  0  0  0
 72 79  1  0  0  0
 72 82  1  0  0  0
 73 78  2  0  0  0
 73 80  1  0  0  0
 73 82  1  0  0  0
 74 76  1  0  0  0
 74 77  1  0  0  0
 74 81  2  0  0  0
 75142  1  0  0  0
 75143  1  0  0  0
 75144  1  0  0  0
 76 80  1  0  0  0
 76145  1  0  0  0
 76146  1  0  0  0
 77147  1  0  0  0
 77148  1  0  0  0
 79149  1  0  0  0
 80150  1  0  0  0
M  ISO  4   1 100  68 101  77 101  79 100
M  END
> <chiral flag>
0

> <version>
0

> <s_m_source_file>
/data/baiqing/PycharmProjects/Reinvent-master-3.2/result/LINK_invent/BTK/process_docking_weight1_custom_product_contain_oxygen_bond_distance_aromatic_linkinvent_7_9_3/rearranged_h_0153.sdf

> <i_m_source_file_index>
49

> <r_mmod_Potential_Energy-OPLS-2005>
32.2132949829102

> <r_mmod_Stretch_Energy-OPLS-2005>
100.513465881348

> <r_mmod_Bend_Energy-OPLS-2005>
177.432998657227

> <r_mmod_Torsional_Energy-OPLS-2005>
204.806015014648

> <r_mmod_Improper_Torsional_Energy-OPLS-2005>
3.30240488052368

> <r_mmod_Van_der_Waal_Energy-OPLS-2005>
114.143249511719

> <r_mmod_Electrostatic_Energy-OPLS-2005>
-388.876434326172

> <r_mmod_Solvation_Energy-OPLS-2005>
-252.216781616211

> <b_mmod_Minimization_Converged-OPLS-2005>
0

> <r_mmod_RMS_Derivative-OPLS-2005>
0.463248014450073

$$$$
49
                    3D
 Structure written by MMmdl.
151159  0  0  1  0            999 V2000
  -30.6789  -14.7141   20.5558 C   0  0  0  0  0  0
  -30.4246  -12.4565   19.4955 C   0  0  0  0  0  0
  -29.5080  -12.5409   18.2555 C   0  0  0  0  0  0
  -28.0359  -12.3549   18.6631 C   0  0  0  0  0  0
  -27.6460  -13.2419   19.8763 C   0  0  2  0  0  0
  -28.6884  -13.1555   21.0179 C   0  0  0  0  0  0
  -25.2335  -13.8106   20.5460 C   0  0  0  0  0  0
  -24.1708  -13.0337   20.9069 C   0  0  0  0  0  0
  -24.6403  -11.6863   20.8740 C   0  0  0  0  0  0
  -23.9104  -10.4241   21.0402 C   0  0  0  0  0  0
  -24.3645   -9.4163   21.9187 C   0  0  0  0  0  0
  -23.6304   -8.2216   22.0757 C   0  0  0  0  0  0
  -22.4281   -8.0269   21.3547 C   0  0  0  0  0  0
  -21.9919   -9.0236   20.4644 C   0  0  0  0  0  0
  -22.7274  -10.2099   20.3049 C   0  0  0  0  0  0
  -21.6844   -6.0729   22.5281 C   0  0  0  0  0  0
  -21.4012   -6.5636   23.8212 C   0  0  0  0  0  0
  -21.3652   -5.6789   24.9177 C   0  0  0  0  0  0
  -21.6042   -4.3051   24.7222 C   0  0  0  0  0  0
  -21.8822   -3.8143   23.4344 C   0  0  0  0  0  0
  -21.9194   -4.6961   22.3403 C   0  0  0  0  0  0
  -22.7739  -13.5105   21.1796 C   0  0  0  0  0  0
  -22.1658   -4.2153   21.0975 F   0  0  0  0  0  0
  -21.5632   -3.4530   25.7734 F   0  0  0  0  0  0
  -30.0093  -13.5040   20.4652 N   0  0  0  0  0  0
  -26.2946  -12.9441   20.3427 N   0  0  0  0  0  0
  -25.9379  -11.6560   20.5901 N   0  0  0  0  0  0
  -22.0461  -12.8087   22.0402 N   0  0  0  0  0  0
  -25.3639  -15.1770   20.3509 N   0  0  0  0  0  0
  -31.7541  -14.8645   19.9676 O   0  0  0  0  0  0
  -21.6640   -6.8869   21.4242 O   0  0  0  0  0  0
  -22.3397  -14.5446   20.6729 O   0  0  0  0  0  0
  -24.6312  -31.8560   23.1980 C   0  0  0  0  0  0
  -25.9137  -32.4756   23.8331 C   0  0  1  0  0  0
  -27.2272  -27.2558   20.1407 C   0  0  0  0  0  0
  -25.5933  -33.8562   24.2256 N   0  0  0  0  0  0
  -23.4309  -30.4759   21.5419 C   0  0  2  0  0  0
  -24.8818  -28.9237   20.1140 C   0  0  0  0  0  0
  -22.7518  -29.4597   22.4919 C   0  0  0  0  0  0
  -18.0292  -28.1398   22.8474 C   0  0  0  0  0  0
  -24.1492  -36.7287   23.2634 C   0  0  0  0  0  0
  -25.9774  -30.7673   21.3802 C   0  0  0  0  0  0
  -26.0534  -29.3874   20.7263 C   0  0  0  0  0  0
  -27.2303  -28.5676   20.7269 C   0  0  0  0  0  0
  -26.0364  -26.8739   19.4813 C   0  0  0  0  0  0
  -24.8802  -27.6755   19.4774 C   0  0  0  0  0  0
  -23.6504  -29.8083   20.1590 C   0  0  0  0  0  0
  -25.4119  -36.3075   24.0322 C   0  0  1  0  0  0
  -20.5899  -28.3713   23.1265 C   0  0  2  0  0  0
  -20.6792  -26.9428   22.5405 C   0  0  0  0  0  0
  -19.5765  -26.6395   21.5214 C   0  0  0  0  0  0
  -18.1946  -26.7927   22.1622 C   0  0  0  0  0  0
  -19.1551  -28.8873   23.2856 C   0  0  0  0  0  0
  -18.9460  -30.1465   23.8893 C   0  0  0  0  0  0
  -17.6456  -30.6592   24.0561 C   0  0  0  0  0  0
  -25.9065  -34.9442   23.5089 C   0  0  0  0  0  0
  -16.5351  -29.9089   23.6326 C   0  0  0  0  0  0
  -16.7275  -28.6502   23.0346 C   0  0  0  0  0  0
  -26.4502  -31.6574   25.0712 C   0  0  0  0  0  0
  -25.3721  -31.3729   26.1427 C   0  0  0  0  0  0
  -27.0346  -30.2987   24.6196 C   0  0  0  0  0  0
  -27.6062  -32.4317   25.7494 C   0  0  0  0  0  0
  -27.5579  -37.1801   24.8466 C   0  0  0  0  0  0
  -21.4218  -29.3060   22.3661 N   0  0  0  0  0  0
  -26.4293  -37.3768   23.9406 N   0  0  0  0  0  0
  -24.6987  -31.0516   22.0968 N   0  0  0  0  0  0
  -23.4202  -28.8133   23.3021 O   0  0  0  0  0  0
  -28.3084  -26.3398   20.1966 O   0  0  0  0  0  0
  -26.5638  -34.8924   22.4660 O   0  0  0  0  0  0
  -23.5459  -32.1378   23.7267 O   0  0  0  0  0  0
  -30.2486  -18.5143   20.7434 C   0  0  0  0  0  0
  -29.5854  -17.2414   21.0959 C   0  0  0  0  0  0
  -29.4205  -19.6594   20.6787 C   0  0  0  0  0  0
  -28.2438  -17.4790   21.3079 C   0  0  0  0  0  0
  -30.1992  -15.8679   21.5344 C   0  0  0  0  0  0
  -29.0737  -23.7382   20.3451 C   0  0  0  0  0  0
  -28.6628  -22.1925   20.5322 C   0  0  0  0  0  0
  -27.9587  -24.8884   20.4438 C   0  0  0  0  0  0
  -30.3249  -15.6644   22.7826 N   0  0  0  0  0  0
  -27.2798  -16.6326   21.8395 N   0  0  0  0  0  0
  -29.6974  -21.0747   20.4596 N   0  0  0  0  0  0
  -30.2567  -24.0234   20.1270 O   0  0  0  0  0  0
  -27.7785  -19.1419   20.9767 S   0  0  0  0  0  0
  -31.4696  -12.5556   19.2007 H   0  0  0  0  0  0
  -30.3520  -11.4703   19.9566 H   0  0  0  0  0  0
  -29.7905  -11.7853   17.5221 H   0  0  0  0  0  0
  -29.6374  -13.5081   17.7667 H   0  0  0  0  0  0
  -27.8934  -11.3035   18.9154 H   0  0  0  0  0  0
  -27.3781  -12.5535   17.8169 H   0  0  0  0  0  0
  -27.6441  -14.2723   19.5187 H   0  0  0  0  0  0
  -28.4010  -13.8193   21.8326 H   0  0  0  0  0  0
  -28.7093  -12.1534   21.4472 H   0  0  0  0  0  0
  -25.2785   -9.5633   22.4767 H   0  0  0  0  0  0
  -24.0000   -7.4604   22.7475 H   0  0  0  0  0  0
  -21.0846   -8.8771   19.8946 H   0  0  0  0  0  0
  -22.3743  -10.9646   19.6159 H   0  0  0  0  0  0
  -21.2004   -7.6143   23.9707 H   0  0  0  0  0  0
  -21.1463   -6.0523   25.9079 H   0  0  0  0  0  0
  -22.0607   -2.7603   23.2847 H   0  0  0  0  0  0
  -22.4126  -11.9746   22.4746 H   0  0  0  0  0  0
  -21.1116  -13.1113   22.2721 H   0  0  0  0  0  0
  -24.5664  -15.7531   20.5906 H   0  0  0  0  0  0
  -26.2377  -15.6335   20.6346 H   0  0  0  0  0  0
  -26.7208  -32.5417   23.1080 H   0  0  0  0  0  0
  -25.0090  -33.9708   25.0410 H   0  0  0  0  0  0
  -22.7273  -31.2970   21.3928 H   0  0  0  0  0  0
  -23.3756  -35.9615   23.3300 H   0  0  0  0  0  0
  -24.3579  -36.8905   22.2045 H   0  0  0  0  0  0
  -23.7247  -37.6489   23.6663 H   0  0  0  0  0  0
  -26.1134  -31.5265   20.6083 H   0  0  0  0  0  0
  -26.8557  -30.8222   22.0113 H   0  0  0  0  0  0
  -28.1276  -28.9132   21.2214 H   0  0  0  0  0  0
  -25.9691  -25.9356   18.9539 H   0  0  0  0  0  0
  -23.9896  -27.3192   18.9780 H   0  0  0  0  0  0
  -23.7758  -30.5834   19.4023 H   0  0  0  0  0  0
  -22.7697  -29.2396   19.8527 H   0  0  0  0  0  0
  -25.1297  -36.1919   25.0812 H   0  0  0  0  0  0
  -20.9979  -28.3299   24.1386 H   0  0  0  0  0  0
  -20.5687  -26.2333   23.3616 H   0  0  0  0  0  0
  -21.6659  -26.7440   22.1207 H   0  0  0  0  0  0
  -19.6929  -25.6292   21.1260 H   0  0  0  0  0  0
  -19.6716  -27.3199   20.6739 H   0  0  0  0  0  0
  -17.4212  -26.6647   21.4033 H   0  0  0  0  0  0
  -18.0345  -26.0077   22.9036 H   0  0  0  0  0  0
  -19.7935  -30.7271   24.2277 H   0  0  0  0  0  0
  -17.5014  -31.6263   24.5183 H   0  0  0  0  0  0
  -15.5356  -30.2988   23.7643 H   0  0  0  0  0  0
  -15.8677  -28.0802   22.7081 H   0  0  0  0  0  0
  -24.5910  -30.7057   25.7753 H   0  0  0  0  0  0
  -24.8892  -32.2896   26.4830 H   0  0  0  0  0  0
  -25.8024  -30.8926   27.0221 H   0  0  0  0  0  0
  -26.2921  -29.6747   24.1203 H   0  0  0  0  0  0
  -27.4004  -29.7240   25.4716 H   0  0  0  0  0  0
  -27.8820  -30.4260   23.9453 H   0  0  0  0  0  0
  -27.2670  -33.3625   26.2061 H   0  0  0  0  0  0
  -28.3883  -32.6857   25.0324 H   0  0  0  0  0  0
  -28.0720  -31.8440   26.5416 H   0  0  0  0  0  0
  -28.2597  -38.0097   24.7505 H   0  0  0  0  0  0
  -28.1071  -36.2624   24.6303 H   0  0  0  0  0  0
  -27.2298  -37.1465   25.8870 H   0  0  0  0  0  0
  -20.9407  -29.8773   21.6861 H   0  0  0  0  0  0
  -26.0173  -38.2841   24.1402 H   0  0  0  0  0  0
  -31.3214  -18.5481   20.6208 H   0  0  0  0  0  0
  -27.8962  -21.9822   19.7851 H   0  0  0  0  0  0
  -28.1624  -22.1204   21.4986 H   0  0  0  0  0  0
  -27.1654  -24.5599   19.7761 H   0  0  0  0  0  0
  -27.5433  -24.8279   21.4507 H   0  0  0  0  0  0
  -29.9898  -16.4637   23.3071 H   0  0  0  0  0  0
  -27.5935  -15.9182   22.4892 H   0  0  0  0  0  0
  -26.4495  -17.0899   22.2048 H   0  0  0  0  0  0
  -30.6486  -21.4081   20.3129 H   0  0  0  0  0  0
  1 25  1  0  0  0
  1 30  2  0  0  0
  1 75  1  0  0  0
  2  3  1  0  0  0
  2 25  1  0  0  0
  2 84  1  0  0  0
  2 85  1  0  0  0
  3  4  1  0  0  0
  3 86  1  0  0  0
  3 87  1  0  0  0
  4  5  1  0  0  0
  4 88  1  0  0  0
  4 89  1  0  0  0
  5  6  1  0  0  0
  5 26  1  0  0  0
  5 90  1  0  0  0
  6 25  1  0  0  0
  6 91  1  0  0  0
  6 92  1  0  0  0
  7  8  2  0  0  0
  7 26  1  0  0  0
  7 29  1  0  0  0
  8  9  1  0  0  0
  8 22  1  0  0  0
  9 10  1  0  0  0
  9 27  2  0  0  0
 10 11  2  0  0  0
 10 15  1  0  0  0
 11 12  1  0  0  0
 11 93  1  0  0  0
 12 13  2  0  0  0
 12 94  1  0  0  0
 13 14  1  0  0  0
 13 31  1  0  0  0
 14 15  2  0  0  0
 14 95  1  0  0  0
 15 96  1  0  0  0
 16 17  2  0  0  0
 16 21  1  0  0  0
 16 31  1  0  0  0
 17 18  1  0  0  0
 17 97  1  0  0  0
 18 19  2  0  0  0
 18 98  1  0  0  0
 19 20  1  0  0  0
 19 24  1  0  0  0
 20 21  2  0  0  0
 20 99  1  0  0  0
 21 23  1  0  0  0
 22 28  1  0  0  0
 22 32  2  0  0  0
 26 27  1  0  0  0
 28100  1  0  0  0
 28101  1  0  0  0
 29102  1  0  0  0
 29103  1  0  0  0
 33 34  1  0  0  0
 33 66  1  0  0  0
 33 70  2  0  0  0
 34 36  1  0  0  0
 34 59  1  0  0  0
 34104  1  0  0  0
 35 44  2  0  0  0
 35 45  1  0  0  0
 35 68  1  0  0  0
 36 56  1  0  0  0
 36105  1  0  0  0
 37 39  1  0  0  0
 37 47  1  0  0  0
 37 66  1  0  0  0
 37106  1  0  0  0
 38 43  2  0  0  0
 38 46  1  0  0  0
 38 47  1  0  0  0
 39 64  1  0  0  0
 39 67  2  0  0  0
 40 52  1  0  0  0
 40 53  2  0  0  0
 40 58  1  0  0  0
 41107  1  0  0  0
 41108  1  0  0  0
 41109  1  0  0  0
 41 48  1  0  0  0
 42 43  1  0  0  0
 42 66  1  0  0  0
 42110  1  0  0  0
 42111  1  0  0  0
 43 44  1  0  0  0
 44112  1  0  0  0
 45 46  2  0  0  0
 45113  1  0  0  0
 46114  1  0  0  0
 47115  1  0  0  0
 47116  1  0  0  0
 48 56  1  0  0  0
 48 65  1  0  0  0
 48117  1  0  0  0
 49 50  1  0  0  0
 49 53  1  0  0  0
 49 64  1  0  0  0
 49118  1  0  0  0
 50 51  1  0  0  0
 50119  1  0  0  0
 50120  1  0  0  0
 51 52  1  0  0  0
 51121  1  0  0  0
 51122  1  0  0  0
 52123  1  0  0  0
 52124  1  0  0  0
 53 54  1  0  0  0
 54 55  2  0  0  0
 54125  1  0  0  0
 55 57  1  0  0  0
 55126  1  0  0  0
 56 69  2  0  0  0
 57 58  2  0  0  0
 57127  1  0  0  0
 58128  1  0  0  0
 59 60  1  0  0  0
 59 61  1  0  0  0
 59 62  1  0  0  0
 60129  1  0  0  0
 60130  1  0  0  0
 60131  1  0  0  0
 61132  1  0  0  0
 61133  1  0  0  0
 61134  1  0  0  0
 62135  1  0  0  0
 62136  1  0  0  0
 62137  1  0  0  0
 63 65  1  0  0  0
 63138  1  0  0  0
 63139  1  0  0  0
 63140  1  0  0  0
 64141  1  0  0  0
 65142  1  0  0  0
 68 78  1  0  0  0
 71 72  1  0  0  0
 71 73  2  0  0  0
 71143  1  0  0  0
 72 74  2  0  0  0
 72 75  1  0  0  0
 73 81  1  0  0  0
 73 83  1  0  0  0
 74 80  1  0  0  0
 74 83  1  0  0  0
 75 79  2  0  0  0
 76 77  1  0  0  0
 76 78  1  0  0  0
 76 82  2  0  0  0
 77 81  1  0  0  0
 77144  1  0  0  0
 77145  1  0  0  0
 78146  1  0  0  0
 78147  1  0  0  0
 79148  1  0  0  0
 80149  1  0  0  0
 80150  1  0  0  0
 81151  1  0  0  0
M  ISO  4   1 100  68 101  75 100  78 101
M  END
> <chiral flag>
0

> <version>
0

> <s_m_source_file>
/data/baiqing/PycharmProjects/Reinvent-master-3.2/result/LINK_invent/BTK/process_docking_weight1_custom_product_contain_oxygen_bond_distance_aromatic_linkinvent_7_9_3/rearranged_h_0153.sdf

> <i_m_source_file_index>
50

> <r_mmod_Potential_Energy-OPLS-2005>
423.543060302734

> <r_mmod_Stretch_Energy-OPLS-2005>
133.818145751953

> <r_mmod_Bend_Energy-OPLS-2005>
179.012420654297

> <r_mmod_Torsional_Energy-OPLS-2005>
244.00212097168

> <r_mmod_Improper_Torsional_Energy-OPLS-2005>
14.5818405151367

> <r_mmod_Van_der_Waal_Energy-OPLS-2005>
124.668731689453

> <r_mmod_Electrostatic_Energy-OPLS-2005>
-115.091094970703

> <r_mmod_Solvation_Energy-OPLS-2005>
-239.475677490234

> <b_mmod_Minimization_Converged-OPLS-2005>
0

> <r_mmod_RMS_Derivative-OPLS-2005>
1.90061414241791

$$$$
50
                    3D
 Structure written by MMmdl.
150158  0  0  1  0            999 V2000
  -30.6702  -14.5197   20.5490 C   0  0  0  0  0  0
  -30.4340  -12.3302   19.4287 C   0  0  0  0  0  0
  -29.5006  -12.5015   18.2111 C   0  0  0  0  0  0
  -28.0209  -12.3609   18.6215 C   0  0  0  0  0  0
  -27.6611  -13.2063   19.8713 C   0  0  2  0  0  0
  -28.7030  -13.0006   20.9943 C   0  0  0  0  0  0
  -25.2597  -13.8143   20.5686 C   0  0  0  0  0  0
  -24.1842  -13.0428   20.9168 C   0  0  0  0  0  0
  -24.6386  -11.6889   20.8707 C   0  0  0  0  0  0
  -23.9040  -10.4283   21.0390 C   0  0  0  0  0  0
  -24.3591   -9.4208   21.9177 C   0  0  0  0  0  0
  -23.6271   -8.2242   22.0749 C   0  0  0  0  0  0
  -22.4254   -8.0272   21.3540 C   0  0  0  0  0  0
  -21.9881   -9.0247   20.4648 C   0  0  0  0  0  0
  -22.7202  -10.2129   20.3056 C   0  0  0  0  0  0
  -21.6853   -6.0723   22.5270 C   0  0  0  0  0  0
  -21.4013   -6.5632   23.8200 C   0  0  0  0  0  0
  -21.3662   -5.6794   24.9167 C   0  0  0  0  0  0
  -21.6049   -4.3055   24.7223 C   0  0  0  0  0  0
  -21.8825   -3.8139   23.4347 C   0  0  0  0  0  0
  -21.9199   -4.6949   22.3398 C   0  0  0  0  0  0
  -22.7872  -13.5243   21.1828 C   0  0  0  0  0  0
  -22.1660   -4.2131   21.0976 F   0  0  0  0  0  0
  -21.5635   -3.4547   25.7743 F   0  0  0  0  0  0
  -30.0331  -13.3184   20.4445 N   0  0  0  0  0  0
  -26.3020  -12.9315   20.3333 N   0  0  0  0  0  0
  -25.9311  -11.6471   20.5724 N   0  0  0  0  0  0
  -22.0499  -12.8258   22.0390 N   0  0  0  0  0  0
  -25.4339  -15.1868   20.4146 N   0  0  0  0  0  0
  -31.8044  -14.7086   20.0975 O   0  0  0  0  0  0
  -21.6628   -6.8865   21.4235 O   0  0  0  0  0  0
  -22.3579  -14.5562   20.6688 O   0  0  0  0  0  0
  -24.6183  -31.8653   23.2076 C   0  0  0  0  0  0
  -25.9067  -32.4804   23.8382 C   0  0  1  0  0  0
  -27.2319  -27.4031   20.1102 C   0  0  0  0  0  0
  -25.5914  -33.8603   24.2315 N   0  0  0  0  0  0
  -23.4089  -30.4880   21.5469 C   0  0  2  0  0  0
  -24.8579  -28.9517   20.1116 C   0  0  0  0  0  0
  -22.7440  -29.4646   22.4962 C   0  0  0  0  0  0
  -18.0281  -28.1386   22.8481 C   0  0  0  0  0  0
  -24.1487  -36.7304   23.2638 C   0  0  0  0  0  0
  -25.9414  -30.8216   21.3669 C   0  0  0  0  0  0
  -26.0199  -29.4544   20.7128 C   0  0  0  0  0  0
  -27.2128  -28.6882   20.7072 C   0  0  0  0  0  0
  -26.0554  -26.9281   19.4911 C   0  0  0  0  0  0
  -24.8722  -27.6897   19.4942 C   0  0  0  0  0  0
  -23.6200  -29.8203   20.1618 C   0  0  0  0  0  0
  -25.4108  -36.3096   24.0336 C   0  0  1  0  0  0
  -20.5875  -28.3674   23.1299 C   0  0  2  0  0  0
  -20.6767  -26.9404   22.5412 C   0  0  0  0  0  0
  -19.5750  -26.6385   21.5206 C   0  0  0  0  0  0
  -18.1928  -26.7929   22.1618 C   0  0  0  0  0  0
  -19.1532  -28.8848   23.2884 C   0  0  0  0  0  0
  -18.9462  -30.1450   23.8895 C   0  0  0  0  0  0
  -17.6464  -30.6584   24.0563 C   0  0  0  0  0  0
  -25.9039  -34.9463   23.5121 C   0  0  0  0  0  0
  -16.5353  -29.9083   23.6333 C   0  0  0  0  0  0
  -16.7270  -28.6506   23.0344 C   0  0  0  0  0  0
  -26.4487  -31.6592   25.0722 C   0  0  0  0  0  0
  -25.3756  -31.3720   26.1478 C   0  0  0  0  0  0
  -27.0317  -30.3022   24.6126 C   0  0  0  0  0  0
  -27.6062  -32.4315   25.7486 C   0  0  0  0  0  0
  -27.5578  -37.1805   24.8468 C   0  0  0  0  0  0
  -21.4165  -29.3034   22.3702 N   0  0  0  0  0  0
  -26.4292  -37.3783   23.9410 N   0  0  0  0  0  0
  -24.6741  -31.0736   22.0983 N   0  0  0  0  0  0
  -23.4194  -28.8193   23.3024 O   0  0  0  0  0  0
  -28.3569  -26.5972   20.1350 O   0  0  0  0  0  0
  -26.5596  -34.8922   22.4680 O   0  0  0  0  0  0
  -23.5365  -32.1419   23.7447 O   0  0  0  0  0  0
  -29.1114  -17.9163   21.3607 C   0  0  0  0  0  0
  -31.0091  -17.6358   20.1831 C   0  0  0  0  0  0
  -30.0432  -16.9449   20.8737 C   0  0  0  0  0  0
  -29.5849  -19.1239   20.9125 C   0  0  0  0  0  0
  -28.1766  -25.3146   20.6374 C   0  0  0  0  0  0
  -28.9396  -24.2347   20.3325 C   0  0  0  0  0  0
  -28.6452  -22.8802   20.9151 C   0  0  0  0  0  0
  -29.5001  -21.6341   20.5366 C   0  0  0  0  0  0
  -29.9219  -15.5231   21.0668 N   0  0  0  0  0  0
  -28.9943  -20.3788   21.1304 N   0  0  0  0  0  0
  -27.7114  -22.7038   21.7076 O   0  0  0  0  0  0
  -30.7342  -18.9837   20.1948 O   0  0  0  0  0  0
  -29.9781  -24.3433   19.4923 O   0  0  0  0  0  0
  -31.4754  -12.4475   19.1220 H   0  0  0  0  0  0
  -30.3563  -11.3210   19.8352 H   0  0  0  0  0  0
  -29.7419  -11.7639   17.4449 H   0  0  0  0  0  0
  -29.6667  -13.4796   17.7565 H   0  0  0  0  0  0
  -27.8337  -11.3054   18.8225 H   0  0  0  0  0  0
  -27.3709  -12.6301   17.7882 H   0  0  0  0  0  0
  -27.6994  -14.2513   19.5624 H   0  0  0  0  0  0
  -28.6879  -11.9665   21.3425 H   0  0  0  0  0  0
  -28.4539  -13.6028   21.8692 H   0  0  0  0  0  0
  -25.2732   -9.5701   22.4750 H   0  0  0  0  0  0
  -23.9995   -7.4641   22.7467 H   0  0  0  0  0  0
  -21.0812   -8.8755   19.8952 H   0  0  0  0  0  0
  -22.3644  -10.9671   19.6172 H   0  0  0  0  0  0
  -21.1993   -7.6139   23.9695 H   0  0  0  0  0  0
  -21.1482   -6.0525   25.9072 H   0  0  0  0  0  0
  -22.0604   -2.7600   23.2857 H   0  0  0  0  0  0
  -22.4091  -11.9920   22.4798 H   0  0  0  0  0  0
  -21.1134  -13.1347   22.2592 H   0  0  0  0  0  0
  -24.6735  -15.8456   20.5416 H   0  0  0  0  0  0
  -26.2875  -15.6252   20.0921 H   0  0  0  0  0  0
  -26.7140  -32.5510   23.1147 H   0  0  0  0  0  0
  -25.0091  -33.9758   25.0477 H   0  0  0  0  0  0
  -22.6986  -31.3049   21.4052 H   0  0  0  0  0  0
  -23.3738  -35.9649   23.3318 H   0  0  0  0  0  0
  -24.3577  -36.8899   22.2047 H   0  0  0  0  0  0
  -23.7254  -37.6522   23.6639 H   0  0  0  0  0  0
  -26.0626  -31.5870   20.5991 H   0  0  0  0  0  0
  -26.8261  -30.8712   21.9902 H   0  0  0  0  0  0
  -28.1091  -29.0650   21.1796 H   0  0  0  0  0  0
  -26.0497  -25.9562   19.0178 H   0  0  0  0  0  0
  -23.9809  -27.2981   19.0226 H   0  0  0  0  0  0
  -23.7285  -30.5940   19.4007 H   0  0  0  0  0  0
  -22.7449  -29.2385   19.8666 H   0  0  0  0  0  0
  -25.1284  -36.1956   25.0827 H   0  0  0  0  0  0
  -20.9966  -28.3245   24.1421 H   0  0  0  0  0  0
  -20.5662  -26.2287   23.3603 H   0  0  0  0  0  0
  -21.6640  -26.7437   22.1213 H   0  0  0  0  0  0
  -19.6910  -25.6297   21.1230 H   0  0  0  0  0  0
  -19.6691  -27.3198   20.6737 H   0  0  0  0  0  0
  -17.4198  -26.6673   21.4016 H   0  0  0  0  0  0
  -18.0330  -26.0069   22.9016 H   0  0  0  0  0  0
  -19.7941  -30.7263   24.2260 H   0  0  0  0  0  0
  -17.5025  -31.6264   24.5169 H   0  0  0  0  0  0
  -15.5355  -30.2986   23.7663 H   0  0  0  0  0  0
  -15.8671  -28.0830   22.7053 H   0  0  0  0  0  0
  -24.5919  -30.7070   25.7836 H   0  0  0  0  0  0
  -24.8962  -32.2885   26.4928 H   0  0  0  0  0  0
  -25.8116  -30.8899   27.0237 H   0  0  0  0  0  0
  -26.2866  -29.6779   24.1181 H   0  0  0  0  0  0
  -27.4074  -29.7268   25.4599 H   0  0  0  0  0  0
  -27.8712  -30.4323   23.9291 H   0  0  0  0  0  0
  -27.2675  -33.3601   26.2096 H   0  0  0  0  0  0
  -28.3856  -32.6900   25.0305 H   0  0  0  0  0  0
  -28.0751  -31.8423   26.5378 H   0  0  0  0  0  0
  -28.2611  -38.0086   24.7490 H   0  0  0  0  0  0
  -28.1055  -36.2615   24.6317 H   0  0  0  0  0  0
  -27.2297  -37.1491   25.8873 H   0  0  0  0  0  0
  -20.9336  -29.8756   21.6914 H   0  0  0  0  0  0
  -26.0178  -38.2863   24.1398 H   0  0  0  0  0  0
  -28.2154  -17.7552   21.9428 H   0  0  0  0  0  0
  -31.9013  -17.3542   19.6409 H   0  0  0  0  0  0
  -27.3360  -25.2542   21.3187 H   0  0  0  0  0  0
  -30.5251  -21.8077   20.8656 H   0  0  0  0  0  0
  -29.5231  -21.5462   19.4498 H   0  0  0  0  0  0
  -29.0579  -15.2118   21.4836 H   0  0  0  0  0  0
  -28.1560  -20.5065   21.6946 H   0  0  0  0  0  0
  -30.0173  -25.2527   19.2247 H   0  0  0  0  0  0
  1 25  1  0  0  0
  1 30  2  0  0  0
  1 79  1  0  0  0
  2  3  1  0  0  0
  2 25  1  0  0  0
  2 84  1  0  0  0
  2 85  1  0  0  0
  3  4  1  0  0  0
  3 86  1  0  0  0
  3 87  1  0  0  0
  4  5  1  0  0  0
  4 88  1  0  0  0
  4 89  1  0  0  0
  5  6  1  0  0  0
  5 26  1  0  0  0
  5 90  1  0  0  0
  6 25  1  0  0  0
  6 91  1  0  0  0
  6 92  1  0  0  0
  7  8  2  0  0  0
  7 26  1  0  0  0
  7 29  1  0  0  0
  8  9  1  0  0  0
  8 22  1  0  0  0
  9 10  1  0  0  0
  9 27  2  0  0  0
 10 11  2  0  0  0
 10 15  1  0  0  0
 11 12  1  0  0  0
 11 93  1  0  0  0
 12 13  2  0  0  0
 12 94  1  0  0  0
 13 14  1  0  0  0
 13 31  1  0  0  0
 14 15  2  0  0  0
 14 95  1  0  0  0
 15 96  1  0  0  0
 16 17  2  0  0  0
 16 21  1  0  0  0
 16 31  1  0  0  0
 17 18  1  0  0  0
 17 97  1  0  0  0
 18 19  2  0  0  0
 18 98  1  0  0  0
 19 20  1  0  0  0
 19 24  1  0  0  0
 20 21  2  0  0  0
 20 99  1  0  0  0
 21 23  1  0  0  0
 22 28  1  0  0  0
 22 32  2  0  0  0
 26 27  1  0  0  0
 28100  1  0  0  0
 28101  1  0  0  0
 29102  1  0  0  0
 29103  1  0  0  0
 33 34  1  0  0  0
 33 66  1  0  0  0
 33 70  2  0  0  0
 34 36  1  0  0  0
 34 59  1  0  0  0
 34104  1  0  0  0
 35 44  2  0  0  0
 35 45  1  0  0  0
 35 68  1  0  0  0
 36 56  1  0  0  0
 36105  1  0  0  0
 37 39  1  0  0  0
 37 47  1  0  0  0
 37 66  1  0  0  0
 37106  1  0  0  0
 38 43  2  0  0  0
 38 46  1  0  0  0
 38 47  1  0  0  0
 39 64  1  0  0  0
 39 67  2  0  0  0
 40 52  1  0  0  0
 40 53  2  0  0  0
 40 58  1  0  0  0
 41107  1  0  0  0
 41108  1  0  0  0
 41109  1  0  0  0
 41 48  1  0  0  0
 42 43  1  0  0  0
 42 66  1  0  0  0
 42110  1  0  0  0
 42111  1  0  0  0
 43 44  1  0  0  0
 44112  1  0  0  0
 45 46  2  0  0  0
 45113  1  0  0  0
 46114  1  0  0  0
 47115  1  0  0  0
 47116  1  0  0  0
 48 56  1  0  0  0
 48 65  1  0  0  0
 48117  1  0  0  0
 49 50  1  0  0  0
 49 53  1  0  0  0
 49 64  1  0  0  0
 49118  1  0  0  0
 50 51  1  0  0  0
 50119  1  0  0  0
 50120  1  0  0  0
 51 52  1  0  0  0
 51121  1  0  0  0
 51122  1  0  0  0
 52123  1  0  0  0
 52124  1  0  0  0
 53 54  1  0  0  0
 54 55  2  0  0  0
 54125  1  0  0  0
 55 57  1  0  0  0
 55126  1  0  0  0
 56 69  2  0  0  0
 57 58  2  0  0  0
 57127  1  0  0  0
 58128  1  0  0  0
 59 60  1  0  0  0
 59 61  1  0  0  0
 59 62  1  0  0  0
 60129  1  0  0  0
 60130  1  0  0  0
 60131  1  0  0  0
 61132  1  0  0  0
 61133  1  0  0  0
 61134  1  0  0  0
 62135  1  0  0  0
 62136  1  0  0  0
 62137  1  0  0  0
 63 65  1  0  0  0
 63138  1  0  0  0
 63139  1  0  0  0
 63140  1  0  0  0
 64141  1  0  0  0
 65142  1  0  0  0
 68 75  1  0  0  0
 71 73  1  0  0  0
 71 74  2  0  0  0
 71143  1  0  0  0
 72 73  2  0  0  0
 72 82  1  0  0  0
 72144  1  0  0  0
 73 79  1  0  0  0
 74 80  1  0  0  0
 74 82  1  0  0  0
 75 76  2  0  0  0
 75145  1  0  0  0
 76 77  1  0  0  0
 76 83  1  0  0  0
 77 78  1  0  0  0
 77 81  2  0  0  0
 78 80  1  0  0  0
 78146  1  0  0  0
 78147  1  0  0  0
 79148  1  0  0  0
 80149  1  0  0  0
 83150  1  0  0  0
M  ISO  4   1 100  68 101  75 101  79 100
M  END
> <chiral flag>
0

> <version>
0

> <s_m_source_file>
/data/baiqing/PycharmProjects/Reinvent-master-3.2/result/LINK_invent/BTK/process_docking_weight1_custom_product_contain_oxygen_bond_distance_aromatic_linkinvent_7_9_3/rearranged_h_0153.sdf

> <i_m_source_file_index>
51

> <r_mmod_Potential_Energy-OPLS-2005>
-69.1545715332031

> <r_mmod_Stretch_Energy-OPLS-2005>
43.2177696228027

> <r_mmod_Bend_Energy-OPLS-2005>
117.583778381348

> <r_mmod_Torsional_Energy-OPLS-2005>
194.210815429688

> <r_mmod_Improper_Torsional_Energy-OPLS-2005>
3.55999159812927

> <r_mmod_Van_der_Waal_Energy-OPLS-2005>
133.638366699219

> <r_mmod_Electrostatic_Energy-OPLS-2005>
-353.584106445312

> <r_mmod_Solvation_Energy-OPLS-2005>
-227.758255004883

> <b_mmod_Minimization_Converged-OPLS-2005>
0

> <r_mmod_RMS_Derivative-OPLS-2005>
1.10588014125824

$$$$
51
                    3D
 Structure written by MMmdl.
161170  0  0  1  0            999 V2000
  -30.6150  -14.5625   20.5743 C   0  0  0  0  0  0
  -30.4494  -12.3666   19.4176 C   0  0  0  0  0  0
  -29.5012  -12.5269   18.2061 C   0  0  0  0  0  0
  -28.0232  -12.3633   18.6189 C   0  0  0  0  0  0
  -27.6624  -13.1991   19.8747 C   0  0  2  0  0  0
  -28.7062  -12.9619   20.9895 C   0  0  0  0  0  0
  -25.2585  -13.8116   20.5616 C   0  0  0  0  0  0
  -24.1849  -13.0420   20.9196 C   0  0  0  0  0  0
  -24.6389  -11.6887   20.8752 C   0  0  0  0  0  0
  -23.9048  -10.4285   21.0425 C   0  0  0  0  0  0
  -24.3604   -9.4200   21.9200 C   0  0  0  0  0  0
  -23.6285   -8.2234   22.0756 C   0  0  0  0  0  0
  -22.4270   -8.0273   21.3544 C   0  0  0  0  0  0
  -21.9909   -9.0245   20.4645 C   0  0  0  0  0  0
  -22.7230  -10.2130   20.3064 C   0  0  0  0  0  0
  -21.6849   -6.0730   22.5280 C   0  0  0  0  0  0
  -21.4004   -6.5637   23.8214 C   0  0  0  0  0  0
  -21.3654   -5.6788   24.9176 C   0  0  0  0  0  0
  -21.6045   -4.3048   24.7228 C   0  0  0  0  0  0
  -21.8819   -3.8140   23.4349 C   0  0  0  0  0  0
  -21.9190   -4.6956   22.3403 C   0  0  0  0  0  0
  -22.7875  -13.5234   21.1834 C   0  0  0  0  0  0
  -22.1660   -4.2144   21.0984 F   0  0  0  0  0  0
  -21.5630   -3.4528   25.7735 F   0  0  0  0  0  0
  -30.0322  -13.3303   20.4524 N   0  0  0  0  0  0
  -26.3020  -12.9278   20.3329 N   0  0  0  0  0  0
  -25.9313  -11.6453   20.5770 N   0  0  0  0  0  0
  -22.0491  -12.8243   22.0376 N   0  0  0  0  0  0
  -25.4274  -15.1807   20.3833 N   0  0  0  0  0  0
  -31.7242  -14.8262   20.0966 O   0  0  0  0  0  0
  -21.6638   -6.8871   21.4242 O   0  0  0  0  0  0
  -22.3595  -14.5545   20.6661 O   0  0  0  0  0  0
  -24.6196  -31.8644   23.2033 C   0  0  0  0  0  0
  -25.9059  -32.4812   23.8349 C   0  0  1  0  0  0
  -27.2412  -27.3845   20.1180 C   0  0  0  0  0  0
  -25.5911  -33.8609   24.2296 N   0  0  0  0  0  0
  -23.4113  -30.4854   21.5451 C   0  0  2  0  0  0
  -24.8616  -28.9413   20.1158 C   0  0  0  0  0  0
  -22.7436  -29.4641   22.4950 C   0  0  0  0  0  0
  -18.0275  -28.1403   22.8500 C   0  0  0  0  0  0
  -24.1478  -36.7287   23.2629 C   0  0  0  0  0  0
  -25.9409  -30.8215   21.3543 C   0  0  0  0  0  0
  -26.0250  -29.4475   20.7103 C   0  0  0  0  0  0
  -27.2217  -28.6809   20.7007 C   0  0  0  0  0  0
  -26.0604  -26.9063   19.5126 C   0  0  0  0  0  0
  -24.8768  -27.6724   19.5095 C   0  0  0  0  0  0
  -23.6250  -29.8144   20.1616 C   0  0  0  0  0  0
  -25.4101  -36.3098   24.0345 C   0  0  1  0  0  0
  -20.5873  -28.3681   23.1313 C   0  0  2  0  0  0
  -20.6766  -26.9413   22.5424 C   0  0  0  0  0  0
  -19.5743  -26.6402   21.5224 C   0  0  0  0  0  0
  -18.1915  -26.7953   22.1621 C   0  0  0  0  0  0
  -19.1527  -28.8855   23.2906 C   0  0  0  0  0  0
  -18.9461  -30.1461   23.8920 C   0  0  0  0  0  0
  -17.6467  -30.6614   24.0573 C   0  0  0  0  0  0
  -25.9042  -34.9475   23.5111 C   0  0  0  0  0  0
  -16.5355  -29.9124   23.6334 C   0  0  0  0  0  0
  -16.7266  -28.6537   23.0358 C   0  0  0  0  0  0
  -26.4482  -31.6590   25.0672 C   0  0  0  0  0  0
  -25.3758  -31.3706   26.1420 C   0  0  0  0  0  0
  -27.0282  -30.3035   24.6000 C   0  0  0  0  0  0
  -27.6051  -32.4288   25.7476 C   0  0  0  0  0  0
  -27.5569  -37.1799   24.8467 C   0  0  0  0  0  0
  -21.4149  -29.3052   22.3711 N   0  0  0  0  0  0
  -26.4270  -37.3798   23.9428 N   0  0  0  0  0  0
  -24.6765  -31.0701   22.0952 N   0  0  0  0  0  0
  -23.4190  -28.8174   23.2992 O   0  0  0  0  0  0
  -28.3847  -26.5944   20.1025 O   0  0  0  0  0  0
  -26.5576  -34.8937   22.4654 O   0  0  0  0  0  0
  -23.5371  -32.1392   23.7408 O   0  0  0  0  0  0
  -30.5202  -17.9602   20.8543 C   0  0  0  0  0  0
  -28.2921  -17.3297   21.1745 C   0  0  0  0  0  0
  -29.5786  -16.8785   21.0306 C   0  0  0  0  0  0
  -29.9315  -19.2268   20.9257 C   0  0  0  0  0  0
  -28.9872  -24.0057   18.7745 C   0  0  0  0  0  0
  -28.8735  -24.0731   20.1151 C   0  0  0  0  0  0
  -29.4765  -22.7703   18.0306 C   0  0  0  0  0  0
  -29.2509  -22.8379   20.9851 C   0  0  0  0  0  0
  -29.4914  -21.4947   18.9055 C   0  0  0  0  0  0
  -32.1079  -20.5297   20.8013 C   0  0  0  0  0  0
  -28.3215  -25.3341   20.8365 C   0  0  0  0  0  0
  -30.5904  -20.6174   21.0389 C   0  0  1  0  0  0
  -29.8307  -15.4682   21.2157 N   0  0  0  0  0  0
  -30.0481  -21.7894   20.2453 N   0  3  2  0  0  0
  -28.1998  -19.0697   21.1036 S   0  0  0  0  0  0
  -31.4842  -12.5246   19.1070 H   0  0  0  0  0  0
  -30.4079  -11.3492   19.8087 H   0  0  0  0  0  0
  -29.7541  -11.8045   17.4287 H   0  0  0  0  0  0
  -29.6438  -13.5124   17.7600 H   0  0  0  0  0  0
  -27.8473  -11.3056   18.8181 H   0  0  0  0  0  0
  -27.3668  -12.6267   17.7882 H   0  0  0  0  0  0
  -27.7086  -14.2486   19.5854 H   0  0  0  0  0  0
  -28.7084  -11.9101   21.2779 H   0  0  0  0  0  0
  -28.4441  -13.5016   21.9006 H   0  0  0  0  0  0
  -25.2750   -9.5668   22.4779 H   0  0  0  0  0  0
  -23.9987   -7.4619   22.7469 H   0  0  0  0  0  0
  -21.0842   -8.8751   19.8951 H   0  0  0  0  0  0
  -22.3685  -10.9661   19.6164 H   0  0  0  0  0  0
  -21.1996   -7.6144   23.9712 H   0  0  0  0  0  0
  -21.1475   -6.0521   25.9079 H   0  0  0  0  0  0
  -22.0604   -2.7602   23.2843 H   0  0  0  0  0  0
  -22.4091  -11.9900   22.4764 H   0  0  0  0  0  0
  -21.1108  -13.1283   22.2553 H   0  0  0  0  0  0
  -24.6179  -15.7924   20.3881 H   0  0  0  0  0  0
  -26.1941  -15.5494   19.8346 H   0  0  0  0  0  0
  -26.7123  -32.5522   23.1111 H   0  0  0  0  0  0
  -25.0159  -33.9773   25.0508 H   0  0  0  0  0  0
  -22.7046  -31.3050   21.4002 H   0  0  0  0  0  0
  -23.3759  -35.9595   23.3296 H   0  0  0  0  0  0
  -24.3578  -36.8892   22.2038 H   0  0  0  0  0  0
  -23.7215  -37.6493   23.6628 H   0  0  0  0  0  0
  -26.0378  -31.5802   20.5753 H   0  0  0  0  0  0
  -26.8337  -30.8948   21.9628 H   0  0  0  0  0  0
  -28.1194  -29.0721   21.1579 H   0  0  0  0  0  0
  -26.0557  -25.9331   19.0424 H   0  0  0  0  0  0
  -23.9837  -27.2788   19.0428 H   0  0  0  0  0  0
  -23.7369  -30.5879   19.4006 H   0  0  0  0  0  0
  -22.7488  -29.2355   19.8648 H   0  0  0  0  0  0
  -25.1285  -36.1953   25.0843 H   0  0  0  0  0  0
  -20.9970  -28.3240   24.1428 H   0  0  0  0  0  0
  -20.5667  -26.2286   23.3618 H   0  0  0  0  0  0
  -21.6636  -26.7477   22.1196 H   0  0  0  0  0  0
  -19.6908  -25.6318   21.1232 H   0  0  0  0  0  0
  -19.6697  -27.3226   20.6767 H   0  0  0  0  0  0
  -17.4206  -26.6734   21.4000 H   0  0  0  0  0  0
  -18.0293  -26.0105   22.9023 H   0  0  0  0  0  0
  -19.7947  -30.7266   24.2288 H   0  0  0  0  0  0
  -17.5045  -31.6300   24.5174 H   0  0  0  0  0  0
  -15.5356  -30.3042   23.7670 H   0  0  0  0  0  0
  -15.8667  -28.0884   22.7043 H   0  0  0  0  0  0
  -24.6034  -30.6910   25.7818 H   0  0  0  0  0  0
  -24.8806  -32.2839   26.4722 H   0  0  0  0  0  0
  -25.8140  -30.9069   27.0265 H   0  0  0  0  0  0
  -26.2791  -29.6845   24.1042 H   0  0  0  0  0  0
  -27.4073  -29.7229   25.4412 H   0  0  0  0  0  0
  -27.8621  -30.4377   23.9110 H   0  0  0  0  0  0
  -27.2693  -33.3640   26.1976 H   0  0  0  0  0  0
  -28.3933  -32.6756   25.0358 H   0  0  0  0  0  0
  -28.0605  -31.8436   26.5473 H   0  0  0  0  0  0
  -28.2584  -38.0100   24.7533 H   0  0  0  0  0  0
  -28.1076  -36.2639   24.6273 H   0  0  0  0  0  0
  -27.2292  -37.1411   25.8870 H   0  0  0  0  0  0
  -20.9290  -29.8839   21.7009 H   0  0  0  0  0  0
  -26.0162  -38.2872   24.1471 H   0  0  0  0  0  0
  -31.5822  -17.7760   20.7762 H   0  0  0  0  0  0
  -27.3826  -16.7680   21.3526 H   0  0  0  0  0  0
  -28.7246  -24.8640   18.1693 H   0  0  0  0  0  0
  -30.4784  -22.9831   17.6530 H   0  0  0  0  0  0
  -28.8438  -22.6038   17.1571 H   0  0  0  0  0  0
  -28.3392  -22.3940   21.3880 H   0  0  0  0  0  0
  -29.8379  -23.1825   21.8377 H   0  0  0  0  0  0
  -30.0849  -20.7223   18.4147 H   0  0  0  0  0  0
  -28.4799  -21.1002   19.0073 H   0  0  0  0  0  0
  -32.5745  -19.8485   21.5131 H   0  0  0  0  0  0
  -32.5949  -21.4973   20.9307 H   0  0  0  0  0  0
  -32.3362  -20.1715   19.7969 H   0  0  0  0  0  0
  -28.9135  -25.4830   21.7410 H   0  0  0  0  0  0
  -27.3096  -25.1138   21.1817 H   0  0  0  0  0  0
  -30.4921  -20.9027   22.0882 H   0  0  0  0  0  0
  -29.0527  -14.9876   21.6387 H   0  0  0  0  0  0
  -30.8999  -22.2871   20.0329 H   0  0  0  0  0  0
  1 25  1  0  0  0
  1 30  2  0  0  0
  1 83  1  0  0  0
  2  3  1  0  0  0
  2 25  1  0  0  0
  2 86  1  0  0  0
  2 87  1  0  0  0
  3  4  1  0  0  0
  3 88  1  0  0  0
  3 89  1  0  0  0
  4  5  1  0  0  0
  4 90  1  0  0  0
  4 91  1  0  0  0
  5  6  1  0  0  0
  5 26  1  0  0  0
  5 92  1  0  0  0
  6 25  1  0  0  0
  6 93  1  0  0  0
  6 94  1  0  0  0
  7  8  2  0  0  0
  7 26  1  0  0  0
  7 29  1  0  0  0
  8  9  1  0  0  0
  8 22  1  0  0  0
  9 10  1  0  0  0
  9 27  2  0  0  0
 10 11  2  0  0  0
 10 15  1  0  0  0
 11 12  1  0  0  0
 11 95  1  0  0  0
 12 13  2  0  0  0
 12 96  1  0  0  0
 13 14  1  0  0  0
 13 31  1  0  0  0
 14 15  2  0  0  0
 14 97  1  0  0  0
 15 98  1  0  0  0
 16 17  2  0  0  0
 16 21  1  0  0  0
 16 31  1  0  0  0
 17 18  1  0  0  0
 17 99  1  0  0  0
 18 19  2  0  0  0
 18100  1  0  0  0
 19 20  1  0  0  0
 19 24  1  0  0  0
 20 21  2  0  0  0
 20101  1  0  0  0
 21 23  1  0  0  0
 22 28  1  0  0  0
 22 32  2  0  0  0
 26 27  1  0  0  0
 28102  1  0  0  0
 28103  1  0  0  0
 29104  1  0  0  0
 29105  1  0  0  0
 33 34  1  0  0  0
 33 66  1  0  0  0
 33 70  2  0  0  0
 34 36  1  0  0  0
 34 59  1  0  0  0
 34106  1  0  0  0
 35 44  2  0  0  0
 35 45  1  0  0  0
 35 68  1  0  0  0
 36 56  1  0  0  0
 36107  1  0  0  0
 37 39  1  0  0  0
 37 47  1  0  0  0
 37 66  1  0  0  0
 37108  1  0  0  0
 38 43  2  0  0  0
 38 46  1  0  0  0
 38 47  1  0  0  0
 39 64  1  0  0  0
 39 67  2  0  0  0
 40 52  1  0  0  0
 40 53  2  0  0  0
 40 58  1  0  0  0
 41109  1  0  0  0
 41110  1  0  0  0
 41111  1  0  0  0
 41 48  1  0  0  0
 42 43  1  0  0  0
 42 66  1  0  0  0
 42112  1  0  0  0
 42113  1  0  0  0
 43 44  1  0  0  0
 44114  1  0  0  0
 45 46  2  0  0  0
 45115  1  0  0  0
 46116  1  0  0  0
 47117  1  0  0  0
 47118  1  0  0  0
 48 56  1  0  0  0
 48 65  1  0  0  0
 48119  1  0  0  0
 49 50  1  0  0  0
 49 53  1  0  0  0
 49 64  1  0  0  0
 49120  1  0  0  0
 50 51  1  0  0  0
 50121  1  0  0  0
 50122  1  0  0  0
 51 52  1  0  0  0
 51123  1  0  0  0
 51124  1  0  0  0
 52125  1  0  0  0
 52126  1  0  0  0
 53 54  1  0  0  0
 54 55  2  0  0  0
 54127  1  0  0  0
 55 57  1  0  0  0
 55128  1  0  0  0
 56 69  2  0  0  0
 57 58  2  0  0  0
 57129  1  0  0  0
 58130  1  0  0  0
 59 60  1  0  0  0
 59 61  1  0  0  0
 59 62  1  0  0  0
 60131  1  0  0  0
 60132  1  0  0  0
 60133  1  0  0  0
 61134  1  0  0  0
 61135  1  0  0  0
 61136  1  0  0  0
 62137  1  0  0  0
 62138  1  0  0  0
 62139  1  0  0  0
 63 65  1  0  0  0
 63140  1  0  0  0
 63141  1  0  0  0
 63142  1  0  0  0
 64143  1  0  0  0
 65144  1  0  0  0
 68 81  1  0  0  0
 71 73  1  0  0  0
 71 74  2  0  0  0
 71145  1  0  0  0
 72 73  2  0  0  0
 72 85  1  0  0  0
 72146  1  0  0  0
 73 83  1  0  0  0
 74 82  1  0  0  0
 74 85  1  0  0  0
 75 76  2  0  0  0
 75 77  1  0  0  0
 75147  1  0  0  0
 76 78  1  0  0  0
 76 81  1  0  0  0
 77 79  1  0  0  0
 77148  1  0  0  0
 77149  1  0  0  0
 78150  1  0  0  0
 78151  1  0  0  0
 78 84  1  0  0  0
 79 84  1  0  0  0
 79152  1  0  0  0
 79153  1  0  0  0
 80154  1  0  0  0
 80155  1  0  0  0
 80156  1  0  0  0
 80 82  1  0  0  0
 81157  1  0  0  0
 81158  1  0  0  0
 82 84  1  0  0  0
 82159  1  0  0  0
 83160  1  0  0  0
 84161  1  0  0  0
M  CHG  1  84   1
M  ISO  4   1 100  68 101  81 101  83 100
M  END
> <chiral flag>
0

> <version>
0

> <s_m_source_file>
/data/baiqing/PycharmProjects/Reinvent-master-3.2/result/LINK_invent/BTK/process_docking_weight1_custom_product_contain_oxygen_bond_distance_aromatic_linkinvent_7_9_3/rearranged_h_0153.sdf

> <i_m_source_file_index>
52

> <r_mmod_Potential_Energy-OPLS-2005>
-79.4331512451172

> <r_mmod_Stretch_Energy-OPLS-2005>
58.6754837036133

> <r_mmod_Bend_Energy-OPLS-2005>
141.758285522461

> <r_mmod_Torsional_Energy-OPLS-2005>
259.369384765625

> <r_mmod_Improper_Torsional_Energy-OPLS-2005>
7.40703344345093

> <r_mmod_Van_der_Waal_Energy-OPLS-2005>
122.293853759766

> <r_mmod_Electrostatic_Energy-OPLS-2005>
-279.100189208984

> <r_mmod_Solvation_Energy-OPLS-2005>
-415.52978515625

> <b_mmod_Minimization_Converged-OPLS-2005>
0

> <r_mmod_RMS_Derivative-OPLS-2005>
2.37757396697998

$$$$
52
                    3D
 Structure written by MMmdl.
155163  0  0  1  0            999 V2000
  -30.4873  -15.0743   20.4372 C   0  0  0  0  0  0
  -30.4543  -12.6790   19.5054 C   0  0  0  0  0  0
  -29.5386  -12.5354   18.2659 C   0  0  0  0  0  0
  -28.0746  -12.2949   18.6823 C   0  0  0  0  0  0
  -27.6236  -13.2488   19.8215 C   0  0  2  0  0  0
  -28.6639  -13.3256   20.9564 C   0  0  0  0  0  0
  -25.2456  -13.8212   20.5607 C   0  0  0  0  0  0
  -24.1806  -13.0467   20.9168 C   0  0  0  0  0  0
  -24.6423  -11.6952   20.8766 C   0  0  0  0  0  0
  -23.9097  -10.4341   21.0385 C   0  0  0  0  0  0
  -24.3642   -9.4262   21.9168 C   0  0  0  0  0  0
  -23.6286   -8.2321   22.0781 C   0  0  0  0  0  0
  -22.4271   -8.0336   21.3562 C   0  0  0  0  0  0
  -21.9918   -9.0334   20.4684 C   0  0  0  0  0  0
  -22.7263  -10.2191   20.3049 C   0  0  0  0  0  0
  -21.6886   -6.0762   22.5258 C   0  0  0  0  0  0
  -21.4065   -6.5662   23.8193 C   0  0  0  0  0  0
  -21.3627   -5.6800   24.9140 C   0  0  0  0  0  0
  -21.6004   -4.3063   24.7197 C   0  0  0  0  0  0
  -21.8834   -3.8167   23.4330 C   0  0  0  0  0  0
  -21.9223   -4.6989   22.3391 C   0  0  0  0  0  0
  -22.7826  -13.5247   21.1786 C   0  0  0  0  0  0
  -22.1661   -4.2161   21.0971 F   0  0  0  0  0  0
  -21.5573   -3.4539   25.7709 F   0  0  0  0  0  0
  -29.9189  -13.7911   20.3523 N   0  0  0  0  0  0
  -26.2869  -12.9435   20.3150 N   0  0  0  0  0  0
  -25.9354  -11.6574   20.5757 N   0  0  0  0  0  0
  -22.0459  -12.8317   22.0350 N   0  0  0  0  0  0
  -25.4069  -15.1953   20.3911 N   0  0  0  0  0  0
  -31.7078  -15.1291   20.2400 O   0  0  0  0  0  0
  -21.6648   -6.8918   21.4229 O   0  0  0  0  0  0
  -22.3562  -14.5577   20.6609 O   0  0  0  0  0  0
  -24.6575  -31.8346   23.1835 C   0  0  0  0  0  0
  -25.9285  -32.4641   23.8242 C   0  0  1  0  0  0
  -27.1936  -27.0004   20.1433 C   0  0  0  0  0  0
  -25.5953  -33.8460   24.2131 N   0  0  0  0  0  0
  -23.4623  -30.4516   21.5408 C   0  0  2  0  0  0
  -24.9017  -28.8641   20.1217 C   0  0  0  0  0  0
  -22.7594  -29.4520   22.4933 C   0  0  0  0  0  0
  -18.0278  -28.1400   22.8510 C   0  0  0  0  0  0
  -24.1474  -36.7193   23.2646 C   0  0  0  0  0  0
  -26.0318  -30.6633   21.3989 C   0  0  0  0  0  0
  -26.0969  -29.2703   20.7281 C   0  0  0  0  0  0
  -27.2392  -28.3598   20.7126 C   0  0  0  0  0  0
  -25.9507  -26.7360   19.5202 C   0  0  0  0  0  0
  -24.8474  -27.6102   19.5105 C   0  0  0  0  0  0
  -23.6864  -29.7792   20.1665 C   0  0  0  0  0  0
  -25.4120  -36.3024   24.0312 C   0  0  1  0  0  0
  -20.5900  -28.3733   23.1242 C   0  0  2  0  0  0
  -20.6768  -26.9430   22.5423 C   0  0  0  0  0  0
  -19.5737  -26.6397   21.5235 C   0  0  0  0  0  0
  -18.1920  -26.7933   22.1657 C   0  0  0  0  0  0
  -19.1542  -28.8898   23.2837 C   0  0  0  0  0  0
  -18.9438  -30.1482   23.8886 C   0  0  0  0  0  0
  -17.6439  -30.6610   24.0566 C   0  0  0  0  0  0
  -25.9104  -34.9389   23.5048 C   0  0  0  0  0  0
  -16.5326  -29.9093   23.6385 C   0  0  0  0  0  0
  -16.7259  -28.6490   23.0443 C   0  0  0  0  0  0
  -26.4560  -31.6555   25.0752 C   0  0  0  0  0  0
  -25.3686  -31.3763   26.1397 C   0  0  0  0  0  0
  -27.0387  -30.2898   24.6452 C   0  0  0  0  0  0
  -27.6108  -32.4320   25.7494 C   0  0  0  0  0  0
  -27.5568  -37.1721   24.8472 C   0  0  0  0  0  0
  -21.4291  -29.3022   22.3626 N   0  0  0  0  0  0
  -26.4292  -37.3730   23.9406 N   0  0  0  0  0  0
  -24.7385  -31.0057   22.0953 N   0  0  0  0  0  0
  -23.4173  -28.8103   23.3171 O   0  0  0  0  0  0
  -28.2294  -25.9505   20.2511 O   0  0  0  0  0  0
  -26.5733  -34.8936   22.4673 O   0  0  0  0  0  0
  -23.5660  -32.1317   23.6960 O   0  0  0  0  0  0
  -30.0475  -19.8175   21.6443 C   0  0  0  0  0  0
  -30.3172  -18.3799   21.7536 C   0  0  0  0  0  0
  -29.2903  -20.1108   20.5304 C   0  0  0  0  0  0
  -29.7759  -17.7141   20.6559 C   0  0  0  0  0  0
  -31.0314  -17.7588   22.9352 C   0  0  0  0  0  0
  -29.6018  -24.5889   18.8980 C   0  0  0  0  0  0
  -27.2316  -23.9713   18.7692 C   0  0  0  0  0  0
  -28.7013  -22.9347   20.6397 C   0  0  0  0  0  0
  -28.3411  -24.3995   19.7499 C   0  0  0  0  0  0
  -29.6545  -16.2631   20.4670 N   0  0  0  0  0  0
  -28.7935  -21.4604   20.0134 N   0  0  0  0  0  0
  -29.0966  -18.7930   19.9271 O   0  0  0  0  0  0
  -31.4734  -12.8861   19.1773 H   0  0  0  0  0  0
  -30.5045  -11.7470   20.0733 H   0  0  0  0  0  0
  -29.8836  -11.7165   17.6308 H   0  0  0  0  0  0
  -29.5984  -13.4402   17.6616 H   0  0  0  0  0  0
  -27.9995  -11.2623   19.0245 H   0  0  0  0  0  0
  -27.4160  -12.3762   17.8174 H   0  0  0  0  0  0
  -27.5702  -14.2348   19.3608 H   0  0  0  0  0  0
  -28.7899  -12.3557   21.4422 H   0  0  0  0  0  0
  -28.3386  -14.0221   21.7308 H   0  0  0  0  0  0
  -25.2785   -9.5769   22.4726 H   0  0  0  0  0  0
  -23.9975   -7.4761   22.7564 H   0  0  0  0  0  0
  -21.0810   -8.8904   19.9049 H   0  0  0  0  0  0
  -22.3711  -10.9746   19.6182 H   0  0  0  0  0  0
  -21.2113   -7.6188   23.9698 H   0  0  0  0  0  0
  -21.1363   -6.0531   25.9021 H   0  0  0  0  0  0
  -22.0647   -2.7632   23.2838 H   0  0  0  0  0  0
  -22.4022  -11.9990   22.4811 H   0  0  0  0  0  0
  -21.1127  -13.1479   22.2533 H   0  0  0  0  0  0
  -24.6304  -15.8400   20.4867 H   0  0  0  0  0  0
  -26.2243  -15.6323   19.9875 H   0  0  0  0  0  0
  -26.7369  -32.5187   23.0965 H   0  0  0  0  0  0
  -24.9894  -33.9526   25.0130 H   0  0  0  0  0  0
  -22.7743  -31.2845   21.3826 H   0  0  0  0  0  0
  -23.3787  -35.9475   23.3359 H   0  0  0  0  0  0
  -24.3526  -36.8790   22.2051 H   0  0  0  0  0  0
  -23.7178  -37.6375   23.6660 H   0  0  0  0  0  0
  -26.2149  -31.4188   20.6336 H   0  0  0  0  0  0
  -26.8942  -30.7019   22.0527 H   0  0  0  0  0  0
  -28.1523  -28.6674   21.2041 H   0  0  0  0  0  0
  -25.7190  -25.7931   19.0764 H   0  0  0  0  0  0
  -23.9198  -27.2710   19.0684 H   0  0  0  0  0  0
  -23.8249  -30.5521   19.4091 H   0  0  0  0  0  0
  -22.7966  -29.2223   19.8652 H   0  0  0  0  0  0
  -25.1314  -36.1859   25.0798 H   0  0  0  0  0  0
  -20.9927  -28.3331   24.1382 H   0  0  0  0  0  0
  -20.5666  -26.2336   23.3633 H   0  0  0  0  0  0
  -21.6622  -26.7455   22.1189 H   0  0  0  0  0  0
  -19.6898  -25.6319   21.1238 H   0  0  0  0  0  0
  -19.6667  -27.3240   20.6789 H   0  0  0  0  0  0
  -17.4162  -26.6681   21.4087 H   0  0  0  0  0  0
  -18.0324  -26.0075   22.9055 H   0  0  0  0  0  0
  -19.7906  -30.7273   24.2290 H   0  0  0  0  0  0
  -17.4996  -31.6313   24.5126 H   0  0  0  0  0  0
  -15.5331  -30.2994   23.7718 H   0  0  0  0  0  0
  -15.8639  -28.0776   22.7239 H   0  0  0  0  0  0
  -24.5906  -30.7113   25.7651 H   0  0  0  0  0  0
  -24.8843  -32.2942   26.4746 H   0  0  0  0  0  0
  -25.7909  -30.8953   27.0234 H   0  0  0  0  0  0
  -26.3026  -29.6607   24.1444 H   0  0  0  0  0  0
  -27.3863  -29.7255   25.5123 H   0  0  0  0  0  0
  -27.9036  -30.4042   23.9907 H   0  0  0  0  0  0
  -27.2758  -33.3687   26.1957 H   0  0  0  0  0  0
  -28.3948  -32.6752   25.0308 H   0  0  0  0  0  0
  -28.0757  -31.8510   26.5461 H   0  0  0  0  0  0
  -28.2606  -38.0010   24.7556 H   0  0  0  0  0  0
  -28.1062  -36.2539   24.6296 H   0  0  0  0  0  0
  -27.2279  -37.1361   25.8880 H   0  0  0  0  0  0
  -20.9557  -29.8571   21.6630 H   0  0  0  0  0  0
  -26.0186  -38.2804   24.1452 H   0  0  0  0  0  0
  -30.3778  -20.5582   22.3603 H   0  0  0  0  0  0
  -31.1748  -18.4980   23.7284 H   0  0  0  0  0  0
  -32.0122  -17.3781   22.6517 H   0  0  0  0  0  0
  -30.4491  -16.9386   23.3592 H   0  0  0  0  0  0
  -29.8810  -23.6699   18.3802 H   0  0  0  0  0  0
  -30.4456  -24.8764   19.5243 H   0  0  0  0  0  0
  -29.4683  -25.3668   18.1460 H   0  0  0  0  0  0
  -27.4635  -23.0223   18.2812 H   0  0  0  0  0  0
  -27.1022  -24.6818   17.9520 H   0  0  0  0  0  0
  -26.2846  -23.8067   19.2846 H   0  0  0  0  0  0
  -27.9509  -22.8619   21.4276 H   0  0  0  0  0  0
  -29.6385  -23.1007   21.1699 H   0  0  0  0  0  0
  -28.6944  -15.9937   20.3183 H   0  0  0  0  0  0
  -28.2924  -21.3797   19.1336 H   0  0  0  0  0  0
  1 25  1  0  0  0
  1 30  2  0  0  0
  1 80  1  0  0  0
  2  3  1  0  0  0
  2 25  1  0  0  0
  2 83  1  0  0  0
  2 84  1  0  0  0
  3  4  1  0  0  0
  3 85  1  0  0  0
  3 86  1  0  0  0
  4  5  1  0  0  0
  4 87  1  0  0  0
  4 88  1  0  0  0
  5  6  1  0  0  0
  5 26  1  0  0  0
  5 89  1  0  0  0
  6 25  1  0  0  0
  6 90  1  0  0  0
  6 91  1  0  0  0
  7  8  2  0  0  0
  7 26  1  0  0  0
  7 29  1  0  0  0
  8  9  1  0  0  0
  8 22  1  0  0  0
  9 10  1  0  0  0
  9 27  2  0  0  0
 10 11  2  0  0  0
 10 15  1  0  0  0
 11 12  1  0  0  0
 11 92  1  0  0  0
 12 13  2  0  0  0
 12 93  1  0  0  0
 13 14  1  0  0  0
 13 31  1  0  0  0
 14 15  2  0  0  0
 14 94  1  0  0  0
 15 95  1  0  0  0
 16 17  2  0  0  0
 16 21  1  0  0  0
 16 31  1  0  0  0
 17 18  1  0  0  0
 17 96  1  0  0  0
 18 19  2  0  0  0
 18 97  1  0  0  0
 19 20  1  0  0  0
 19 24  1  0  0  0
 20 21  2  0  0  0
 20 98  1  0  0  0
 21 23  1  0  0  0
 22 28  1  0  0  0
 22 32  2  0  0  0
 26 27  1  0  0  0
 28 99  1  0  0  0
 28100  1  0  0  0
 29101  1  0  0  0
 29102  1  0  0  0
 33 34  1  0  0  0
 33 66  1  0  0  0
 33 70  2  0  0  0
 34 36  1  0  0  0
 34 59  1  0  0  0
 34103  1  0  0  0
 35 44  2  0  0  0
 35 45  1  0  0  0
 35 68  1  0  0  0
 36 56  1  0  0  0
 36104  1  0  0  0
 37 39  1  0  0  0
 37 47  1  0  0  0
 37 66  1  0  0  0
 37105  1  0  0  0
 38 43  2  0  0  0
 38 46  1  0  0  0
 38 47  1  0  0  0
 39 64  1  0  0  0
 39 67  2  0  0  0
 40 52  1  0  0  0
 40 53  2  0  0  0
 40 58  1  0  0  0
 41106  1  0  0  0
 41107  1  0  0  0
 41108  1  0  0  0
 41 48  1  0  0  0
 42 43  1  0  0  0
 42 66  1  0  0  0
 42109  1  0  0  0
 42110  1  0  0  0
 43 44  1  0  0  0
 44111  1  0  0  0
 45 46  2  0  0  0
 45112  1  0  0  0
 46113  1  0  0  0
 47114  1  0  0  0
 47115  1  0  0  0
 48 56  1  0  0  0
 48 65  1  0  0  0
 48116  1  0  0  0
 49 50  1  0  0  0
 49 53  1  0  0  0
 49 64  1  0  0  0
 49117  1  0  0  0
 50 51  1  0  0  0
 50118  1  0  0  0
 50119  1  0  0  0
 51 52  1  0  0  0
 51120  1  0  0  0
 51121  1  0  0  0
 52122  1  0  0  0
 52123  1  0  0  0
 53 54  1  0  0  0
 54 55  2  0  0  0
 54124  1  0  0  0
 55 57  1  0  0  0
 55125  1  0  0  0
 56 69  2  0  0  0
 57 58  2  0  0  0
 57126  1  0  0  0
 58127  1  0  0  0
 59 60  1  0  0  0
 59 61  1  0  0  0
 59 62  1  0  0  0
 60128  1  0  0  0
 60129  1  0  0  0
 60130  1  0  0  0
 61131  1  0  0  0
 61132  1  0  0  0
 61133  1  0  0  0
 62134  1  0  0  0
 62135  1  0  0  0
 62136  1  0  0  0
 63 65  1  0  0  0
 63137  1  0  0  0
 63138  1  0  0  0
 63139  1  0  0  0
 64140  1  0  0  0
 65141  1  0  0  0
 68 79  1  0  0  0
 71 72  1  0  0  0
 71 73  2  0  0  0
 71142  1  0  0  0
 72 74  2  0  0  0
 72 75  1  0  0  0
 73 81  1  0  0  0
 73 82  1  0  0  0
 74 80  1  0  0  0
 74 82  1  0  0  0
 75143  1  0  0  0
 75144  1  0  0  0
 75145  1  0  0  0
 76146  1  0  0  0
 76147  1  0  0  0
 76148  1  0  0  0
 76 79  1  0  0  0
 77 79  1  0  0  0
 77149  1  0  0  0
 77150  1  0  0  0
 77151  1  0  0  0
 78 79  1  0  0  0
 78 81  1  0  0  0
 78152  1  0  0  0
 78153  1  0  0  0
 80154  1  0  0  0
 81155  1  0  0  0
M  ISO  4   1 100  68 101  79 101  80 100
M  END
> <chiral flag>
0

> <version>
0

> <s_m_source_file>
/data/baiqing/PycharmProjects/Reinvent-master-3.2/result/LINK_invent/BTK/process_docking_weight1_custom_product_contain_oxygen_bond_distance_aromatic_linkinvent_7_9_3/rearranged_h_0153.sdf

> <i_m_source_file_index>
53

> <r_mmod_Potential_Energy-OPLS-2005>
798.048583984375

> <r_mmod_Stretch_Energy-OPLS-2005>
382.780059814453

> <r_mmod_Bend_Energy-OPLS-2005>
387.833282470703

> <r_mmod_Torsional_Energy-OPLS-2005>
247.278823852539

> <r_mmod_Improper_Torsional_Energy-OPLS-2005>
9.03225612640381

> <r_mmod_Van_der_Waal_Energy-OPLS-2005>
117.264472961426

> <r_mmod_Electrostatic_Energy-OPLS-2005>
-441.49169921875

> <r_mmod_Solvation_Energy-OPLS-2005>
-214.49528503418

> <b_mmod_Minimization_Converged-OPLS-2005>
0

> <r_mmod_RMS_Derivative-OPLS-2005>
5.53204250335693

$$$$
53
                    3D
 Structure written by MMmdl.
159168  0  0  1  0            999 V2000
  -30.5759  -14.7513   20.4264 C   0  0  0  0  0  0
  -30.4346  -12.4556   19.4641 C   0  0  0  0  0  0
  -29.5028  -12.5112   18.2308 C   0  0  0  0  0  0
  -28.0297  -12.3406   18.6473 C   0  0  0  0  0  0
  -27.6413  -13.2348   19.8554 C   0  0  2  0  0  0
  -28.6860  -13.1354   20.9865 C   0  0  0  0  0  0
  -25.2484  -13.8214   20.5726 C   0  0  0  0  0  0
  -24.1788  -13.0432   20.9206 C   0  0  0  0  0  0
  -24.6387  -11.6930   20.8740 C   0  0  0  0  0  0
  -23.9063  -10.4299   21.0396 C   0  0  0  0  0  0
  -24.3625   -9.4230   21.9163 C   0  0  0  0  0  0
  -23.6317   -8.2262   22.0744 C   0  0  0  0  0  0
  -22.4288   -8.0313   21.3541 C   0  0  0  0  0  0
  -21.9911   -9.0272   20.4626 C   0  0  0  0  0  0
  -22.7240  -10.2154   20.3030 C   0  0  0  0  0  0
  -21.6865   -6.0754   22.5285 C   0  0  0  0  0  0
  -21.4019   -6.5648   23.8225 C   0  0  0  0  0  0
  -21.3651   -5.6798   24.9170 C   0  0  0  0  0  0
  -21.6048   -4.3057   24.7233 C   0  0  0  0  0  0
  -21.8811   -3.8155   23.4345 C   0  0  0  0  0  0
  -21.9201   -4.6974   22.3412 C   0  0  0  0  0  0
  -22.7799  -13.5201   21.1886 C   0  0  0  0  0  0
  -22.1672   -4.2165   21.0990 F   0  0  0  0  0  0
  -21.5632   -3.4542   25.7737 F   0  0  0  0  0  0
  -29.9881  -13.5041   20.4125 N   0  0  0  0  0  0
  -26.2935  -12.9442   20.3320 N   0  0  0  0  0  0
  -25.9324  -11.6578   20.5757 N   0  0  0  0  0  0
  -22.0457  -12.8145   22.0408 N   0  0  0  0  0  0
  -25.4168  -15.1953   20.4234 N   0  0  0  0  0  0
  -31.7548  -14.8747   20.0760 O   0  0  0  0  0  0
  -21.6647   -6.8914   21.4263 O   0  0  0  0  0  0
  -22.3475  -14.5488   20.6730 O   0  0  0  0  0  0
  -24.6344  -31.8533   23.1991 C   0  0  0  0  0  0
  -25.9164  -32.4743   23.8337 C   0  0  1  0  0  0
  -27.2064  -27.2329   20.1139 C   0  0  0  0  0  0
  -25.5953  -33.8557   24.2238 N   0  0  0  0  0  0
  -23.4312  -30.4774   21.5462 C   0  0  2  0  0  0
  -24.8746  -28.9291   20.1055 C   0  0  0  0  0  0
  -22.7528  -29.4571   22.4924 C   0  0  0  0  0  0
  -18.0291  -28.1392   22.8490 C   0  0  0  0  0  0
  -24.1489  -36.7276   23.2641 C   0  0  0  0  0  0
  -25.9822  -30.7502   21.3893 C   0  0  0  0  0  0
  -26.0502  -29.3768   20.7201 C   0  0  0  0  0  0
  -27.2160  -28.5405   20.7170 C   0  0  0  0  0  0
  -26.0077  -26.8714   19.4534 C   0  0  0  0  0  0
  -24.8597  -27.6847   19.4620 C   0  0  0  0  0  0
  -23.6500  -29.8223   20.1594 C   0  0  0  0  0  0
  -25.4120  -36.3073   24.0308 C   0  0  1  0  0  0
  -20.5896  -28.3698   23.1277 C   0  0  2  0  0  0
  -20.6784  -26.9414   22.5418 C   0  0  0  0  0  0
  -19.5754  -26.6380   21.5233 C   0  0  0  0  0  0
  -18.1936  -26.7931   22.1629 C   0  0  0  0  0  0
  -19.1549  -28.8870   23.2863 C   0  0  0  0  0  0
  -18.9460  -30.1482   23.8861 C   0  0  0  0  0  0
  -17.6460  -30.6603   24.0563 C   0  0  0  0  0  0
  -25.9057  -34.9442   23.5067 C   0  0  0  0  0  0
  -16.5356  -29.9083   23.6350 C   0  0  0  0  0  0
  -16.7278  -28.6506   23.0365 C   0  0  0  0  0  0
  -26.4515  -31.6607   25.0768 C   0  0  0  0  0  0
  -25.3718  -31.3753   26.1480 C   0  0  0  0  0  0
  -27.0406  -30.3029   24.6305 C   0  0  0  0  0  0
  -27.6053  -32.4379   25.7555 C   0  0  0  0  0  0
  -27.5569  -37.1794   24.8461 C   0  0  0  0  0  0
  -21.4235  -29.3028   22.3661 N   0  0  0  0  0  0
  -26.4291  -37.3772   23.9391 N   0  0  0  0  0  0
  -24.7020  -31.0451   22.0995 N   0  0  0  0  0  0
  -23.4213  -28.8100   23.3029 O   0  0  0  0  0  0
  -28.2831  -26.3056   20.1916 O   0  0  0  0  0  0
  -26.5646  -34.8921   22.4648 O   0  0  0  0  0  0
  -23.5483  -32.1376   23.7260 O   0  0  0  0  0  0
  -29.4184  -18.4108   20.7392 C   0  0  0  0  0  0
  -29.4356  -19.6027   19.8573 C   0  0  0  0  0  0
  -29.7770  -19.1894   18.5823 C   0  0  0  0  0  0
  -29.7964  -17.1673   20.1851 C   0  0  0  0  0  0
  -28.4328  -22.9142   21.6306 C   0  0  0  0  0  0
  -28.8579  -21.4122   21.6372 C   0  0  0  0  0  0
  -28.9143  -22.2359   19.4357 C   0  0  0  0  0  0
  -28.9509  -23.5702   20.3271 C   0  0  2  0  0  0
  -29.8316  -19.9682   17.3034 C   0  0  0  0  0  0
  -30.4114  -24.0253   20.5092 C   0  0  0  0  0  0
  -28.0685  -24.8524   19.8115 C   0  0  0  0  0  0
  -29.1195  -20.9952   20.2618 N   0  0  0  0  0  0
  -29.7808  -15.8580   20.7095 N   0  0  0  0  0  0
  -30.1913  -17.4746   18.5101 S   0  0  0  0  0  0
  -31.4708  -12.5941   19.1477 H   0  0  0  0  0  0
  -30.3946  -11.4753   19.9391 H   0  0  0  0  0  0
  -29.7746  -11.7346   17.5131 H   0  0  0  0  0  0
  -29.6281  -13.4665   17.7161 H   0  0  0  0  0  0
  -27.8815  -11.2897   18.9033 H   0  0  0  0  0  0
  -27.3733  -12.5388   17.8004 H   0  0  0  0  0  0
  -27.6404  -14.2637   19.4924 H   0  0  0  0  0  0
  -28.7154  -12.1175   21.3801 H   0  0  0  0  0  0
  -28.4202  -13.7799   21.8249 H   0  0  0  0  0  0
  -25.2777   -9.5735   22.4710 H   0  0  0  0  0  0
  -24.0061   -7.4656   22.7446 H   0  0  0  0  0  0
  -21.0861   -8.8799   19.8906 H   0  0  0  0  0  0
  -22.3720  -10.9699   19.6143 H   0  0  0  0  0  0
  -21.2004   -7.6162   23.9745 H   0  0  0  0  0  0
  -21.1473   -6.0507   25.9088 H   0  0  0  0  0  0
  -22.0581   -2.7613   23.2854 H   0  0  0  0  0  0
  -22.4111  -11.9835   22.4794 H   0  0  0  0  0  0
  -21.1059  -13.1129   22.2606 H   0  0  0  0  0  0
  -24.6520  -15.8469   20.5624 H   0  0  0  0  0  0
  -26.2651  -15.6414   20.0997 H   0  0  0  0  0  0
  -26.7219  -32.5354   23.1064 H   0  0  0  0  0  0
  -25.0121  -33.9705   25.0396 H   0  0  0  0  0  0
  -22.7256  -31.2993   21.4055 H   0  0  0  0  0  0
  -23.3778  -35.9579   23.3309 H   0  0  0  0  0  0
  -24.3554  -36.8922   22.2054 H   0  0  0  0  0  0
  -23.7226  -37.6449   23.6703 H   0  0  0  0  0  0
  -26.1360  -31.5135   20.6263 H   0  0  0  0  0  0
  -26.8520  -30.7835   22.0342 H   0  0  0  0  0  0
  -28.1144  -28.8736   21.2159 H   0  0  0  0  0  0
  -25.9109  -25.9335   18.9286 H   0  0  0  0  0  0
  -23.9605  -27.3482   18.9640 H   0  0  0  0  0  0
  -23.7765  -30.6047   19.4105 H   0  0  0  0  0  0
  -22.7648  -29.2660   19.8501 H   0  0  0  0  0  0
  -25.1301  -36.1906   25.0797 H   0  0  0  0  0  0
  -20.9944  -28.3284   24.1415 H   0  0  0  0  0  0
  -20.5725  -26.2290   23.3609 H   0  0  0  0  0  0
  -21.6642  -26.7462   22.1194 H   0  0  0  0  0  0
  -19.6908  -25.6290   21.1263 H   0  0  0  0  0  0
  -19.6697  -27.3188   20.6765 H   0  0  0  0  0  0
  -17.4198  -26.6719   21.4031 H   0  0  0  0  0  0
  -18.0292  -26.0071   22.9010 H   0  0  0  0  0  0
  -19.7941  -30.7323   24.2191 H   0  0  0  0  0  0
  -17.5014  -31.6270   24.5191 H   0  0  0  0  0  0
  -15.5349  -30.2972   23.7701 H   0  0  0  0  0  0
  -15.8682  -28.0823   22.7083 H   0  0  0  0  0  0
  -24.5913  -30.7081   25.7811 H   0  0  0  0  0  0
  -24.8890  -32.2919   26.4882 H   0  0  0  0  0  0
  -25.8019  -30.8956   27.0290 H   0  0  0  0  0  0
  -26.3032  -29.6755   24.1290 H   0  0  0  0  0  0
  -27.4044  -29.7312   25.4858 H   0  0  0  0  0  0
  -27.8920  -30.4318   23.9616 H   0  0  0  0  0  0
  -27.2648  -33.3704   26.2081 H   0  0  0  0  0  0
  -28.3896  -32.6909   25.0407 H   0  0  0  0  0  0
  -28.0699  -31.8553   26.5525 H   0  0  0  0  0  0
  -28.2582  -38.0108   24.7543 H   0  0  0  0  0  0
  -28.1089  -36.2634   24.6276 H   0  0  0  0  0  0
  -27.2280  -37.1408   25.8867 H   0  0  0  0  0  0
  -20.9420  -29.8729   21.6849 H   0  0  0  0  0  0
  -26.0173  -38.2828   24.1460 H   0  0  0  0  0  0
  -29.1089  -18.5112   21.7688 H   0  0  0  0  0  0
  -28.7723  -23.4369   22.5261 H   0  0  0  0  0  0
  -27.3428  -22.9593   21.6437 H   0  0  0  0  0  0
  -28.0770  -20.7952   22.0849 H   0  0  0  0  0  0
  -29.7595  -21.2752   22.2338 H   0  0  0  0  0  0
  -29.6433  -22.2969   18.6292 H   0  0  0  0  0  0
  -27.9328  -22.1444   18.9674 H   0  0  0  0  0  0
  -28.9869  -20.6497   17.2115 H   0  0  0  0  0  0
  -29.7805  -19.3020   16.4411 H   0  0  0  0  0  0
  -30.7570  -20.5390   17.2292 H   0  0  0  0  0  0
  -31.0522  -23.2128   20.8570 H   0  0  0  0  0  0
  -30.4772  -24.8326   21.2403 H   0  0  0  0  0  0
  -30.8244  -24.3963   19.5702 H   0  0  0  0  0  0
  -27.0440  -24.5785   20.0592 H   0  0  0  0  0  0
  -28.1160  -24.8386   18.7218 H   0  0  0  0  0  0
  -28.9234  -15.6121   21.1819 H   0  0  0  0  0  0
  1 25  1  0  0  0
  1 30  2  0  0  0
  1 83  1  0  0  0
  2  3  1  0  0  0
  2 25  1  0  0  0
  2 85  1  0  0  0
  2 86  1  0  0  0
  3  4  1  0  0  0
  3 87  1  0  0  0
  3 88  1  0  0  0
  4  5  1  0  0  0
  4 89  1  0  0  0
  4 90  1  0  0  0
  5  6  1  0  0  0
  5 26  1  0  0  0
  5 91  1  0  0  0
  6 25  1  0  0  0
  6 92  1  0  0  0
  6 93  1  0  0  0
  7  8  2  0  0  0
  7 26  1  0  0  0
  7 29  1  0  0  0
  8  9  1  0  0  0
  8 22  1  0  0  0
  9 10  1  0  0  0
  9 27  2  0  0  0
 10 11  2  0  0  0
 10 15  1  0  0  0
 11 12  1  0  0  0
 11 94  1  0  0  0
 12 13  2  0  0  0
 12 95  1  0  0  0
 13 14  1  0  0  0
 13 31  1  0  0  0
 14 15  2  0  0  0
 14 96  1  0  0  0
 15 97  1  0  0  0
 16 17  2  0  0  0
 16 21  1  0  0  0
 16 31  1  0  0  0
 17 18  1  0  0  0
 17 98  1  0  0  0
 18 19  2  0  0  0
 18 99  1  0  0  0
 19 20  1  0  0  0
 19 24  1  0  0  0
 20 21  2  0  0  0
 20100  1  0  0  0
 21 23  1  0  0  0
 22 28  1  0  0  0
 22 32  2  0  0  0
 26 27  1  0  0  0
 28101  1  0  0  0
 28102  1  0  0  0
 29103  1  0  0  0
 29104  1  0  0  0
 33 34  1  0  0  0
 33 66  1  0  0  0
 33 70  2  0  0  0
 34 36  1  0  0  0
 34 59  1  0  0  0
 34105  1  0  0  0
 35 44  2  0  0  0
 35 45  1  0  0  0
 35 68  1  0  0  0
 36 56  1  0  0  0
 36106  1  0  0  0
 37 39  1  0  0  0
 37 47  1  0  0  0
 37 66  1  0  0  0
 37107  1  0  0  0
 38 43  2  0  0  0
 38 46  1  0  0  0
 38 47  1  0  0  0
 39 64  1  0  0  0
 39 67  2  0  0  0
 40 52  1  0  0  0
 40 53  2  0  0  0
 40 58  1  0  0  0
 41108  1  0  0  0
 41109  1  0  0  0
 41110  1  0  0  0
 41 48  1  0  0  0
 42 43  1  0  0  0
 42 66  1  0  0  0
 42111  1  0  0  0
 42112  1  0  0  0
 43 44  1  0  0  0
 44113  1  0  0  0
 45 46  2  0  0  0
 45114  1  0  0  0
 46115  1  0  0  0
 47116  1  0  0  0
 47117  1  0  0  0
 48 56  1  0  0  0
 48 65  1  0  0  0
 48118  1  0  0  0
 49 50  1  0  0  0
 49 53  1  0  0  0
 49 64  1  0  0  0
 49119  1  0  0  0
 50 51  1  0  0  0
 50120  1  0  0  0
 50121  1  0  0  0
 51 52  1  0  0  0
 51122  1  0  0  0
 51123  1  0  0  0
 52124  1  0  0  0
 52125  1  0  0  0
 53 54  1  0  0  0
 54 55  2  0  0  0
 54126  1  0  0  0
 55 57  1  0  0  0
 55127  1  0  0  0
 56 69  2  0  0  0
 57 58  2  0  0  0
 57128  1  0  0  0
 58129  1  0  0  0
 59 60  1  0  0  0
 59 61  1  0  0  0
 59 62  1  0  0  0
 60130  1  0  0  0
 60131  1  0  0  0
 60132  1  0  0  0
 61133  1  0  0  0
 61134  1  0  0  0
 61135  1  0  0  0
 62136  1  0  0  0
 62137  1  0  0  0
 62138  1  0  0  0
 63 65  1  0  0  0
 63139  1  0  0  0
 63140  1  0  0  0
 63141  1  0  0  0
 64142  1  0  0  0
 65143  1  0  0  0
 68 81  1  0  0  0
 71 72  1  0  0  0
 71 74  2  0  0  0
 71144  1  0  0  0
 72 73  2  0  0  0
 72 82  1  0  0  0
 73 79  1  0  0  0
 73 84  1  0  0  0
 74 83  1  0  0  0
 74 84  1  0  0  0
 75 76  1  0  0  0
 75 78  1  0  0  0
 75145  1  0  0  0
 75146  1  0  0  0
 76 82  1  0  0  0
 76147  1  0  0  0
 76148  1  0  0  0
 77 78  1  0  0  0
 77 82  1  0  0  0
 77149  1  0  0  0
 77150  1  0  0  0
 78 80  1  0  0  0
 78 81  1  0  0  0
 79151  1  0  0  0
 79152  1  0  0  0
 79153  1  0  0  0
 80154  1  0  0  0
 80155  1  0  0  0
 80156  1  0  0  0
 81157  1  0  0  0
 81158  1  0  0  0
 83159  1  0  0  0
M  ISO  4   1 100  68 101  81 101  83 100
M  END
> <chiral flag>
0

> <version>
0

> <s_m_source_file>
/data/baiqing/PycharmProjects/Reinvent-master-3.2/result/LINK_invent/BTK/process_docking_weight1_custom_product_contain_oxygen_bond_distance_aromatic_linkinvent_7_9_3/rearranged_h_0153.sdf

> <i_m_source_file_index>
54

> <r_mmod_Potential_Energy-OPLS-2005>
269.645904541016

> <r_mmod_Stretch_Energy-OPLS-2005>
126.69799041748

> <r_mmod_Bend_Energy-OPLS-2005>
204.927642822266

> <r_mmod_Torsional_Energy-OPLS-2005>
307.078430175781

> <r_mmod_Improper_Torsional_Energy-OPLS-2005>
4.16758632659912

> <r_mmod_Van_der_Waal_Energy-OPLS-2005>
117.788497924805

> <r_mmod_Electrostatic_Energy-OPLS-2005>
-363.017730712891

> <r_mmod_Solvation_Energy-OPLS-2005>
-225.325744628906

> <b_mmod_Minimization_Converged-OPLS-2005>
0

> <r_mmod_RMS_Derivative-OPLS-2005>
3.39905858039856

$$$$
54
                    3D
 Structure written by MMmdl.
158166  0  0  1  0            999 V2000
  -30.6152  -14.7381   20.4353 C   0  0  0  0  0  0
  -30.4255  -12.4446   19.4785 C   0  0  0  0  0  0
  -29.5088  -12.5021   18.2370 C   0  0  0  0  0  0
  -28.0339  -12.3314   18.6481 C   0  0  0  0  0  0
  -27.6391  -13.2336   19.8481 C   0  0  2  0  0  0
  -28.6819  -13.1740   20.9856 C   0  0  0  0  0  0
  -25.2497  -13.8202   20.5694 C   0  0  0  0  0  0
  -24.1796  -13.0443   20.9215 C   0  0  0  0  0  0
  -24.6393  -11.6922   20.8755 C   0  0  0  0  0  0
  -23.9076  -10.4294   21.0414 C   0  0  0  0  0  0
  -24.3626   -9.4206   21.9189 C   0  0  0  0  0  0
  -23.6297   -8.2242   22.0757 C   0  0  0  0  0  0
  -22.4277   -8.0284   21.3548 C   0  0  0  0  0  0
  -21.9915   -9.0260   20.4651 C   0  0  0  0  0  0
  -22.7249  -10.2137   20.3061 C   0  0  0  0  0  0
  -21.6852   -6.0739   22.5281 C   0  0  0  0  0  0
  -21.4016   -6.5643   23.8216 C   0  0  0  0  0  0
  -21.3659   -5.6795   24.9177 C   0  0  0  0  0  0
  -21.6041   -4.3057   24.7225 C   0  0  0  0  0  0
  -21.8819   -3.8149   23.4346 C   0  0  0  0  0  0
  -21.9192   -4.6968   22.3403 C   0  0  0  0  0  0
  -22.7818  -13.5222   21.1868 C   0  0  0  0  0  0
  -22.1659   -4.2155   21.0980 F   0  0  0  0  0  0
  -21.5627   -3.4540   25.7737 F   0  0  0  0  0  0
  -29.9842  -13.5150   20.4032 N   0  0  0  0  0  0
  -26.2921  -12.9413   20.3266 N   0  0  0  0  0  0
  -25.9320  -11.6555   20.5748 N   0  0  0  0  0  0
  -22.0462  -12.8215   22.0424 N   0  0  0  0  0  0
  -25.4176  -15.1929   20.4103 N   0  0  0  0  0  0
  -31.8159  -14.7930   20.1559 O   0  0  0  0  0  0
  -21.6639   -6.8882   21.4243 O   0  0  0  0  0  0
  -22.3503  -14.5526   20.6714 O   0  0  0  0  0  0
  -24.6290  -31.8544   23.1961 C   0  0  0  0  0  0
  -25.9118  -32.4747   23.8311 C   0  0  1  0  0  0
  -27.2270  -27.2679   20.1263 C   0  0  0  0  0  0
  -25.5913  -33.8549   24.2240 N   0  0  0  0  0  0
  -23.4249  -30.4744   21.5392 C   0  0  2  0  0  0
  -24.8704  -28.9138   20.1108 C   0  0  0  0  0  0
  -22.7489  -29.4590   22.4913 C   0  0  0  0  0  0
  -18.0290  -28.1389   22.8486 C   0  0  0  0  0  0
  -24.1488  -36.7286   23.2642 C   0  0  0  0  0  0
  -25.9668  -30.7698   21.3713 C   0  0  0  0  0  0
  -26.0379  -29.3903   20.7172 C   0  0  0  0  0  0
  -27.2127  -28.5779   20.7132 C   0  0  0  0  0  0
  -26.0294  -26.8424   19.5102 C   0  0  0  0  0  0
  -24.8701  -27.6480   19.4992 C   0  0  0  0  0  0
  -23.6418  -29.8019   20.1564 C   0  0  0  0  0  0
  -25.4114  -36.3066   24.0326 C   0  0  1  0  0  0
  -20.5891  -28.3694   23.1279 C   0  0  2  0  0  0
  -20.6775  -26.9414   22.5414 C   0  0  0  0  0  0
  -19.5751  -26.6385   21.5215 C   0  0  0  0  0  0
  -18.1932  -26.7931   22.1627 C   0  0  0  0  0  0
  -19.1543  -28.8858   23.2878 C   0  0  0  0  0  0
  -18.9465  -30.1459   23.8898 C   0  0  0  0  0  0
  -17.6464  -30.6589   24.0564 C   0  0  0  0  0  0
  -25.9053  -34.9437   23.5091 C   0  0  0  0  0  0
  -16.5355  -29.9089   23.6326 C   0  0  0  0  0  0
  -16.7277  -28.6506   23.0348 C   0  0  0  0  0  0
  -26.4494  -31.6576   25.0701 C   0  0  0  0  0  0
  -25.3718  -31.3725   26.1423 C   0  0  0  0  0  0
  -27.0345  -30.2999   24.6176 C   0  0  0  0  0  0
  -27.6047  -32.4320   25.7476 C   0  0  0  0  0  0
  -27.5578  -37.1797   24.8465 C   0  0  0  0  0  0
  -21.4198  -29.3038   22.3666 N   0  0  0  0  0  0
  -26.4289  -37.3765   23.9409 N   0  0  0  0  0  0
  -24.6929  -31.0513   22.0927 N   0  0  0  0  0  0
  -23.4199  -28.8139   23.3010 O   0  0  0  0  0  0
  -28.3800  -26.4576   20.1973 O   0  0  0  0  0  0
  -26.5636  -34.8914   22.4667 O   0  0  0  0  0  0
  -23.5445  -32.1361   23.7268 O   0  0  0  0  0  0
  -31.1842  -17.5793   19.2888 C   0  0  0  0  0  0
  -30.6807  -19.9851   19.2220 C   0  0  0  0  0  0
  -29.3235  -18.4773   20.5634 C   0  0  0  0  0  0
  -31.4661  -18.8825   18.8290 C   0  0  0  0  0  0
  -30.1159  -17.3085   20.1779 C   0  0  0  0  0  0
  -29.5844  -19.8421   20.0998 C   0  0  0  0  0  0
  -32.5965  -19.0934   17.9293 C   0  0  0  0  0  0
  -29.0374  -22.4221   19.8446 C   0  0  0  0  0  0
  -28.3091  -23.7605   20.4233 C   0  0  0  0  0  0
  -28.5864  -25.1709   19.6482 C   0  0  0  0  0  0
  -33.7735  -18.5277   18.1819 N   0  0  0  0  0  0
  -29.8508  -15.8938   20.5947 N   0  0  0  0  0  0
  -28.8354  -21.0379   20.4635 N   0  0  0  0  0  0
  -32.4667  -19.8555   16.8457 N   0  3  0  0  0  0
  -26.9926  -23.5457   20.4376 F   0  0  0  0  0  0
  -28.7103  -23.9057   21.6873 F   0  0  0  0  0  0
  -29.9228  -25.0959   19.4315 F   0  0  0  0  0  0
  -28.0620  -25.1012   18.3993 F   0  0  0  0  0  0
  -31.4688  -12.5551   19.1784 H   0  0  0  0  0  0
  -30.3578  -11.4702   19.9650 H   0  0  0  0  0  0
  -29.7896  -11.7270   17.5227 H   0  0  0  0  0  0
  -29.6409  -13.4555   17.7223 H   0  0  0  0  0  0
  -27.8877  -11.2832   18.9118 H   0  0  0  0  0  0
  -27.3786  -12.5242   17.7978 H   0  0  0  0  0  0
  -27.6319  -14.2539   19.4643 H   0  0  0  0  0  0
  -28.7124  -12.1803   21.4349 H   0  0  0  0  0  0
  -28.4196  -13.8649   21.7883 H   0  0  0  0  0  0
  -25.2770   -9.5678   22.4766 H   0  0  0  0  0  0
  -24.0006   -7.4630   22.7476 H   0  0  0  0  0  0
  -21.0846   -8.8784   19.8956 H   0  0  0  0  0  0
  -22.3711  -10.9679   19.6172 H   0  0  0  0  0  0
  -21.2012   -7.6152   23.9722 H   0  0  0  0  0  0
  -21.1479   -6.0524   25.9081 H   0  0  0  0  0  0
  -22.0597   -2.7612   23.2844 H   0  0  0  0  0  0
  -22.4077  -11.9880   22.4820 H   0  0  0  0  0  0
  -21.1079  -13.1247   22.2626 H   0  0  0  0  0  0
  -24.6451  -15.8415   20.5162 H   0  0  0  0  0  0
  -26.2545  -15.6322   20.0497 H   0  0  0  0  0  0
  -26.7179  -32.5401   23.1050 H   0  0  0  0  0  0
  -25.0036  -33.9685   25.0368 H   0  0  0  0  0  0
  -22.7207  -31.2957   21.3911 H   0  0  0  0  0  0
  -23.3747  -35.9621   23.3301 H   0  0  0  0  0  0
  -24.3577  -36.8915   22.2058 H   0  0  0  0  0  0
  -23.7247  -37.6487   23.6673 H   0  0  0  0  0  0
  -26.0993  -31.5282   20.5984 H   0  0  0  0  0  0
  -26.8471  -30.8240   22.0006 H   0  0  0  0  0  0
  -28.1104  -28.9405   21.1936 H   0  0  0  0  0  0
  -25.9582  -25.8666   19.0550 H   0  0  0  0  0  0
  -23.9714  -27.2741   19.0287 H   0  0  0  0  0  0
  -23.7672  -30.5752   19.3975 H   0  0  0  0  0  0
  -22.7600  -29.2346   19.8531 H   0  0  0  0  0  0
  -25.1297  -36.1911   25.0819 H   0  0  0  0  0  0
  -20.9984  -28.3275   24.1399 H   0  0  0  0  0  0
  -20.5671  -26.2307   23.3620 H   0  0  0  0  0  0
  -21.6644  -26.7437   22.1211 H   0  0  0  0  0  0
  -19.6912  -25.6295   21.1248 H   0  0  0  0  0  0
  -19.6687  -27.3194   20.6744 H   0  0  0  0  0  0
  -17.4201  -26.6678   21.4031 H   0  0  0  0  0  0
  -18.0331  -26.0076   22.9027 H   0  0  0  0  0  0
  -19.7940  -30.7274   24.2269 H   0  0  0  0  0  0
  -17.5018  -31.6267   24.5169 H   0  0  0  0  0  0
  -15.5356  -30.2993   23.7644 H   0  0  0  0  0  0
  -15.8679  -28.0825   22.7062 H   0  0  0  0  0  0
  -24.5898  -30.7067   25.7753 H   0  0  0  0  0  0
  -24.8901  -32.2892   26.4833 H   0  0  0  0  0  0
  -25.8034  -30.8915   27.0210 H   0  0  0  0  0  0
  -26.2924  -29.6737   24.1209 H   0  0  0  0  0  0
  -27.4047  -29.7269   25.4688 H   0  0  0  0  0  0
  -27.8790  -30.4284   23.9401 H   0  0  0  0  0  0
  -27.2655  -33.3628   26.2037 H   0  0  0  0  0  0
  -28.3866  -32.6868   25.0310 H   0  0  0  0  0  0
  -28.0704  -31.8455   26.5407 H   0  0  0  0  0  0
  -28.2591  -38.0097   24.7507 H   0  0  0  0  0  0
  -28.1077  -36.2626   24.6295 H   0  0  0  0  0  0
  -27.2296  -37.1450   25.8868 H   0  0  0  0  0  0
  -20.9385  -29.8761   21.6870 H   0  0  0  0  0  0
  -26.0166  -38.2839   24.1407 H   0  0  0  0  0  0
  -31.8079  -16.7851   18.9094 H   0  0  0  0  0  0
  -30.9570  -20.9553   18.8382 H   0  0  0  0  0  0
  -28.4905  -18.3228   21.2329 H   0  0  0  0  0  0
  -30.1066  -22.6325   19.8685 H   0  0  0  0  0  0
  -28.7792  -22.3412   18.7880 H   0  0  0  0  0  0
  -33.8878  -17.9945   19.0323 H   0  0  0  0  0  0
  -34.5778  -18.6399   17.5848 H   0  0  0  0  0  0
  -28.9214  -15.7198   20.9458 H   0  0  0  0  0  0
  -28.0466  -20.9421   21.0963 H   0  0  0  0  0  0
  -31.5583  -20.2283   16.6129 H   0  0  0  0  0  0
  -33.2274  -20.0244   16.2069 H   0  0  0  0  0  0
  1 25  1  0  0  0
  1 30  2  0  0  0
  1 82  1  0  0  0
  2  3  1  0  0  0
  2 25  1  0  0  0
  2 89  1  0  0  0
  2 90  1  0  0  0
  3  4  1  0  0  0
  3 91  1  0  0  0
  3 92  1  0  0  0
  4  5  1  0  0  0
  4 93  1  0  0  0
  4 94  1  0  0  0
  5  6  1  0  0  0
  5 26  1  0  0  0
  5 95  1  0  0  0
  6 25  1  0  0  0
  6 96  1  0  0  0
  6 97  1  0  0  0
  7  8  2  0  0  0
  7 26  1  0  0  0
  7 29  1  0  0  0
  8  9  1  0  0  0
  8 22  1  0  0  0
  9 10  1  0  0  0
  9 27  2  0  0  0
 10 11  2  0  0  0
 10 15  1  0  0  0
 11 12  1  0  0  0
 11 98  1  0  0  0
 12 13  2  0  0  0
 12 99  1  0  0  0
 13 14  1  0  0  0
 13 31  1  0  0  0
 14 15  2  0  0  0
 14100  1  0  0  0
 15101  1  0  0  0
 16 17  2  0  0  0
 16 21  1  0  0  0
 16 31  1  0  0  0
 17 18  1  0  0  0
 17102  1  0  0  0
 18 19  2  0  0  0
 18103  1  0  0  0
 19 20  1  0  0  0
 19 24  1  0  0  0
 20 21  2  0  0  0
 20104  1  0  0  0
 21 23  1  0  0  0
 22 28  1  0  0  0
 22 32  2  0  0  0
 26 27  1  0  0  0
 28105  1  0  0  0
 28106  1  0  0  0
 29107  1  0  0  0
 29108  1  0  0  0
 33 34  1  0  0  0
 33 66  1  0  0  0
 33 70  2  0  0  0
 34 36  1  0  0  0
 34 59  1  0  0  0
 34109  1  0  0  0
 35 44  2  0  0  0
 35 45  1  0  0  0
 35 68  1  0  0  0
 36 56  1  0  0  0
 36110  1  0  0  0
 37 39  1  0  0  0
 37 47  1  0  0  0
 37 66  1  0  0  0
 37111  1  0  0  0
 38 43  2  0  0  0
 38 46  1  0  0  0
 38 47  1  0  0  0
 39 64  1  0  0  0
 39 67  2  0  0  0
 40 52  1  0  0  0
 40 53  2  0  0  0
 40 58  1  0  0  0
 41112  1  0  0  0
 41113  1  0  0  0
 41114  1  0  0  0
 41 48  1  0  0  0
 42 43  1  0  0  0
 42 66  1  0  0  0
 42115  1  0  0  0
 42116  1  0  0  0
 43 44  1  0  0  0
 44117  1  0  0  0
 45 46  2  0  0  0
 45118  1  0  0  0
 46119  1  0  0  0
 47120  1  0  0  0
 47121  1  0  0  0
 48 56  1  0  0  0
 48 65  1  0  0  0
 48122  1  0  0  0
 49 50  1  0  0  0
 49 53  1  0  0  0
 49 64  1  0  0  0
 49123  1  0  0  0
 50 51  1  0  0  0
 50124  1  0  0  0
 50125  1  0  0  0
 51 52  1  0  0  0
 51126  1  0  0  0
 51127  1  0  0  0
 52128  1  0  0  0
 52129  1  0  0  0
 53 54  1  0  0  0
 54 55  2  0  0  0
 54130  1  0  0  0
 55 57  1  0  0  0
 55131  1  0  0  0
 56 69  2  0  0  0
 57 58  2  0  0  0
 57132  1  0  0  0
 58133  1  0  0  0
 59 60  1  0  0  0
 59 61  1  0  0  0
 59 62  1  0  0  0
 60134  1  0  0  0
 60135  1  0  0  0
 60136  1  0  0  0
 61137  1  0  0  0
 61138  1  0  0  0
 61139  1  0  0  0
 62140  1  0  0  0
 62141  1  0  0  0
 62142  1  0  0  0
 63 65  1  0  0  0
 63143  1  0  0  0
 63144  1  0  0  0
 63145  1  0  0  0
 64146  1  0  0  0
 65147  1  0  0  0
 68 80  1  0  0  0
 71 74  2  0  0  0
 71 75  1  0  0  0
 71148  1  0  0  0
 72 74  1  0  0  0
 72 76  2  0  0  0
 72149  1  0  0  0
 73 75  2  0  0  0
 73 76  1  0  0  0
 73150  1  0  0  0
 74 77  1  0  0  0
 75 82  1  0  0  0
 76 83  1  0  0  0
 77 81  1  0  0  0
 77 84  2  0  0  0
 78 79  1  0  0  0
 78 83  1  0  0  0
 78151  1  0  0  0
 78152  1  0  0  0
 79 80  1  0  0  0
 79 85  1  0  0  0
 79 86  1  0  0  0
 80 87  1  0  0  0
 80 88  1  0  0  0
 81153  1  0  0  0
 81154  1  0  0  0
 82155  1  0  0  0
 83156  1  0  0  0
 84157  1  0  0  0
 84158  1  0  0  0
M  CHG  1  84   1
M  ISO  4   1 100  68 101  80 101  82 100
M  END
> <chiral flag>
0

> <version>
0

> <s_m_source_file>
/data/baiqing/PycharmProjects/Reinvent-master-3.2/result/LINK_invent/BTK/process_docking_weight1_custom_product_contain_oxygen_bond_distance_aromatic_linkinvent_7_9_3/rearranged_h_0153.sdf

> <i_m_source_file_index>
55

> <r_mmod_Potential_Energy-OPLS-2005>
-58.1421508789062

> <r_mmod_Stretch_Energy-OPLS-2005>
130.389022827148

> <r_mmod_Bend_Energy-OPLS-2005>
197.794509887695

> <r_mmod_Torsional_Energy-OPLS-2005>
190.285064697266

> <r_mmod_Improper_Torsional_Energy-OPLS-2005>
4.65695285797119

> <r_mmod_Van_der_Waal_Energy-OPLS-2005>
149.776626586914

> <r_mmod_Electrostatic_Energy-OPLS-2005>
-375.308380126953

> <r_mmod_Solvation_Energy-OPLS-2005>
-433.910400390625

> <b_mmod_Minimization_Converged-OPLS-2005>
0

> <r_mmod_RMS_Derivative-OPLS-2005>
0.428541213274002

$$$$
55
                    3D
 Structure written by MMmdl.
152161  0  0  1  0            999 V2000
  -30.6024  -14.7659   20.4174 C   0  0  0  0  0  0
  -30.4421  -12.4590   19.4757 C   0  0  0  0  0  0
  -29.5245  -12.5228   18.2348 C   0  0  0  0  0  0
  -28.0458  -12.3593   18.6417 C   0  0  0  0  0  0
  -27.6508  -13.2375   19.8580 C   0  0  2  0  0  0
  -28.6991  -13.1706   20.9935 C   0  0  0  0  0  0
  -25.2557  -13.8190   20.5700 C   0  0  0  0  0  0
  -24.1847  -13.0431   20.9203 C   0  0  0  0  0  0
  -24.6442  -11.6902   20.8738 C   0  0  0  0  0  0
  -23.9113  -10.4272   21.0390 C   0  0  0  0  0  0
  -24.3647   -9.4175   21.9172 C   0  0  0  0  0  0
  -23.6282   -8.2223   22.0758 C   0  0  0  0  0  0
  -22.4258   -8.0279   21.3560 C   0  0  0  0  0  0
  -21.9926   -9.0261   20.4667 C   0  0  0  0  0  0
  -22.7276  -10.2122   20.3051 C   0  0  0  0  0  0
  -21.6842   -6.0725   22.5275 C   0  0  0  0  0  0
  -21.4013   -6.5631   23.8209 C   0  0  0  0  0  0
  -21.3671   -5.6794   24.9180 C   0  0  0  0  0  0
  -21.6047   -4.3049   24.7219 C   0  0  0  0  0  0
  -21.8828   -3.8139   23.4333 C   0  0  0  0  0  0
  -21.9201   -4.6957   22.3394 C   0  0  0  0  0  0
  -22.7881  -13.5240   21.1855 C   0  0  0  0  0  0
  -22.1666   -4.2141   21.0964 F   0  0  0  0  0  0
  -21.5644   -3.4544   25.7732 F   0  0  0  0  0  0
  -30.0004  -13.5234   20.4105 N   0  0  0  0  0  0
  -26.2995  -12.9413   20.3275 N   0  0  0  0  0  0
  -25.9375  -11.6545   20.5711 N   0  0  0  0  0  0
  -22.0506  -12.8255   22.0408 N   0  0  0  0  0  0
  -25.4267  -15.1918   20.4161 N   0  0  0  0  0  0
  -31.7798  -14.8692   20.0597 O   0  0  0  0  0  0
  -21.6618   -6.8869   21.4241 O   0  0  0  0  0  0
  -22.3545  -14.5532   20.6685 O   0  0  0  0  0  0
  -24.6302  -31.8530   23.1996 C   0  0  0  0  0  0
  -25.9133  -32.4735   23.8309 C   0  0  1  0  0  0
  -27.2092  -27.2474   20.1065 C   0  0  0  0  0  0
  -25.5918  -33.8531   24.2212 N   0  0  0  0  0  0
  -23.4259  -30.4793   21.5426 C   0  0  2  0  0  0
  -24.8695  -28.9274   20.1046 C   0  0  0  0  0  0
  -22.7473  -29.4595   22.4904 C   0  0  0  0  0  0
  -18.0284  -28.1386   22.8479 C   0  0  0  0  0  0
  -24.1487  -36.7284   23.2641 C   0  0  0  0  0  0
  -25.9729  -30.7606   21.3816 C   0  0  0  0  0  0
  -26.0436  -29.3833   20.7194 C   0  0  0  0  0  0
  -27.2113  -28.5523   20.7189 C   0  0  0  0  0  0
  -26.0149  -26.8794   19.4442 C   0  0  0  0  0  0
  -24.8591  -27.6823   19.4641 C   0  0  0  0  0  0
  -23.6448  -29.8195   20.1567 C   0  0  0  0  0  0
  -25.4105  -36.3046   24.0320 C   0  0  1  0  0  0
  -20.5875  -28.3678   23.1282 C   0  0  2  0  0  0
  -20.6751  -26.9397   22.5416 C   0  0  0  0  0  0
  -19.5738  -26.6372   21.5206 C   0  0  0  0  0  0
  -18.1921  -26.7927   22.1618 C   0  0  0  0  0  0
  -19.1533  -28.8848   23.2886 C   0  0  0  0  0  0
  -18.9463  -30.1453   23.8899 C   0  0  0  0  0  0
  -17.6463  -30.6592   24.0555 C   0  0  0  0  0  0
  -25.9049  -34.9426   23.5067 C   0  0  0  0  0  0
  -16.5348  -29.9094   23.6327 C   0  0  0  0  0  0
  -16.7274  -28.6512   23.0343 C   0  0  0  0  0  0
  -26.4503  -31.6562   25.0699 C   0  0  0  0  0  0
  -25.3747  -31.3721   26.1442 C   0  0  0  0  0  0
  -27.0326  -30.2968   24.6179 C   0  0  0  0  0  0
  -27.6024  -32.4311   25.7497 C   0  0  0  0  0  0
  -27.5574  -37.1782   24.8448 C   0  0  0  0  0  0
  -21.4176  -29.3042   22.3670 N   0  0  0  0  0  0
  -26.4262  -37.3760   23.9425 N   0  0  0  0  0  0
  -24.6957  -31.0476   22.0990 N   0  0  0  0  0  0
  -23.4177  -28.8123   23.2991 O   0  0  0  0  0  0
  -28.2977  -26.3371   20.1813 O   0  0  0  0  0  0
  -26.5627  -34.8919   22.4641 O   0  0  0  0  0  0
  -23.5454  -32.1371   23.7293 O   0  0  0  0  0  0
  -30.0828  -17.5146   18.8047 C   0  0  0  0  0  0
  -29.8665  -17.2741   20.1442 C   0  0  0  0  0  0
  -29.5061  -19.6503   20.0289 C   0  0  0  0  0  0
  -28.4921  -23.0534   21.6699 C   0  0  0  0  0  0
  -28.9515  -21.5644   21.7326 C   0  0  0  0  0  0
  -29.0852  -22.2701   19.5278 C   0  0  0  0  0  0
  -28.9945  -23.6400   20.3509 C   0  0  1  0  0  0
  -28.1243  -24.8919   19.7716 C   0  0  0  0  0  0
  -29.5179  -18.5173   20.8133 N   0  0  0  0  0  0
  -29.2168  -21.0368   20.3889 N   0  0  0  0  0  0
  -29.8305  -15.8905   20.6961 N   0  0  0  0  0  0
  -29.9003  -19.2130   18.3633 S   0  0  0  0  0  0
  -31.4866  -12.5727   19.1781 H   0  0  0  0  0  0
  -30.3738  -11.4775   19.9468 H   0  0  0  0  0  0
  -29.8128  -11.7588   17.5111 H   0  0  0  0  0  0
  -29.6573  -13.4799   17.7268 H   0  0  0  0  0  0
  -27.8793  -11.3075   18.8721 H   0  0  0  0  0  0
  -27.3992  -12.5898   17.7942 H   0  0  0  0  0  0
  -27.6511  -14.2633   19.4881 H   0  0  0  0  0  0
  -28.7386  -12.1793   21.4459 H   0  0  0  0  0  0
  -28.4348  -13.8582   21.7985 H   0  0  0  0  0  0
  -25.2780   -9.5648   22.4761 H   0  0  0  0  0  0
  -23.9994   -7.4615   22.7469 H   0  0  0  0  0  0
  -21.0869   -8.8789   19.8963 H   0  0  0  0  0  0
  -22.3731  -10.9666   19.6167 H   0  0  0  0  0  0
  -21.1986   -7.6144   23.9708 H   0  0  0  0  0  0
  -21.1506   -6.0516   25.9086 H   0  0  0  0  0  0
  -22.0598   -2.7603   23.2808 H   0  0  0  0  0  0
  -22.4098  -11.9894   22.4769 H   0  0  0  0  0  0
  -21.1114  -13.1296   22.2543 H   0  0  0  0  0  0
  -24.6568  -15.8407   20.5349 H   0  0  0  0  0  0
  -26.2680  -15.6312   20.0654 H   0  0  0  0  0  0
  -26.7188  -32.5385   23.1035 H   0  0  0  0  0  0
  -25.0028  -33.9625   25.0338 H   0  0  0  0  0  0
  -22.7261  -31.3062   21.3993 H   0  0  0  0  0  0
  -23.3732  -35.9630   23.3256 H   0  0  0  0  0  0
  -24.3618  -36.8946   22.2070 H   0  0  0  0  0  0
  -23.7247  -37.6469   23.6707 H   0  0  0  0  0  0
  -26.1034  -31.5225   20.6122 H   0  0  0  0  0  0
  -26.8548  -30.8144   22.0088 H   0  0  0  0  0  0
  -28.1016  -28.8858   21.2320 H   0  0  0  0  0  0
  -25.9254  -25.9453   18.9097 H   0  0  0  0  0  0
  -23.9609  -27.3259   18.9775 H   0  0  0  0  0  0
  -23.7774  -30.6002   19.4061 H   0  0  0  0  0  0
  -22.7600  -29.2603   19.8459 H   0  0  0  0  0  0
  -25.1289  -36.1862   25.0806 H   0  0  0  0  0  0
  -20.9981  -28.3252   24.1396 H   0  0  0  0  0  0
  -20.5597  -26.2298   23.3620 H   0  0  0  0  0  0
  -21.6630  -26.7395   22.1252 H   0  0  0  0  0  0
  -19.6888  -25.6278   21.1252 H   0  0  0  0  0  0
  -19.6688  -27.3165   20.6725 H   0  0  0  0  0  0
  -17.4184  -26.6660   21.4025 H   0  0  0  0  0  0
  -18.0343  -26.0082   22.9034 H   0  0  0  0  0  0
  -19.7949  -30.7264   24.2258 H   0  0  0  0  0  0
  -17.5032  -31.6278   24.5149 H   0  0  0  0  0  0
  -15.5351  -30.2995   23.7662 H   0  0  0  0  0  0
  -15.8677  -28.0853   22.7030 H   0  0  0  0  0  0
  -24.5931  -30.7035   25.7820 H   0  0  0  0  0  0
  -24.8939  -32.2895   26.4843 H   0  0  0  0  0  0
  -25.8112  -30.8950   27.0229 H   0  0  0  0  0  0
  -26.2890  -29.6723   24.1209 H   0  0  0  0  0  0
  -27.3990  -29.7227   25.4698 H   0  0  0  0  0  0
  -27.8800  -30.4198   23.9428 H   0  0  0  0  0  0
  -27.2589  -33.3624   26.2022 H   0  0  0  0  0  0
  -28.3896  -32.6830   25.0380 H   0  0  0  0  0  0
  -28.0630  -31.8468   26.5473 H   0  0  0  0  0  0
  -28.2521  -38.0140   24.7533 H   0  0  0  0  0  0
  -28.1118  -36.2654   24.6192 H   0  0  0  0  0  0
  -27.2326  -37.1371   25.8859 H   0  0  0  0  0  0
  -20.9330  -29.8816   21.6941 H   0  0  0  0  0  0
  -26.0109  -38.2813   24.1457 H   0  0  0  0  0  0
  -30.3045  -16.7950   18.0267 H   0  0  0  0  0  0
  -28.8511  -23.6291   22.5263 H   0  0  0  0  0  0
  -27.4024  -23.0960   21.7000 H   0  0  0  0  0  0
  -28.1928  -20.9580   22.2335 H   0  0  0  0  0  0
  -29.8628  -21.4719   22.3250 H   0  0  0  0  0  0
  -29.9328  -22.3123   18.8412 H   0  0  0  0  0  0
  -28.1974  -22.1596   18.9041 H   0  0  0  0  0  0
  -30.0175  -23.9898   20.4936 H   0  0  0  0  0  0
  -27.0937  -24.5897   19.9511 H   0  0  0  0  0  0
  -28.2351  -24.8817   18.6870 H   0  0  0  0  0  0
  -28.9910  -15.6733   21.2085 H   0  0  0  0  0  0
  1 25  1  0  0  0
  1 30  2  0  0  0
  1 81  1  0  0  0
  2  3  1  0  0  0
  2 25  1  0  0  0
  2 83  1  0  0  0
  2 84  1  0  0  0
  3  4  1  0  0  0
  3 85  1  0  0  0
  3 86  1  0  0  0
  4  5  1  0  0  0
  4 87  1  0  0  0
  4 88  1  0  0  0
  5  6  1  0  0  0
  5 26  1  0  0  0
  5 89  1  0  0  0
  6 25  1  0  0  0
  6 90  1  0  0  0
  6 91  1  0  0  0
  7  8  2  0  0  0
  7 26  1  0  0  0
  7 29  1  0  0  0
  8  9  1  0  0  0
  8 22  1  0  0  0
  9 10  1  0  0  0
  9 27  2  0  0  0
 10 11  2  0  0  0
 10 15  1  0  0  0
 11 12  1  0  0  0
 11 92  1  0  0  0
 12 13  2  0  0  0
 12 93  1  0  0  0
 13 14  1  0  0  0
 13 31  1  0  0  0
 14 15  2  0  0  0
 14 94  1  0  0  0
 15 95  1  0  0  0
 16 17  2  0  0  0
 16 21  1  0  0  0
 16 31  1  0  0  0
 17 18  1  0  0  0
 17 96  1  0  0  0
 18 19  2  0  0  0
 18 97  1  0  0  0
 19 20  1  0  0  0
 19 24  1  0  0  0
 20 21  2  0  0  0
 20 98  1  0  0  0
 21 23  1  0  0  0
 22 28  1  0  0  0
 22 32  2  0  0  0
 26 27  1  0  0  0
 28 99  1  0  0  0
 28100  1  0  0  0
 29101  1  0  0  0
 29102  1  0  0  0
 33 34  1  0  0  0
 33 66  1  0  0  0
 33 70  2  0  0  0
 34 36  1  0  0  0
 34 59  1  0  0  0
 34103  1  0  0  0
 35 44  2  0  0  0
 35 45  1  0  0  0
 35 68  1  0  0  0
 36 56  1  0  0  0
 36104  1  0  0  0
 37 39  1  0  0  0
 37 47  1  0  0  0
 37 66  1  0  0  0
 37105  1  0  0  0
 38 43  2  0  0  0
 38 46  1  0  0  0
 38 47  1  0  0  0
 39 64  1  0  0  0
 39 67  2  0  0  0
 40 52  1  0  0  0
 40 53  2  0  0  0
 40 58  1  0  0  0
 41106  1  0  0  0
 41107  1  0  0  0
 41108  1  0  0  0
 41 48  1  0  0  0
 42 43  1  0  0  0
 42 66  1  0  0  0
 42109  1  0  0  0
 42110  1  0  0  0
 43 44  1  0  0  0
 44111  1  0  0  0
 45 46  2  0  0  0
 45112  1  0  0  0
 46113  1  0  0  0
 47114  1  0  0  0
 47115  1  0  0  0
 48 56  1  0  0  0
 48 65  1  0  0  0
 48116  1  0  0  0
 49 50  1  0  0  0
 49 53  1  0  0  0
 49 64  1  0  0  0
 49117  1  0  0  0
 50 51  1  0  0  0
 50118  1  0  0  0
 50119  1  0  0  0
 51 52  1  0  0  0
 51120  1  0  0  0
 51121  1  0  0  0
 52122  1  0  0  0
 52123  1  0  0  0
 53 54  1  0  0  0
 54 55  2  0  0  0
 54124  1  0  0  0
 55 57  1  0  0  0
 55125  1  0  0  0
 56 69  2  0  0  0
 57 58  2  0  0  0
 57126  1  0  0  0
 58127  1  0  0  0
 59 60  1  0  0  0
 59 61  1  0  0  0
 59 62  1  0  0  0
 60128  1  0  0  0
 60129  1  0  0  0
 60130  1  0  0  0
 61131  1  0  0  0
 61132  1  0  0  0
 61133  1  0  0  0
 62134  1  0  0  0
 62135  1  0  0  0
 62136  1  0  0  0
 63 65  1  0  0  0
 63137  1  0  0  0
 63138  1  0  0  0
 63139  1  0  0  0
 64140  1  0  0  0
 65141  1  0  0  0
 68 78  1  0  0  0
 71 72  2  0  0  0
 71 82  1  0  0  0
 71142  1  0  0  0
 72 79  1  0  0  0
 72 81  1  0  0  0
 73 79  2  0  0  0
 73 80  1  0  0  0
 73 82  1  0  0  0
 74 75  1  0  0  0
 74 77  1  0  0  0
 74143  1  0  0  0
 74144  1  0  0  0
 75 80  1  0  0  0
 75145  1  0  0  0
 75146  1  0  0  0
 76 77  1  0  0  0
 76 80  1  0  0  0
 76147  1  0  0  0
 76148  1  0  0  0
 77 78  1  0  0  0
 77149  1  0  0  0
 78150  1  0  0  0
 78151  1  0  0  0
 81152  1  0  0  0
M  ISO  4   1 100  68 101  78 101  81 100
M  END
> <chiral flag>
0

> <version>
0

> <s_m_source_file>
/data/baiqing/PycharmProjects/Reinvent-master-3.2/result/LINK_invent/BTK/process_docking_weight1_custom_product_contain_oxygen_bond_distance_aromatic_linkinvent_7_9_3/rearranged_h_0153.sdf

> <i_m_source_file_index>
56

> <r_mmod_Potential_Energy-OPLS-2005>
204.284164428711

> <r_mmod_Stretch_Energy-OPLS-2005>
123.911514282227

> <r_mmod_Bend_Energy-OPLS-2005>
183.948516845703

> <r_mmod_Torsional_Energy-OPLS-2005>
286.788360595703

> <r_mmod_Improper_Torsional_Energy-OPLS-2005>
4.6463680267334

> <r_mmod_Van_der_Waal_Energy-OPLS-2005>
116.523223876953

> <r_mmod_Electrostatic_Energy-OPLS-2005>
-367.826782226562

> <r_mmod_Solvation_Energy-OPLS-2005>
-238.305435180664

> <b_mmod_Minimization_Converged-OPLS-2005>
0

> <r_mmod_RMS_Derivative-OPLS-2005>
4.34904623031616

$$$$
56
                    3D
 Structure written by MMmdl.
155164  0  0  1  0            999 V2000
  -30.6264  -14.7325   20.4587 C   0  0  0  0  0  0
  -30.4275  -12.4515   19.4657 C   0  0  0  0  0  0
  -29.5041  -12.4995   18.2298 C   0  0  0  0  0  0
  -28.0321  -12.3241   18.6496 C   0  0  0  0  0  0
  -27.6388  -13.2317   19.8457 C   0  0  2  0  0  0
  -28.6849  -13.1740   20.9798 C   0  0  0  0  0  0
  -25.2508  -13.8197   20.5706 C   0  0  0  0  0  0
  -24.1798  -13.0443   20.9212 C   0  0  0  0  0  0
  -24.6385  -11.6921   20.8748 C   0  0  0  0  0  0
  -23.9066  -10.4296   21.0408 C   0  0  0  0  0  0
  -24.3620   -9.4211   21.9185 C   0  0  0  0  0  0
  -23.6296   -8.2243   22.0758 C   0  0  0  0  0  0
  -22.4280   -8.0277   21.3545 C   0  0  0  0  0  0
  -21.9912   -9.0252   20.4651 C   0  0  0  0  0  0
  -22.7240  -10.2133   20.3060 C   0  0  0  0  0  0
  -21.6853   -6.0733   22.5282 C   0  0  0  0  0  0
  -21.4013   -6.5642   23.8215 C   0  0  0  0  0  0
  -21.3656   -5.6796   24.9177 C   0  0  0  0  0  0
  -21.6044   -4.3058   24.7229 C   0  0  0  0  0  0
  -21.8816   -3.8149   23.4351 C   0  0  0  0  0  0
  -21.9195   -4.6962   22.3407 C   0  0  0  0  0  0
  -22.7823  -13.5223   21.1874 C   0  0  0  0  0  0
  -22.1662   -4.2149   21.0985 F   0  0  0  0  0  0
  -21.5628   -3.4541   25.7739 F   0  0  0  0  0  0
  -29.9828  -13.5191   20.3897 N   0  0  0  0  0  0
  -26.2926  -12.9397   20.3268 N   0  0  0  0  0  0
  -25.9315  -11.6547   20.5756 N   0  0  0  0  0  0
  -22.0472  -12.8208   22.0425 N   0  0  0  0  0  0
  -25.4209  -15.1914   20.4131 N   0  0  0  0  0  0
  -31.8226  -14.8037   20.1654 O   0  0  0  0  0  0
  -21.6645   -6.8875   21.4242 O   0  0  0  0  0  0
  -22.3504  -14.5525   20.6720 O   0  0  0  0  0  0
  -24.6294  -31.8562   23.1986 C   0  0  0  0  0  0
  -25.9120  -32.4765   23.8339 C   0  0  1  0  0  0
  -27.2184  -27.2757   20.1368 C   0  0  0  0  0  0
  -25.5924  -33.8567   24.2265 N   0  0  0  0  0  0
  -23.4258  -30.4773   21.5408 C   0  0  2  0  0  0
  -24.8736  -28.9199   20.1150 C   0  0  0  0  0  0
  -22.7492  -29.4604   22.4917 C   0  0  0  0  0  0
  -18.0286  -28.1397   22.8493 C   0  0  0  0  0  0
  -24.1485  -36.7274   23.2641 C   0  0  0  0  0  0
  -25.9695  -30.7747   21.3740 C   0  0  0  0  0  0
  -26.0445  -29.3954   20.7210 C   0  0  0  0  0  0
  -27.2243  -28.5866   20.7180 C   0  0  0  0  0  0
  -26.0282  -26.8560   19.5108 C   0  0  0  0  0  0
  -24.8689  -27.6574   19.4993 C   0  0  0  0  0  0
  -23.6440  -29.8068   20.1586 C   0  0  0  0  0  0
  -25.4116  -36.3073   24.0330 C   0  0  1  0  0  0
  -20.5893  -28.3698   23.1283 C   0  0  2  0  0  0
  -20.6783  -26.9417   22.5416 C   0  0  0  0  0  0
  -19.5753  -26.6390   21.5216 C   0  0  0  0  0  0
  -18.1930  -26.7946   22.1625 C   0  0  0  0  0  0
  -19.1544  -28.8863   23.2882 C   0  0  0  0  0  0
  -18.9472  -30.1472   23.8891 C   0  0  0  0  0  0
  -17.6471  -30.6600   24.0565 C   0  0  0  0  0  0
  -25.9051  -34.9450   23.5097 C   0  0  0  0  0  0
  -16.5358  -29.9096   23.6344 C   0  0  0  0  0  0
  -16.7275  -28.6516   23.0358 C   0  0  0  0  0  0
  -26.4505  -31.6586   25.0720 C   0  0  0  0  0  0
  -25.3737  -31.3745   26.1448 C   0  0  0  0  0  0
  -27.0341  -30.3009   24.6176 C   0  0  0  0  0  0
  -27.6063  -32.4338   25.7490 C   0  0  0  0  0  0
  -27.5578  -37.1792   24.8470 C   0  0  0  0  0  0
  -21.4199  -29.3043   22.3668 N   0  0  0  0  0  0
  -26.4290  -37.3766   23.9419 N   0  0  0  0  0  0
  -24.6938  -31.0543   22.0945 N   0  0  0  0  0  0
  -23.4201  -28.8140   23.3007 O   0  0  0  0  0  0
  -28.3109  -26.3903   20.1333 O   0  0  0  0  0  0
  -26.5615  -34.8924   22.4661 O   0  0  0  0  0  0
  -23.5452  -32.1381   23.7298 O   0  0  0  0  0  0
  -28.3251  -20.4287   19.5759 C   0  0  0  0  0  0
  -28.6631  -19.0074   19.5772 C   0  0  0  0  0  0
  -29.6482  -18.6454   20.4810 C   0  0  0  0  0  0
  -28.9957  -21.2324   20.4801 C   0  0  0  0  0  0
  -28.4086  -23.7025   20.0949 C   0  0  0  0  0  0
  -28.7557  -17.0990   17.7591 C   0  0  0  0  0  0
  -28.0090  -18.2646   17.1568 C   0  0  0  0  0  0
  -27.9834  -18.0424   18.6509 C   0  0  0  0  0  0
  -30.4572  -17.3067   20.7196 C   0  0  0  0  0  0
  -28.1668  -25.0899   20.8633 C   0  0  0  0  0  0
  -28.8658  -22.5960   20.7941 N   0  0  0  0  0  0
  -29.8899  -15.8921   20.6579 N   0  0  0  0  0  0
  -28.1603  -23.6394   18.8877 O   0  0  0  0  0  0
  -30.0889  -20.1361   21.3613 S   0  0  0  0  0  0
  -31.4682  -12.5711   19.1599 H   0  0  0  0  0  0
  -30.3706  -11.4779   19.9544 H   0  0  0  0  0  0
  -29.7848  -11.7220   17.5173 H   0  0  0  0  0  0
  -29.6278  -13.4520   17.7113 H   0  0  0  0  0  0
  -27.8951  -11.2773   18.9220 H   0  0  0  0  0  0
  -27.3704  -12.5055   17.8020 H   0  0  0  0  0  0
  -27.6309  -14.2510   19.4582 H   0  0  0  0  0  0
  -28.7221  -12.1806   21.4289 H   0  0  0  0  0  0
  -28.4243  -13.8645   21.7834 H   0  0  0  0  0  0
  -25.2767   -9.5690   22.4763 H   0  0  0  0  0  0
  -24.0011   -7.4633   22.7476 H   0  0  0  0  0  0
  -21.0845   -8.8760   19.8957 H   0  0  0  0  0  0
  -22.3690  -10.9667   19.6171 H   0  0  0  0  0  0
  -21.2001   -7.6151   23.9714 H   0  0  0  0  0  0
  -21.1479   -6.0530   25.9079 H   0  0  0  0  0  0
  -22.0594   -2.7613   23.2851 H   0  0  0  0  0  0
  -22.4092  -11.9864   22.4796 H   0  0  0  0  0  0
  -21.1092  -13.1228   22.2648 H   0  0  0  0  0  0
  -24.6551  -15.8462   20.5315 H   0  0  0  0  0  0
  -26.2697  -15.6298   20.0828 H   0  0  0  0  0  0
  -26.7179  -32.5423   23.1077 H   0  0  0  0  0  0
  -25.0123  -33.9724   25.0448 H   0  0  0  0  0  0
  -22.7208  -31.2983   21.3924 H   0  0  0  0  0  0
  -23.3762  -35.9588   23.3310 H   0  0  0  0  0  0
  -24.3573  -36.8887   22.2051 H   0  0  0  0  0  0
  -23.7232  -37.6478   23.6658 H   0  0  0  0  0  0
  -26.1039  -31.5351   20.6035 H   0  0  0  0  0  0
  -26.8492  -30.8273   22.0038 H   0  0  0  0  0  0
  -28.1248  -28.9480   21.1947 H   0  0  0  0  0  0
  -25.9929  -25.8839   19.0390 H   0  0  0  0  0  0
  -23.9705  -27.2896   19.0228 H   0  0  0  0  0  0
  -23.7673  -30.5806   19.3999 H   0  0  0  0  0  0
  -22.7628  -29.2385   19.8538 H   0  0  0  0  0  0
  -25.1298  -36.1908   25.0821 H   0  0  0  0  0  0
  -20.9991  -28.3268   24.1399 H   0  0  0  0  0  0
  -20.5692  -26.2299   23.3620 H   0  0  0  0  0  0
  -21.6648  -26.7452   22.1191 H   0  0  0  0  0  0
  -19.6916  -25.6291   21.1256 H   0  0  0  0  0  0
  -19.6697  -27.3202   20.6743 H   0  0  0  0  0  0
  -17.4207  -26.6711   21.4018 H   0  0  0  0  0  0
  -18.0317  -26.0090   22.9021 H   0  0  0  0  0  0
  -19.7949  -30.7299   24.2251 H   0  0  0  0  0  0
  -17.5025  -31.6282   24.5167 H   0  0  0  0  0  0
  -15.5361  -30.2996   23.7684 H   0  0  0  0  0  0
  -15.8675  -28.0839   22.7066 H   0  0  0  0  0  0
  -24.5911  -30.7079   25.7799 H   0  0  0  0  0  0
  -24.8928  -32.2917   26.4846 H   0  0  0  0  0  0
  -25.8071  -30.8958   27.0235 H   0  0  0  0  0  0
  -26.2901  -29.6764   24.1208 H   0  0  0  0  0  0
  -27.4052  -29.7251   25.4664 H   0  0  0  0  0  0
  -27.8770  -30.4307   23.9389 H   0  0  0  0  0  0
  -27.2662  -33.3651   26.2032 H   0  0  0  0  0  0
  -28.3884  -32.6876   25.0323 H   0  0  0  0  0  0
  -28.0710  -31.8481   26.5430 H   0  0  0  0  0  0
  -28.2597  -38.0084   24.7510 H   0  0  0  0  0  0
  -28.1068  -36.2618   24.6302 H   0  0  0  0  0  0
  -27.2300  -37.1442   25.8872 H   0  0  0  0  0  0
  -20.9379  -29.8750   21.6865 H   0  0  0  0  0  0
  -26.0167  -38.2839   24.1423 H   0  0  0  0  0  0
  -27.5676  -20.8067   18.9037 H   0  0  0  0  0  0
  -29.8421  -17.1552   17.7709 H   0  0  0  0  0  0
  -28.3420  -16.1041   17.6095 H   0  0  0  0  0  0
  -27.0956  -18.0522   16.6047 H   0  0  0  0  0  0
  -28.6052  -19.0903   16.7733 H   0  0  0  0  0  0
  -27.0490  -17.6782   19.0741 H   0  0  0  0  0  0
  -30.9296  -17.3822   21.6992 H   0  0  0  0  0  0
  -31.2962  -17.3347   20.0225 H   0  0  0  0  0  0
  -28.8631  -25.1257   21.7013 H   0  0  0  0  0  0
  -27.1777  -25.0323   21.3205 H   0  0  0  0  0  0
  -29.1529  -22.8244   21.7373 H   0  0  0  0  0  0
  -28.9032  -15.7856   20.8336 H   0  0  0  0  0  0
  1 25  1  0  0  0
  1 30  2  0  0  0
  1 82  1  0  0  0
  2  3  1  0  0  0
  2 25  1  0  0  0
  2 85  1  0  0  0
  2 86  1  0  0  0
  3  4  1  0  0  0
  3 87  1  0  0  0
  3 88  1  0  0  0
  4  5  1  0  0  0
  4 89  1  0  0  0
  4 90  1  0  0  0
  5  6  1  0  0  0
  5 26  1  0  0  0
  5 91  1  0  0  0
  6 25  1  0  0  0
  6 92  1  0  0  0
  6 93  1  0  0  0
  7  8  2  0  0  0
  7 26  1  0  0  0
  7 29  1  0  0  0
  8  9  1  0  0  0
  8 22  1  0  0  0
  9 10  1  0  0  0
  9 27  2  0  0  0
 10 11  2  0  0  0
 10 15  1  0  0  0
 11 12  1  0  0  0
 11 94  1  0  0  0
 12 13  2  0  0  0
 12 95  1  0  0  0
 13 14  1  0  0  0
 13 31  1  0  0  0
 14 15  2  0  0  0
 14 96  1  0  0  0
 15 97  1  0  0  0
 16 17  2  0  0  0
 16 21  1  0  0  0
 16 31  1  0  0  0
 17 18  1  0  0  0
 17 98  1  0  0  0
 18 19  2  0  0  0
 18 99  1  0  0  0
 19 20  1  0  0  0
 19 24  1  0  0  0
 20 21  2  0  0  0
 20100  1  0  0  0
 21 23  1  0  0  0
 22 28  1  0  0  0
 22 32  2  0  0  0
 26 27  1  0  0  0
 28101  1  0  0  0
 28102  1  0  0  0
 29103  1  0  0  0
 29104  1  0  0  0
 33 34  1  0  0  0
 33 66  1  0  0  0
 33 70  2  0  0  0
 34 36  1  0  0  0
 34 59  1  0  0  0
 34105  1  0  0  0
 35 44  2  0  0  0
 35 45  1  0  0  0
 35 68  1  0  0  0
 36 56  1  0  0  0
 36106  1  0  0  0
 37 39  1  0  0  0
 37 47  1  0  0  0
 37 66  1  0  0  0
 37107  1  0  0  0
 38 43  2  0  0  0
 38 46  1  0  0  0
 38 47  1  0  0  0
 39 64  1  0  0  0
 39 67  2  0  0  0
 40 52  1  0  0  0
 40 53  2  0  0  0
 40 58  1  0  0  0
 41108  1  0  0  0
 41109  1  0  0  0
 41110  1  0  0  0
 41 48  1  0  0  0
 42 43  1  0  0  0
 42 66  1  0  0  0
 42111  1  0  0  0
 42112  1  0  0  0
 43 44  1  0  0  0
 44113  1  0  0  0
 45 46  2  0  0  0
 45114  1  0  0  0
 46115  1  0  0  0
 47116  1  0  0  0
 47117  1  0  0  0
 48 56  1  0  0  0
 48 65  1  0  0  0
 48118  1  0  0  0
 49 50  1  0  0  0
 49 53  1  0  0  0
 49 64  1  0  0  0
 49119  1  0  0  0
 50 51  1  0  0  0
 50120  1  0  0  0
 50121  1  0  0  0
 51 52  1  0  0  0
 51122  1  0  0  0
 51123  1  0  0  0
 52124  1  0  0  0
 52125  1  0  0  0
 53 54  1  0  0  0
 54 55  2  0  0  0
 54126  1  0  0  0
 55 57  1  0  0  0
 55127  1  0  0  0
 56 69  2  0  0  0
 57 58  2  0  0  0
 57128  1  0  0  0
 58129  1  0  0  0
 59 60  1  0  0  0
 59 61  1  0  0  0
 59 62  1  0  0  0
 60130  1  0  0  0
 60131  1  0  0  0
 60132  1  0  0  0
 61133  1  0  0  0
 61134  1  0  0  0
 61135  1  0  0  0
 62136  1  0  0  0
 62137  1  0  0  0
 62138  1  0  0  0
 63 65  1  0  0  0
 63139  1  0  0  0
 63140  1  0  0  0
 63141  1  0  0  0
 64142  1  0  0  0
 65143  1  0  0  0
 68 80  1  0  0  0
 71 72  1  0  0  0
 71 74  2  0  0  0
 71144  1  0  0  0
 72 73  2  0  0  0
 72 78  1  0  0  0
 73 79  1  0  0  0
 73 84  1  0  0  0
 74 81  1  0  0  0
 74 84  1  0  0  0
 75 80  1  0  0  0
 75 81  1  0  0  0
 75 83  2  0  0  0
 76 77  1  0  0  0
 76 78  1  0  0  0
 76145  1  0  0  0
 76146  1  0  0  0
 77 78  1  0  0  0
 77147  1  0  0  0
 77148  1  0  0  0
 78149  1  0  0  0
 79 82  1  0  0  0
 79150  1  0  0  0
 79151  1  0  0  0
 80152  1  0  0  0
 80153  1  0  0  0
 81154  1  0  0  0
 82155  1  0  0  0
M  ISO  4   1 100  68 101  80 101  82 100
M  END
> <chiral flag>
0

> <version>
0

> <s_m_source_file>
/data/baiqing/PycharmProjects/Reinvent-master-3.2/result/LINK_invent/BTK/process_docking_weight1_custom_product_contain_oxygen_bond_distance_aromatic_linkinvent_7_9_3/rearranged_h_0153.sdf

> <i_m_source_file_index>
57

> <r_mmod_Potential_Energy-OPLS-2005>
73.9532470703125

> <r_mmod_Stretch_Energy-OPLS-2005>
103.21361541748

> <r_mmod_Bend_Energy-OPLS-2005>
176.491943359375

> <r_mmod_Torsional_Energy-OPLS-2005>
259.388763427734

> <r_mmod_Improper_Torsional_Energy-OPLS-2005>
4.66382646560669

> <r_mmod_Van_der_Waal_Energy-OPLS-2005>
101.107620239258

> <r_mmod_Electrostatic_Energy-OPLS-2005>
-414.721374511719

> <r_mmod_Solvation_Energy-OPLS-2005>
-235.459381103516

> <b_mmod_Minimization_Converged-OPLS-2005>
0

> <r_mmod_RMS_Derivative-OPLS-2005>
1.55039894580841

$$$$
57
                    3D
 Structure written by MMmdl.
152161  0  0  1  0            999 V2000
  -30.6474  -14.7509   20.4723 C   0  0  0  0  0  0
  -30.4203  -12.4622   19.4847 C   0  0  0  0  0  0
  -29.5052  -12.4985   18.2425 C   0  0  0  0  0  0
  -28.0354  -12.3177   18.6622 C   0  0  0  0  0  0
  -27.6371  -13.2363   19.8483 C   0  0  2  0  0  0
  -28.6802  -13.2043   20.9871 C   0  0  0  0  0  0
  -25.2485  -13.8205   20.5708 C   0  0  0  0  0  0
  -24.1783  -13.0444   20.9216 C   0  0  0  0  0  0
  -24.6383  -11.6926   20.8757 C   0  0  0  0  0  0
  -23.9061  -10.4291   21.0411 C   0  0  0  0  0  0
  -24.3613   -9.4207   21.9190 C   0  0  0  0  0  0
  -23.6291   -8.2244   22.0758 C   0  0  0  0  0  0
  -22.4275   -8.0280   21.3548 C   0  0  0  0  0  0
  -21.9909   -9.0248   20.4648 C   0  0  0  0  0  0
  -22.7234  -10.2131   20.3058 C   0  0  0  0  0  0
  -21.6852   -6.0736   22.5277 C   0  0  0  0  0  0
  -21.4016   -6.5640   23.8210 C   0  0  0  0  0  0
  -21.3659   -5.6794   24.9171 C   0  0  0  0  0  0
  -21.6042   -4.3056   24.7224 C   0  0  0  0  0  0
  -21.8818   -3.8146   23.4345 C   0  0  0  0  0  0
  -21.9192   -4.6960   22.3404 C   0  0  0  0  0  0
  -22.7804  -13.5219   21.1871 C   0  0  0  0  0  0
  -22.1660   -4.2148   21.0980 F   0  0  0  0  0  0
  -21.5626   -3.4543   25.7739 F   0  0  0  0  0  0
  -29.9786  -13.5467   20.3974 N   0  0  0  0  0  0
  -26.2913  -12.9424   20.3288 N   0  0  0  0  0  0
  -25.9319  -11.6562   20.5772 N   0  0  0  0  0  0
  -22.0455  -12.8208   22.0428 N   0  0  0  0  0  0
  -25.4170  -15.1931   20.4133 N   0  0  0  0  0  0
  -31.8326  -14.7904   20.1341 O   0  0  0  0  0  0
  -21.6641   -6.8879   21.4240 O   0  0  0  0  0  0
  -22.3492  -14.5523   20.6712 O   0  0  0  0  0  0
  -24.6355  -31.8526   23.1984 C   0  0  0  0  0  0
  -25.9163  -32.4742   23.8336 C   0  0  1  0  0  0
  -27.2118  -27.2315   20.1328 C   0  0  0  0  0  0
  -25.5935  -33.8545   24.2244 N   0  0  0  0  0  0
  -23.4337  -30.4773   21.5415 C   0  0  2  0  0  0
  -24.8811  -28.9281   20.1067 C   0  0  0  0  0  0
  -22.7531  -29.4588   22.4894 C   0  0  0  0  0  0
  -18.0292  -28.1385   22.8482 C   0  0  0  0  0  0
  -24.1488  -36.7272   23.2642 C   0  0  0  0  0  0
  -25.9858  -30.7561   21.3866 C   0  0  0  0  0  0
  -26.0559  -29.3799   20.7217 C   0  0  0  0  0  0
  -27.2249  -28.5459   20.7215 C   0  0  0  0  0  0
  -26.0166  -26.8679   19.4693 C   0  0  0  0  0  0
  -24.8694  -27.6811   19.4673 C   0  0  0  0  0  0
  -23.6532  -29.8170   20.1565 C   0  0  0  0  0  0
  -25.4121  -36.3054   24.0317 C   0  0  1  0  0  0
  -20.5907  -28.3699   23.1257 C   0  0  2  0  0  0
  -20.6776  -26.9410   22.5403 C   0  0  0  0  0  0
  -19.5744  -26.6376   21.5211 C   0  0  0  0  0  0
  -18.1927  -26.7925   22.1624 C   0  0  0  0  0  0
  -19.1552  -28.8860   23.2857 C   0  0  0  0  0  0
  -18.9467  -30.1456   23.8879 C   0  0  0  0  0  0
  -17.6464  -30.6587   24.0556 C   0  0  0  0  0  0
  -25.9067  -34.9427   23.5086 C   0  0  0  0  0  0
  -16.5355  -29.9083   23.6337 C   0  0  0  0  0  0
  -16.7281  -28.6499   23.0362 C   0  0  0  0  0  0
  -26.4512  -31.6595   25.0750 C   0  0  0  0  0  0
  -25.3722  -31.3743   26.1462 C   0  0  0  0  0  0
  -27.0376  -30.3000   24.6299 C   0  0  0  0  0  0
  -27.6052  -32.4372   25.7514 C   0  0  0  0  0  0
  -27.5574  -37.1787   24.8467 C   0  0  0  0  0  0
  -21.4235  -29.3039   22.3641 N   0  0  0  0  0  0
  -26.4288  -37.3762   23.9405 N   0  0  0  0  0  0
  -24.7038  -31.0481   22.0965 N   0  0  0  0  0  0
  -23.4228  -28.8120   23.2994 O   0  0  0  0  0  0
  -28.2758  -26.2909   20.2250 O   0  0  0  0  0  0
  -26.5647  -34.8895   22.4663 O   0  0  0  0  0  0
  -23.5496  -32.1352   23.7262 O   0  0  0  0  0  0
  -29.3458  -19.8216   20.1227 C   0  0  0  0  0  0
  -29.9579  -18.7574   20.9463 C   0  0  0  0  0  0
  -30.2474  -19.2731   22.1636 C   0  0  0  0  0  0
  -29.2384  -21.1105   20.7173 C   0  0  0  0  0  0
  -28.8975  -23.6629   20.5854 C   0  0  0  0  0  0
  -31.0375  -18.4013   23.0499 C   0  0  0  0  0  0
  -31.5667  -17.3293   22.0746 C   0  0  0  0  0  0
  -30.6474  -17.3236   20.8063 C   0  0  1  0  0  0
  -27.9829  -24.8252   19.9475 C   0  0  0  0  0  0
  -28.7339  -22.3263   20.2034 N   0  0  0  0  0  0
  -29.9775  -15.9428   20.7509 N   0  0  0  0  0  0
  -29.7495  -23.9907   21.4153 O   0  0  0  0  0  0
  -29.8483  -20.9669   22.3656 S   0  0  0  0  0  0
  -31.4649  -12.5607   19.1844 H   0  0  0  0  0  0
  -30.3490  -11.4951   19.9856 H   0  0  0  0  0  0
  -29.7911  -11.7148   17.5397 H   0  0  0  0  0  0
  -29.6275  -13.4467   17.7163 H   0  0  0  0  0  0
  -27.9089  -11.2736   18.9496 H   0  0  0  0  0  0
  -27.3717  -12.4798   17.8122 H   0  0  0  0  0  0
  -27.6238  -14.2504   19.4481 H   0  0  0  0  0  0
  -28.7190  -12.2195   21.4551 H   0  0  0  0  0  0
  -28.4127  -13.9104   21.7752 H   0  0  0  0  0  0
  -25.2755   -9.5694   22.4769 H   0  0  0  0  0  0
  -23.9997   -7.4644   22.7485 H   0  0  0  0  0  0
  -21.0839   -8.8769   19.8957 H   0  0  0  0  0  0
  -22.3689  -10.9671   19.6172 H   0  0  0  0  0  0
  -21.2011   -7.6149   23.9715 H   0  0  0  0  0  0
  -21.1479   -6.0525   25.9076 H   0  0  0  0  0  0
  -22.0595   -2.7611   23.2847 H   0  0  0  0  0  0
  -22.4079  -11.9871   22.4809 H   0  0  0  0  0  0
  -21.1078  -13.1228   22.2647 H   0  0  0  0  0  0
  -24.6486  -15.8458   20.5232 H   0  0  0  0  0  0
  -26.2659  -15.6343   20.0840 H   0  0  0  0  0  0
  -26.7232  -32.5360   23.1071 H   0  0  0  0  0  0
  -25.0049  -33.9687   25.0363 H   0  0  0  0  0  0
  -22.7291  -31.2988   21.3970 H   0  0  0  0  0  0
  -23.3747  -35.9609   23.3321 H   0  0  0  0  0  0
  -24.3566  -36.8893   22.2053 H   0  0  0  0  0  0
  -23.7251  -37.6471   23.6676 H   0  0  0  0  0  0
  -26.1414  -31.5209   20.6247 H   0  0  0  0  0  0
  -26.8552  -30.7918   22.0311 H   0  0  0  0  0  0
  -28.1223  -28.8853   21.2195 H   0  0  0  0  0  0
  -25.9241  -25.9213   18.9579 H   0  0  0  0  0  0
  -23.9725  -27.3332   18.9726 H   0  0  0  0  0  0
  -23.7794  -30.5954   19.4036 H   0  0  0  0  0  0
  -22.7705  -29.2537   19.8489 H   0  0  0  0  0  0
  -25.1306  -36.1886   25.0808 H   0  0  0  0  0  0
  -20.9993  -28.3276   24.1378 H   0  0  0  0  0  0
  -20.5672  -26.2304   23.3608 H   0  0  0  0  0  0
  -21.6639  -26.7419   22.1193 H   0  0  0  0  0  0
  -19.6899  -25.6288   21.1239 H   0  0  0  0  0  0
  -19.6682  -27.3182   20.6738 H   0  0  0  0  0  0
  -17.4196  -26.6672   21.4026 H   0  0  0  0  0  0
  -18.0318  -26.0066   22.9014 H   0  0  0  0  0  0
  -19.7945  -30.7268   24.2246 H   0  0  0  0  0  0
  -17.5024  -31.6269   24.5151 H   0  0  0  0  0  0
  -15.5354  -30.2972   23.7684 H   0  0  0  0  0  0
  -15.8677  -28.0813   22.7097 H   0  0  0  0  0  0
  -24.5911  -30.7084   25.7779 H   0  0  0  0  0  0
  -24.8896  -32.2903   26.4880 H   0  0  0  0  0  0
  -25.8029  -30.8923   27.0248 H   0  0  0  0  0  0
  -26.2988  -29.6721   24.1308 H   0  0  0  0  0  0
  -27.3998  -29.7299   25.4863 H   0  0  0  0  0  0
  -27.8888  -30.4246   23.9605 H   0  0  0  0  0  0
  -27.2657  -33.3697   26.2041 H   0  0  0  0  0  0
  -28.3872  -32.6912   25.0344 H   0  0  0  0  0  0
  -28.0711  -31.8539   26.5466 H   0  0  0  0  0  0
  -28.2593  -38.0079   24.7516 H   0  0  0  0  0  0
  -28.1067  -36.2612   24.6307 H   0  0  0  0  0  0
  -27.2286  -37.1458   25.8866 H   0  0  0  0  0  0
  -20.9428  -29.8771   21.6847 H   0  0  0  0  0  0
  -26.0157  -38.2829   24.1412 H   0  0  0  0  0  0
  -29.0825  -19.6221   19.0937 H   0  0  0  0  0  0
  -30.3947  -17.9598   23.8124 H   0  0  0  0  0  0
  -31.8456  -18.9378   23.5490 H   0  0  0  0  0  0
  -31.6940  -16.3637   22.5643 H   0  0  0  0  0  0
  -32.5646  -17.6364   21.7576 H   0  0  0  0  0  0
  -31.2900  -17.3651   19.9252 H   0  0  0  0  0  0
  -26.9863  -24.5888   20.3220 H   0  0  0  0  0  0
  -27.9577  -24.6775   18.8680 H   0  0  0  0  0  0
  -28.1032  -22.2143   19.4205 H   0  0  0  0  0  0
  -28.9942  -15.8930   20.9691 H   0  0  0  0  0  0
  1 25  1  0  0  0
  1 30  2  0  0  0
  1 81  1  0  0  0
  2  3  1  0  0  0
  2 25  1  0  0  0
  2 84  1  0  0  0
  2 85  1  0  0  0
  3  4  1  0  0  0
  3 86  1  0  0  0
  3 87  1  0  0  0
  4  5  1  0  0  0
  4 88  1  0  0  0
  4 89  1  0  0  0
  5  6  1  0  0  0
  5 26  1  0  0  0
  5 90  1  0  0  0
  6 25  1  0  0  0
  6 91  1  0  0  0
  6 92  1  0  0  0
  7  8  2  0  0  0
  7 26  1  0  0  0
  7 29  1  0  0  0
  8  9  1  0  0  0
  8 22  1  0  0  0
  9 10  1  0  0  0
  9 27  2  0  0  0
 10 11  2  0  0  0
 10 15  1  0  0  0
 11 12  1  0  0  0
 11 93  1  0  0  0
 12 13  2  0  0  0
 12 94  1  0  0  0
 13 14  1  0  0  0
 13 31  1  0  0  0
 14 15  2  0  0  0
 14 95  1  0  0  0
 15 96  1  0  0  0
 16 17  2  0  0  0
 16 21  1  0  0  0
 16 31  1  0  0  0
 17 18  1  0  0  0
 17 97  1  0  0  0
 18 19  2  0  0  0
 18 98  1  0  0  0
 19 20  1  0  0  0
 19 24  1  0  0  0
 20 21  2  0  0  0
 20 99  1  0  0  0
 21 23  1  0  0  0
 22 28  1  0  0  0
 22 32  2  0  0  0
 26 27  1  0  0  0
 28100  1  0  0  0
 28101  1  0  0  0
 29102  1  0  0  0
 29103  1  0  0  0
 33 34  1  0  0  0
 33 66  1  0  0  0
 33 70  2  0  0  0
 34 36  1  0  0  0
 34 59  1  0  0  0
 34104  1  0  0  0
 35 44  2  0  0  0
 35 45  1  0  0  0
 35 68  1  0  0  0
 36 56  1  0  0  0
 36105  1  0  0  0
 37 39  1  0  0  0
 37 47  1  0  0  0
 37 66  1  0  0  0
 37106  1  0  0  0
 38 43  2  0  0  0
 38 46  1  0  0  0
 38 47  1  0  0  0
 39 64  1  0  0  0
 39 67  2  0  0  0
 40 52  1  0  0  0
 40 53  2  0  0  0
 40 58  1  0  0  0
 41107  1  0  0  0
 41108  1  0  0  0
 41109  1  0  0  0
 41 48  1  0  0  0
 42 43  1  0  0  0
 42 66  1  0  0  0
 42110  1  0  0  0
 42111  1  0  0  0
 43 44  1  0  0  0
 44112  1  0  0  0
 45 46  2  0  0  0
 45113  1  0  0  0
 46114  1  0  0  0
 47115  1  0  0  0
 47116  1  0  0  0
 48 56  1  0  0  0
 48 65  1  0  0  0
 48117  1  0  0  0
 49 50  1  0  0  0
 49 53  1  0  0  0
 49 64  1  0  0  0
 49118  1  0  0  0
 50 51  1  0  0  0
 50119  1  0  0  0
 50120  1  0  0  0
 51 52  1  0  0  0
 51121  1  0  0  0
 51122  1  0  0  0
 52123  1  0  0  0
 52124  1  0  0  0
 53 54  1  0  0  0
 54 55  2  0  0  0
 54125  1  0  0  0
 55 57  1  0  0  0
 55126  1  0  0  0
 56 69  2  0  0  0
 57 58  2  0  0  0
 57127  1  0  0  0
 58128  1  0  0  0
 59 60  1  0  0  0
 59 61  1  0  0  0
 59 62  1  0  0  0
 60129  1  0  0  0
 60130  1  0  0  0
 60131  1  0  0  0
 61132  1  0  0  0
 61133  1  0  0  0
 61134  1  0  0  0
 62135  1  0  0  0
 62136  1  0  0  0
 62137  1  0  0  0
 63 65  1  0  0  0
 63138  1  0  0  0
 63139  1  0  0  0
 63140  1  0  0  0
 64141  1  0  0  0
 65142  1  0  0  0
 68 79  1  0  0  0
 71 72  1  0  0  0
 71 74  2  0  0  0
 71143  1  0  0  0
 72 73  2  0  0  0
 72 78  1  0  0  0
 73 76  1  0  0  0
 73 83  1  0  0  0
 74 80  1  0  0  0
 74 83  1  0  0  0
 75 79  1  0  0  0
 75 80  1  0  0  0
 75 82  2  0  0  0
 76 77  1  0  0  0
 76144  1  0  0  0
 76145  1  0  0  0
 77 78  1  0  0  0
 77146  1  0  0  0
 77147  1  0  0  0
 78 81  1  0  0  0
 78148  1  0  0  0
 79149  1  0  0  0
 79150  1  0  0  0
 80151  1  0  0  0
 81152  1  0  0  0
M  ISO  4   1 100  68 101  79 101  81 100
M  END
> <chiral flag>
0

> <version>
0

> <s_m_source_file>
/data/baiqing/PycharmProjects/Reinvent-master-3.2/result/LINK_invent/BTK/process_docking_weight1_custom_product_contain_oxygen_bond_distance_aromatic_linkinvent_7_9_3/rearranged_h_0153.sdf

> <i_m_source_file_index>
58

> <r_mmod_Potential_Energy-OPLS-2005>
188.786682128906

> <r_mmod_Stretch_Energy-OPLS-2005>
136.316436767578

> <r_mmod_Bend_Energy-OPLS-2005>
261.216094970703

> <r_mmod_Torsional_Energy-OPLS-2005>
219.968292236328

> <r_mmod_Improper_Torsional_Energy-OPLS-2005>
7.53589963912964

> <r_mmod_Van_der_Waal_Energy-OPLS-2005>
124.544410705566

> <r_mmod_Electrostatic_Energy-OPLS-2005>
-411.174926757812

> <r_mmod_Solvation_Energy-OPLS-2005>
-250.350448608398

> <b_mmod_Minimization_Converged-OPLS-2005>
0

> <r_mmod_RMS_Derivative-OPLS-2005>
1.42936515808105

$$$$
58
                    3D
 Structure written by MMmdl.
152161  0  0  1  0            999 V2000
  -30.6464  -14.7501   20.4725 C   0  0  0  0  0  0
  -30.4206  -12.4613   19.4851 C   0  0  0  0  0  0
  -29.5060  -12.4982   18.2429 C   0  0  0  0  0  0
  -28.0364  -12.3178   18.6625 C   0  0  0  0  0  0
  -27.6378  -13.2360   19.8492 C   0  0  2  0  0  0
  -28.6807  -13.2022   20.9879 C   0  0  0  0  0  0
  -25.2487  -13.8204   20.5706 C   0  0  0  0  0  0
  -24.1785  -13.0442   20.9217 C   0  0  0  0  0  0
  -24.6383  -11.6924   20.8758 C   0  0  0  0  0  0
  -23.9061  -10.4293   21.0412 C   0  0  0  0  0  0
  -24.3614   -9.4209   21.9192 C   0  0  0  0  0  0
  -23.6290   -8.2244   22.0759 C   0  0  0  0  0  0
  -22.4275   -8.0281   21.3548 C   0  0  0  0  0  0
  -21.9910   -9.0250   20.4650 C   0  0  0  0  0  0
  -22.7234  -10.2131   20.3061 C   0  0  0  0  0  0
  -21.6852   -6.0736   22.5278 C   0  0  0  0  0  0
  -21.4015   -6.5640   23.8210 C   0  0  0  0  0  0
  -21.3658   -5.6794   24.9172 C   0  0  0  0  0  0
  -21.6042   -4.3054   24.7225 C   0  0  0  0  0  0
  -21.8818   -3.8146   23.4344 C   0  0  0  0  0  0
  -21.9191   -4.6962   22.3403 C   0  0  0  0  0  0
  -22.7807  -13.5221   21.1869 C   0  0  0  0  0  0
  -22.1660   -4.2148   21.0980 F   0  0  0  0  0  0
  -21.5626   -3.4542   25.7740 F   0  0  0  0  0  0
  -29.9786  -13.5454   20.3981 N   0  0  0  0  0  0
  -26.2917  -12.9424   20.3291 N   0  0  0  0  0  0
  -25.9320  -11.6560   20.5773 N   0  0  0  0  0  0
  -22.0455  -12.8211   22.0425 N   0  0  0  0  0  0
  -25.4174  -15.1930   20.4133 N   0  0  0  0  0  0
  -31.8318  -14.7903   20.1345 O   0  0  0  0  0  0
  -21.6639   -6.8878   21.4242 O   0  0  0  0  0  0
  -22.3496  -14.5525   20.6710 O   0  0  0  0  0  0
  -24.6350  -31.8525   23.1988 C   0  0  0  0  0  0
  -25.9160  -32.4741   23.8340 C   0  0  1  0  0  0
  -27.2118  -27.2313   20.1331 C   0  0  0  0  0  0
  -25.5934  -33.8546   24.2245 N   0  0  0  0  0  0
  -23.4336  -30.4777   21.5418 C   0  0  2  0  0  0
  -24.8810  -28.9282   20.1069 C   0  0  0  0  0  0
  -22.7531  -29.4588   22.4893 C   0  0  0  0  0  0
  -18.0295  -28.1384   22.8483 C   0  0  0  0  0  0
  -24.1487  -36.7271   23.2643 C   0  0  0  0  0  0
  -25.9852  -30.7568   21.3864 C   0  0  0  0  0  0
  -26.0561  -29.3803   20.7219 C   0  0  0  0  0  0
  -27.2249  -28.5462   20.7216 C   0  0  0  0  0  0
  -26.0166  -26.8680   19.4697 C   0  0  0  0  0  0
  -24.8695  -27.6812   19.4679 C   0  0  0  0  0  0
  -23.6532  -29.8172   20.1568 C   0  0  0  0  0  0
  -25.4121  -36.3053   24.0319 C   0  0  1  0  0  0
  -20.5909  -28.3698   23.1252 C   0  0  2  0  0  0
  -20.6776  -26.9410   22.5401 C   0  0  0  0  0  0
  -19.5746  -26.6377   21.5210 C   0  0  0  0  0  0
  -18.1928  -26.7924   22.1625 C   0  0  0  0  0  0
  -19.1552  -28.8861   23.2856 C   0  0  0  0  0  0
  -18.9470  -30.1454   23.8880 C   0  0  0  0  0  0
  -17.6468  -30.6587   24.0555 C   0  0  0  0  0  0
  -25.9065  -34.9429   23.5088 C   0  0  0  0  0  0
  -16.5357  -29.9081   23.6337 C   0  0  0  0  0  0
  -16.7282  -28.6497   23.0363 C   0  0  0  0  0  0
  -26.4512  -31.6594   25.0756 C   0  0  0  0  0  0
  -25.3726  -31.3742   26.1471 C   0  0  0  0  0  0
  -27.0375  -30.3000   24.6302 C   0  0  0  0  0  0
  -27.6052  -32.4369   25.7520 C   0  0  0  0  0  0
  -27.5572  -37.1790   24.8468 C   0  0  0  0  0  0
  -21.4234  -29.3039   22.3639 N   0  0  0  0  0  0
  -26.4287  -37.3760   23.9406 N   0  0  0  0  0  0
  -24.7036  -31.0482   22.0970 N   0  0  0  0  0  0
  -23.4225  -28.8118   23.2994 O   0  0  0  0  0  0
  -28.2758  -26.2908   20.2252 O   0  0  0  0  0  0
  -26.5645  -34.8896   22.4664 O   0  0  0  0  0  0
  -23.5492  -32.1347   23.7266 O   0  0  0  0  0  0
  -29.3405  -19.8206   20.1228 C   0  0  0  0  0  0
  -29.9535  -18.7564   20.9458 C   0  0  0  0  0  0
  -30.2433  -19.2721   22.1630 C   0  0  0  0  0  0
  -29.2343  -21.1096   20.7170 C   0  0  0  0  0  0
  -28.8970  -23.6622   20.5828 C   0  0  0  0  0  0
  -31.0351  -18.4002   23.0479 C   0  0  0  0  0  0
  -31.5654  -17.3305   22.0705 C   0  0  0  0  0  0
  -30.6438  -17.3232   20.8041 C   0  0  1  0  0  0
  -27.9826  -24.8254   19.9466 C   0  0  0  0  0  0
  -28.7301  -22.3258   20.2030 N   0  0  0  0  0  0
  -29.9753  -15.9416   20.7499 N   0  0  0  0  0  0
  -29.7529  -23.9896   21.4092 O   0  0  0  0  0  0
  -29.8442  -20.9660   22.3653 S   0  0  0  0  0  0
  -31.4658  -12.5596   19.1861 H   0  0  0  0  0  0
  -30.3485  -11.4941   19.9858 H   0  0  0  0  0  0
  -29.7920  -11.7147   17.5400 H   0  0  0  0  0  0
  -29.6289  -13.4465   17.7171 H   0  0  0  0  0  0
  -27.9099  -11.2734   18.9503 H   0  0  0  0  0  0
  -27.3723  -12.4797   17.8127 H   0  0  0  0  0  0
  -27.6248  -14.2503   19.4498 H   0  0  0  0  0  0
  -28.7198  -12.2168   21.4543 H   0  0  0  0  0  0
  -28.4137  -13.9070   21.7772 H   0  0  0  0  0  0
  -25.2754   -9.5694   22.4771 H   0  0  0  0  0  0
  -23.9996   -7.4646   22.7489 H   0  0  0  0  0  0
  -21.0837   -8.8770   19.8960 H   0  0  0  0  0  0
  -22.3688  -10.9672   19.6175 H   0  0  0  0  0  0
  -21.2011   -7.6149   23.9716 H   0  0  0  0  0  0
  -21.1478   -6.0524   25.9077 H   0  0  0  0  0  0
  -22.0595   -2.7609   23.2847 H   0  0  0  0  0  0
  -22.4075  -11.9870   22.4806 H   0  0  0  0  0  0
  -21.1080  -13.1238   22.2645 H   0  0  0  0  0  0
  -24.6488  -15.8454   20.5241 H   0  0  0  0  0  0
  -26.2658  -15.6342   20.0829 H   0  0  0  0  0  0
  -26.7232  -32.5360   23.1078 H   0  0  0  0  0  0
  -25.0053  -33.9688   25.0368 H   0  0  0  0  0  0
  -22.7295  -31.2995   21.3969 H   0  0  0  0  0  0
  -23.3746  -35.9609   23.3318 H   0  0  0  0  0  0
  -24.3564  -36.8896   22.2054 H   0  0  0  0  0  0
  -23.7254  -37.6475   23.6674 H   0  0  0  0  0  0
  -26.1397  -31.5211   20.6234 H   0  0  0  0  0  0
  -26.8555  -30.7939   22.0301 H   0  0  0  0  0  0
  -28.1227  -28.8863   21.2189 H   0  0  0  0  0  0
  -25.9231  -25.9220   18.9581 H   0  0  0  0  0  0
  -23.9726  -27.3328   18.9739 H   0  0  0  0  0  0
  -23.7797  -30.5951   19.4034 H   0  0  0  0  0  0
  -22.7706  -29.2538   19.8490 H   0  0  0  0  0  0
  -25.1303  -36.1888   25.0811 H   0  0  0  0  0  0
  -20.9996  -28.3277   24.1375 H   0  0  0  0  0  0
  -20.5668  -26.2308   23.3608 H   0  0  0  0  0  0
  -21.6638  -26.7416   22.1196 H   0  0  0  0  0  0
  -19.6898  -25.6287   21.1240 H   0  0  0  0  0  0
  -19.6679  -27.3181   20.6734 H   0  0  0  0  0  0
  -17.4196  -26.6670   21.4025 H   0  0  0  0  0  0
  -18.0318  -26.0061   22.9013 H   0  0  0  0  0  0
  -19.7946  -30.7265   24.2247 H   0  0  0  0  0  0
  -17.5027  -31.6268   24.5150 H   0  0  0  0  0  0
  -15.5355  -30.2973   23.7681 H   0  0  0  0  0  0
  -15.8678  -28.0810   22.7098 H   0  0  0  0  0  0
  -24.5916  -30.7079   25.7794 H   0  0  0  0  0  0
  -24.8900  -32.2901   26.4889 H   0  0  0  0  0  0
  -25.8039  -30.8931   27.0257 H   0  0  0  0  0  0
  -26.2986  -29.6729   24.1305 H   0  0  0  0  0  0
  -27.3990  -29.7293   25.4864 H   0  0  0  0  0  0
  -27.8884  -30.4245   23.9607 H   0  0  0  0  0  0
  -27.2657  -33.3693   26.2046 H   0  0  0  0  0  0
  -28.3874  -32.6913   25.0353 H   0  0  0  0  0  0
  -28.0706  -31.8540   26.5477 H   0  0  0  0  0  0
  -28.2593  -38.0080   24.7512 H   0  0  0  0  0  0
  -28.1064  -36.2615   24.6306 H   0  0  0  0  0  0
  -27.2284  -37.1458   25.8867 H   0  0  0  0  0  0
  -20.9423  -29.8779   21.6851 H   0  0  0  0  0  0
  -26.0156  -38.2826   24.1415 H   0  0  0  0  0  0
  -29.0763  -19.6199   19.0944 H   0  0  0  0  0  0
  -30.3936  -17.9569   23.8107 H   0  0  0  0  0  0
  -31.8430  -18.9372   23.5470 H   0  0  0  0  0  0
  -31.6983  -16.3646   22.5584 H   0  0  0  0  0  0
  -32.5612  -17.6418   21.7513 H   0  0  0  0  0  0
  -31.2843  -17.3654   19.9213 H   0  0  0  0  0  0
  -26.9861  -24.5888   20.3213 H   0  0  0  0  0  0
  -27.9572  -24.6790   18.8668 H   0  0  0  0  0  0
  -28.0966  -22.2137   19.4220 H   0  0  0  0  0  0
  -28.9917  -15.8911   20.9662 H   0  0  0  0  0  0
  1 25  1  0  0  0
  1 30  2  0  0  0
  1 81  1  0  0  0
  2  3  1  0  0  0
  2 25  1  0  0  0
  2 84  1  0  0  0
  2 85  1  0  0  0
  3  4  1  0  0  0
  3 86  1  0  0  0
  3 87  1  0  0  0
  4  5  1  0  0  0
  4 88  1  0  0  0
  4 89  1  0  0  0
  5  6  1  0  0  0
  5 26  1  0  0  0
  5 90  1  0  0  0
  6 25  1  0  0  0
  6 91  1  0  0  0
  6 92  1  0  0  0
  7  8  2  0  0  0
  7 26  1  0  0  0
  7 29  1  0  0  0
  8  9  1  0  0  0
  8 22  1  0  0  0
  9 10  1  0  0  0
  9 27  2  0  0  0
 10 11  2  0  0  0
 10 15  1  0  0  0
 11 12  1  0  0  0
 11 93  1  0  0  0
 12 13  2  0  0  0
 12 94  1  0  0  0
 13 14  1  0  0  0
 13 31  1  0  0  0
 14 15  2  0  0  0
 14 95  1  0  0  0
 15 96  1  0  0  0
 16 17  2  0  0  0
 16 21  1  0  0  0
 16 31  1  0  0  0
 17 18  1  0  0  0
 17 97  1  0  0  0
 18 19  2  0  0  0
 18 98  1  0  0  0
 19 20  1  0  0  0
 19 24  1  0  0  0
 20 21  2  0  0  0
 20 99  1  0  0  0
 21 23  1  0  0  0
 22 28  1  0  0  0
 22 32  2  0  0  0
 26 27  1  0  0  0
 28100  1  0  0  0
 28101  1  0  0  0
 29102  1  0  0  0
 29103  1  0  0  0
 33 34  1  0  0  0
 33 66  1  0  0  0
 33 70  2  0  0  0
 34 36  1  0  0  0
 34 59  1  0  0  0
 34104  1  0  0  0
 35 44  2  0  0  0
 35 45  1  0  0  0
 35 68  1  0  0  0
 36 56  1  0  0  0
 36105  1  0  0  0
 37 39  1  0  0  0
 37 47  1  0  0  0
 37 66  1  0  0  0
 37106  1  0  0  0
 38 43  2  0  0  0
 38 46  1  0  0  0
 38 47  1  0  0  0
 39 64  1  0  0  0
 39 67  2  0  0  0
 40 52  1  0  0  0
 40 53  2  0  0  0
 40 58  1  0  0  0
 41107  1  0  0  0
 41108  1  0  0  0
 41109  1  0  0  0
 41 48  1  0  0  0
 42 43  1  0  0  0
 42 66  1  0  0  0
 42110  1  0  0  0
 42111  1  0  0  0
 43 44  1  0  0  0
 44112  1  0  0  0
 45 46  2  0  0  0
 45113  1  0  0  0
 46114  1  0  0  0
 47115  1  0  0  0
 47116  1  0  0  0
 48 56  1  0  0  0
 48 65  1  0  0  0
 48117  1  0  0  0
 49 50  1  0  0  0
 49 53  1  0  0  0
 49 64  1  0  0  0
 49118  1  0  0  0
 50 51  1  0  0  0
 50119  1  0  0  0
 50120  1  0  0  0
 51 52  1  0  0  0
 51121  1  0  0  0
 51122  1  0  0  0
 52123  1  0  0  0
 52124  1  0  0  0
 53 54  1  0  0  0
 54 55  2  0  0  0
 54125  1  0  0  0
 55 57  1  0  0  0
 55126  1  0  0  0
 56 69  2  0  0  0
 57 58  2  0  0  0
 57127  1  0  0  0
 58128  1  0  0  0
 59 60  1  0  0  0
 59 61  1  0  0  0
 59 62  1  0  0  0
 60129  1  0  0  0
 60130  1  0  0  0
 60131  1  0  0  0
 61132  1  0  0  0
 61133  1  0  0  0
 61134  1  0  0  0
 62135  1  0  0  0
 62136  1  0  0  0
 62137  1  0  0  0
 63 65  1  0  0  0
 63138  1  0  0  0
 63139  1  0  0  0
 63140  1  0  0  0
 64141  1  0  0  0
 65142  1  0  0  0
 68 79  1  0  0  0
 71 72  1  0  0  0
 71 74  2  0  0  0
 71143  1  0  0  0
 72 73  2  0  0  0
 72 78  1  0  0  0
 73 76  1  0  0  0
 73 83  1  0  0  0
 74 80  1  0  0  0
 74 83  1  0  0  0
 75 79  1  0  0  0
 75 80  1  0  0  0
 75 82  2  0  0  0
 76 77  1  0  0  0
 76144  1  0  0  0
 76145  1  0  0  0
 77 78  1  0  0  0
 77146  1  0  0  0
 77147  1  0  0  0
 78 81  1  0  0  0
 78148  1  0  0  0
 79149  1  0  0  0
 79150  1  0  0  0
 80151  1  0  0  0
 81152  1  0  0  0
M  ISO  4   1 100  68 101  79 101  81 100
M  END
> <chiral flag>
0

> <version>
0

> <s_m_source_file>
/data/baiqing/PycharmProjects/Reinvent-master-3.2/result/LINK_invent/BTK/process_docking_weight1_custom_product_contain_oxygen_bond_distance_aromatic_linkinvent_7_9_3/rearranged_h_0153.sdf

> <i_m_source_file_index>
59

> <r_mmod_Potential_Energy-OPLS-2005>
188.755920410156

> <r_mmod_Stretch_Energy-OPLS-2005>
136.209869384766

> <r_mmod_Bend_Energy-OPLS-2005>
261.529388427734

> <r_mmod_Torsional_Energy-OPLS-2005>
220.026290893555

> <r_mmod_Improper_Torsional_Energy-OPLS-2005>
7.57750558853149

> <r_mmod_Van_der_Waal_Energy-OPLS-2005>
124.537551879883

> <r_mmod_Electrostatic_Energy-OPLS-2005>
-411.141296386719

> <r_mmod_Solvation_Energy-OPLS-2005>
-250.366638183594

> <b_mmod_Minimization_Converged-OPLS-2005>
0

> <r_mmod_RMS_Derivative-OPLS-2005>
1.42205095291138

$$$$
59
                    3D
 Structure written by MMmdl.
155164  0  0  1  0            999 V2000
  -30.5593  -14.8297   20.4311 C   0  0  0  0  0  0
  -30.4383  -12.5013   19.4984 C   0  0  0  0  0  0
  -29.5204  -12.5263   18.2536 C   0  0  0  0  0  0
  -28.0473  -12.3350   18.6618 C   0  0  0  0  0  0
  -27.6410  -13.2371   19.8571 C   0  0  2  0  0  0
  -28.6819  -13.1914   20.9978 C   0  0  0  0  0  0
  -25.2491  -13.8210   20.5717 C   0  0  0  0  0  0
  -24.1782  -13.0446   20.9203 C   0  0  0  0  0  0
  -24.6383  -11.6927   20.8739 C   0  0  0  0  0  0
  -23.9066  -10.4298   21.0402 C   0  0  0  0  0  0
  -24.3618   -9.4213   21.9177 C   0  0  0  0  0  0
  -23.6289   -8.2249   22.0750 C   0  0  0  0  0  0
  -22.4265   -8.0286   21.3552 C   0  0  0  0  0  0
  -21.9903   -9.0259   20.4655 C   0  0  0  0  0  0
  -22.7237  -10.2133   20.3061 C   0  0  0  0  0  0
  -21.6851   -6.0735   22.5279 C   0  0  0  0  0  0
  -21.4017   -6.5639   23.8213 C   0  0  0  0  0  0
  -21.3664   -5.6792   24.9174 C   0  0  0  0  0  0
  -21.6046   -4.3055   24.7225 C   0  0  0  0  0  0
  -21.8821   -3.8146   23.4345 C   0  0  0  0  0  0
  -21.9192   -4.6967   22.3402 C   0  0  0  0  0  0
  -22.7803  -13.5223   21.1869 C   0  0  0  0  0  0
  -22.1658   -4.2155   21.0981 F   0  0  0  0  0  0
  -21.5629   -3.4537   25.7737 F   0  0  0  0  0  0
  -29.9812  -13.5704   20.4245 N   0  0  0  0  0  0
  -26.2927  -12.9425   20.3309 N   0  0  0  0  0  0
  -25.9316  -11.6561   20.5747 N   0  0  0  0  0  0
  -22.0449  -12.8211   22.0426 N   0  0  0  0  0  0
  -25.4187  -15.1942   20.4197 N   0  0  0  0  0  0
  -31.7218  -14.9503   20.0299 O   0  0  0  0  0  0
  -21.6640   -6.8871   21.4238 O   0  0  0  0  0  0
  -22.3486  -14.5530   20.6716 O   0  0  0  0  0  0
  -24.6342  -31.8484   23.1913 C   0  0  0  0  0  0
  -25.9148  -32.4718   23.8276 C   0  0  1  0  0  0
  -27.2301  -27.2170   20.1323 C   0  0  0  0  0  0
  -25.5924  -33.8521   24.2200 N   0  0  0  0  0  0
  -23.4339  -30.4664   21.5337 C   0  0  2  0  0  0
  -24.8854  -28.9006   20.1026 C   0  0  0  0  0  0
  -22.7518  -29.4560   22.4882 C   0  0  0  0  0  0
  -18.0294  -28.1396   22.8479 C   0  0  0  0  0  0
  -24.1489  -36.7271   23.2640 C   0  0  0  0  0  0
  -25.9801  -30.7468   21.3767 C   0  0  0  0  0  0
  -26.0534  -29.3638   20.7199 C   0  0  0  0  0  0
  -27.2204  -28.5306   20.7287 C   0  0  0  0  0  0
  -26.0418  -26.8274   19.4803 C   0  0  0  0  0  0
  -24.8873  -27.6435   19.4730 C   0  0  0  0  0  0
  -23.6555  -29.7912   20.1520 C   0  0  0  0  0  0
  -25.4118  -36.3046   24.0317 C   0  0  1  0  0  0
  -20.5899  -28.3704   23.1263 C   0  0  2  0  0  0
  -20.6777  -26.9416   22.5414 C   0  0  0  0  0  0
  -19.5757  -26.6384   21.5212 C   0  0  0  0  0  0
  -18.1937  -26.7937   22.1622 C   0  0  0  0  0  0
  -19.1548  -28.8869   23.2865 C   0  0  0  0  0  0
  -18.9472  -30.1465   23.8888 C   0  0  0  0  0  0
  -17.6471  -30.6593   24.0564 C   0  0  0  0  0  0
  -25.9059  -34.9420   23.5070 C   0  0  0  0  0  0
  -16.5362  -29.9091   23.6331 C   0  0  0  0  0  0
  -16.7282  -28.6511   23.0352 C   0  0  0  0  0  0
  -26.4506  -31.6574   25.0696 C   0  0  0  0  0  0
  -25.3714  -31.3752   26.1411 C   0  0  0  0  0  0
  -27.0363  -30.2983   24.6229 C   0  0  0  0  0  0
  -27.6047  -32.4331   25.7478 C   0  0  0  0  0  0
  -27.5576  -37.1791   24.8461 C   0  0  0  0  0  0
  -21.4220  -29.3036   22.3635 N   0  0  0  0  0  0
  -26.4287  -37.3751   23.9402 N   0  0  0  0  0  0
  -24.7019  -31.0405   22.0905 N   0  0  0  0  0  0
  -23.4194  -28.8118   23.3014 O   0  0  0  0  0  0
  -28.3221  -26.3171   20.2701 O   0  0  0  0  0  0
  -26.5648  -34.8911   22.4647 O   0  0  0  0  0  0
  -23.5485  -32.1325   23.7189 O   0  0  0  0  0  0
  -29.7612  -18.6629   20.5562 C   0  0  0  0  0  0
  -28.6282  -17.2426   19.0783 C   0  0  0  0  0  0
  -29.4784  -17.2488   20.1521 C   0  0  0  0  0  0
  -29.1731  -19.6836   19.7519 C   0  0  0  0  0  0
  -28.1481  -23.5424   20.0613 C   0  0  0  0  0  0
  -31.4349  -22.0419   20.4159 C   0  0  0  0  0  0
  -30.8496  -21.4960   19.1218 C   0  0  0  0  0  0
  -30.2911  -22.8306   21.0636 C   0  0  0  0  0  0
  -29.3773  -21.2614   19.4620 C   0  0  2  0  0  0
  -28.5468  -25.0238   19.5050 C   0  0  0  0  0  0
  -29.0615  -22.5030   20.3317 N   0  0  0  0  0  0
  -29.7993  -15.9404   20.8221 N   0  0  0  0  0  0
  -26.9426  -23.2776   20.0792 O   0  0  0  0  0  0
  -28.1844  -18.8578   18.5565 S   0  0  0  0  0  0
  -31.4801  -12.6337   19.2005 H   0  0  0  0  0  0
  -30.3940  -11.5290   19.9920 H   0  0  0  0  0  0
  -29.8157  -11.7506   17.5460 H   0  0  0  0  0  0
  -29.6359  -13.4771   17.7306 H   0  0  0  0  0  0
  -27.9147  -11.2855   18.9282 H   0  0  0  0  0  0
  -27.3912  -12.5181   17.8105 H   0  0  0  0  0  0
  -27.6264  -14.2551   19.4694 H   0  0  0  0  0  0
  -28.7314  -12.1966   21.4422 H   0  0  0  0  0  0
  -28.3956  -13.8680   21.8041 H   0  0  0  0  0  0
  -25.2769   -9.5687   22.4742 H   0  0  0  0  0  0
  -24.0015   -7.4635   22.7457 H   0  0  0  0  0  0
  -21.0835   -8.8777   19.8953 H   0  0  0  0  0  0
  -22.3699  -10.9669   19.6167 H   0  0  0  0  0  0
  -21.2011   -7.6149   23.9716 H   0  0  0  0  0  0
  -21.1483   -6.0522   25.9075 H   0  0  0  0  0  0
  -22.0594   -2.7610   23.2843 H   0  0  0  0  0  0
  -22.4073  -11.9885   22.4831 H   0  0  0  0  0  0
  -21.1065  -13.1233   22.2635 H   0  0  0  0  0  0
  -24.6525  -15.8466   20.5454 H   0  0  0  0  0  0
  -26.2780  -15.6465   20.1370 H   0  0  0  0  0  0
  -26.7215  -32.5354   23.1011 H   0  0  0  0  0  0
  -25.0036  -33.9636   25.0326 H   0  0  0  0  0  0
  -22.7323  -31.2893   21.3807 H   0  0  0  0  0  0
  -23.3751  -35.9604   23.3300 H   0  0  0  0  0  0
  -24.3569  -36.8905   22.2054 H   0  0  0  0  0  0
  -23.7254  -37.6472   23.6678 H   0  0  0  0  0  0
  -26.1219  -31.5051   20.6053 H   0  0  0  0  0  0
  -26.8557  -30.7991   22.0124 H   0  0  0  0  0  0
  -28.1089  -28.8740   21.2397 H   0  0  0  0  0  0
  -25.9732  -25.8536   19.0177 H   0  0  0  0  0  0
  -23.9900  -27.2816   18.9902 H   0  0  0  0  0  0
  -23.7784  -30.5623   19.3905 H   0  0  0  0  0  0
  -22.7743  -29.2222   19.8503 H   0  0  0  0  0  0
  -25.1307  -36.1877   25.0810 H   0  0  0  0  0  0
  -20.9987  -28.3297   24.1386 H   0  0  0  0  0  0
  -20.5663  -26.2317   23.3623 H   0  0  0  0  0  0
  -21.6647  -26.7424   22.1219 H   0  0  0  0  0  0
  -19.6912  -25.6290   21.1254 H   0  0  0  0  0  0
  -19.6703  -27.3185   20.6735 H   0  0  0  0  0  0
  -17.4202  -26.6682   21.4031 H   0  0  0  0  0  0
  -18.0339  -26.0085   22.9025 H   0  0  0  0  0  0
  -19.7948  -30.7284   24.2258 H   0  0  0  0  0  0
  -17.5026  -31.6273   24.5167 H   0  0  0  0  0  0
  -15.5362  -30.2994   23.7659 H   0  0  0  0  0  0
  -15.8682  -28.0826   22.7073 H   0  0  0  0  0  0
  -24.5886  -30.7105   25.7739 H   0  0  0  0  0  0
  -24.8913  -32.2936   26.4802 H   0  0  0  0  0  0
  -25.8015  -30.8948   27.0208 H   0  0  0  0  0  0
  -26.2960  -29.6718   24.1241 H   0  0  0  0  0  0
  -27.4009  -29.7267   25.4775 H   0  0  0  0  0  0
  -27.8849  -30.4242   23.9501 H   0  0  0  0  0  0
  -27.2642  -33.3643   26.2019 H   0  0  0  0  0  0
  -28.3877  -32.6874   25.0322 H   0  0  0  0  0  0
  -28.0693  -31.8481   26.5427 H   0  0  0  0  0  0
  -28.2590  -38.0089   24.7494 H   0  0  0  0  0  0
  -28.1074  -36.2618   24.6302 H   0  0  0  0  0  0
  -27.2290  -37.1456   25.8863 H   0  0  0  0  0  0
  -20.9417  -29.8743   21.6820 H   0  0  0  0  0  0
  -26.0161  -38.2821   24.1406 H   0  0  0  0  0  0
  -30.4301  -18.8762   21.3780 H   0  0  0  0  0  0
  -28.2027  -16.3976   18.5507 H   0  0  0  0  0  0
  -32.3201  -22.6540   20.2416 H   0  0  0  0  0  0
  -31.7296  -21.2174   21.0671 H   0  0  0  0  0  0
  -31.3672  -20.6094   18.7530 H   0  0  0  0  0  0
  -30.9271  -22.2606   18.3466 H   0  0  0  0  0  0
  -30.5178  -23.8977   21.0551 H   0  0  0  0  0  0
  -30.1732  -22.5461   22.1100 H   0  0  0  0  0  0
  -28.8251  -21.4513   18.5395 H   0  0  0  0  0  0
  -28.0839  -25.1295   18.5244 H   0  0  0  0  0  0
  -29.6123  -24.9952   19.2803 H   0  0  0  0  0  0
  -29.0260  -15.6235   21.3876 H   0  0  0  0  0  0
  1 25  1  0  0  0
  1 30  2  0  0  0
  1 82  1  0  0  0
  2  3  1  0  0  0
  2 25  1  0  0  0
  2 85  1  0  0  0
  2 86  1  0  0  0
  3  4  1  0  0  0
  3 87  1  0  0  0
  3 88  1  0  0  0
  4  5  1  0  0  0
  4 89  1  0  0  0
  4 90  1  0  0  0
  5  6  1  0  0  0
  5 26  1  0  0  0
  5 91  1  0  0  0
  6 25  1  0  0  0
  6 92  1  0  0  0
  6 93  1  0  0  0
  7  8  2  0  0  0
  7 26  1  0  0  0
  7 29  1  0  0  0
  8  9  1  0  0  0
  8 22  1  0  0  0
  9 10  1  0  0  0
  9 27  2  0  0  0
 10 11  2  0  0  0
 10 15  1  0  0  0
 11 12  1  0  0  0
 11 94  1  0  0  0
 12 13  2  0  0  0
 12 95  1  0  0  0
 13 14  1  0  0  0
 13 31  1  0  0  0
 14 15  2  0  0  0
 14 96  1  0  0  0
 15 97  1  0  0  0
 16 17  2  0  0  0
 16 21  1  0  0  0
 16 31  1  0  0  0
 17 18  1  0  0  0
 17 98  1  0  0  0
 18 19  2  0  0  0
 18 99  1  0  0  0
 19 20  1  0  0  0
 19 24  1  0  0  0
 20 21  2  0  0  0
 20100  1  0  0  0
 21 23  1  0  0  0
 22 28  1  0  0  0
 22 32  2  0  0  0
 26 27  1  0  0  0
 28101  1  0  0  0
 28102  1  0  0  0
 29103  1  0  0  0
 29104  1  0  0  0
 33 34  1  0  0  0
 33 66  1  0  0  0
 33 70  2  0  0  0
 34 36  1  0  0  0
 34 59  1  0  0  0
 34105  1  0  0  0
 35 44  2  0  0  0
 35 45  1  0  0  0
 35 68  1  0  0  0
 36 56  1  0  0  0
 36106  1  0  0  0
 37 39  1  0  0  0
 37 47  1  0  0  0
 37 66  1  0  0  0
 37107  1  0  0  0
 38 43  2  0  0  0
 38 46  1  0  0  0
 38 47  1  0  0  0
 39 64  1  0  0  0
 39 67  2  0  0  0
 40 52  1  0  0  0
 40 53  2  0  0  0
 40 58  1  0  0  0
 41108  1  0  0  0
 41109  1  0  0  0
 41110  1  0  0  0
 41 48  1  0  0  0
 42 43  1  0  0  0
 42 66  1  0  0  0
 42111  1  0  0  0
 42112  1  0  0  0
 43 44  1  0  0  0
 44113  1  0  0  0
 45 46  2  0  0  0
 45114  1  0  0  0
 46115  1  0  0  0
 47116  1  0  0  0
 47117  1  0  0  0
 48 56  1  0  0  0
 48 65  1  0  0  0
 48118  1  0  0  0
 49 50  1  0  0  0
 49 53  1  0  0  0
 49 64  1  0  0  0
 49119  1  0  0  0
 50 51  1  0  0  0
 50120  1  0  0  0
 50121  1  0  0  0
 51 52  1  0  0  0
 51122  1  0  0  0
 51123  1  0  0  0
 52124  1  0  0  0
 52125  1  0  0  0
 53 54  1  0  0  0
 54 55  2  0  0  0
 54126  1  0  0  0
 55 57  1  0  0  0
 55127  1  0  0  0
 56 69  2  0  0  0
 57 58  2  0  0  0
 57128  1  0  0  0
 58129  1  0  0  0
 59 60  1  0  0  0
 59 61  1  0  0  0
 59 62  1  0  0  0
 60130  1  0  0  0
 60131  1  0  0  0
 60132  1  0  0  0
 61133  1  0  0  0
 61134  1  0  0  0
 61135  1  0  0  0
 62136  1  0  0  0
 62137  1  0  0  0
 62138  1  0  0  0
 63 65  1  0  0  0
 63139  1  0  0  0
 63140  1  0  0  0
 63141  1  0  0  0
 64142  1  0  0  0
 65143  1  0  0  0
 68 80  1  0  0  0
 71 73  1  0  0  0
 71 74  2  0  0  0
 71144  1  0  0  0
 72 73  2  0  0  0
 72 84  1  0  0  0
 72145  1  0  0  0
 73 82  1  0  0  0
 74 84  1  0  0  0
 74 79  1  0  0  0
 75 80  1  0  0  0
 75 81  1  0  0  0
 75 83  2  0  0  0
 76 77  1  0  0  0
 76 78  1  0  0  0
 76146  1  0  0  0
 76147  1  0  0  0
 77 79  1  0  0  0
 77148  1  0  0  0
 77149  1  0  0  0
 78 81  1  0  0  0
 78150  1  0  0  0
 78151  1  0  0  0
 79 81  1  0  0  0
 79152  1  0  0  0
 80153  1  0  0  0
 80154  1  0  0  0
 82155  1  0  0  0
M  ISO  4   1 100  68 101  80 101  82 100
M  END
> <chiral flag>
0

> <version>
0

> <s_m_source_file>
/data/baiqing/PycharmProjects/Reinvent-master-3.2/result/LINK_invent/BTK/process_docking_weight1_custom_product_contain_oxygen_bond_distance_aromatic_linkinvent_7_9_3/rearranged_h_0153.sdf

> <i_m_source_file_index>
60

> <r_mmod_Potential_Energy-OPLS-2005>
518.665405273438

> <r_mmod_Stretch_Energy-OPLS-2005>
167.455947875977

> <r_mmod_Bend_Energy-OPLS-2005>
288.861511230469

> <r_mmod_Torsional_Energy-OPLS-2005>
381.006164550781

> <r_mmod_Improper_Torsional_Energy-OPLS-2005>
13.6867427825928

> <r_mmod_Van_der_Waal_Energy-OPLS-2005>
102.509567260742

> <r_mmod_Electrostatic_Energy-OPLS-2005>
-315.115051269531

> <r_mmod_Solvation_Energy-OPLS-2005>
-242.651977539062

> <b_mmod_Minimization_Converged-OPLS-2005>
0

> <r_mmod_RMS_Derivative-OPLS-2005>
1.10158443450928

$$$$
60
                    3D
 Structure written by MMmdl.
163171  0  0  1  0            999 V2000
  -29.4732  -15.9568   20.3274 C   0  0  0  0  0  0
  -30.2681  -13.3869   19.5835 C   0  0  0  0  0  0
  -29.5157  -12.7431   18.3707 C   0  0  0  0  0  0
  -28.1136  -12.2667   18.7794 C   0  0  0  0  0  0
  -27.4991  -13.2599   19.7854 C   0  0  2  0  0  0
  -28.4103  -13.6173   20.9530 C   0  0  0  0  0  0
  -25.1939  -13.8124   20.5647 C   0  0  0  0  0  0
  -24.1411  -13.0341   20.9382 C   0  0  0  0  0  0
  -24.6067  -11.6829   20.8828 C   0  0  0  0  0  0
  -23.8867  -10.4212   21.0476 C   0  0  0  0  0  0
  -24.3504   -9.4142   21.9209 C   0  0  0  0  0  0
  -23.6230   -8.2155   22.0741 C   0  0  0  0  0  0
  -22.4216   -8.0193   21.3536 C   0  0  0  0  0  0
  -21.9824   -9.0145   20.4641 C   0  0  0  0  0  0
  -22.7091  -10.2047   20.3079 C   0  0  0  0  0  0
  -21.6832   -6.0681   22.5273 C   0  0  0  0  0  0
  -21.3995   -6.5606   23.8197 C   0  0  0  0  0  0
  -21.3655   -5.6770   24.9168 C   0  0  0  0  0  0
  -21.6046   -4.3033   24.7234 C   0  0  0  0  0  0
  -21.8822   -3.8114   23.4361 C   0  0  0  0  0  0
  -21.9187   -4.6916   22.3410 C   0  0  0  0  0  0
  -22.7503  -13.5157   21.2050 C   0  0  0  0  0  0
  -22.1656   -4.2106   21.0987 F   0  0  0  0  0  0
  -21.5644   -3.4526   25.7754 F   0  0  0  0  0  0
  -29.3957  -14.4656   20.3055 N   0  0  0  0  0  0
  -26.2045  -12.9216   20.2774 N   0  0  0  0  0  0
  -25.8883  -11.6391   20.5517 N   0  0  0  0  0  0
  -22.0188  -12.8132   22.0607 N   0  0  0  0  0  0
  -25.3746  -15.1848   20.3903 N   0  0  0  0  0  0
  -30.7232  -16.1042   20.1583 O   0  0  0  0  0  0
  -21.6597   -6.8795   21.4226 O   0  0  0  0  0  0
  -22.3254  -14.5473   20.6866 O   0  0  0  0  0  0
  -24.7995  -31.7998   22.7002 C   0  0  0  0  0  0
  -25.9915  -32.4128   23.6107 C   0  0  1  0  0  0
  -26.4023  -28.1342   21.6327 C   0  0  0  0  0  0
  -25.5892  -33.7797   24.0449 N   0  0  0  0  0  0
  -24.1235  -29.4037   20.9667 C   0  0  2  0  0  0
  -25.4591  -28.9852   19.4252 C   0  0  0  0  0  0
  -23.6869  -27.4854   22.1571 C   0  0  0  0  0  0
  -18.1732  -28.0871   22.8205 C   0  0  0  0  0  0
  -24.1441  -36.6996   23.2691 C   0  0  0  0  0  0
  -26.0765  -31.0675   20.7709 C   0  0  0  0  0  0
  -26.4478  -29.7319   20.1687 C   0  0  0  0  0  0
  -27.2846  -28.9893   20.9972 C   0  0  0  0  0  0
  -26.0865  -27.1208   20.6090 C   0  0  0  0  0  0
  -25.4935  -27.5912   19.4331 C   0  0  0  0  0  0
  -24.0995  -29.4583   19.4796 C   0  0  0  0  0  0
  -25.4185  -36.2592   24.0087 C   0  0  1  0  0  0
  -20.7947  -27.5760   23.3484 C   0  0  2  0  0  0
  -20.3519  -26.2713   22.7417 C   0  0  0  0  0  0
  -19.4229  -26.4024   21.5489 C   0  0  0  0  0  0
  -18.0853  -26.7704   22.1012 C   0  0  0  0  0  0
  -19.4448  -28.6148   23.2942 C   0  0  0  0  0  0
  -19.2313  -29.8937   23.9305 C   0  0  0  0  0  0
  -17.9643  -30.5523   24.0560 C   0  0  0  0  0  0
  -25.9291  -34.9186   23.4296 C   0  0  0  0  0  0
  -16.7823  -29.9476   23.6076 C   0  0  0  0  0  0
  -16.9043  -28.7027   22.9927 C   0  0  0  0  0  0
  -26.4572  -31.6696   24.9686 C   0  0  0  0  0  0
  -25.3732  -31.5480   26.0708 C   0  0  0  0  0  0
  -27.0464  -30.2688   24.7171 C   0  0  0  0  0  0
  -27.6212  -32.4668   25.6303 C   0  0  0  0  0  0
  -27.5529  -37.1574   24.8413 C   0  0  0  0  0  0
  -22.4024  -27.3325   23.0241 N   0  0  0  0  0  0
  -26.4135  -37.3546   23.9498 N   0  0  0  0  0  0
  -24.8683  -30.8968   21.5354 N   0  0  0  0  0  0
  -24.3257  -26.9934   23.0553 O   0  0  0  0  0  0
  -25.4976  -28.9241   22.7063 O   0  0  0  0  0  0
  -26.6326  -34.9167   22.4192 O   0  0  0  0  0  0
  -23.7055  -32.2211   23.1101 O   0  0  0  0  0  0
  -25.7802  -21.0419   19.4947 C   0  0  0  0  0  0
  -26.6235  -19.6807   19.4292 C   0  0  0  0  0  0
  -27.1374  -19.8875   21.4585 C   0  0  0  0  0  0
  -25.4466  -22.1103   20.5660 C   0  0  0  0  0  0
  -27.4845  -18.8259   20.3984 C   0  0  0  0  0  0
  -26.3325  -21.2684   21.5423 C   0  0  0  0  0  0
  -24.3177  -23.7251   20.8008 C   0  0  0  0  0  0
  -22.7977  -29.9153   24.5447 C   0  0  0  0  0  0
  -23.0059  -28.9834   25.7750 C   0  0  0  0  0  0
  -21.8976  -28.7143   21.2133 C   0  0  0  0  0  0
  -22.3187  -26.6648   20.2755 C   0  0  0  0  0  0
  -23.3885  -29.5774   23.0863 C   0  0  1  0  0  0
  -26.5026  -21.8180   22.8265 N   0  0  0  0  0  0
  -23.9756  -23.7735   22.0813 N   0  0  0  0  0  0
  -28.2540  -17.1068   20.3873 N   0  0  0  0  0  0
  -23.5464  -25.1042   20.2447 N   0  3  0  0  0  0
  -22.1544  -30.9393   24.7646 O   0  0  0  0  0  0
  -31.1918  -13.8383   19.2208 H   0  0  0  0  0  0
  -30.5992  -12.6121   20.2791 H   0  0  0  0  0  0
  -30.0920  -11.9202   17.9459 H   0  0  0  0  0  0
  -29.4205  -13.4907   17.5813 H   0  0  0  0  0  0
  -28.1987  -11.2840   19.2464 H   0  0  0  0  0  0
  -27.4729  -12.1466   17.9027 H   0  0  0  0  0  0
  -27.3359  -14.1539   19.1793 H   0  0  0  0  0  0
  -28.8071  -12.7374   21.4629 H   0  0  0  0  0  0
  -27.8843  -14.2004   21.7088 H   0  0  0  0  0  0
  -25.2654   -9.5632   22.4768 H   0  0  0  0  0  0
  -23.9959   -7.4533   22.7425 H   0  0  0  0  0  0
  -21.0770   -8.8635   19.8934 H   0  0  0  0  0  0
  -22.3544  -10.9583   19.6194 H   0  0  0  0  0  0
  -21.1970   -7.6113   23.9691 H   0  0  0  0  0  0
  -21.1487   -6.0504   25.9072 H   0  0  0  0  0  0
  -22.0614   -2.7579   23.2872 H   0  0  0  0  0  0
  -22.3854  -11.9803   22.4971 H   0  0  0  0  0  0
  -21.0796  -13.1117   22.2827 H   0  0  0  0  0  0
  -24.5283  -15.7434   20.4180 H   0  0  0  0  0  0
  -25.9517  -15.4447   19.6020 H   0  0  0  0  0  0
  -26.8940  -32.5034   23.0116 H   0  0  0  0  0  0
  -24.9414  -33.8291   24.8173 H   0  0  0  0  0  0
  -23.4075  -30.2358   20.9434 H   0  0  0  0  0  0
  -23.3815  -35.9195   23.3051 H   0  0  0  0  0  0
  -24.3383  -36.9176   22.2165 H   0  0  0  0  0  0
  -23.7139  -37.5919   23.7250 H   0  0  0  0  0  0
  -25.8667  -31.7718   19.9721 H   0  0  0  0  0  0
  -26.9347  -31.4906   21.2785 H   0  0  0  0  0  0
  -27.8709  -29.5914   21.6716 H   0  0  0  0  0  0
  -25.8689  -26.1045   20.8912 H   0  0  0  0  0  0
  -24.8454  -26.9619   18.8402 H   0  0  0  0  0  0
  -24.0282  -30.4396   19.0076 H   0  0  0  0  0  0
  -23.4202  -28.7773   18.9713 H   0  0  0  0  0  0
  -25.1541  -36.0900   25.0554 H   0  0  0  0  0  0
  -20.8209  -27.4370   24.4298 H   0  0  0  0  0  0
  -19.8089  -25.7290   23.5215 H   0  0  0  0  0  0
  -21.1388  -25.5565   22.5063 H   0  0  0  0  0  0
  -19.3370  -25.4395   21.0463 H   0  0  0  0  0  0
  -19.7299  -27.1378   20.8107 H   0  0  0  0  0  0
  -17.3454  -26.8049   21.2972 H   0  0  0  0  0  0
  -17.7387  -26.0047   22.7958 H   0  0  0  0  0  0
  -20.0344  -30.3809   24.4325 H   0  0  0  0  0  0
  -17.9069  -31.5133   24.5524 H   0  0  0  0  0  0
  -15.8178  -30.4262   23.7220 H   0  0  0  0  0  0
  -16.0093  -28.2194   22.6273 H   0  0  0  0  0  0
  -24.3848  -31.6356   25.6492 H   0  0  0  0  0  0
  -25.4116  -32.3776   26.7789 H   0  0  0  0  0  0
  -25.4340  -30.6280   26.6580 H   0  0  0  0  0  0
  -27.5967  -30.2019   23.7827 H   0  0  0  0  0  0
  -26.2906  -29.4876   24.7714 H   0  0  0  0  0  0
  -27.7441  -29.9909   25.5104 H   0  0  0  0  0  0
  -27.3410  -33.4769   25.9300 H   0  0  0  0  0  0
  -28.4624  -32.5693   24.9450 H   0  0  0  0  0  0
  -28.0004  -31.9832   26.5315 H   0  0  0  0  0  0
  -28.2351  -38.0054   24.7750 H   0  0  0  0  0  0
  -28.1237  -36.2626   24.5894 H   0  0  0  0  0  0
  -27.2328  -37.0755   25.8808 H   0  0  0  0  0  0
  -22.7403  -26.7190   23.7563 H   0  0  0  0  0  0
  -25.9818  -38.2446   24.1849 H   0  0  0  0  0  0
  -25.3098  -21.2608   18.5443 H   0  0  0  0  0  0
  -26.5695  -19.2329   18.4434 H   0  0  0  0  0  0
  -27.5381  -19.5847   22.4142 H   0  0  0  0  0  0
  -22.1618  -28.3034   25.8573 H   0  0  0  0  0  0
  -23.0862  -29.5379   26.7085 H   0  0  0  0  0  0
  -23.9078  -28.3767   25.6880 H   0  0  0  0  0  0
  -20.8518  -28.8673   21.4021 H   0  0  0  0  0  0
  -21.7707  -29.3850   20.3608 H   0  0  0  0  0  0
  -22.3730  -26.9249   19.2164 H   0  0  0  0  0  0
  -21.3910  -26.1166   20.2511 H   0  0  0  0  0  0
  -23.6868  -28.9186   23.8620 H   0  0  0  0  0  0
  -26.9825  -21.2353   23.5064 H   0  0  0  0  0  0
  -25.6817  -22.2010   23.2721 H   0  0  0  0  0  0
  -24.6790  -23.6160   22.7867 H   0  0  0  0  0  0
  -23.0381  -24.0184   22.3459 H   0  0  0  0  0  0
  -27.4519  -16.4979   20.4798 H   0  0  0  0  0  0
  -23.7314  -25.0045   19.2516 H   0  0  0  0  0  0
  1 25  1  0  0  0
  1 30  2  0  0  0
  1 85  1  0  0  0
  2  3  1  0  0  0
  2 25  1  0  0  0
  2 88  1  0  0  0
  2 89  1  0  0  0
  3  4  1  0  0  0
  3 90  1  0  0  0
  3 91  1  0  0  0
  4  5  1  0  0  0
  4 92  1  0  0  0
  4 93  1  0  0  0
  5  6  1  0  0  0
  5 26  1  0  0  0
  5 94  1  0  0  0
  6 25  1  0  0  0
  6 95  1  0  0  0
  6 96  1  0  0  0
  7  8  2  0  0  0
  7 26  1  0  0  0
  7 29  1  0  0  0
  8  9  1  0  0  0
  8 22  1  0  0  0
  9 10  1  0  0  0
  9 27  2  0  0  0
 10 11  2  0  0  0
 10 15  1  0  0  0
 11 12  1  0  0  0
 11 97  1  0  0  0
 12 13  2  0  0  0
 12 98  1  0  0  0
 13 14  1  0  0  0
 13 31  1  0  0  0
 14 15  2  0  0  0
 14 99  1  0  0  0
 15100  1  0  0  0
 16 17  2  0  0  0
 16 21  1  0  0  0
 16 31  1  0  0  0
 17 18  1  0  0  0
 17101  1  0  0  0
 18 19  2  0  0  0
 18102  1  0  0  0
 19 20  1  0  0  0
 19 24  1  0  0  0
 20 21  2  0  0  0
 20103  1  0  0  0
 21 23  1  0  0  0
 22 28  1  0  0  0
 22 32  2  0  0  0
 26 27  1  0  0  0
 28104  1  0  0  0
 28105  1  0  0  0
 29106  1  0  0  0
 29107  1  0  0  0
 33 34  1  0  0  0
 33 66  1  0  0  0
 33 70  2  0  0  0
 34 36  1  0  0  0
 34 59  1  0  0  0
 34108  1  0  0  0
 35 44  2  0  0  0
 35 45  1  0  0  0
 35 68  1  0  0  0
 36 56  1  0  0  0
 36109  1  0  0  0
 37 39  1  0  0  0
 37 47  1  0  0  0
 37 66  1  0  0  0
 37110  1  0  0  0
 38 43  2  0  0  0
 38 46  1  0  0  0
 38 47  1  0  0  0
 39 64  1  0  0  0
 39 67  2  0  0  0
 40 52  1  0  0  0
 40 53  2  0  0  0
 40 58  1  0  0  0
 41111  1  0  0  0
 41112  1  0  0  0
 41113  1  0  0  0
 41 48  1  0  0  0
 42 43  1  0  0  0
 42 66  1  0  0  0
 42114  1  0  0  0
 42115  1  0  0  0
 43 44  1  0  0  0
 44116  1  0  0  0
 45 46  2  0  0  0
 45117  1  0  0  0
 46118  1  0  0  0
 47119  1  0  0  0
 47120  1  0  0  0
 48 56  1  0  0  0
 48 65  1  0  0  0
 48121  1  0  0  0
 49 50  1  0  0  0
 49 53  1  0  0  0
 49 64  1  0  0  0
 49122  1  0  0  0
 50 51  1  0  0  0
 50123  1  0  0  0
 50124  1  0  0  0
 51 52  1  0  0  0
 51125  1  0  0  0
 51126  1  0  0  0
 52127  1  0  0  0
 52128  1  0  0  0
 53 54  1  0  0  0
 54 55  2  0  0  0
 54129  1  0  0  0
 55 57  1  0  0  0
 55130  1  0  0  0
 56 69  2  0  0  0
 57 58  2  0  0  0
 57131  1  0  0  0
 58132  1  0  0  0
 59 60  1  0  0  0
 59 61  1  0  0  0
 59 62  1  0  0  0
 60133  1  0  0  0
 60134  1  0  0  0
 60135  1  0  0  0
 61136  1  0  0  0
 61137  1  0  0  0
 61138  1  0  0  0
 62139  1  0  0  0
 62140  1  0  0  0
 62141  1  0  0  0
 63 65  1  0  0  0
 63142  1  0  0  0
 63143  1  0  0  0
 63144  1  0  0  0
 64145  1  0  0  0
 65146  1  0  0  0
 68 82  1  0  0  0
 71 72  2  0  0  0
 71 74  1  0  0  0
 71147  1  0  0  0
 72 75  1  0  0  0
 72148  1  0  0  0
 73 75  2  0  0  0
 73 76  1  0  0  0
 73149  1  0  0  0
 74 76  2  0  0  0
 74 77  1  0  0  0
 75 85  1  0  0  0
 76 83  1  0  0  0
 77 84  1  0  0  0
 77 86  2  0  0  0
 78 79  1  0  0  0
 78 82  1  0  0  0
 78 87  2  0  0  0
 79150  1  0  0  0
 79151  1  0  0  0
 79152  1  0  0  0
 80 81  1  0  0  0
 80153  1  0  0  0
 80154  1  0  0  0
 80 82  1  0  0  0
 81 86  1  0  0  0
 81155  1  0  0  0
 81156  1  0  0  0
 82157  1  0  0  0
 83158  1  0  0  0
 83159  1  0  0  0
 84160  1  0  0  0
 84161  1  0  0  0
 85162  1  0  0  0
 86163  1  0  0  0
M  CHG  1  86   1
M  ISO  4   1 100  68 101  82 101  85 100
M  END
> <chiral flag>
0

> <version>
0

> <s_m_source_file>
/data/baiqing/PycharmProjects/Reinvent-master-3.2/result/LINK_invent/BTK/process_docking_weight1_custom_product_contain_oxygen_bond_distance_aromatic_linkinvent_7_9_3/rearranged_h_0153.sdf

> <i_m_source_file_index>
61

> <r_mmod_Potential_Energy-OPLS-2005>
16651.12890625

> <r_mmod_Stretch_Energy-OPLS-2005>
6141.32958984375

> <r_mmod_Bend_Energy-OPLS-2005>
2249.97338867188

> <r_mmod_Torsional_Energy-OPLS-2005>
751.608215332031

> <r_mmod_Improper_Torsional_Energy-OPLS-2005>
113.707885742188

> <r_mmod_Van_der_Waal_Energy-OPLS-2005>
2068.78979492188

> <r_mmod_Electrostatic_Energy-OPLS-2005>
-229.834533691406

> <r_mmod_Solvation_Energy-OPLS-2005>
-437.511352539062

> <b_mmod_Minimization_Converged-OPLS-2005>
0

> <r_mmod_RMS_Derivative-OPLS-2005>
11.5121603012085

$$$$
61
                    3D
 Structure written by MMmdl.
158167  0  0  1  0            999 V2000
  -30.6129  -14.7779   20.4618 C   0  0  0  0  0  0
  -30.4295  -12.4787   19.4796 C   0  0  0  0  0  0
  -29.5105  -12.5129   18.2390 C   0  0  0  0  0  0
  -28.0374  -12.3304   18.6526 C   0  0  0  0  0  0
  -27.6379  -13.2363   19.8480 C   0  0  2  0  0  0
  -28.6821  -13.1923   20.9851 C   0  0  0  0  0  0
  -25.2491  -13.8204   20.5696 C   0  0  0  0  0  0
  -24.1795  -13.0445   20.9223 C   0  0  0  0  0  0
  -24.6395  -11.6923   20.8757 C   0  0  0  0  0  0
  -23.9076  -10.4297   21.0413 C   0  0  0  0  0  0
  -24.3624   -9.4212   21.9190 C   0  0  0  0  0  0
  -23.6298   -8.2247   22.0756 C   0  0  0  0  0  0
  -22.4281   -8.0285   21.3547 C   0  0  0  0  0  0
  -21.9920   -9.0262   20.4648 C   0  0  0  0  0  0
  -22.7250  -10.2140   20.3058 C   0  0  0  0  0  0
  -21.6852   -6.0739   22.5282 C   0  0  0  0  0  0
  -21.4016   -6.5642   23.8218 C   0  0  0  0  0  0
  -21.3660   -5.6794   24.9177 C   0  0  0  0  0  0
  -21.6041   -4.3056   24.7226 C   0  0  0  0  0  0
  -21.8820   -3.8152   23.4348 C   0  0  0  0  0  0
  -21.9195   -4.6969   22.3403 C   0  0  0  0  0  0
  -22.7815  -13.5226   21.1883 C   0  0  0  0  0  0
  -22.1661   -4.2155   21.0980 F   0  0  0  0  0  0
  -21.5628   -3.4540   25.7738 F   0  0  0  0  0  0
  -29.9786  -13.5527   20.3985 N   0  0  0  0  0  0
  -26.2916  -12.9419   20.3268 N   0  0  0  0  0  0
  -25.9325  -11.6557   20.5751 N   0  0  0  0  0  0
  -22.0456  -12.8207   22.0425 N   0  0  0  0  0  0
  -25.4166  -15.1931   20.4089 N   0  0  0  0  0  0
  -31.8042  -14.8371   20.1464 O   0  0  0  0  0  0
  -21.6643   -6.8886   21.4244 O   0  0  0  0  0  0
  -22.3501  -14.5532   20.6724 O   0  0  0  0  0  0
  -24.6341  -31.8514   23.1942 C   0  0  0  0  0  0
  -25.9152  -32.4729   23.8302 C   0  0  1  0  0  0
  -27.2233  -27.2333   20.1346 C   0  0  0  0  0  0
  -25.5942  -33.8532   24.2223 N   0  0  0  0  0  0
  -23.4316  -30.4730   21.5375 C   0  0  2  0  0  0
  -24.8776  -28.9103   20.1077 C   0  0  0  0  0  0
  -22.7515  -29.4585   22.4890 C   0  0  0  0  0  0
  -18.0297  -28.1400   22.8486 C   0  0  0  0  0  0
  -24.1485  -36.7265   23.2644 C   0  0  0  0  0  0
  -25.9776  -30.7557   21.3759 C   0  0  0  0  0  0
  -26.0476  -29.3748   20.7192 C   0  0  0  0  0  0
  -27.2182  -28.5486   20.7206 C   0  0  0  0  0  0
  -26.0261  -26.8360   19.4983 C   0  0  0  0  0  0
  -24.8735  -27.6506   19.4869 C   0  0  0  0  0  0
  -23.6505  -29.8026   20.1543 C   0  0  0  0  0  0
  -25.4115  -36.3048   24.0323 C   0  0  1  0  0  0
  -20.5901  -28.3707   23.1259 C   0  0  2  0  0  0
  -20.6780  -26.9422   22.5403 C   0  0  0  0  0  0
  -19.5748  -26.6390   21.5215 C   0  0  0  0  0  0
  -18.1932  -26.7943   22.1630 C   0  0  0  0  0  0
  -19.1551  -28.8873   23.2867 C   0  0  0  0  0  0
  -18.9471  -30.1474   23.8883 C   0  0  0  0  0  0
  -17.6468  -30.6595   24.0570 C   0  0  0  0  0  0
  -25.9061  -34.9422   23.5073 C   0  0  0  0  0  0
  -16.5358  -29.9088   23.6345 C   0  0  0  0  0  0
  -16.7284  -28.6512   23.0358 C   0  0  0  0  0  0
  -26.4513  -31.6572   25.0711 C   0  0  0  0  0  0
  -25.3727  -31.3737   26.1429 C   0  0  0  0  0  0
  -27.0371  -30.2988   24.6215 C   0  0  0  0  0  0
  -27.6055  -32.4328   25.7492 C   0  0  0  0  0  0
  -27.5571  -37.1792   24.8470 C   0  0  0  0  0  0
  -21.4218  -29.3045   22.3642 N   0  0  0  0  0  0
  -26.4283  -37.3756   23.9408 N   0  0  0  0  0  0
  -24.7004  -31.0464   22.0920 N   0  0  0  0  0  0
  -23.4200  -28.8142   23.3013 O   0  0  0  0  0  0
  -28.3370  -26.3585   20.2271 O   0  0  0  0  0  0
  -26.5635  -34.8911   22.4643 O   0  0  0  0  0  0
  -23.5486  -32.1350   23.7221 O   0  0  0  0  0  0
  -31.0627  -20.1718   20.8928 C   0  0  0  0  0  0
  -29.2952  -18.5238   20.6064 C   0  0  0  0  0  0
  -31.5871  -17.7650   20.8521 C   0  0  0  0  0  0
  -29.6858  -19.9365   20.7032 C   0  0  0  0  0  0
  -31.9937  -19.1152   20.9564 C   0  0  0  0  0  0
  -30.2295  -17.3946   20.6812 C   0  0  0  0  0  0
  -28.0272  -23.6926   20.5783 C   0  0  0  0  0  0
  -28.7357  -21.1559   20.8152 C   0  0  0  0  0  0
  -29.8310  -24.5250   19.3195 C   0  0  0  0  0  0
  -29.9113  -22.9692   19.3835 C   0  0  0  0  0  0
  -28.3974  -24.9455   19.6744 C   0  0  2  0  0  0
  -28.8782  -22.4812   20.3270 N   0  0  0  0  0  0
  -33.3423  -19.4174   21.1587 N   0  0  0  0  0  0
  -29.8518  -15.9376   20.6520 N   0  0  0  0  0  0
  -27.6459  -20.8974   21.5396 N   0  3  0  0  0  0
  -27.0872  -23.6856   21.3811 O   0  0  0  0  0  0
  -31.4707  -12.5992   19.1758 H   0  0  0  0  0  0
  -30.3755  -11.5073   19.9735 H   0  0  0  0  0  0
  -29.8011  -11.7362   17.5303 H   0  0  0  0  0  0
  -29.6305  -13.4637   17.7173 H   0  0  0  0  0  0
  -27.8992  -11.2823   18.9205 H   0  0  0  0  0  0
  -27.3804  -12.5135   17.8016 H   0  0  0  0  0  0
  -27.6260  -14.2539   19.4576 H   0  0  0  0  0  0
  -28.7267  -12.1997   21.4358 H   0  0  0  0  0  0
  -28.4101  -13.8805   21.7870 H   0  0  0  0  0  0
  -25.2772   -9.5684   22.4762 H   0  0  0  0  0  0
  -24.0011   -7.4636   22.7469 H   0  0  0  0  0  0
  -21.0857   -8.8784   19.8945 H   0  0  0  0  0  0
  -22.3720  -10.9677   19.6158 H   0  0  0  0  0  0
  -21.2006   -7.6150   23.9721 H   0  0  0  0  0  0
  -21.1477   -6.0522   25.9080 H   0  0  0  0  0  0
  -22.0596   -2.7615   23.2845 H   0  0  0  0  0  0
  -22.4068  -11.9860   22.4799 H   0  0  0  0  0  0
  -21.1065  -13.1216   22.2623 H   0  0  0  0  0  0
  -24.6419  -15.8401   20.5090 H   0  0  0  0  0  0
  -26.2504  -15.6312   20.0405 H   0  0  0  0  0  0
  -26.7220  -32.5358   23.1039 H   0  0  0  0  0  0
  -25.0113  -33.9662   25.0388 H   0  0  0  0  0  0
  -22.7287  -31.2956   21.3895 H   0  0  0  0  0  0
  -23.3746  -35.9604   23.3311 H   0  0  0  0  0  0
  -24.3575  -36.8883   22.2060 H   0  0  0  0  0  0
  -23.7237  -37.6465   23.6665 H   0  0  0  0  0  0
  -26.1199  -31.5141   20.6047 H   0  0  0  0  0  0
  -26.8540  -30.8039   22.0109 H   0  0  0  0  0  0
  -28.1131  -28.8992   21.2151 H   0  0  0  0  0  0
  -25.9398  -25.8666   19.0327 H   0  0  0  0  0  0
  -23.9746  -27.2870   19.0078 H   0  0  0  0  0  0
  -23.7789  -30.5773   19.3973 H   0  0  0  0  0  0
  -22.7676  -29.2386   19.8494 H   0  0  0  0  0  0
  -25.1302  -36.1895   25.0819 H   0  0  0  0  0  0
  -20.9994  -28.3283   24.1379 H   0  0  0  0  0  0
  -20.5676  -26.2323   23.3610 H   0  0  0  0  0  0
  -21.6652  -26.7438   22.1204 H   0  0  0  0  0  0
  -19.6901  -25.6296   21.1252 H   0  0  0  0  0  0
  -19.6692  -27.3201   20.6746 H   0  0  0  0  0  0
  -17.4211  -26.6708   21.4021 H   0  0  0  0  0  0
  -18.0320  -26.0080   22.9020 H   0  0  0  0  0  0
  -19.7943  -30.7303   24.2230 H   0  0  0  0  0  0
  -17.5025  -31.6273   24.5179 H   0  0  0  0  0  0
  -15.5357  -30.2988   23.7675 H   0  0  0  0  0  0
  -15.8688  -28.0831   22.7067 H   0  0  0  0  0  0
  -24.5906  -30.7080   25.7764 H   0  0  0  0  0  0
  -24.8928  -32.2919   26.4826 H   0  0  0  0  0  0
  -25.8053  -30.8938   27.0215 H   0  0  0  0  0  0
  -26.2970  -29.6715   24.1239 H   0  0  0  0  0  0
  -27.4045  -29.7275   25.4745 H   0  0  0  0  0  0
  -27.8842  -30.4262   23.9474 H   0  0  0  0  0  0
  -27.2657  -33.3646   26.2025 H   0  0  0  0  0  0
  -28.3892  -32.6854   25.0338 H   0  0  0  0  0  0
  -28.0690  -31.8481   26.5448 H   0  0  0  0  0  0
  -28.2593  -38.0085   24.7503 H   0  0  0  0  0  0
  -28.1056  -36.2608   24.6310 H   0  0  0  0  0  0
  -27.2291  -37.1468   25.8878 H   0  0  0  0  0  0
  -20.9411  -29.8758   21.6836 H   0  0  0  0  0  0
  -26.0147  -38.2826   24.1407 H   0  0  0  0  0  0
  -31.4140  -21.1778   21.0617 H   0  0  0  0  0  0
  -28.2429  -18.3018   20.5014 H   0  0  0  0  0  0
  -32.3524  -17.0111   20.9450 H   0  0  0  0  0  0
  -30.1073  -24.8926   18.3311 H   0  0  0  0  0  0
  -30.5382  -24.9581   20.0269 H   0  0  0  0  0  0
  -30.9205  -22.6717   19.6591 H   0  0  0  0  0  0
  -29.7140  -22.5404   18.3997 H   0  0  0  0  0  0
  -27.8054  -24.8734   18.7633 H   0  0  0  0  0  0
  -33.5917  -20.3292   21.5282 H   0  0  0  0  0  0
  -33.9609  -18.6812   21.4849 H   0  0  0  0  0  0
  -28.8692  -15.7512   20.7753 H   0  0  0  0  0  0
  -27.5349  -20.0026   21.9883 H   0  0  0  0  0  0
  -27.0003  -21.6484   21.7478 H   0  0  0  0  0  0
  1 25  1  0  0  0
  1 30  2  0  0  0
  1 84  1  0  0  0
  2  3  1  0  0  0
  2 25  1  0  0  0
  2 87  1  0  0  0
  2 88  1  0  0  0
  3  4  1  0  0  0
  3 89  1  0  0  0
  3 90  1  0  0  0
  4  5  1  0  0  0
  4 91  1  0  0  0
  4 92  1  0  0  0
  5  6  1  0  0  0
  5 26  1  0  0  0
  5 93  1  0  0  0
  6 25  1  0  0  0
  6 94  1  0  0  0
  6 95  1  0  0  0
  7  8  2  0  0  0
  7 26  1  0  0  0
  7 29  1  0  0  0
  8  9  1  0  0  0
  8 22  1  0  0  0
  9 10  1  0  0  0
  9 27  2  0  0  0
 10 11  2  0  0  0
 10 15  1  0  0  0
 11 12  1  0  0  0
 11 96  1  0  0  0
 12 13  2  0  0  0
 12 97  1  0  0  0
 13 14  1  0  0  0
 13 31  1  0  0  0
 14 15  2  0  0  0
 14 98  1  0  0  0
 15 99  1  0  0  0
 16 17  2  0  0  0
 16 21  1  0  0  0
 16 31  1  0  0  0
 17 18  1  0  0  0
 17100  1  0  0  0
 18 19  2  0  0  0
 18101  1  0  0  0
 19 20  1  0  0  0
 19 24  1  0  0  0
 20 21  2  0  0  0
 20102  1  0  0  0
 21 23  1  0  0  0
 22 28  1  0  0  0
 22 32  2  0  0  0
 26 27  1  0  0  0
 28103  1  0  0  0
 28104  1  0  0  0
 29105  1  0  0  0
 29106  1  0  0  0
 33 34  1  0  0  0
 33 66  1  0  0  0
 33 70  2  0  0  0
 34 36  1  0  0  0
 34 59  1  0  0  0
 34107  1  0  0  0
 35 44  2  0  0  0
 35 45  1  0  0  0
 35 68  1  0  0  0
 36 56  1  0  0  0
 36108  1  0  0  0
 37 39  1  0  0  0
 37 47  1  0  0  0
 37 66  1  0  0  0
 37109  1  0  0  0
 38 43  2  0  0  0
 38 46  1  0  0  0
 38 47  1  0  0  0
 39 64  1  0  0  0
 39 67  2  0  0  0
 40 52  1  0  0  0
 40 53  2  0  0  0
 40 58  1  0  0  0
 41110  1  0  0  0
 41111  1  0  0  0
 41112  1  0  0  0
 41 48  1  0  0  0
 42 43  1  0  0  0
 42 66  1  0  0  0
 42113  1  0  0  0
 42114  1  0  0  0
 43 44  1  0  0  0
 44115  1  0  0  0
 45 46  2  0  0  0
 45116  1  0  0  0
 46117  1  0  0  0
 47118  1  0  0  0
 47119  1  0  0  0
 48 56  1  0  0  0
 48 65  1  0  0  0
 48120  1  0  0  0
 49 50  1  0  0  0
 49 53  1  0  0  0
 49 64  1  0  0  0
 49121  1  0  0  0
 50 51  1  0  0  0
 50122  1  0  0  0
 50123  1  0  0  0
 51 52  1  0  0  0
 51124  1  0  0  0
 51125  1  0  0  0
 52126  1  0  0  0
 52127  1  0  0  0
 53 54  1  0  0  0
 54 55  2  0  0  0
 54128  1  0  0  0
 55 57  1  0  0  0
 55129  1  0  0  0
 56 69  2  0  0  0
 57 58  2  0  0  0
 57130  1  0  0  0
 58131  1  0  0  0
 59 60  1  0  0  0
 59 61  1  0  0  0
 59 62  1  0  0  0
 60132  1  0  0  0
 60133  1  0  0  0
 60134  1  0  0  0
 61135  1  0  0  0
 61136  1  0  0  0
 61137  1  0  0  0
 62138  1  0  0  0
 62139  1  0  0  0
 62140  1  0  0  0
 63 65  1  0  0  0
 63141  1  0  0  0
 63142  1  0  0  0
 63143  1  0  0  0
 64144  1  0  0  0
 65145  1  0  0  0
 68 81  1  0  0  0
 71 74  2  0  0  0
 71 75  1  0  0  0
 71146  1  0  0  0
 72 74  1  0  0  0
 72 76  2  0  0  0
 72147  1  0  0  0
 73 75  2  0  0  0
 73 76  1  0  0  0
 73148  1  0  0  0
 74 78  1  0  0  0
 75 83  1  0  0  0
 76 84  1  0  0  0
 77 81  1  0  0  0
 77 82  1  0  0  0
 77 86  2  0  0  0
 78 82  1  0  0  0
 78 85  2  0  0  0
 79 80  1  0  0  0
 79 81  1  0  0  0
 79149  1  0  0  0
 79150  1  0  0  0
 80 82  1  0  0  0
 80151  1  0  0  0
 80152  1  0  0  0
 81153  1  0  0  0
 83154  1  0  0  0
 83155  1  0  0  0
 84156  1  0  0  0
 85157  1  0  0  0
 85158  1  0  0  0
M  CHG  1  85   1
M  ISO  4   1 100  68 101  81 101  84 100
M  END
> <chiral flag>
0

> <version>
0

> <s_m_source_file>
/data/baiqing/PycharmProjects/Reinvent-master-3.2/result/LINK_invent/BTK/process_docking_weight1_custom_product_contain_oxygen_bond_distance_aromatic_linkinvent_7_9_3/rearranged_h_0153.sdf

> <i_m_source_file_index>
62

> <r_mmod_Potential_Energy-OPLS-2005>
23.014612197876

> <r_mmod_Stretch_Energy-OPLS-2005>
148.328063964844

> <r_mmod_Bend_Energy-OPLS-2005>
224.569122314453

> <r_mmod_Torsional_Energy-OPLS-2005>
241.334136962891

> <r_mmod_Improper_Torsional_Energy-OPLS-2005>
9.90060329437256

> <r_mmod_Van_der_Waal_Energy-OPLS-2005>
143.272567749023

> <r_mmod_Electrostatic_Energy-OPLS-2005>
-408.697845458984

> <r_mmod_Solvation_Energy-OPLS-2005>
-434.822601318359

> <b_mmod_Minimization_Converged-OPLS-2005>
0

> <r_mmod_RMS_Derivative-OPLS-2005>
1.26335680484772

$$$$
62
                    3D
 Structure written by MMmdl.
147155  0  0  1  0            999 V2000
  -30.6365  -14.7596   20.4598 C   0  0  0  0  0  0
  -30.4238  -12.4702   19.4661 C   0  0  0  0  0  0
  -29.5030  -12.5016   18.2290 C   0  0  0  0  0  0
  -28.0316  -12.3238   18.6492 C   0  0  0  0  0  0
  -27.6342  -13.2363   19.8406 C   0  0  2  0  0  0
  -28.6824  -13.2037   20.9726 C   0  0  0  0  0  0
  -25.2483  -13.8206   20.5708 C   0  0  0  0  0  0
  -24.1787  -13.0441   20.9225 C   0  0  0  0  0  0
  -24.6388  -11.6922   20.8760 C   0  0  0  0  0  0
  -23.9071  -10.4294   21.0413 C   0  0  0  0  0  0
  -24.3623   -9.4206   21.9186 C   0  0  0  0  0  0
  -23.6296   -8.2242   22.0754 C   0  0  0  0  0  0
  -22.4277   -8.0282   21.3545 C   0  0  0  0  0  0
  -21.9914   -9.0257   20.4647 C   0  0  0  0  0  0
  -22.7245  -10.2135   20.3059 C   0  0  0  0  0  0
  -21.6854   -6.0737   22.5279 C   0  0  0  0  0  0
  -21.4015   -6.5640   23.8212 C   0  0  0  0  0  0
  -21.3659   -5.6793   24.9175 C   0  0  0  0  0  0
  -21.6044   -4.3055   24.7225 C   0  0  0  0  0  0
  -21.8819   -3.8147   23.4346 C   0  0  0  0  0  0
  -21.9193   -4.6964   22.3402 C   0  0  0  0  0  0
  -22.7807  -13.5218   21.1879 C   0  0  0  0  0  0
  -22.1662   -4.2150   21.0980 F   0  0  0  0  0  0
  -21.5628   -3.4539   25.7737 F   0  0  0  0  0  0
  -29.9736  -13.5535   20.3715 N   0  0  0  0  0  0
  -26.2905  -12.9421   20.3263 N   0  0  0  0  0  0
  -25.9317  -11.6560   20.5753 N   0  0  0  0  0  0
  -22.0455  -12.8206   22.0434 N   0  0  0  0  0  0
  -25.4149  -15.1934   20.4124 N   0  0  0  0  0  0
  -31.8459  -14.7724   20.2120 O   0  0  0  0  0  0
  -21.6641   -6.8879   21.4240 O   0  0  0  0  0  0
  -22.3491  -14.5521   20.6721 O   0  0  0  0  0  0
  -24.6314  -31.8542   23.1966 C   0  0  0  0  0  0
  -25.9136  -32.4749   23.8319 C   0  0  1  0  0  0
  -27.2196  -27.2593   20.1405 C   0  0  0  0  0  0
  -25.5927  -33.8550   24.2244 N   0  0  0  0  0  0
  -23.4290  -30.4748   21.5401 C   0  0  2  0  0  0
  -24.8771  -28.9145   20.1157 C   0  0  0  0  0  0
  -22.7504  -29.4596   22.4913 C   0  0  0  0  0  0
  -18.0293  -28.1388   22.8485 C   0  0  0  0  0  0
  -24.1490  -36.7283   23.2642 C   0  0  0  0  0  0
  -25.9740  -30.7676   21.3751 C   0  0  0  0  0  0
  -26.0489  -29.3875   20.7217 C   0  0  0  0  0  0
  -27.2276  -28.5739   20.7174 C   0  0  0  0  0  0
  -26.0276  -26.8460   19.5142 C   0  0  0  0  0  0
  -24.8709  -27.6518   19.5003 C   0  0  0  0  0  0
  -23.6485  -29.8035   20.1584 C   0  0  0  0  0  0
  -25.4118  -36.3066   24.0325 C   0  0  1  0  0  0
  -20.5896  -28.3699   23.1270 C   0  0  2  0  0  0
  -20.6778  -26.9415   22.5410 C   0  0  0  0  0  0
  -19.5754  -26.6383   21.5213 C   0  0  0  0  0  0
  -18.1935  -26.7929   22.1626 C   0  0  0  0  0  0
  -19.1546  -28.8861   23.2871 C   0  0  0  0  0  0
  -18.9466  -30.1462   23.8889 C   0  0  0  0  0  0
  -17.6464  -30.6588   24.0563 C   0  0  0  0  0  0
  -25.9056  -34.9436   23.5090 C   0  0  0  0  0  0
  -16.5356  -29.9084   23.6332 C   0  0  0  0  0  0
  -16.7279  -28.6503   23.0352 C   0  0  0  0  0  0
  -26.4501  -31.6579   25.0714 C   0  0  0  0  0  0
  -25.3721  -31.3734   26.1434 C   0  0  0  0  0  0
  -27.0351  -30.2996   24.6206 C   0  0  0  0  0  0
  -27.6050  -32.4326   25.7490 C   0  0  0  0  0  0
  -27.5576  -37.1801   24.8469 C   0  0  0  0  0  0
  -21.4211  -29.3042   22.3656 N   0  0  0  0  0  0
  -26.4294  -37.3764   23.9402 N   0  0  0  0  0  0
  -24.6973  -31.0505   22.0940 N   0  0  0  0  0  0
  -23.4201  -28.8142   23.3020 O   0  0  0  0  0  0
  -28.3087  -26.3633   20.1348 O   0  0  0  0  0  0
  -26.5632  -34.8914   22.4661 O   0  0  0  0  0  0
  -23.5463  -32.1360   23.7263 O   0  0  0  0  0  0
  -28.6158  -18.9421   19.5908 C   0  0  0  0  0  0
  -28.2925  -20.3669   19.5753 C   0  0  0  0  0  0
  -29.5785  -18.5494   20.5002 C   0  0  0  0  0  0
  -28.9730  -21.1654   20.4797 C   0  0  0  0  0  0
  -30.3840  -17.2392   20.7600 C   0  0  0  0  0  0
  -28.4193  -23.6541   20.0876 C   0  0  0  0  0  0
  -28.1616  -25.0485   20.8528 C   0  0  0  0  0  0
  -28.8540  -22.5354   20.7911 N   0  0  0  0  0  0
  -29.9038  -15.9455   20.5658 N   0  0  0  0  0  0
  -31.5307  -17.4140   21.1867 O   0  0  0  0  0  0
  -28.2062  -23.5964   18.8732 O   0  0  0  0  0  0
  -30.0671  -20.0487   21.3559 S   0  0  0  0  0  0
  -31.4641  -12.5849   19.1572 H   0  0  0  0  0  0
  -30.3671  -11.5031   19.9684 H   0  0  0  0  0  0
  -29.7881  -11.7193   17.5241 H   0  0  0  0  0  0
  -29.6242  -13.4492   17.7015 H   0  0  0  0  0  0
  -27.8959  -11.2776   18.9257 H   0  0  0  0  0  0
  -27.3710  -12.5011   17.7996 H   0  0  0  0  0  0
  -27.6172  -14.2509   19.4426 H   0  0  0  0  0  0
  -28.7273  -12.2180   21.4382 H   0  0  0  0  0  0
  -28.4187  -13.9085   21.7630 H   0  0  0  0  0  0
  -25.2767   -9.5683   22.4763 H   0  0  0  0  0  0
  -24.0007   -7.4632   22.7472 H   0  0  0  0  0  0
  -21.0846   -8.8777   19.8952 H   0  0  0  0  0  0
  -22.3702  -10.9677   19.6171 H   0  0  0  0  0  0
  -21.2008   -7.6148   23.9716 H   0  0  0  0  0  0
  -21.1482   -6.0523   25.9078 H   0  0  0  0  0  0
  -22.0598   -2.7609   23.2846 H   0  0  0  0  0  0
  -22.4081  -11.9874   22.4826 H   0  0  0  0  0  0
  -21.1070  -13.1223   22.2639 H   0  0  0  0  0  0
  -24.6435  -15.8424   20.5246 H   0  0  0  0  0  0
  -26.2537  -15.6362   20.0622 H   0  0  0  0  0  0
  -26.7203  -32.5401   23.1061 H   0  0  0  0  0  0
  -25.0062  -33.9682   25.0382 H   0  0  0  0  0  0
  -22.7257  -31.2967   21.3910 H   0  0  0  0  0  0
  -23.3746  -35.9622   23.3315 H   0  0  0  0  0  0
  -24.3574  -36.8896   22.2054 H   0  0  0  0  0  0
  -23.7255  -37.6491   23.6662 H   0  0  0  0  0  0
  -26.1105  -31.5263   20.6033 H   0  0  0  0  0  0
  -26.8518  -30.8197   22.0076 H   0  0  0  0  0  0
  -28.1297  -28.9341   21.1916 H   0  0  0  0  0  0
  -25.9877  -25.8738   19.0427 H   0  0  0  0  0  0
  -23.9737  -27.2838   19.0220 H   0  0  0  0  0  0
  -23.7753  -30.5768   19.3999 H   0  0  0  0  0  0
  -22.7668  -29.2366   19.8540 H   0  0  0  0  0  0
  -25.1304  -36.1912   25.0819 H   0  0  0  0  0  0
  -20.9989  -28.3278   24.1390 H   0  0  0  0  0  0
  -20.5675  -26.2309   23.3614 H   0  0  0  0  0  0
  -21.6646  -26.7435   22.1205 H   0  0  0  0  0  0
  -19.6913  -25.6293   21.1246 H   0  0  0  0  0  0
  -19.6691  -27.3190   20.6740 H   0  0  0  0  0  0
  -17.4203  -26.6675   21.4030 H   0  0  0  0  0  0
  -18.0337  -26.0073   22.9024 H   0  0  0  0  0  0
  -19.7941  -30.7282   24.2253 H   0  0  0  0  0  0
  -17.5017  -31.6267   24.5165 H   0  0  0  0  0  0
  -15.5355  -30.2982   23.7660 H   0  0  0  0  0  0
  -15.8680  -28.0820   22.7068 H   0  0  0  0  0  0
  -24.5899  -30.7080   25.7763 H   0  0  0  0  0  0
  -24.8909  -32.2904   26.4844 H   0  0  0  0  0  0
  -25.8035  -30.8923   27.0221 H   0  0  0  0  0  0
  -26.2938  -29.6738   24.1223 H   0  0  0  0  0  0
  -27.4022  -29.7267   25.4732 H   0  0  0  0  0  0
  -27.8818  -30.4267   23.9456 H   0  0  0  0  0  0
  -27.2652  -33.3628   26.2056 H   0  0  0  0  0  0
  -28.3867  -32.6884   25.0325 H   0  0  0  0  0  0
  -28.0711  -31.8461   26.5418 H   0  0  0  0  0  0
  -28.2610  -38.0082   24.7487 H   0  0  0  0  0  0
  -28.1055  -36.2610   24.6334 H   0  0  0  0  0  0
  -27.2288  -37.1498   25.8872 H   0  0  0  0  0  0
  -20.9400  -29.8759   21.6853 H   0  0  0  0  0  0
  -26.0173  -38.2842   24.1385 H   0  0  0  0  0  0
  -28.1463  -18.2612   18.8952 H   0  0  0  0  0  0
  -27.5475  -20.7500   18.8916 H   0  0  0  0  0  0
  -28.8473  -25.0826   21.6996 H   0  0  0  0  0  0
  -27.1666  -24.9863   21.2957 H   0  0  0  0  0  0
  -29.1282  -22.7607   21.7387 H   0  0  0  0  0  0
  -28.9084  -15.8645   20.4546 H   0  0  0  0  0  0
  1 25  1  0  0  0
  1 30  2  0  0  0
  1 79  1  0  0  0
  2  3  1  0  0  0
  2 25  1  0  0  0
  2 83  1  0  0  0
  2 84  1  0  0  0
  3  4  1  0  0  0
  3 85  1  0  0  0
  3 86  1  0  0  0
  4  5  1  0  0  0
  4 87  1  0  0  0
  4 88  1  0  0  0
  5  6  1  0  0  0
  5 26  1  0  0  0
  5 89  1  0  0  0
  6 25  1  0  0  0
  6 90  1  0  0  0
  6 91  1  0  0  0
  7  8  2  0  0  0
  7 26  1  0  0  0
  7 29  1  0  0  0
  8  9  1  0  0  0
  8 22  1  0  0  0
  9 10  1  0  0  0
  9 27  2  0  0  0
 10 11  2  0  0  0
 10 15  1  0  0  0
 11 12  1  0  0  0
 11 92  1  0  0  0
 12 13  2  0  0  0
 12 93  1  0  0  0
 13 14  1  0  0  0
 13 31  1  0  0  0
 14 15  2  0  0  0
 14 94  1  0  0  0
 15 95  1  0  0  0
 16 17  2  0  0  0
 16 21  1  0  0  0
 16 31  1  0  0  0
 17 18  1  0  0  0
 17 96  1  0  0  0
 18 19  2  0  0  0
 18 97  1  0  0  0
 19 20  1  0  0  0
 19 24  1  0  0  0
 20 21  2  0  0  0
 20 98  1  0  0  0
 21 23  1  0  0  0
 22 28  1  0  0  0
 22 32  2  0  0  0
 26 27  1  0  0  0
 28 99  1  0  0  0
 28100  1  0  0  0
 29101  1  0  0  0
 29102  1  0  0  0
 33 34  1  0  0  0
 33 66  1  0  0  0
 33 70  2  0  0  0
 34 36  1  0  0  0
 34 59  1  0  0  0
 34103  1  0  0  0
 35 44  2  0  0  0
 35 45  1  0  0  0
 35 68  1  0  0  0
 36 56  1  0  0  0
 36104  1  0  0  0
 37 39  1  0  0  0
 37 47  1  0  0  0
 37 66  1  0  0  0
 37105  1  0  0  0
 38 43  2  0  0  0
 38 46  1  0  0  0
 38 47  1  0  0  0
 39 64  1  0  0  0
 39 67  2  0  0  0
 40 52  1  0  0  0
 40 53  2  0  0  0
 40 58  1  0  0  0
 41106  1  0  0  0
 41107  1  0  0  0
 41108  1  0  0  0
 41 48  1  0  0  0
 42 43  1  0  0  0
 42 66  1  0  0  0
 42109  1  0  0  0
 42110  1  0  0  0
 43 44  1  0  0  0
 44111  1  0  0  0
 45 46  2  0  0  0
 45112  1  0  0  0
 46113  1  0  0  0
 47114  1  0  0  0
 47115  1  0  0  0
 48 56  1  0  0  0
 48 65  1  0  0  0
 48116  1  0  0  0
 49 50  1  0  0  0
 49 53  1  0  0  0
 49 64  1  0  0  0
 49117  1  0  0  0
 50 51  1  0  0  0
 50118  1  0  0  0
 50119  1  0  0  0
 51 52  1  0  0  0
 51120  1  0  0  0
 51121  1  0  0  0
 52122  1  0  0  0
 52123  1  0  0  0
 53 54  1  0  0  0
 54 55  2  0  0  0
 54124  1  0  0  0
 55 57  1  0  0  0
 55125  1  0  0  0
 56 69  2  0  0  0
 57 58  2  0  0  0
 57126  1  0  0  0
 58127  1  0  0  0
 59 60  1  0  0  0
 59 61  1  0  0  0
 59 62  1  0  0  0
 60128  1  0  0  0
 60129  1  0  0  0
 60130  1  0  0  0
 61131  1  0  0  0
 61132  1  0  0  0
 61133  1  0  0  0
 62134  1  0  0  0
 62135  1  0  0  0
 62136  1  0  0  0
 63 65  1  0  0  0
 63137  1  0  0  0
 63138  1  0  0  0
 63139  1  0  0  0
 64140  1  0  0  0
 65141  1  0  0  0
 68 77  1  0  0  0
 71 72  1  0  0  0
 71 73  2  0  0  0
 71142  1  0  0  0
 72 74  2  0  0  0
 72143  1  0  0  0
 73 75  1  0  0  0
 73 82  1  0  0  0
 74 78  1  0  0  0
 74 82  1  0  0  0
 75 79  1  0  0  0
 75 80  2  0  0  0
 76 77  1  0  0  0
 76 78  1  0  0  0
 76 81  2  0  0  0
 77144  1  0  0  0
 77145  1  0  0  0
 78146  1  0  0  0
 79147  1  0  0  0
M  ISO  4   1 100  68 101  77 101  79 100
M  END
> <chiral flag>
0

> <version>
0

> <s_m_source_file>
/data/baiqing/PycharmProjects/Reinvent-master-3.2/result/LINK_invent/BTK/process_docking_weight1_custom_product_contain_oxygen_bond_distance_aromatic_linkinvent_7_9_3/rearranged_h_0153.sdf

> <i_m_source_file_index>
63

> <r_mmod_Potential_Energy-OPLS-2005>
67.5037994384766

> <r_mmod_Stretch_Energy-OPLS-2005>
115.041465759277

> <r_mmod_Bend_Energy-OPLS-2005>
175.462036132812

> <r_mmod_Torsional_Energy-OPLS-2005>
262.523010253906

> <r_mmod_Improper_Torsional_Energy-OPLS-2005>
6.57648086547852

> <r_mmod_Van_der_Waal_Energy-OPLS-2005>
118.589317321777

> <r_mmod_Electrostatic_Energy-OPLS-2005>
-443.388214111328

> <r_mmod_Solvation_Energy-OPLS-2005>
-258.416625976562

> <b_mmod_Minimization_Converged-OPLS-2005>
0

> <r_mmod_RMS_Derivative-OPLS-2005>
0.214822053909302

$$$$
63
                    3D
 Structure written by MMmdl.
157166  0  0  1  0            999 V2000
  -30.6714  -14.6306   20.4635 C   0  0  0  0  0  0
  -30.4272  -12.3779   19.4777 C   0  0  0  0  0  0
  -29.5182  -12.4897   18.2355 C   0  0  0  0  0  0
  -28.0366  -12.3466   18.6336 C   0  0  0  0  0  0
  -27.6512  -13.2305   19.8520 C   0  0  2  0  0  0
  -28.6909  -13.1298   20.9916 C   0  0  0  0  0  0
  -25.2546  -13.8200   20.5631 C   0  0  0  0  0  0
  -24.1831  -13.0454   20.9170 C   0  0  0  0  0  0
  -24.6421  -11.6932   20.8724 C   0  0  0  0  0  0
  -23.9091  -10.4305   21.0395 C   0  0  0  0  0  0
  -24.3642   -9.4223   21.9182 C   0  0  0  0  0  0
  -23.6313   -8.2253   22.0763 C   0  0  0  0  0  0
  -22.4296   -8.0286   21.3546 C   0  0  0  0  0  0
  -21.9932   -9.0260   20.4644 C   0  0  0  0  0  0
  -22.7264  -10.2140   20.3044 C   0  0  0  0  0  0
  -21.6855   -6.0742   22.5276 C   0  0  0  0  0  0
  -21.4008   -6.5640   23.8210 C   0  0  0  0  0  0
  -21.3660   -5.6796   24.9176 C   0  0  0  0  0  0
  -21.6049   -4.3060   24.7226 C   0  0  0  0  0  0
  -21.8815   -3.8140   23.4348 C   0  0  0  0  0  0
  -21.9189   -4.6963   22.3403 C   0  0  0  0  0  0
  -22.7846  -13.5239   21.1823 C   0  0  0  0  0  0
  -22.1654   -4.2143   21.0983 F   0  0  0  0  0  0
  -21.5646   -3.4546   25.7738 F   0  0  0  0  0  0
  -30.0098  -13.4322   20.4252 N   0  0  0  0  0  0
  -26.2985  -12.9409   20.3236 N   0  0  0  0  0  0
  -25.9345  -11.6557   20.5715 N   0  0  0  0  0  0
  -22.0465  -12.8258   22.0381 N   0  0  0  0  0  0
  -25.4255  -15.1921   20.4030 N   0  0  0  0  0  0
  -31.8681  -14.6939   20.1708 O   0  0  0  0  0  0
  -21.6643   -6.8891   21.4243 O   0  0  0  0  0  0
  -22.3527  -14.5537   20.6654 O   0  0  0  0  0  0
  -24.6254  -31.8619   23.2060 C   0  0  0  0  0  0
  -25.9111  -32.4793   23.8363 C   0  0  1  0  0  0
  -27.2017  -27.3120   20.1114 C   0  0  0  0  0  0
  -25.5934  -33.8594   24.2282 N   0  0  0  0  0  0
  -23.4163  -30.4900   21.5506 C   0  0  2  0  0  0
  -24.8584  -28.9511   20.1093 C   0  0  0  0  0  0
  -22.7467  -29.4639   22.4958 C   0  0  0  0  0  0
  -18.0283  -28.1379   22.8488 C   0  0  0  0  0  0
  -24.1490  -36.7292   23.2629 C   0  0  0  0  0  0
  -25.9607  -30.7878   21.3797 C   0  0  0  0  0  0
  -26.0308  -29.4172   20.7188 C   0  0  0  0  0  0
  -27.2076  -28.6082   20.7148 C   0  0  0  0  0  0
  -26.0144  -26.9185   19.4510 C   0  0  0  0  0  0
  -24.8531  -27.7076   19.4655 C   0  0  0  0  0  0
  -23.6282  -29.8328   20.1630 C   0  0  0  0  0  0
  -25.4115  -36.3083   24.0322 C   0  0  1  0  0  0
  -20.5883  -28.3668   23.1292 C   0  0  2  0  0  0
  -20.6772  -26.9399   22.5399 C   0  0  0  0  0  0
  -19.5745  -26.6383   21.5202 C   0  0  0  0  0  0
  -18.1927  -26.7928   22.1620 C   0  0  0  0  0  0
  -19.1536  -28.8843   23.2889 C   0  0  0  0  0  0
  -18.9457  -30.1448   23.8899 C   0  0  0  0  0  0
  -17.6455  -30.6586   24.0558 C   0  0  0  0  0  0
  -25.9063  -34.9458   23.5099 C   0  0  0  0  0  0
  -16.5345  -29.9080   23.6331 C   0  0  0  0  0  0
  -16.7268  -28.6498   23.0350 C   0  0  0  0  0  0
  -26.4476  -31.6607   25.0737 C   0  0  0  0  0  0
  -25.3697  -31.3754   26.1455 C   0  0  0  0  0  0
  -27.0308  -30.3029   24.6192 C   0  0  0  0  0  0
  -27.6040  -32.4328   25.7510 C   0  0  0  0  0  0
  -27.5585  -37.1786   24.8451 C   0  0  0  0  0  0
  -21.4180  -29.3032   22.3697 N   0  0  0  0  0  0
  -26.4281  -37.3786   23.9420 N   0  0  0  0  0  0
  -24.6867  -31.0623   22.1020 N   0  0  0  0  0  0
  -23.4209  -28.8150   23.3001 O   0  0  0  0  0  0
  -28.2875  -26.4233   20.1606 O   0  0  0  0  0  0
  -26.5621  -34.8917   22.4660 O   0  0  0  0  0  0
  -23.5419  -32.1417   23.7390 O   0  0  0  0  0  0
  -30.8107  -17.9769   17.6687 C   0  0  0  0  0  0
  -30.3277  -19.2376   18.0417 C   0  0  0  0  0  0
  -30.6998  -16.8901   18.5388 C   0  0  0  0  0  0
  -29.6112  -18.3328   20.1854 C   0  0  0  0  0  0
  -29.7350  -19.4783   19.3063 C   0  0  0  0  0  0
  -30.0973  -17.0146   19.8134 C   0  0  0  0  0  0
  -28.6208  -22.5551   21.2424 C   0  0  0  0  0  0
  -30.0479  -22.1073   18.9186 C   0  0  0  0  0  0
  -29.1760  -20.9472   19.5271 C   0  0  2  0  0  0
  -29.0250  -23.8373   20.4382 C   0  0  2  0  0  0
  -27.9479  -25.0125   20.4951 C   0  0  0  0  0  0
  -28.7614  -21.3083   20.8955 N   0  0  0  0  0  0
  -29.9359  -15.7861   20.6041 N   0  0  0  0  0  0
  -29.3689  -23.4303   19.0471 N   0  3  0  0  0  0
  -31.4751  -12.4680   19.1870 H   0  0  0  0  0  0
  -30.3328  -11.3946   19.9420 H   0  0  0  0  0  0
  -29.7888  -11.7248   17.5066 H   0  0  0  0  0  0
  -29.6778  -13.4494   17.7410 H   0  0  0  0  0  0
  -27.8642  -11.2965   18.8715 H   0  0  0  0  0  0
  -27.3951  -12.5727   17.7805 H   0  0  0  0  0  0
  -27.6588  -14.2607   19.4945 H   0  0  0  0  0  0
  -28.6883  -12.1295   21.4257 H   0  0  0  0  0  0
  -28.4486  -13.8184   21.8028 H   0  0  0  0  0  0
  -25.2784   -9.5700   22.4771 H   0  0  0  0  0  0
  -24.0011   -7.4644   22.7494 H   0  0  0  0  0  0
  -21.0859   -8.8778   19.8958 H   0  0  0  0  0  0
  -22.3719  -10.9677   19.6147 H   0  0  0  0  0  0
  -21.1987   -7.6141   23.9714 H   0  0  0  0  0  0
  -21.1494   -6.0526   25.9086 H   0  0  0  0  0  0
  -22.0592   -2.7602   23.2843 H   0  0  0  0  0  0
  -22.4064  -11.9960   22.4856 H   0  0  0  0  0  0
  -21.1056  -13.1277   22.2482 H   0  0  0  0  0  0
  -24.6638  -15.8528   20.5130 H   0  0  0  0  0  0
  -26.2793  -15.6229   20.0700 H   0  0  0  0  0  0
  -26.7172  -32.5445   23.1101 H   0  0  0  0  0  0
  -25.0070  -33.9750   25.0412 H   0  0  0  0  0  0
  -22.7085  -31.3105   21.4148 H   0  0  0  0  0  0
  -23.3771  -35.9605   23.3253 H   0  0  0  0  0  0
  -24.3588  -36.8953   22.2053 H   0  0  0  0  0  0
  -23.7216  -37.6469   23.6677 H   0  0  0  0  0  0
  -26.0930  -31.5515   20.6113 H   0  0  0  0  0  0
  -26.8417  -30.8335   22.0088 H   0  0  0  0  0  0
  -28.1029  -28.9554   21.2106 H   0  0  0  0  0  0
  -25.9463  -25.9912   18.9031 H   0  0  0  0  0  0
  -23.9593  -27.3529   18.9697 H   0  0  0  0  0  0
  -23.7461  -30.6126   19.4098 H   0  0  0  0  0  0
  -22.7456  -29.2657   19.8614 H   0  0  0  0  0  0
  -25.1294  -36.1921   25.0812 H   0  0  0  0  0  0
  -20.9976  -28.3217   24.1412 H   0  0  0  0  0  0
  -20.5669  -26.2268   23.3583 H   0  0  0  0  0  0
  -21.6637  -26.7434   22.1183 H   0  0  0  0  0  0
  -19.6897  -25.6297   21.1220 H   0  0  0  0  0  0
  -19.6690  -27.3195   20.6736 H   0  0  0  0  0  0
  -17.4196  -26.6674   21.4020 H   0  0  0  0  0  0
  -18.0330  -26.0068   22.9015 H   0  0  0  0  0  0
  -19.7932  -30.7265   24.2262 H   0  0  0  0  0  0
  -17.5011  -31.6272   24.5149 H   0  0  0  0  0  0
  -15.5344  -30.2978   23.7671 H   0  0  0  0  0  0
  -15.8665  -28.0825   22.7057 H   0  0  0  0  0  0
  -24.5859  -30.7126   25.7762 H   0  0  0  0  0  0
  -24.8904  -32.2935   26.4875 H   0  0  0  0  0  0
  -25.8000  -30.8914   27.0234 H   0  0  0  0  0  0
  -26.2883  -29.6798   24.1197 H   0  0  0  0  0  0
  -27.3971  -29.7268   25.4698 H   0  0  0  0  0  0
  -27.8769  -30.4306   23.9437 H   0  0  0  0  0  0
  -27.2650  -33.3605   26.2131 H   0  0  0  0  0  0
  -28.3838  -32.6933   25.0341 H   0  0  0  0  0  0
  -28.0728  -31.8430   26.5395 H   0  0  0  0  0  0
  -28.2557  -38.0126   24.7573 H   0  0  0  0  0  0
  -28.1126  -36.2666   24.6189 H   0  0  0  0  0  0
  -27.2312  -37.1317   25.8849 H   0  0  0  0  0  0
  -20.9335  -29.8796   21.6962 H   0  0  0  0  0  0
  -26.0160  -38.2845   24.1473 H   0  0  0  0  0  0
  -31.2465  -17.8324   16.6894 H   0  0  0  0  0  0
  -30.4006  -20.0090   17.2925 H   0  0  0  0  0  0
  -31.0630  -15.9409   18.1724 H   0  0  0  0  0  0
  -29.1214  -18.4671   21.1408 H   0  0  0  0  0  0
  -28.2237  -22.7906   22.2334 H   0  0  0  0  0  0
  -30.2326  -21.9729   17.8554 H   0  0  0  0  0  0
  -31.0269  -22.1422   19.3996 H   0  0  0  0  0  0
  -28.2632  -20.9293   18.9282 H   0  0  0  0  0  0
  -29.9348  -24.2090   20.9094 H   0  0  0  0  0  0
  -27.5647  -25.0592   21.5159 H   0  0  0  0  0  0
  -27.1105  -24.6492   19.9064 H   0  0  0  0  0  0
  -29.0629  -15.6915   21.1011 H   0  0  0  0  0  0
  -28.5205  -23.3824   18.5051 H   0  0  0  0  0  0
  -29.9500  -24.1388   18.6299 H   0  0  0  0  0  0
  1 25  1  0  0  0
  1 30  2  0  0  0
  1 83  1  0  0  0
  2  3  1  0  0  0
  2 25  1  0  0  0
  2 85  1  0  0  0
  2 86  1  0  0  0
  3  4  1  0  0  0
  3 87  1  0  0  0
  3 88  1  0  0  0
  4  5  1  0  0  0
  4 89  1  0  0  0
  4 90  1  0  0  0
  5  6  1  0  0  0
  5 26  1  0  0  0
  5 91  1  0  0  0
  6 25  1  0  0  0
  6 92  1  0  0  0
  6 93  1  0  0  0
  7  8  2  0  0  0
  7 26  1  0  0  0
  7 29  1  0  0  0
  8  9  1  0  0  0
  8 22  1  0  0  0
  9 10  1  0  0  0
  9 27  2  0  0  0
 10 11  2  0  0  0
 10 15  1  0  0  0
 11 12  1  0  0  0
 11 94  1  0  0  0
 12 13  2  0  0  0
 12 95  1  0  0  0
 13 14  1  0  0  0
 13 31  1  0  0  0
 14 15  2  0  0  0
 14 96  1  0  0  0
 15 97  1  0  0  0
 16 17  2  0  0  0
 16 21  1  0  0  0
 16 31  1  0  0  0
 17 18  1  0  0  0
 17 98  1  0  0  0
 18 19  2  0  0  0
 18 99  1  0  0  0
 19 20  1  0  0  0
 19 24  1  0  0  0
 20 21  2  0  0  0
 20100  1  0  0  0
 21 23  1  0  0  0
 22 28  1  0  0  0
 22 32  2  0  0  0
 26 27  1  0  0  0
 28101  1  0  0  0
 28102  1  0  0  0
 29103  1  0  0  0
 29104  1  0  0  0
 33 34  1  0  0  0
 33 66  1  0  0  0
 33 70  2  0  0  0
 34 36  1  0  0  0
 34 59  1  0  0  0
 34105  1  0  0  0
 35 44  2  0  0  0
 35 45  1  0  0  0
 35 68  1  0  0  0
 36 56  1  0  0  0
 36106  1  0  0  0
 37 39  1  0  0  0
 37 47  1  0  0  0
 37 66  1  0  0  0
 37107  1  0  0  0
 38 43  2  0  0  0
 38 46  1  0  0  0
 38 47  1  0  0  0
 39 64  1  0  0  0
 39 67  2  0  0  0
 40 52  1  0  0  0
 40 53  2  0  0  0
 40 58  1  0  0  0
 41108  1  0  0  0
 41109  1  0  0  0
 41110  1  0  0  0
 41 48  1  0  0  0
 42 43  1  0  0  0
 42 66  1  0  0  0
 42111  1  0  0  0
 42112  1  0  0  0
 43 44  1  0  0  0
 44113  1  0  0  0
 45 46  2  0  0  0
 45114  1  0  0  0
 46115  1  0  0  0
 47116  1  0  0  0
 47117  1  0  0  0
 48 56  1  0  0  0
 48 65  1  0  0  0
 48118  1  0  0  0
 49 50  1  0  0  0
 49 53  1  0  0  0
 49 64  1  0  0  0
 49119  1  0  0  0
 50 51  1  0  0  0
 50120  1  0  0  0
 50121  1  0  0  0
 51 52  1  0  0  0
 51122  1  0  0  0
 51123  1  0  0  0
 52124  1  0  0  0
 52125  1  0  0  0
 53 54  1  0  0  0
 54 55  2  0  0  0
 54126  1  0  0  0
 55 57  1  0  0  0
 55127  1  0  0  0
 56 69  2  0  0  0
 57 58  2  0  0  0
 57128  1  0  0  0
 58129  1  0  0  0
 59 60  1  0  0  0
 59 61  1  0  0  0
 59 62  1  0  0  0
 60130  1  0  0  0
 60131  1  0  0  0
 60132  1  0  0  0
 61133  1  0  0  0
 61134  1  0  0  0
 61135  1  0  0  0
 62136  1  0  0  0
 62137  1  0  0  0
 62138  1  0  0  0
 63 65  1  0  0  0
 63139  1  0  0  0
 63140  1  0  0  0
 63141  1  0  0  0
 64142  1  0  0  0
 65143  1  0  0  0
 68 81  1  0  0  0
 71 72  2  0  0  0
 71 73  1  0  0  0
 71144  1  0  0  0
 72 75  1  0  0  0
 72145  1  0  0  0
 73 76  2  0  0  0
 73146  1  0  0  0
 74 75  2  0  0  0
 74 76  1  0  0  0
 74147  1  0  0  0
 75 79  1  0  0  0
 76 83  1  0  0  0
 77 80  1  0  0  0
 77 82  2  0  0  0
 77148  1  0  0  0
 78 79  1  0  0  0
 78 84  1  0  0  0
 78149  1  0  0  0
 78150  1  0  0  0
 79 82  1  0  0  0
 79151  1  0  0  0
 80 81  1  0  0  0
 80 84  1  0  0  0
 80152  1  0  0  0
 81153  1  0  0  0
 81154  1  0  0  0
 83155  1  0  0  0
 84156  1  0  0  0
 84157  1  0  0  0
M  CHG  1  84   1
M  ISO  4   1 100  68 101  81 101  83 100
M  END
> <chiral flag>
0

> <version>
0

> <s_m_source_file>
/data/baiqing/PycharmProjects/Reinvent-master-3.2/result/LINK_invent/BTK/process_docking_weight1_custom_product_contain_oxygen_bond_distance_aromatic_linkinvent_7_9_3/rearranged_h_0153.sdf

> <i_m_source_file_index>
64

> <r_mmod_Potential_Energy-OPLS-2005>
-59.869758605957

> <r_mmod_Stretch_Energy-OPLS-2005>
92.8880386352539

> <r_mmod_Bend_Energy-OPLS-2005>
144.337615966797

> <r_mmod_Torsional_Energy-OPLS-2005>
262.331878662109

> <r_mmod_Improper_Torsional_Energy-OPLS-2005>
6.82540082931519

> <r_mmod_Van_der_Waal_Energy-OPLS-2005>
171.982360839844

> <r_mmod_Electrostatic_Energy-OPLS-2005>
-307.575531005859

> <r_mmod_Solvation_Energy-OPLS-2005>
-486.712615966797

> <b_mmod_Minimization_Converged-OPLS-2005>
0

> <r_mmod_RMS_Derivative-OPLS-2005>
2.22506022453308

$$$$
64
                    3D
 Structure written by MMmdl.
166175  0  0  1  0            999 V2000
  -30.6491  -14.6108   20.4938 C   0  0  0  0  0  0
  -30.4247  -12.3643   19.4576 C   0  0  0  0  0  0
  -29.5064  -12.5157   18.2246 C   0  0  0  0  0  0
  -28.0267  -12.3710   18.6284 C   0  0  0  0  0  0
  -27.6552  -13.2325   19.8671 C   0  0  2  0  0  0
  -28.6971  -13.0800   20.9993 C   0  0  0  0  0  0
  -25.2594  -13.8238   20.5752 C   0  0  0  0  0  0
  -24.1850  -13.0451   20.9158 C   0  0  0  0  0  0
  -24.6443  -11.6935   20.8683 C   0  0  0  0  0  0
  -23.9102  -10.4303   21.0404 C   0  0  0  0  0  0
  -24.3659   -9.4224   21.9194 C   0  0  0  0  0  0
  -23.6324   -8.2263   22.0787 C   0  0  0  0  0  0
  -22.4295   -8.0296   21.3566 C   0  0  0  0  0  0
  -21.9927   -9.0277   20.4678 C   0  0  0  0  0  0
  -22.7264  -10.2158   20.3066 C   0  0  0  0  0  0
  -21.6856   -6.0716   22.5250 C   0  0  0  0  0  0
  -21.3993   -6.5631   23.8187 C   0  0  0  0  0  0
  -21.3683   -5.6783   24.9154 C   0  0  0  0  0  0
  -21.6067   -4.3035   24.7213 C   0  0  0  0  0  0
  -21.8827   -3.8122   23.4317 C   0  0  0  0  0  0
  -21.9195   -4.6935   22.3365 C   0  0  0  0  0  0
  -22.7877  -13.5266   21.1794 C   0  0  0  0  0  0
  -22.1679   -4.2121   21.0949 F   0  0  0  0  0  0
  -21.5645   -3.4526   25.7723 F   0  0  0  0  0  0
  -30.0219  -13.3932   20.4431 N   0  0  0  0  0  0
  -26.3015  -12.9447   20.3337 N   0  0  0  0  0  0
  -25.9382  -11.6572   20.5728 N   0  0  0  0  0  0
  -22.0521  -12.8274   22.0410 N   0  0  0  0  0  0
  -25.4297  -15.2000   20.4419 N   0  0  0  0  0  0
  -31.7943  -14.7599   20.0573 O   0  0  0  0  0  0
  -21.6663   -6.8888   21.4243 O   0  0  0  0  0  0
  -22.3568  -14.5545   20.6621 O   0  0  0  0  0  0
  -24.6295  -31.8604   23.1975 C   0  0  0  0  0  0
  -25.9134  -32.4774   23.8321 C   0  0  1  0  0  0
  -27.2099  -27.2732   20.1350 C   0  0  0  0  0  0
  -25.5936  -33.8574   24.2251 N   0  0  0  0  0  0
  -23.4248  -30.4803   21.5444 C   0  0  2  0  0  0
  -24.8708  -28.9424   20.0960 C   0  0  0  0  0  0
  -22.7534  -29.4585   22.4946 C   0  0  0  0  0  0
  -18.0293  -28.1383   22.8502 C   0  0  0  0  0  0
  -24.1476  -36.7279   23.2641 C   0  0  0  0  0  0
  -25.9706  -30.7755   21.3782 C   0  0  0  0  0  0
  -26.0400  -29.4007   20.7186 C   0  0  0  0  0  0
  -27.2109  -28.5785   20.7281 C   0  0  0  0  0  0
  -26.0247  -26.8920   19.4620 C   0  0  0  0  0  0
  -24.8734  -27.7001   19.4466 C   0  0  0  0  0  0
  -23.6372  -29.8231   20.1555 C   0  0  0  0  0  0
  -25.4110  -36.3086   24.0327 C   0  0  1  0  0  0
  -20.5903  -28.3678   23.1288 C   0  0  2  0  0  0
  -20.6778  -26.9396   22.5420 C   0  0  0  0  0  0
  -19.5738  -26.6369   21.5235 C   0  0  0  0  0  0
  -18.1919  -26.7926   22.1644 C   0  0  0  0  0  0
  -19.1547  -28.8857   23.2882 C   0  0  0  0  0  0
  -18.9461  -30.1454   23.8905 C   0  0  0  0  0  0
  -17.6455  -30.6582   24.0557 C   0  0  0  0  0  0
  -25.9054  -34.9454   23.5088 C   0  0  0  0  0  0
  -16.5352  -29.9079   23.6317 C   0  0  0  0  0  0
  -16.7278  -28.6491   23.0367 C   0  0  0  0  0  0
  -26.4499  -31.6596   25.0709 C   0  0  0  0  0  0
  -25.3686  -31.3779   26.1403 C   0  0  0  0  0  0
  -27.0344  -30.3007   24.6199 C   0  0  0  0  0  0
  -27.6059  -32.4343   25.7480 C   0  0  0  0  0  0
  -27.5582  -37.1792   24.8471 C   0  0  0  0  0  0
  -21.4245  -29.3014   22.3700 N   0  0  0  0  0  0
  -26.4300  -37.3774   23.9401 N   0  0  0  0  0  0
  -24.6932  -31.0573   22.0946 N   0  0  0  0  0  0
  -23.4256  -28.8144   23.3035 O   0  0  0  0  0  0
  -28.2963  -26.3723   20.2302 O   0  0  0  0  0  0
  -26.5653  -34.8941   22.4669 O   0  0  0  0  0  0
  -23.5441  -32.1446   23.7259 O   0  0  0  0  0  0
  -29.5349  -17.2047   19.0799 C   0  0  0  0  0  0
  -29.2916  -18.6160   18.9517 C   0  0  0  0  0  0
  -29.4949  -19.1467   20.2027 C   0  0  0  0  0  0
  -29.8277  -16.9472   20.3949 C   0  0  0  0  0  0
  -28.1222  -22.5593   21.4528 C   0  0  0  0  0  0
  -29.7869  -22.9079   19.6295 C   0  0  0  0  0  0
  -28.0606  -21.1262   20.8125 C   0  0  0  0  0  0
  -30.3887  -21.5111   20.0758 C   0  0  1  0  0  0
  -28.9234  -23.6934   20.6802 C   0  0  1  0  0  0
  -28.8602  -19.3320   17.6959 C   0  0  0  0  0  0
  -31.5253  -21.6642   21.1010 C   0  0  0  0  0  0
  -29.3716  -24.9669   22.6967 C   0  0  0  0  0  0
  -28.0385  -24.9037   20.0401 C   0  0  0  0  0  0
  -29.3849  -20.5368   20.5571 N   0  0  0  0  0  0
  -29.9199  -15.6770   20.9450 N   0  0  0  0  0  0
  -29.7807  -18.1374   21.1189 O   0  0  0  0  0  0
  -29.8824  -24.2385   21.5886 O   0  0  0  0  0  0
  -31.4727  -12.4538   19.1606 H   0  0  0  0  0  0
  -30.3191  -11.3632   19.8822 H   0  0  0  0  0  0
  -29.7571  -11.7686   17.4692 H   0  0  0  0  0  0
  -29.6619  -13.4907   17.7557 H   0  0  0  0  0  0
  -27.8414  -11.3173   18.8386 H   0  0  0  0  0  0
  -27.3839  -12.6321   17.7855 H   0  0  0  0  0  0
  -27.6700  -14.2717   19.5382 H   0  0  0  0  0  0
  -28.6900  -12.0648   21.3962 H   0  0  0  0  0  0
  -28.4460  -13.7320   21.8395 H   0  0  0  0  0  0
  -25.2821   -9.5656   22.4758 H   0  0  0  0  0  0
  -24.0000   -7.4639   22.7511 H   0  0  0  0  0  0
  -21.0851   -8.8838   19.8976 H   0  0  0  0  0  0
  -22.3769  -10.9711   19.6157 H   0  0  0  0  0  0
  -21.1983   -7.6130   23.9688 H   0  0  0  0  0  0
  -21.1515   -6.0505   25.9062 H   0  0  0  0  0  0
  -22.0592   -2.7568   23.2821 H   0  0  0  0  0  0
  -22.4099  -11.9918   22.4745 H   0  0  0  0  0  0
  -21.1132  -13.1287   22.2597 H   0  0  0  0  0  0
  -24.6789  -15.8507   20.6434 H   0  0  0  0  0  0
  -26.2998  -15.6604   20.2004 H   0  0  0  0  0  0
  -26.7225  -32.5436   23.1081 H   0  0  0  0  0  0
  -25.0020  -33.9694   25.0362 H   0  0  0  0  0  0
  -22.7155  -31.2990   21.4071 H   0  0  0  0  0  0
  -23.3742  -35.9611   23.3333 H   0  0  0  0  0  0
  -24.3551  -36.8867   22.2050 H   0  0  0  0  0  0
  -23.7233  -37.6486   23.6647 H   0  0  0  0  0  0
  -26.1139  -31.5362   20.6092 H   0  0  0  0  0  0
  -26.8481  -30.8185   22.0119 H   0  0  0  0  0  0
  -28.1020  -28.9177   21.2389 H   0  0  0  0  0  0
  -25.9557  -25.9452   18.9470 H   0  0  0  0  0  0
  -23.9892  -27.3553   18.9259 H   0  0  0  0  0  0
  -23.7441  -30.6042   19.4011 H   0  0  0  0  0  0
  -22.7547  -29.2522   19.8580 H   0  0  0  0  0  0
  -25.1282  -36.1944   25.0823 H   0  0  0  0  0  0
  -20.9978  -28.3242   24.1409 H   0  0  0  0  0  0
  -20.5670  -26.2289   23.3623 H   0  0  0  0  0  0
  -21.6643  -26.7409   22.1213 H   0  0  0  0  0  0
  -19.6875  -25.6286   21.1232 H   0  0  0  0  0  0
  -19.6642  -27.3207   20.6790 H   0  0  0  0  0  0
  -17.4183  -26.6706   21.4045 H   0  0  0  0  0  0
  -18.0273  -26.0077   22.9039 H   0  0  0  0  0  0
  -19.7924  -30.7278   24.2290 H   0  0  0  0  0  0
  -17.4987  -31.6256   24.5168 H   0  0  0  0  0  0
  -15.5345  -30.2972   23.7608 H   0  0  0  0  0  0
  -15.8690  -28.0782   22.7097 H   0  0  0  0  0  0
  -24.5825  -30.7191   25.7690 H   0  0  0  0  0  0
  -24.8925  -32.2973   26.4822 H   0  0  0  0  0  0
  -25.7928  -30.8913   27.0190 H   0  0  0  0  0  0
  -26.2937  -29.6754   24.1195 H   0  0  0  0  0  0
  -27.3999  -29.7268   25.4725 H   0  0  0  0  0  0
  -27.8826  -30.4281   23.9466 H   0  0  0  0  0  0
  -27.2674  -33.3643   26.2067 H   0  0  0  0  0  0
  -28.3855  -32.6912   25.0292 H   0  0  0  0  0  0
  -28.0757  -31.8474   26.5382 H   0  0  0  0  0  0
  -28.2614  -38.0078   24.7503 H   0  0  0  0  0  0
  -28.1061  -36.2601   24.6307 H   0  0  0  0  0  0
  -27.2299  -37.1462   25.8879 H   0  0  0  0  0  0
  -20.9448  -29.8761   21.6922 H   0  0  0  0  0  0
  -26.0179  -38.2852   24.1389 H   0  0  0  0  0  0
  -29.4414  -16.4646   18.2977 H   0  0  0  0  0  0
  -28.5635  -22.4096   22.4410 H   0  0  0  0  0  0
  -27.1041  -22.8870   21.6640 H   0  0  0  0  0  0
  -29.1701  -22.7232   18.7493 H   0  0  0  0  0  0
  -30.5940  -23.5493   19.2751 H   0  0  0  0  0  0
  -27.4862  -21.1636   19.8859 H   0  0  0  0  0  0
  -27.5171  -20.4595   21.4839 H   0  0  0  0  0  0
  -30.8476  -21.0759   19.1842 H   0  0  0  0  0  0
  -28.9814  -18.6801   16.8303 H   0  0  0  0  0  0
  -29.4488  -20.2342   17.5326 H   0  0  0  0  0  0
  -27.8075  -19.6142   17.7666 H   0  0  0  0  0  0
  -31.1675  -22.0625   22.0520 H   0  0  0  0  0  0
  -32.2911  -22.3434   20.7253 H   0  0  0  0  0  0
  -32.0089  -20.7100   21.3098 H   0  0  0  0  0  0
  -30.0574  -24.8534   23.5358 H   0  0  0  0  0  0
  -28.3842  -24.6372   23.0225 H   0  0  0  0  0  0
  -29.3194  -26.0259   22.4541 H   0  0  0  0  0  0
  -27.0186  -24.7014   20.3685 H   0  0  0  0  0  0
  -28.0298  -24.7540   18.9596 H   0  0  0  0  0  0
  -29.1339  -15.4103   21.5151 H   0  0  0  0  0  0
  1 25  1  0  0  0
  1 30  2  0  0  0
  1 85  1  0  0  0
  2  3  1  0  0  0
  2 25  1  0  0  0
  2 88  1  0  0  0
  2 89  1  0  0  0
  3  4  1  0  0  0
  3 90  1  0  0  0
  3 91  1  0  0  0
  4  5  1  0  0  0
  4 92  1  0  0  0
  4 93  1  0  0  0
  5  6  1  0  0  0
  5 26  1  0  0  0
  5 94  1  0  0  0
  6 25  1  0  0  0
  6 95  1  0  0  0
  6 96  1  0  0  0
  7  8  2  0  0  0
  7 26  1  0  0  0
  7 29  1  0  0  0
  8  9  1  0  0  0
  8 22  1  0  0  0
  9 10  1  0  0  0
  9 27  2  0  0  0
 10 11  2  0  0  0
 10 15  1  0  0  0
 11 12  1  0  0  0
 11 97  1  0  0  0
 12 13  2  0  0  0
 12 98  1  0  0  0
 13 14  1  0  0  0
 13 31  1  0  0  0
 14 15  2  0  0  0
 14 99  1  0  0  0
 15100  1  0  0  0
 16 17  2  0  0  0
 16 21  1  0  0  0
 16 31  1  0  0  0
 17 18  1  0  0  0
 17101  1  0  0  0
 18 19  2  0  0  0
 18102  1  0  0  0
 19 20  1  0  0  0
 19 24  1  0  0  0
 20 21  2  0  0  0
 20103  1  0  0  0
 21 23  1  0  0  0
 22 28  1  0  0  0
 22 32  2  0  0  0
 26 27  1  0  0  0
 28104  1  0  0  0
 28105  1  0  0  0
 29106  1  0  0  0
 29107  1  0  0  0
 33 34  1  0  0  0
 33 66  1  0  0  0
 33 70  2  0  0  0
 34 36  1  0  0  0
 34 59  1  0  0  0
 34108  1  0  0  0
 35 44  2  0  0  0
 35 45  1  0  0  0
 35 68  1  0  0  0
 36 56  1  0  0  0
 36109  1  0  0  0
 37 39  1  0  0  0
 37 47  1  0  0  0
 37 66  1  0  0  0
 37110  1  0  0  0
 38 43  2  0  0  0
 38 46  1  0  0  0
 38 47  1  0  0  0
 39 64  1  0  0  0
 39 67  2  0  0  0
 40 52  1  0  0  0
 40 53  2  0  0  0
 40 58  1  0  0  0
 41111  1  0  0  0
 41112  1  0  0  0
 41113  1  0  0  0
 41 48  1  0  0  0
 42 43  1  0  0  0
 42 66  1  0  0  0
 42114  1  0  0  0
 42115  1  0  0  0
 43 44  1  0  0  0
 44116  1  0  0  0
 45 46  2  0  0  0
 45117  1  0  0  0
 46118  1  0  0  0
 47119  1  0  0  0
 47120  1  0  0  0
 48 56  1  0  0  0
 48 65  1  0  0  0
 48121  1  0  0  0
 49 50  1  0  0  0
 49 53  1  0  0  0
 49 64  1  0  0  0
 49122  1  0  0  0
 50 51  1  0  0  0
 50123  1  0  0  0
 50124  1  0  0  0
 51 52  1  0  0  0
 51125  1  0  0  0
 51126  1  0  0  0
 52127  1  0  0  0
 52128  1  0  0  0
 53 54  1  0  0  0
 54 55  2  0  0  0
 54129  1  0  0  0
 55 57  1  0  0  0
 55130  1  0  0  0
 56 69  2  0  0  0
 57 58  2  0  0  0
 57131  1  0  0  0
 58132  1  0  0  0
 59 60  1  0  0  0
 59 61  1  0  0  0
 59 62  1  0  0  0
 60133  1  0  0  0
 60134  1  0  0  0
 60135  1  0  0  0
 61136  1  0  0  0
 61137  1  0  0  0
 61138  1  0  0  0
 62139  1  0  0  0
 62140  1  0  0  0
 62141  1  0  0  0
 63 65  1  0  0  0
 63142  1  0  0  0
 63143  1  0  0  0
 63144  1  0  0  0
 64145  1  0  0  0
 65146  1  0  0  0
 68 83  1  0  0  0
 71 72  1  0  0  0
 71 74  2  0  0  0
 71147  1  0  0  0
 72 73  2  0  0  0
 72 80  1  0  0  0
 73 84  1  0  0  0
 73 86  1  0  0  0
 74 85  1  0  0  0
 74 86  1  0  0  0
 75 77  1  0  0  0
 75 79  1  0  0  0
 75148  1  0  0  0
 75149  1  0  0  0
 76 78  1  0  0  0
 76 79  1  0  0  0
 76150  1  0  0  0
 76151  1  0  0  0
 77 84  1  0  0  0
 77152  1  0  0  0
 77153  1  0  0  0
 78 81  1  0  0  0
 78 84  1  0  0  0
 78154  1  0  0  0
 79 83  1  0  0  0
 79 87  1  0  0  0
 80155  1  0  0  0
 80156  1  0  0  0
 80157  1  0  0  0
 81158  1  0  0  0
 81159  1  0  0  0
 81160  1  0  0  0
 82 87  1  0  0  0
 82161  1  0  0  0
 82162  1  0  0  0
 82163  1  0  0  0
 83164  1  0  0  0
 83165  1  0  0  0
 85166  1  0  0  0
M  ISO  4   1 100  68 101  83 101  85 100
M  END
> <chiral flag>
0

> <version>
0

> <s_m_source_file>
/data/baiqing/PycharmProjects/Reinvent-master-3.2/result/LINK_invent/BTK/process_docking_weight1_custom_product_contain_oxygen_bond_distance_aromatic_linkinvent_7_9_3/rearranged_h_0153.sdf

> <i_m_source_file_index>
65

> <r_mmod_Potential_Energy-OPLS-2005>
201.178680419922

> <r_mmod_Stretch_Energy-OPLS-2005>
93.9527587890625

> <r_mmod_Bend_Energy-OPLS-2005>
164.193054199219

> <r_mmod_Torsional_Energy-OPLS-2005>
363.944580078125

> <r_mmod_Improper_Torsional_Energy-OPLS-2005>
7.37730884552002

> <r_mmod_Van_der_Waal_Energy-OPLS-2005>
131.534088134766

> <r_mmod_Electrostatic_Energy-OPLS-2005>
-391.048583984375

> <r_mmod_Solvation_Energy-OPLS-2005>
-227.21794128418

> <b_mmod_Minimization_Converged-OPLS-2005>
0

> <r_mmod_RMS_Derivative-OPLS-2005>
4.98942899703979

$$$$
65
                    3D
 Structure written by MMmdl.
160169  0  0  1  0            999 V2000
  -30.6260  -14.8222   20.3682 C   0  0  0  0  0  0
  -30.4350  -12.4904   19.4691 C   0  0  0  0  0  0
  -29.5116  -12.4462   18.2356 C   0  0  0  0  0  0
  -28.0360  -12.3007   18.6601 C   0  0  0  0  0  0
  -27.6337  -13.2341   19.8346 C   0  0  2  0  0  0
  -28.6895  -13.2608   20.9567 C   0  0  0  0  0  0
  -25.2517  -13.8215   20.5738 C   0  0  0  0  0  0
  -24.1805  -13.0459   20.9213 C   0  0  0  0  0  0
  -24.6400  -11.6933   20.8772 C   0  0  0  0  0  0
  -23.9082  -10.4307   21.0418 C   0  0  0  0  0  0
  -24.3631   -9.4217   21.9193 C   0  0  0  0  0  0
  -23.6309   -8.2251   22.0755 C   0  0  0  0  0  0
  -22.4291   -8.0293   21.3542 C   0  0  0  0  0  0
  -21.9930   -9.0268   20.4649 C   0  0  0  0  0  0
  -22.7255  -10.2150   20.3068 C   0  0  0  0  0  0
  -21.6854   -6.0748   22.5273 C   0  0  0  0  0  0
  -21.4008   -6.5648   23.8207 C   0  0  0  0  0  0
  -21.3661   -5.6796   24.9170 C   0  0  0  0  0  0
  -21.6047   -4.3061   24.7217 C   0  0  0  0  0  0
  -21.8820   -3.8158   23.4336 C   0  0  0  0  0  0
  -21.9190   -4.6973   22.3396 C   0  0  0  0  0  0
  -22.7822  -13.5234   21.1860 C   0  0  0  0  0  0
  -22.1657   -4.2163   21.0970 F   0  0  0  0  0  0
  -21.5634   -3.4545   25.7729 F   0  0  0  0  0  0
  -29.9687  -13.6067   20.3266 N   0  0  0  0  0  0
  -26.2934  -12.9412   20.3300 N   0  0  0  0  0  0
  -25.9339  -11.6560   20.5811 N   0  0  0  0  0  0
  -22.0480  -12.8217   22.0414 N   0  0  0  0  0  0
  -25.4240  -15.1938   20.4186 N   0  0  0  0  0  0
  -31.8546  -14.8170   20.2451 O   0  0  0  0  0  0
  -21.6647   -6.8894   21.4239 O   0  0  0  0  0  0
  -22.3505  -14.5537   20.6705 O   0  0  0  0  0  0
  -24.6332  -31.8527   23.1982 C   0  0  0  0  0  0
  -25.9137  -32.4744   23.8343 C   0  0  1  0  0  0
  -27.2214  -27.2416   20.1350 C   0  0  0  0  0  0
  -25.5925  -33.8551   24.2265 N   0  0  0  0  0  0
  -23.4323  -30.4746   21.5412 C   0  0  2  0  0  0
  -24.8819  -28.9152   20.1137 C   0  0  0  0  0  0
  -22.7505  -29.4586   22.4904 C   0  0  0  0  0  0
  -18.0279  -28.1390   22.8461 C   0  0  0  0  0  0
  -24.1486  -36.7285   23.2644 C   0  0  0  0  0  0
  -25.9808  -30.7563   21.3838 C   0  0  0  0  0  0
  -26.0542  -29.3765   20.7273 C   0  0  0  0  0  0
  -27.2291  -28.5538   20.7246 C   0  0  0  0  0  0
  -26.0322  -26.8592   19.4806 C   0  0  0  0  0  0
  -24.8764  -27.6642   19.4785 C   0  0  0  0  0  0
  -23.6550  -29.8072   20.1587 C   0  0  0  0  0  0
  -25.4109  -36.3070   24.0335 C   0  0  1  0  0  0
  -20.5883  -28.3705   23.1251 C   0  0  2  0  0  0
  -20.6770  -26.9422   22.5395 C   0  0  0  0  0  0
  -19.5757  -26.6385   21.5189 C   0  0  0  0  0  0
  -18.1932  -26.7926   22.1602 C   0  0  0  0  0  0
  -19.1534  -28.8864   23.2847 C   0  0  0  0  0  0
  -18.9465  -30.1454   23.8887 C   0  0  0  0  0  0
  -17.6471  -30.6593   24.0558 C   0  0  0  0  0  0
  -25.9058  -34.9435   23.5106 C   0  0  0  0  0  0
  -16.5357  -29.9091   23.6336 C   0  0  0  0  0  0
  -16.7266  -28.6507   23.0353 C   0  0  0  0  0  0
  -26.4507  -31.6578   25.0743 C   0  0  0  0  0  0
  -25.3735  -31.3699   26.1465 C   0  0  0  0  0  0
  -27.0366  -30.2998   24.6241 C   0  0  0  0  0  0
  -27.6077  -32.4323   25.7493 C   0  0  0  0  0  0
  -27.5576  -37.1788   24.8462 C   0  0  0  0  0  0
  -21.4212  -29.3052   22.3646 N   0  0  0  0  0  0
  -26.4283  -37.3769   23.9419 N   0  0  0  0  0  0
  -24.7012  -31.0454   22.0976 N   0  0  0  0  0  0
  -23.4183  -28.8120   23.3017 O   0  0  0  0  0  0
  -28.3003  -26.3226   20.1587 O   0  0  0  0  0  0
  -26.5632  -34.8910   22.4678 O   0  0  0  0  0  0
  -23.5473  -32.1369   23.7252 O   0  0  0  0  0  0
  -29.3024  -19.8727   20.9316 C   0  0  0  0  0  0
  -29.5085  -19.3249   18.1981 C   0  0  0  0  0  0
  -29.5810  -18.5224   20.4689 C   0  0  0  0  0  0
  -29.6661  -18.2684   19.1242 C   0  0  0  0  0  0
  -29.2452  -20.6569   18.6305 C   0  0  0  0  0  0
  -29.1311  -20.9987   20.0178 C   0  0  0  0  0  0
  -28.8727  -23.6729   19.9991 C   0  0  0  0  0  0
  -29.7926  -17.1505   21.1852 C   0  0  0  0  0  0
  -29.8640  -16.7703   18.8341 C   0  0  0  0  0  0
  -28.6512  -16.3060   18.0124 C   0  0  0  0  0  0
  -31.1354  -16.5993   17.9712 C   0  0  0  0  0  0
  -28.0196  -24.8995   20.6067 C   0  0  0  0  0  0
  -29.9115  -16.0244   20.1632 N   0  0  0  0  0  0
  -29.0494  -21.6076   17.6334 N   0  0  0  0  0  0
  -28.7185  -22.3691   20.4854 N   0  0  0  0  0  0
  -29.6908  -23.9328   19.1125 O   0  0  0  0  0  0
  -31.4697  -12.6190   19.1453 H   0  0  0  0  0  0
  -30.4046  -11.5456   20.0146 H   0  0  0  0  0  0
  -29.7905  -11.6141   17.5881 H   0  0  0  0  0  0
  -29.6540  -13.3411   17.6351 H   0  0  0  0  0  0
  -27.8918  -11.2615   18.9578 H   0  0  0  0  0  0
  -27.3790  -12.4632   17.8051 H   0  0  0  0  0  0
  -27.5944  -14.2362   19.4171 H   0  0  0  0  0  0
  -28.7513  -12.3024   21.4743 H   0  0  0  0  0  0
  -28.4245  -14.0085   21.7065 H   0  0  0  0  0  0
  -25.2776   -9.5692   22.4773 H   0  0  0  0  0  0
  -24.0018   -7.4640   22.7475 H   0  0  0  0  0  0
  -21.0859   -8.8798   19.8950 H   0  0  0  0  0  0
  -22.3719  -10.9698   19.6186 H   0  0  0  0  0  0
  -21.1996   -7.6156   23.9716 H   0  0  0  0  0  0
  -21.1479   -6.0526   25.9072 H   0  0  0  0  0  0
  -22.0598   -2.7623   23.2828 H   0  0  0  0  0  0
  -22.4107  -11.9869   22.4764 H   0  0  0  0  0  0
  -21.1102  -13.1240   22.2643 H   0  0  0  0  0  0
  -24.6652  -15.8547   20.5474 H   0  0  0  0  0  0
  -26.2902  -15.6350   20.1392 H   0  0  0  0  0  0
  -26.7195  -32.5388   23.1075 H   0  0  0  0  0  0
  -25.0060  -33.9694   25.0400 H   0  0  0  0  0  0
  -22.7307  -31.2982   21.3910 H   0  0  0  0  0  0
  -23.3759  -35.9606   23.3286 H   0  0  0  0  0  0
  -24.3585  -36.8933   22.2064 H   0  0  0  0  0  0
  -23.7230  -37.6474   23.6686 H   0  0  0  0  0  0
  -26.1216  -31.5124   20.6101 H   0  0  0  0  0  0
  -26.8583  -30.8086   22.0167 H   0  0  0  0  0  0
  -28.1266  -28.9009   21.2170 H   0  0  0  0  0  0
  -25.9844  -25.9100   18.9661 H   0  0  0  0  0  0
  -23.9840  -27.3075   18.9839 H   0  0  0  0  0  0
  -23.7874  -30.5852   19.4061 H   0  0  0  0  0  0
  -22.7725  -29.2454   19.8467 H   0  0  0  0  0  0
  -25.1282  -36.1923   25.0828 H   0  0  0  0  0  0
  -20.9958  -28.3288   24.1376 H   0  0  0  0  0  0
  -20.5657  -26.2318   23.3600 H   0  0  0  0  0  0
  -21.6642  -26.7441   22.1199 H   0  0  0  0  0  0
  -19.6936  -25.6292   21.1232 H   0  0  0  0  0  0
  -19.6708  -27.3181   20.6708 H   0  0  0  0  0  0
  -17.4195  -26.6641   21.4013 H   0  0  0  0  0  0
  -18.0361  -26.0071   22.9009 H   0  0  0  0  0  0
  -19.7947  -30.7250   24.2268 H   0  0  0  0  0  0
  -17.5036  -31.6277   24.5153 H   0  0  0  0  0  0
  -15.5363  -30.3001   23.7679 H   0  0  0  0  0  0
  -15.8653  -28.0833   22.7091 H   0  0  0  0  0  0
  -24.5912  -30.7056   25.7767 H   0  0  0  0  0  0
  -24.8925  -32.2847   26.4936 H   0  0  0  0  0  0
  -25.8058  -30.8829   27.0218 H   0  0  0  0  0  0
  -26.2949  -29.6723   24.1284 H   0  0  0  0  0  0
  -27.4058  -29.7286   25.4769 H   0  0  0  0  0  0
  -27.8822  -30.4274   23.9483 H   0  0  0  0  0  0
  -27.2714  -33.3640   26.2049 H   0  0  0  0  0  0
  -28.3878  -32.6854   25.0300 H   0  0  0  0  0  0
  -28.0752  -31.8461   26.5412 H   0  0  0  0  0  0
  -28.2570  -38.0104   24.7532 H   0  0  0  0  0  0
  -28.1092  -36.2639   24.6251 H   0  0  0  0  0  0
  -27.2302  -37.1389   25.8864 H   0  0  0  0  0  0
  -20.9405  -29.8777   21.6845 H   0  0  0  0  0  0
  -26.0163  -38.2840   24.1438 H   0  0  0  0  0  0
  -29.1973  -20.0422   21.9935 H   0  0  0  0  0  0
  -29.5586  -19.0972   17.1422 H   0  0  0  0  0  0
  -28.9539  -16.9506   21.8526 H   0  0  0  0  0  0
  -30.6961  -17.1995   21.7958 H   0  0  0  0  0  0
  -28.5608  -16.8723   17.0852 H   0  0  0  0  0  0
  -27.7211  -16.4452   18.5626 H   0  0  0  0  0  0
  -28.7267  -15.2629   17.7260 H   0  0  0  0  0  0
  -31.0619  -17.1675   17.0430 H   0  0  0  0  0  0
  -31.3007  -15.5603   17.6832 H   0  0  0  0  0  0
  -32.0253  -16.9529   18.4929 H   0  0  0  0  0  0
  -28.1603  -24.8764   21.6874 H   0  0  0  0  0  0
  -26.9720  -24.6407   20.4574 H   0  0  0  0  0  0
  -29.4354  -21.3920   16.7209 H   0  0  0  0  0  0
  -29.2732  -22.5611   17.9231 H   0  0  0  0  0  0
  -28.1644  -22.3476   21.3291 H   0  0  0  0  0  0
  1 25  1  0  0  0
  1 30  2  0  0  0
  1 83  1  0  0  0
  2  3  1  0  0  0
  2 25  1  0  0  0
  2 87  1  0  0  0
  2 88  1  0  0  0
  3  4  1  0  0  0
  3 89  1  0  0  0
  3 90  1  0  0  0
  4  5  1  0  0  0
  4 91  1  0  0  0
  4 92  1  0  0  0
  5  6  1  0  0  0
  5 26  1  0  0  0
  5 93  1  0  0  0
  6 25  1  0  0  0
  6 94  1  0  0  0
  6 95  1  0  0  0
  7  8  2  0  0  0
  7 26  1  0  0  0
  7 29  1  0  0  0
  8  9  1  0  0  0
  8 22  1  0  0  0
  9 10  1  0  0  0
  9 27  2  0  0  0
 10 11  2  0  0  0
 10 15  1  0  0  0
 11 12  1  0  0  0
 11 96  1  0  0  0
 12 13  2  0  0  0
 12 97  1  0  0  0
 13 14  1  0  0  0
 13 31  1  0  0  0
 14 15  2  0  0  0
 14 98  1  0  0  0
 15 99  1  0  0  0
 16 17  2  0  0  0
 16 21  1  0  0  0
 16 31  1  0  0  0
 17 18  1  0  0  0
 17100  1  0  0  0
 18 19  2  0  0  0
 18101  1  0  0  0
 19 20  1  0  0  0
 19 24  1  0  0  0
 20 21  2  0  0  0
 20102  1  0  0  0
 21 23  1  0  0  0
 22 28  1  0  0  0
 22 32  2  0  0  0
 26 27  1  0  0  0
 28103  1  0  0  0
 28104  1  0  0  0
 29105  1  0  0  0
 29106  1  0  0  0
 33 34  1  0  0  0
 33 66  1  0  0  0
 33 70  2  0  0  0
 34 36  1  0  0  0
 34 59  1  0  0  0
 34107  1  0  0  0
 35 44  2  0  0  0
 35 45  1  0  0  0
 35 68  1  0  0  0
 36 56  1  0  0  0
 36108  1  0  0  0
 37 39  1  0  0  0
 37 47  1  0  0  0
 37 66  1  0  0  0
 37109  1  0  0  0
 38 43  2  0  0  0
 38 46  1  0  0  0
 38 47  1  0  0  0
 39 64  1  0  0  0
 39 67  2  0  0  0
 40 52  1  0  0  0
 40 53  2  0  0  0
 40 58  1  0  0  0
 41110  1  0  0  0
 41111  1  0  0  0
 41112  1  0  0  0
 41 48  1  0  0  0
 42 43  1  0  0  0
 42 66  1  0  0  0
 42113  1  0  0  0
 42114  1  0  0  0
 43 44  1  0  0  0
 44115  1  0  0  0
 45 46  2  0  0  0
 45116  1  0  0  0
 46117  1  0  0  0
 47118  1  0  0  0
 47119  1  0  0  0
 48 56  1  0  0  0
 48 65  1  0  0  0
 48120  1  0  0  0
 49 50  1  0  0  0
 49 53  1  0  0  0
 49 64  1  0  0  0
 49121  1  0  0  0
 50 51  1  0  0  0
 50122  1  0  0  0
 50123  1  0  0  0
 51 52  1  0  0  0
 51124  1  0  0  0
 51125  1  0  0  0
 52126  1  0  0  0
 52127  1  0  0  0
 53 54  1  0  0  0
 54 55  2  0  0  0
 54128  1  0  0  0
 55 57  1  0  0  0
 55129  1  0  0  0
 56 69  2  0  0  0
 57 58  2  0  0  0
 57130  1  0  0  0
 58131  1  0  0  0
 59 60  1  0  0  0
 59 61  1  0  0  0
 59 62  1  0  0  0
 60132  1  0  0  0
 60133  1  0  0  0
 60134  1  0  0  0
 61135  1  0  0  0
 61136  1  0  0  0
 61137  1  0  0  0
 62138  1  0  0  0
 62139  1  0  0  0
 62140  1  0  0  0
 63 65  1  0  0  0
 63141  1  0  0  0
 63142  1  0  0  0
 63143  1  0  0  0
 64144  1  0  0  0
 65145  1  0  0  0
 68 82  1  0  0  0
 71 73  2  0  0  0
 71 76  1  0  0  0
 71146  1  0  0  0
 72 74  2  0  0  0
 72 75  1  0  0  0
 72147  1  0  0  0
 73 74  1  0  0  0
 73 78  1  0  0  0
 74 79  1  0  0  0
 75 76  2  0  0  0
 75 84  1  0  0  0
 76 85  1  0  0  0
 77 82  1  0  0  0
 77 85  1  0  0  0
 77 86  2  0  0  0
 78 83  1  0  0  0
 78148  1  0  0  0
 78149  1  0  0  0
 79 80  1  0  0  0
 79 81  1  0  0  0
 79 83  1  0  0  0
 80150  1  0  0  0
 80151  1  0  0  0
 80152  1  0  0  0
 81153  1  0  0  0
 81154  1  0  0  0
 81155  1  0  0  0
 82156  1  0  0  0
 82157  1  0  0  0
 84158  1  0  0  0
 84159  1  0  0  0
 85160  1  0  0  0
M  ISO  4   1 100  68 101  82 101  83 100
M  END
> <chiral flag>
0

> <version>
0

> <s_m_source_file>
/data/baiqing/PycharmProjects/Reinvent-master-3.2/result/LINK_invent/BTK/process_docking_weight1_custom_product_contain_oxygen_bond_distance_aromatic_linkinvent_7_9_3/rearranged_h_0153.sdf

> <i_m_source_file_index>
66

> <r_mmod_Potential_Energy-OPLS-2005>
321.103454589844

> <r_mmod_Stretch_Energy-OPLS-2005>
148.647720336914

> <r_mmod_Bend_Energy-OPLS-2005>
218.032409667969

> <r_mmod_Torsional_Energy-OPLS-2005>
329.482116699219

> <r_mmod_Improper_Torsional_Energy-OPLS-2005>
18.539098739624

> <r_mmod_Van_der_Waal_Energy-OPLS-2005>
135.120819091797

> <r_mmod_Electrostatic_Energy-OPLS-2005>
-421.788116455078

> <r_mmod_Solvation_Energy-OPLS-2005>
-227.758819580078

> <b_mmod_Minimization_Converged-OPLS-2005>
0

> <r_mmod_RMS_Derivative-OPLS-2005>
2.04582381248474

$$$$
66
                    3D
 Structure written by MMmdl.
149158  0  0  1  0            999 V2000
  -30.4793  -15.1175   20.3726 C   0  0  0  0  0  0
  -30.4494  -12.6964   19.5190 C   0  0  0  0  0  0
  -29.5347  -12.5451   18.2786 C   0  0  0  0  0  0
  -28.0774  -12.2951   18.7076 C   0  0  0  0  0  0
  -27.6250  -13.2568   19.8346 C   0  0  2  0  0  0
  -28.6647  -13.3667   20.9711 C   0  0  0  0  0  0
  -25.2450  -13.8220   20.5707 C   0  0  0  0  0  0
  -24.1778  -13.0439   20.9224 C   0  0  0  0  0  0
  -24.6404  -11.6922   20.8751 C   0  0  0  0  0  0
  -23.9084  -10.4296   21.0412 C   0  0  0  0  0  0
  -24.3624   -9.4207   21.9199 C   0  0  0  0  0  0
  -23.6291   -8.2247   22.0763 C   0  0  0  0  0  0
  -22.4284   -8.0284   21.3537 C   0  0  0  0  0  0
  -21.9918   -9.0270   20.4659 C   0  0  0  0  0  0
  -22.7242  -10.2156   20.3073 C   0  0  0  0  0  0
  -21.6861   -6.0724   22.5259 C   0  0  0  0  0  0
  -21.4019   -6.5625   23.8189 C   0  0  0  0  0  0
  -21.3668   -5.6789   24.9152 C   0  0  0  0  0  0
  -21.6040   -4.3052   24.7205 C   0  0  0  0  0  0
  -21.8823   -3.8128   23.4335 C   0  0  0  0  0  0
  -21.9198   -4.6946   22.3384 C   0  0  0  0  0  0
  -22.7796  -13.5214   21.1861 C   0  0  0  0  0  0
  -22.1667   -4.2120   21.0960 F   0  0  0  0  0  0
  -21.5635   -3.4535   25.7731 F   0  0  0  0  0  0
  -29.9211  -13.8228   20.3559 N   0  0  0  0  0  0
  -26.2879  -12.9461   20.3259 N   0  0  0  0  0  0
  -25.9345  -11.6589   20.5763 N   0  0  0  0  0  0
  -22.0452  -12.8234   22.0442 N   0  0  0  0  0  0
  -25.4077  -15.1951   20.4042 N   0  0  0  0  0  0
  -31.6928  -15.1660   20.1226 O   0  0  0  0  0  0
  -21.6643   -6.8876   21.4229 O   0  0  0  0  0  0
  -22.3480  -14.5508   20.6691 O   0  0  0  0  0  0
  -24.6527  -31.8329   23.1753 C   0  0  0  0  0  0
  -25.9241  -32.4641   23.8198 C   0  0  1  0  0  0
  -27.2357  -27.0393   20.1563 C   0  0  0  0  0  0
  -25.5942  -33.8444   24.2111 N   0  0  0  0  0  0
  -23.4630  -30.4457   21.5219 C   0  0  2  0  0  0
  -24.9183  -28.8488   20.1104 C   0  0  0  0  0  0
  -22.7619  -29.4489   22.4798 C   0  0  0  0  0  0
  -18.0316  -28.1393   22.8480 C   0  0  0  0  0  0
  -24.1492  -36.7241   23.2646 C   0  0  0  0  0  0
  -26.0255  -30.6755   21.3887 C   0  0  0  0  0  0
  -26.0984  -29.2752   20.7324 C   0  0  0  0  0  0
  -27.2530  -28.3886   20.7334 C   0  0  0  0  0  0
  -26.0241  -26.7344   19.4991 C   0  0  0  0  0  0
  -24.8978  -27.5935   19.4803 C   0  0  0  0  0  0
  -23.6980  -29.7613   20.1474 C   0  0  0  0  0  0
  -25.4123  -36.2990   24.0305 C   0  0  1  0  0  0
  -20.5937  -28.3734   23.1201 C   0  0  2  0  0  0
  -20.6789  -26.9422   22.5392 C   0  0  0  0  0  0
  -19.5751  -26.6368   21.5209 C   0  0  0  0  0  0
  -18.1945  -26.7918   22.1647 C   0  0  0  0  0  0
  -19.1578  -28.8880   23.2834 C   0  0  0  0  0  0
  -18.9495  -30.1475   23.8859 C   0  0  0  0  0  0
  -17.6492  -30.6591   24.0553 C   0  0  0  0  0  0
  -25.9081  -34.9379   23.5030 C   0  0  0  0  0  0
  -16.5381  -29.9084   23.6338 C   0  0  0  0  0  0
  -16.7302  -28.6502   23.0361 C   0  0  0  0  0  0
  -26.4522  -31.6547   25.0689 C   0  0  0  0  0  0
  -25.3686  -31.3796   26.1379 C   0  0  0  0  0  0
  -27.0401  -30.2924   24.6352 C   0  0  0  0  0  0
  -27.6024  -32.4338   25.7488 C   0  0  0  0  0  0
  -27.5563  -37.1777   24.8468 C   0  0  0  0  0  0
  -21.4296  -29.3050   22.3563 N   0  0  0  0  0  0
  -26.4279  -37.3713   23.9401 N   0  0  0  0  0  0
  -24.7341  -31.0087   22.0833 N   0  0  0  0  0  0
  -23.4211  -28.8055   23.3002 O   0  0  0  0  0  0
  -28.2840  -26.0148   20.2289 O   0  0  0  0  0  0
  -26.5698  -34.8890   22.4628 O   0  0  0  0  0  0
  -23.5621  -32.1255   23.6903 O   0  0  0  0  0  0
  -28.9123  -18.9261   20.4559 C   0  0  0  0  0  0
  -29.4342  -20.3488   20.2122 C   0  0  0  0  0  0
  -29.8019  -17.7774   20.3429 C   0  0  0  0  0  0
  -27.1935  -23.6176   20.8683 C   0  0  0  0  0  0
  -27.3885  -22.0635   20.5892 C   0  0  0  0  0  0
  -29.3023  -23.2183   19.9951 C   0  0  0  0  0  0
  -28.1383  -24.4363   19.9585 C   0  0  2  0  0  0
  -30.7171  -20.2592   19.9141 N   0  0  0  0  0  0
  -28.7878  -21.7639   20.2451 N   0  0  0  0  0  0
  -29.6591  -16.3132   20.4816 N   0  0  0  0  0  0
  -31.2840  -18.6198   19.9290 S   0  0  0  0  0  0
  -31.4751  -12.8801   19.1990 H   0  0  0  0  0  0
  -30.4818  -11.7713   20.0961 H   0  0  0  0  0  0
  -29.8844  -11.7291   17.6453 H   0  0  0  0  0  0
  -29.5878  -13.4487   17.6709 H   0  0  0  0  0  0
  -28.0201  -11.2653   19.0638 H   0  0  0  0  0  0
  -27.4068  -12.3608   17.8500 H   0  0  0  0  0  0
  -27.5634  -14.2393   19.3648 H   0  0  0  0  0  0
  -28.7906  -12.4135   21.4873 H   0  0  0  0  0  0
  -28.3327  -14.0842   21.7244 H   0  0  0  0  0  0
  -25.2777   -9.5668   22.4768 H   0  0  0  0  0  0
  -23.9975   -7.4646   22.7519 H   0  0  0  0  0  0
  -21.0827   -8.8813   19.8989 H   0  0  0  0  0  0
  -22.3701  -10.9702   19.6181 H   0  0  0  0  0  0
  -21.2016   -7.6145   23.9684 H   0  0  0  0  0  0
  -21.1488   -6.0520   25.9057 H   0  0  0  0  0  0
  -22.0599   -2.7592   23.2839 H   0  0  0  0  0  0
  -22.4081  -11.9896   22.4824 H   0  0  0  0  0  0
  -21.1088  -13.1289   22.2686 H   0  0  0  0  0  0
  -24.6238  -15.8348   20.4799 H   0  0  0  0  0  0
  -26.2264  -15.6261   19.9949 H   0  0  0  0  0  0
  -26.7319  -32.5216   23.0933 H   0  0  0  0  0  0
  -24.9995  -33.9537   25.0193 H   0  0  0  0  0  0
  -22.7712  -31.2734   21.3532 H   0  0  0  0  0  0
  -23.3736  -35.9595   23.3315 H   0  0  0  0  0  0
  -24.3567  -36.8875   22.2060 H   0  0  0  0  0  0
  -23.7277  -37.6446   23.6695 H   0  0  0  0  0  0
  -26.1905  -31.4243   20.6125 H   0  0  0  0  0  0
  -26.8903  -30.7333   22.0378 H   0  0  0  0  0  0
  -28.1495  -28.7119   21.2428 H   0  0  0  0  0  0
  -25.9180  -25.7737   19.0177 H   0  0  0  0  0  0
  -23.9967  -27.2551   18.9866 H   0  0  0  0  0  0
  -23.8426  -30.5283   19.3862 H   0  0  0  0  0  0
  -22.8126  -29.2050   19.8344 H   0  0  0  0  0  0
  -25.1322  -36.1802   25.0799 H   0  0  0  0  0  0
  -21.0037  -28.3320   24.1317 H   0  0  0  0  0  0
  -20.5655  -26.2352   23.3625 H   0  0  0  0  0  0
  -21.6651  -26.7389   22.1194 H   0  0  0  0  0  0
  -19.6900  -25.6265   21.1260 H   0  0  0  0  0  0
  -19.6661  -27.3161   20.6718 H   0  0  0  0  0  0
  -17.4188  -26.6637   21.4078 H   0  0  0  0  0  0
  -18.0374  -26.0078   22.9073 H   0  0  0  0  0  0
  -19.7974  -30.7299   24.2206 H   0  0  0  0  0  0
  -17.5047  -31.6264   24.5159 H   0  0  0  0  0  0
  -15.5382  -30.2980   23.7662 H   0  0  0  0  0  0
  -15.8705  -28.0807   22.7096 H   0  0  0  0  0  0
  -24.5773  -30.7276   25.7667 H   0  0  0  0  0  0
  -24.9007  -32.3028   26.4810 H   0  0  0  0  0  0
  -25.7922  -30.8895   27.0157 H   0  0  0  0  0  0
  -26.3053  -29.6619   24.1341 H   0  0  0  0  0  0
  -27.3949  -29.7258   25.4970 H   0  0  0  0  0  0
  -27.8980  -30.4117   23.9734 H   0  0  0  0  0  0
  -27.2579  -33.3646   26.2004 H   0  0  0  0  0  0
  -28.3866  -32.6897   25.0354 H   0  0  0  0  0  0
  -28.0660  -31.8518   26.5463 H   0  0  0  0  0  0
  -28.2581  -38.0070   24.7481 H   0  0  0  0  0  0
  -28.1059  -36.2595   24.6341 H   0  0  0  0  0  0
  -27.2282  -37.1471   25.8873 H   0  0  0  0  0  0
  -20.9516  -29.8792   21.6762 H   0  0  0  0  0  0
  -26.0137  -38.2782   24.1380 H   0  0  0  0  0  0
  -27.8693  -18.8095   20.7088 H   0  0  0  0  0  0
  -27.4562  -23.8219   21.9066 H   0  0  0  0  0  0
  -26.1533  -23.9175   20.7405 H   0  0  0  0  0  0
  -26.7594  -21.7641   19.7489 H   0  0  0  0  0  0
  -27.0739  -21.4779   21.4531 H   0  0  0  0  0  0
  -30.0082  -23.4442   20.7962 H   0  0  0  0  0  0
  -29.8834  -23.2376   19.0720 H   0  0  0  0  0  0
  -27.7220  -24.3836   18.9506 H   0  0  0  0  0  0
  -28.7057  -16.0483   20.6735 H   0  0  0  0  0  0
  1 25  1  0  0  0
  1 30  2  0  0  0
  1 80  1  0  0  0
  2  3  1  0  0  0
  2 25  1  0  0  0
  2 82  1  0  0  0
  2 83  1  0  0  0
  3  4  1  0  0  0
  3 84  1  0  0  0
  3 85  1  0  0  0
  4  5  1  0  0  0
  4 86  1  0  0  0
  4 87  1  0  0  0
  5  6  1  0  0  0
  5 26  1  0  0  0
  5 88  1  0  0  0
  6 25  1  0  0  0
  6 89  1  0  0  0
  6 90  1  0  0  0
  7  8  2  0  0  0
  7 26  1  0  0  0
  7 29  1  0  0  0
  8  9  1  0  0  0
  8 22  1  0  0  0
  9 10  1  0  0  0
  9 27  2  0  0  0
 10 11  2  0  0  0
 10 15  1  0  0  0
 11 12  1  0  0  0
 11 91  1  0  0  0
 12 13  2  0  0  0
 12 92  1  0  0  0
 13 14  1  0  0  0
 13 31  1  0  0  0
 14 15  2  0  0  0
 14 93  1  0  0  0
 15 94  1  0  0  0
 16 17  2  0  0  0
 16 21  1  0  0  0
 16 31  1  0  0  0
 17 18  1  0  0  0
 17 95  1  0  0  0
 18 19  2  0  0  0
 18 96  1  0  0  0
 19 20  1  0  0  0
 19 24  1  0  0  0
 20 21  2  0  0  0
 20 97  1  0  0  0
 21 23  1  0  0  0
 22 28  1  0  0  0
 22 32  2  0  0  0
 26 27  1  0  0  0
 28 98  1  0  0  0
 28 99  1  0  0  0
 29100  1  0  0  0
 29101  1  0  0  0
 33 34  1  0  0  0
 33 66  1  0  0  0
 33 70  2  0  0  0
 34 36  1  0  0  0
 34 59  1  0  0  0
 34102  1  0  0  0
 35 44  2  0  0  0
 35 45  1  0  0  0
 35 68  1  0  0  0
 36 56  1  0  0  0
 36103  1  0  0  0
 37 39  1  0  0  0
 37 47  1  0  0  0
 37 66  1  0  0  0
 37104  1  0  0  0
 38 43  2  0  0  0
 38 46  1  0  0  0
 38 47  1  0  0  0
 39 64  1  0  0  0
 39 67  2  0  0  0
 40 52  1  0  0  0
 40 53  2  0  0  0
 40 58  1  0  0  0
 41105  1  0  0  0
 41106  1  0  0  0
 41107  1  0  0  0
 41 48  1  0  0  0
 42 43  1  0  0  0
 42 66  1  0  0  0
 42108  1  0  0  0
 42109  1  0  0  0
 43 44  1  0  0  0
 44110  1  0  0  0
 45 46  2  0  0  0
 45111  1  0  0  0
 46112  1  0  0  0
 47113  1  0  0  0
 47114  1  0  0  0
 48 56  1  0  0  0
 48 65  1  0  0  0
 48115  1  0  0  0
 49 50  1  0  0  0
 49 53  1  0  0  0
 49 64  1  0  0  0
 49116  1  0  0  0
 50 51  1  0  0  0
 50117  1  0  0  0
 50118  1  0  0  0
 51 52  1  0  0  0
 51119  1  0  0  0
 51120  1  0  0  0
 52121  1  0  0  0
 52122  1  0  0  0
 53 54  1  0  0  0
 54 55  2  0  0  0
 54123  1  0  0  0
 55 57  1  0  0  0
 55124  1  0  0  0
 56 69  2  0  0  0
 57 58  2  0  0  0
 57125  1  0  0  0
 58126  1  0  0  0
 59 60  1  0  0  0
 59 61  1  0  0  0
 59 62  1  0  0  0
 60127  1  0  0  0
 60128  1  0  0  0
 60129  1  0  0  0
 61130  1  0  0  0
 61131  1  0  0  0
 61132  1  0  0  0
 62133  1  0  0  0
 62134  1  0  0  0
 62135  1  0  0  0
 63 65  1  0  0  0
 63136  1  0  0  0
 63137  1  0  0  0
 63138  1  0  0  0
 64139  1  0  0  0
 65140  1  0  0  0
 68 77  1  0  0  0
 71 72  1  0  0  0
 71 73  2  0  0  0
 71141  1  0  0  0
 72 78  2  0  0  0
 72 79  1  0  0  0
 73 80  1  0  0  0
 73 81  1  0  0  0
 74 75  1  0  0  0
 74 77  1  0  0  0
 74142  1  0  0  0
 74143  1  0  0  0
 75 79  1  0  0  0
 75144  1  0  0  0
 75145  1  0  0  0
 76 77  1  0  0  0
 76 79  1  0  0  0
 76146  1  0  0  0
 76147  1  0  0  0
 77148  1  0  0  0
 78 81  1  0  0  0
 80149  1  0  0  0
M  ISO  4   1 100  68 101  77 101  80 100
M  END
> <chiral flag>
0

> <version>
0

> <s_m_source_file>
/data/baiqing/PycharmProjects/Reinvent-master-3.2/result/LINK_invent/BTK/process_docking_weight1_custom_product_contain_oxygen_bond_distance_aromatic_linkinvent_7_9_3/rearranged_h_0153.sdf

> <i_m_source_file_index>
67

> <r_mmod_Potential_Energy-OPLS-2005>
696.796508789062

> <r_mmod_Stretch_Energy-OPLS-2005>
336.961639404297

> <r_mmod_Bend_Energy-OPLS-2005>
350.526733398438

> <r_mmod_Torsional_Energy-OPLS-2005>
243.566772460938

> <r_mmod_Improper_Torsional_Energy-OPLS-2005>
4.26649808883667

> <r_mmod_Van_der_Waal_Energy-OPLS-2005>
102.264869689941

> <r_mmod_Electrostatic_Energy-OPLS-2005>
-403.003021240234

> <r_mmod_Solvation_Energy-OPLS-2005>
-248.199661254883

> <b_mmod_Minimization_Converged-OPLS-2005>
0

> <r_mmod_RMS_Derivative-OPLS-2005>
2.85457229614258

$$$$
67
                    3D
 Structure written by MMmdl.
167175  0  0  1  0            999 V2000
  -30.6272  -14.7336   20.3854 C   0  0  0  0  0  0
  -30.4287  -12.4358   19.4654 C   0  0  0  0  0  0
  -29.5086  -12.4874   18.2269 C   0  0  0  0  0  0
  -28.0360  -12.3194   18.6457 C   0  0  0  0  0  0
  -27.6428  -13.2311   19.8401 C   0  0  2  0  0  0
  -28.6908  -13.1848   20.9734 C   0  0  0  0  0  0
  -25.2539  -13.8195   20.5675 C   0  0  0  0  0  0
  -24.1802  -13.0467   20.9218 C   0  0  0  0  0  0
  -24.6405  -11.6946   20.8781 C   0  0  0  0  0  0
  -23.9082  -10.4315   21.0432 C   0  0  0  0  0  0
  -24.3636   -9.4212   21.9191 C   0  0  0  0  0  0
  -23.6302   -8.2251   22.0766 C   0  0  0  0  0  0
  -22.4282   -8.0290   21.3557 C   0  0  0  0  0  0
  -21.9917   -9.0275   20.4670 C   0  0  0  0  0  0
  -22.7265  -10.2150   20.3074 C   0  0  0  0  0  0
  -21.6854   -6.0743   22.5274 C   0  0  0  0  0  0
  -21.4015   -6.5643   23.8212 C   0  0  0  0  0  0
  -21.3664   -5.6800   24.9177 C   0  0  0  0  0  0
  -21.6035   -4.3050   24.7231 C   0  0  0  0  0  0
  -21.8817   -3.8158   23.4341 C   0  0  0  0  0  0
  -21.9194   -4.6971   22.3403 C   0  0  0  0  0  0
  -22.7814  -13.5266   21.1863 C   0  0  0  0  0  0
  -22.1654   -4.2166   21.0974 F   0  0  0  0  0  0
  -21.5645   -3.4519   25.7731 F   0  0  0  0  0  0
  -29.9912  -13.5153   20.3782 N   0  0  0  0  0  0
  -26.2947  -12.9398   20.3243 N   0  0  0  0  0  0
  -25.9331  -11.6547   20.5762 N   0  0  0  0  0  0
  -22.0425  -12.8286   22.0407 N   0  0  0  0  0  0
  -25.4249  -15.1905   20.4046 N   0  0  0  0  0  0
  -31.8321  -14.7966   20.1288 O   0  0  0  0  0  0
  -21.6645   -6.8873   21.4235 O   0  0  0  0  0  0
  -22.3502  -14.5575   20.6708 O   0  0  0  0  0  0
  -24.6290  -31.8550   23.1976 C   0  0  0  0  0  0
  -25.9133  -32.4747   23.8309 C   0  0  1  0  0  0
  -27.2192  -27.2846   20.1311 C   0  0  0  0  0  0
  -25.5950  -33.8551   24.2251 N   0  0  0  0  0  0
  -23.4227  -30.4798   21.5393 C   0  0  2  0  0  0
  -24.8706  -28.9193   20.1151 C   0  0  0  0  0  0
  -22.7506  -29.4616   22.4900 C   0  0  0  0  0  0
  -18.0321  -28.1337   22.8468 C   0  0  0  0  0  0
  -24.1482  -36.7285   23.2630 C   0  0  0  0  0  0
  -25.9636  -30.7778   21.3711 C   0  0  0  0  0  0
  -26.0405  -29.3990   20.7193 C   0  0  0  0  0  0
  -27.2229  -28.5968   20.7064 C   0  0  0  0  0  0
  -26.0303  -26.8550   19.5104 C   0  0  0  0  0  0
  -24.8704  -27.6555   19.5012 C   0  0  0  0  0  0
  -23.6427  -29.8060   20.1588 C   0  0  0  0  0  0
  -25.4099  -36.3059   24.0329 C   0  0  1  0  0  0
  -20.5916  -28.3670   23.1244 C   0  0  2  0  0  0
  -20.6806  -26.9395   22.5360 C   0  0  0  0  0  0
  -19.5786  -26.6375   21.5168 C   0  0  0  0  0  0
  -18.1976  -26.7904   22.1583 C   0  0  0  0  0  0
  -19.1560  -28.8820   23.2857 C   0  0  0  0  0  0
  -18.9463  -30.1405   23.8873 C   0  0  0  0  0  0
  -17.6464  -30.6539   24.0540 C   0  0  0  0  0  0
  -25.9039  -34.9438   23.5085 C   0  0  0  0  0  0
  -16.5364  -29.9031   23.6296 C   0  0  0  0  0  0
  -16.7301  -28.6459   23.0320 C   0  0  0  0  0  0
  -26.4504  -31.6568   25.0701 C   0  0  0  0  0  0
  -25.3752  -31.3761   26.1458 C   0  0  0  0  0  0
  -27.0348  -30.2988   24.6169 C   0  0  0  0  0  0
  -27.6043  -32.4339   25.7485 C   0  0  0  0  0  0
  -27.5569  -37.1784   24.8462 C   0  0  0  0  0  0
  -21.4208  -29.3040   22.3662 N   0  0  0  0  0  0
  -26.4273  -37.3757   23.9410 N   0  0  0  0  0  0
  -24.6911  -31.0545   22.0932 N   0  0  0  0  0  0
  -23.4221  -28.8182   23.3018 O   0  0  0  0  0  0
  -28.3264  -26.4230   20.1102 O   0  0  0  0  0  0
  -26.5602  -34.8920   22.4638 O   0  0  0  0  0  0
  -23.5461  -32.1390   23.7308 O   0  0  0  0  0  0
  -28.1116  -18.8490   20.0364 C   0  0  0  0  0  0
  -27.7860  -20.2601   20.1828 C   0  0  0  0  0  0
  -29.4582  -18.5437   20.0413 C   0  0  0  0  0  0
  -28.8653  -21.1048   20.3564 C   0  0  0  0  0  0
  -29.3342  -25.1711   21.8441 C   0  0  0  0  0  0
  -29.4328  -19.1596   16.9799 C   0  0  0  0  0  0
  -31.9015  -18.6407   17.1764 C   0  0  0  0  0  0
  -30.1922  -16.9397   18.1112 C   0  0  0  0  0  0
  -28.3578  -23.6979   19.9374 C   0  0  0  0  0  0
  -30.2136  -17.2123   19.6621 C   0  0  2  0  0  0
  -28.2385  -25.0881   20.7705 C   0  0  2  0  0  0
  -30.4908  -18.0317   17.0167 C   0  0  0  0  0  0
  -28.9564  -22.5130   20.6650 N   0  0  0  0  0  0
  -29.8522  -15.8850   20.3429 N   0  0  0  0  0  0
  -30.4324  -17.3635   15.6957 N   0  3  0  0  0  0
  -30.3193  -20.0770   20.3527 S   0  0  0  0  0  0
  -31.4736  -12.5417   19.1649 H   0  0  0  0  0  0
  -30.3608  -11.4665   19.9589 H   0  0  0  0  0  0
  -29.7865  -11.7076   17.5156 H   0  0  0  0  0  0
  -29.6348  -13.4379   17.7059 H   0  0  0  0  0  0
  -27.8938  -11.2725   18.9161 H   0  0  0  0  0  0
  -27.3767  -12.4995   17.7961 H   0  0  0  0  0  0
  -27.6324  -14.2468   19.4463 H   0  0  0  0  0  0
  -28.7204  -12.1997   21.4386 H   0  0  0  0  0  0
  -28.4376  -13.8926   21.7649 H   0  0  0  0  0  0
  -25.2760   -9.5692   22.4785 H   0  0  0  0  0  0
  -24.0016   -7.4637   22.7477 H   0  0  0  0  0  0
  -21.0854   -8.8822   19.8961 H   0  0  0  0  0  0
  -22.3729  -10.9711   19.6207 H   0  0  0  0  0  0
  -21.1994   -7.6147   23.9723 H   0  0  0  0  0  0
  -21.1485   -6.0517   25.9089 H   0  0  0  0  0  0
  -22.0594   -2.7619   23.2830 H   0  0  0  0  0  0
  -22.4026  -11.9976   22.4849 H   0  0  0  0  0  0
  -21.1046  -13.1355   22.2571 H   0  0  0  0  0  0
  -24.6643  -15.8505   20.5219 H   0  0  0  0  0  0
  -26.2665  -15.6180   20.0438 H   0  0  0  0  0  0
  -26.7193  -32.5411   23.1039 H   0  0  0  0  0  0
  -25.0161  -33.9670   25.0451 H   0  0  0  0  0  0
  -22.7178  -31.3002   21.3928 H   0  0  0  0  0  0
  -23.3735  -35.9628   23.3292 H   0  0  0  0  0  0
  -24.3571  -36.8905   22.2041 H   0  0  0  0  0  0
  -23.7244  -37.6487   23.6661 H   0  0  0  0  0  0
  -26.0886  -31.5408   20.6010 H   0  0  0  0  0  0
  -26.8419  -30.8311   22.0021 H   0  0  0  0  0  0
  -28.1252  -28.9690   21.1697 H   0  0  0  0  0  0
  -26.0009  -25.8859   19.0317 H   0  0  0  0  0  0
  -23.9730  -27.2829   19.0264 H   0  0  0  0  0  0
  -23.7677  -30.5790   19.3980 H   0  0  0  0  0  0
  -22.7596  -29.2387   19.8571 H   0  0  0  0  0  0
  -25.1268  -36.1887   25.0825 H   0  0  0  0  0  0
  -21.0025  -28.3223   24.1338 H   0  0  0  0  0  0
  -20.5650  -26.2289   23.3576 H   0  0  0  0  0  0
  -21.6673  -26.7408   22.1147 H   0  0  0  0  0  0
  -19.6946  -25.6282   21.1177 H   0  0  0  0  0  0
  -19.6708  -27.3180   20.6699 H   0  0  0  0  0  0
  -17.4245  -26.6707   21.3971 H   0  0  0  0  0  0
  -18.0354  -25.9984   22.8916 H   0  0  0  0  0  0
  -19.7946  -30.7214   24.2234 H   0  0  0  0  0  0
  -17.5007  -31.6184   24.5166 H   0  0  0  0  0  0
  -15.5362  -30.2919   23.7543 H   0  0  0  0  0  0
  -15.8724  -28.0750   22.7000 H   0  0  0  0  0  0
  -24.5877  -30.7152   25.7799 H   0  0  0  0  0  0
  -24.9020  -32.2978   26.4871 H   0  0  0  0  0  0
  -25.8092  -30.8934   27.0225 H   0  0  0  0  0  0
  -26.2929  -29.6730   24.1183 H   0  0  0  0  0  0
  -27.4021  -29.7241   25.4657 H   0  0  0  0  0  0
  -27.8807  -30.4234   23.9413 H   0  0  0  0  0  0
  -27.2595  -33.3614   26.2080 H   0  0  0  0  0  0
  -28.3852  -32.6946   25.0332 H   0  0  0  0  0  0
  -28.0728  -31.8473   26.5396 H   0  0  0  0  0  0
  -28.2562  -38.0096   24.7497 H   0  0  0  0  0  0
  -28.1084  -36.2613   24.6291 H   0  0  0  0  0  0
  -27.2307  -37.1462   25.8874 H   0  0  0  0  0  0
  -20.9398  -29.8854   21.6934 H   0  0  0  0  0  0
  -26.0150  -38.2826   24.1425 H   0  0  0  0  0  0
  -27.3313  -18.1182   19.8742 H   0  0  0  0  0  0
  -26.7544  -20.5808   20.1866 H   0  0  0  0  0  0
  -29.3069  -24.3135   22.5153 H   0  0  0  0  0  0
  -29.2091  -26.0573   22.4655 H   0  0  0  0  0  0
  -30.3244  -25.2208   21.3911 H   0  0  0  0  0  0
  -29.6344  -19.9377   17.7106 H   0  0  0  0  0  0
  -28.4317  -18.7739   17.1698 H   0  0  0  0  0  0
  -29.3992  -19.6762   16.0203 H   0  0  0  0  0  0
  -32.0488  -19.0766   18.1639 H   0  0  0  0  0  0
  -32.0783  -19.4375   16.4506 H   0  0  0  0  0  0
  -32.6875  -17.8965   17.0319 H   0  0  0  0  0  0
  -29.2064  -16.5330   17.8823 H   0  0  0  0  0  0
  -30.8878  -16.1216   17.9230 H   0  0  0  0  0  0
  -28.9950  -23.8776   19.0705 H   0  0  0  0  0  0
  -27.3767  -23.4323   19.5396 H   0  0  0  0  0  0
  -31.2570  -17.3947   19.9244 H   0  0  0  0  0  0
  -27.2949  -25.0448   21.3143 H   0  0  0  0  0  0
  -29.8436  -22.7548   21.1006 H   0  0  0  0  0  0
  -28.8778  -15.7601   20.5696 H   0  0  0  0  0  0
  -30.5468  -18.0296   14.9509 H   0  0  0  0  0  0
  -29.5445  -16.9125   15.5583 H   0  0  0  0  0  0
  -31.1542  -16.6701   15.5941 H   0  0  0  0  0  0
  1 25  1  0  0  0
  1 30  2  0  0  0
  1 84  1  0  0  0
  2  3  1  0  0  0
  2 25  1  0  0  0
  2 87  1  0  0  0
  2 88  1  0  0  0
  3  4  1  0  0  0
  3 89  1  0  0  0
  3 90  1  0  0  0
  4  5  1  0  0  0
  4 91  1  0  0  0
  4 92  1  0  0  0
  5  6  1  0  0  0
  5 26  1  0  0  0
  5 93  1  0  0  0
  6 25  1  0  0  0
  6 94  1  0  0  0
  6 95  1  0  0  0
  7  8  2  0  0  0
  7 26  1  0  0  0
  7 29  1  0  0  0
  8  9  1  0  0  0
  8 22  1  0  0  0
  9 10  1  0  0  0
  9 27  2  0  0  0
 10 11  2  0  0  0
 10 15  1  0  0  0
 11 12  1  0  0  0
 11 96  1  0  0  0
 12 13  2  0  0  0
 12 97  1  0  0  0
 13 14  1  0  0  0
 13 31  1  0  0  0
 14 15  2  0  0  0
 14 98  1  0  0  0
 15 99  1  0  0  0
 16 17  2  0  0  0
 16 21  1  0  0  0
 16 31  1  0  0  0
 17 18  1  0  0  0
 17100  1  0  0  0
 18 19  2  0  0  0
 18101  1  0  0  0
 19 20  1  0  0  0
 19 24  1  0  0  0
 20 21  2  0  0  0
 20102  1  0  0  0
 21 23  1  0  0  0
 22 28  1  0  0  0
 22 32  2  0  0  0
 26 27  1  0  0  0
 28103  1  0  0  0
 28104  1  0  0  0
 29105  1  0  0  0
 29106  1  0  0  0
 33 34  1  0  0  0
 33 66  1  0  0  0
 33 70  2  0  0  0
 34 36  1  0  0  0
 34 59  1  0  0  0
 34107  1  0  0  0
 35 44  2  0  0  0
 35 45  1  0  0  0
 35 68  1  0  0  0
 36 56  1  0  0  0
 36108  1  0  0  0
 37 39  1  0  0  0
 37 47  1  0  0  0
 37 66  1  0  0  0
 37109  1  0  0  0
 38 43  2  0  0  0
 38 46  1  0  0  0
 38 47  1  0  0  0
 39 64  1  0  0  0
 39 67  2  0  0  0
 40 52  1  0  0  0
 40 53  2  0  0  0
 40 58  1  0  0  0
 41110  1  0  0  0
 41111  1  0  0  0
 41112  1  0  0  0
 41 48  1  0  0  0
 42 43  1  0  0  0
 42 66  1  0  0  0
 42113  1  0  0  0
 42114  1  0  0  0
 43 44  1  0  0  0
 44115  1  0  0  0
 45 46  2  0  0  0
 45116  1  0  0  0
 46117  1  0  0  0
 47118  1  0  0  0
 47119  1  0  0  0
 48 56  1  0  0  0
 48 65  1  0  0  0
 48120  1  0  0  0
 49 50  1  0  0  0
 49 53  1  0  0  0
 49 64  1  0  0  0
 49121  1  0  0  0
 50 51  1  0  0  0
 50122  1  0  0  0
 50123  1  0  0  0
 51 52  1  0  0  0
 51124  1  0  0  0
 51125  1  0  0  0
 52126  1  0  0  0
 52127  1  0  0  0
 53 54  1  0  0  0
 54 55  2  0  0  0
 54128  1  0  0  0
 55 57  1  0  0  0
 55129  1  0  0  0
 56 69  2  0  0  0
 57 58  2  0  0  0
 57130  1  0  0  0
 58131  1  0  0  0
 59 60  1  0  0  0
 59 61  1  0  0  0
 59 62  1  0  0  0
 60132  1  0  0  0
 60133  1  0  0  0
 60134  1  0  0  0
 61135  1  0  0  0
 61136  1  0  0  0
 61137  1  0  0  0
 62138  1  0  0  0
 62139  1  0  0  0
 62140  1  0  0  0
 63 65  1  0  0  0
 63141  1  0  0  0
 63142  1  0  0  0
 63143  1  0  0  0
 64144  1  0  0  0
 65145  1  0  0  0
 68 81  1  0  0  0
 71 72  1  0  0  0
 71 73  2  0  0  0
 71146  1  0  0  0
 72 74  2  0  0  0
 72147  1  0  0  0
 73 80  1  0  0  0
 73 86  1  0  0  0
 74 83  1  0  0  0
 74 86  1  0  0  0
 75148  1  0  0  0
 75149  1  0  0  0
 75150  1  0  0  0
 75 81  1  0  0  0
 76151  1  0  0  0
 76152  1  0  0  0
 76153  1  0  0  0
 76 82  1  0  0  0
 77 82  1  0  0  0
 77154  1  0  0  0
 77155  1  0  0  0
 77156  1  0  0  0
 78 82  1  0  0  0
 78157  1  0  0  0
 78158  1  0  0  0
 78 80  1  0  0  0
 79 81  1  0  0  0
 79 83  1  0  0  0
 79159  1  0  0  0
 79160  1  0  0  0
 80 84  1  0  0  0
 80161  1  0  0  0
 81162  1  0  0  0
 82 85  1  0  0  0
 83163  1  0  0  0
 84164  1  0  0  0
 85165  1  0  0  0
 85166  1  0  0  0
 85167  1  0  0  0
M  CHG  1  85   1
M  ISO  4   1 100  68 101  81 101  84 100
M  END
> <chiral flag>
0

> <version>
0

> <s_m_source_file>
/data/baiqing/PycharmProjects/Reinvent-master-3.2/result/LINK_invent/BTK/process_docking_weight1_custom_product_contain_oxygen_bond_distance_aromatic_linkinvent_7_9_3/rearranged_h_0153.sdf

> <i_m_source_file_index>
68

> <r_mmod_Potential_Energy-OPLS-2005>
-62.7840728759766

> <r_mmod_Stretch_Energy-OPLS-2005>
108.060676574707

> <r_mmod_Bend_Energy-OPLS-2005>
186.140045166016

> <r_mmod_Torsional_Energy-OPLS-2005>
260.546783447266

> <r_mmod_Improper_Torsional_Energy-OPLS-2005>
12.8877038955688

> <r_mmod_Van_der_Waal_Energy-OPLS-2005>
109.507667541504

> <r_mmod_Electrostatic_Energy-OPLS-2005>
-320.139770507812

> <r_mmod_Solvation_Energy-OPLS-2005>
-498.068542480469

> <b_mmod_Minimization_Converged-OPLS-2005>
0

> <r_mmod_RMS_Derivative-OPLS-2005>
4.71871185302734

$$$$
68
                    3D
 Structure written by MMmdl.
154162  0  0  1  0            999 V2000
  -30.6317  -14.5457   20.5886 C   0  0  0  0  0  0
  -30.4488  -12.3571   19.4232 C   0  0  0  0  0  0
  -29.5021  -12.5144   18.2112 C   0  0  0  0  0  0
  -28.0248  -12.3555   18.6257 C   0  0  0  0  0  0
  -27.6649  -13.1983   19.8764 C   0  0  2  0  0  0
  -28.7066  -12.9626   20.9932 C   0  0  0  0  0  0
  -25.2612  -13.8138   20.5665 C   0  0  0  0  0  0
  -24.1851  -13.0434   20.9171 C   0  0  0  0  0  0
  -24.6385  -11.6895   20.8738 C   0  0  0  0  0  0
  -23.9046  -10.4288   21.0412 C   0  0  0  0  0  0
  -24.3604   -9.4206   21.9191 C   0  0  0  0  0  0
  -23.6285   -8.2238   22.0758 C   0  0  0  0  0  0
  -22.4268   -8.0272   21.3541 C   0  0  0  0  0  0
  -21.9900   -9.0247   20.4647 C   0  0  0  0  0  0
  -22.7224  -10.2127   20.3059 C   0  0  0  0  0  0
  -21.6850   -6.0735   22.5283 C   0  0  0  0  0  0
  -21.4006   -6.5641   23.8216 C   0  0  0  0  0  0
  -21.3657   -5.6792   24.9177 C   0  0  0  0  0  0
  -21.6045   -4.3055   24.7225 C   0  0  0  0  0  0
  -21.8823   -3.8150   23.4346 C   0  0  0  0  0  0
  -21.9191   -4.6965   22.3404 C   0  0  0  0  0  0
  -22.7874  -13.5243   21.1838 C   0  0  0  0  0  0
  -22.1664   -4.2154   21.0980 F   0  0  0  0  0  0
  -21.5628   -3.4537   25.7738 F   0  0  0  0  0  0
  -30.0359  -13.3214   20.4575 N   0  0  0  0  0  0
  -26.3037  -12.9284   20.3356 N   0  0  0  0  0  0
  -25.9306  -11.6455   20.5758 N   0  0  0  0  0  0
  -22.0503  -12.8241   22.0392 N   0  0  0  0  0  0
  -25.4361  -15.1849   20.4072 N   0  0  0  0  0  0
  -31.7161  -14.8220   20.0638 O   0  0  0  0  0  0
  -21.6629   -6.8870   21.4243 O   0  0  0  0  0  0
  -22.3565  -14.5555   20.6692 O   0  0  0  0  0  0
  -24.6198  -31.8643   23.2056 C   0  0  0  0  0  0
  -25.9066  -32.4813   23.8357 C   0  0  1  0  0  0
  -27.2340  -27.3788   20.1021 C   0  0  0  0  0  0
  -25.5905  -33.8606   24.2306 N   0  0  0  0  0  0
  -23.4098  -30.4885   21.5470 C   0  0  2  0  0  0
  -24.8570  -28.9479   20.1112 C   0  0  0  0  0  0
  -22.7438  -29.4649   22.4960 C   0  0  0  0  0  0
  -18.0276  -28.1382   22.8508 C   0  0  0  0  0  0
  -24.1484  -36.7290   23.2641 C   0  0  0  0  0  0
  -25.9441  -30.8138   21.3639 C   0  0  0  0  0  0
  -26.0212  -29.4449   20.7091 C   0  0  0  0  0  0
  -27.2117  -28.6711   20.6946 C   0  0  0  0  0  0
  -26.0470  -26.9144   19.4898 C   0  0  0  0  0  0
  -24.8680  -27.6852   19.4962 C   0  0  0  0  0  0
  -23.6208  -29.8213   20.1619 C   0  0  0  0  0  0
  -25.4105  -36.3105   24.0348 C   0  0  1  0  0  0
  -20.5872  -28.3672   23.1314 C   0  0  2  0  0  0
  -20.6762  -26.9394   22.5415 C   0  0  0  0  0  0
  -19.5733  -26.6389   21.5216 C   0  0  0  0  0  0
  -18.1913  -26.7932   22.1633 C   0  0  0  0  0  0
  -19.1525  -28.8841   23.2908 C   0  0  0  0  0  0
  -18.9461  -30.1451   23.8912 C   0  0  0  0  0  0
  -17.6467  -30.6591   24.0574 C   0  0  0  0  0  0
  -25.9046  -34.9473   23.5130 C   0  0  0  0  0  0
  -16.5354  -29.9099   23.6338 C   0  0  0  0  0  0
  -16.7269  -28.6517   23.0356 C   0  0  0  0  0  0
  -26.4469  -31.6596   25.0696 C   0  0  0  0  0  0
  -25.3728  -31.3707   26.1448 C   0  0  0  0  0  0
  -27.0297  -30.3039   24.6064 C   0  0  0  0  0  0
  -27.6038  -32.4316   25.7461 C   0  0  0  0  0  0
  -27.5586  -37.1789   24.8475 C   0  0  0  0  0  0
  -21.4160  -29.3042   22.3712 N   0  0  0  0  0  0
  -26.4292  -37.3794   23.9438 N   0  0  0  0  0  0
  -24.6761  -31.0708   22.0967 N   0  0  0  0  0  0
  -23.4199  -28.8185   23.3004 O   0  0  0  0  0  0
  -28.3887  -26.6008   20.1450 O   0  0  0  0  0  0
  -26.5609  -34.8934   22.4693 O   0  0  0  0  0  0
  -23.5377  -32.1406   23.7430 O   0  0  0  0  0  0
  -30.2890  -17.8904   20.4794 C   0  0  0  0  0  0
  -29.7302  -16.8492   21.3179 C   0  0  0  0  0  0
  -29.7818  -19.1635   20.7694 C   0  0  0  0  0  0
  -28.8265  -17.3586   22.2040 C   0  0  0  0  0  0
  -29.4688  -24.3513   20.4935 C   0  0  0  0  0  0
  -28.2628  -25.1601   19.9273 C   0  0  0  0  0  0
  -29.3171  -21.6644   20.5067 C   0  0  0  0  0  0
  -29.8910  -22.9741   19.8470 C   0  0  2  0  0  0
  -29.9177  -15.4198   21.3301 N   0  0  0  0  0  0
  -30.0541  -20.4134   20.1432 N   0  0  0  0  0  0
  -31.3524  -22.9165   19.9948 N   0  3  0  0  0  0
  -30.1027  -24.8224   21.4476 O   0  0  0  0  0  0
  -28.1262  -16.5998   23.0823 F   0  0  0  0  0  0
  -28.6216  -19.0780   22.0898 S   0  0  0  0  0  0
  -31.4855  -12.5073   19.1142 H   0  0  0  0  0  0
  -30.4036  -11.3406   19.8176 H   0  0  0  0  0  0
  -29.7521  -11.7811   17.4427 H   0  0  0  0  0  0
  -29.6493  -13.4946   17.7556 H   0  0  0  0  0  0
  -27.8516  -11.2984   18.8332 H   0  0  0  0  0  0
  -27.3675  -12.6098   17.7933 H   0  0  0  0  0  0
  -27.7119  -14.2469   19.5807 H   0  0  0  0  0  0
  -28.7041  -11.9126   21.2886 H   0  0  0  0  0  0
  -28.4369  -13.5064   21.8994 H   0  0  0  0  0  0
  -25.2746   -9.5686   22.4765 H   0  0  0  0  0  0
  -24.0000   -7.4629   22.7474 H   0  0  0  0  0  0
  -21.0834   -8.8761   19.8950 H   0  0  0  0  0  0
  -22.3686  -10.9665   19.6167 H   0  0  0  0  0  0
  -21.1994   -7.6148   23.9723 H   0  0  0  0  0  0
  -21.1474   -6.0517   25.9079 H   0  0  0  0  0  0
  -22.0603   -2.7613   23.2843 H   0  0  0  0  0  0
  -22.4091  -11.9881   22.4768 H   0  0  0  0  0  0
  -21.1126  -13.1284   22.2588 H   0  0  0  0  0  0
  -24.6777  -15.8463   20.5294 H   0  0  0  0  0  0
  -26.2958  -15.6214   20.1012 H   0  0  0  0  0  0
  -26.7123  -32.5511   23.1100 H   0  0  0  0  0  0
  -25.0057  -33.9754   25.0449 H   0  0  0  0  0  0
  -22.7004  -31.3061   21.4062 H   0  0  0  0  0  0
  -23.3769  -35.9604   23.3310 H   0  0  0  0  0  0
  -24.3567  -36.8886   22.2050 H   0  0  0  0  0  0
  -23.7212  -37.6487   23.6644 H   0  0  0  0  0  0
  -26.0609  -31.5760   20.5931 H   0  0  0  0  0  0
  -26.8303  -30.8675   21.9844 H   0  0  0  0  0  0
  -28.1094  -29.0514   21.1604 H   0  0  0  0  0  0
  -26.0061  -25.9504   19.0040 H   0  0  0  0  0  0
  -23.9741  -27.2987   19.0272 H   0  0  0  0  0  0
  -23.7288  -30.5979   19.4038 H   0  0  0  0  0  0
  -22.7432  -29.2447   19.8668 H   0  0  0  0  0  0
  -25.1267  -36.1948   25.0835 H   0  0  0  0  0  0
  -20.9960  -28.3230   24.1437 H   0  0  0  0  0  0
  -20.5654  -26.2267   23.3600 H   0  0  0  0  0  0
  -21.6634  -26.7421   22.1203 H   0  0  0  0  0  0
  -19.6892  -25.6312   21.1226 H   0  0  0  0  0  0
  -19.6692  -27.3227   20.6769 H   0  0  0  0  0  0
  -17.4184  -26.6701   21.4039 H   0  0  0  0  0  0
  -18.0310  -26.0065   22.9011 H   0  0  0  0  0  0
  -19.7943  -30.7268   24.2274 H   0  0  0  0  0  0
  -17.5033  -31.6270   24.5178 H   0  0  0  0  0  0
  -15.5360  -30.3017   23.7661 H   0  0  0  0  0  0
  -15.8664  -28.0854   22.7066 H   0  0  0  0  0  0
  -24.5925  -30.7012   25.7803 H   0  0  0  0  0  0
  -24.8880  -32.2855   26.4871 H   0  0  0  0  0  0
  -25.8076  -30.8913   27.0226 H   0  0  0  0  0  0
  -26.2825  -29.6808   24.1139 H   0  0  0  0  0  0
  -27.4104  -29.7269   25.4505 H   0  0  0  0  0  0
  -27.8649  -30.4382   23.9188 H   0  0  0  0  0  0
  -27.2660  -33.3634   26.2019 H   0  0  0  0  0  0
  -28.3853  -32.6846   25.0278 H   0  0  0  0  0  0
  -28.0699  -31.8442   26.5387 H   0  0  0  0  0  0
  -28.2584  -38.0106   24.7544 H   0  0  0  0  0  0
  -28.1083  -36.2632   24.6248 H   0  0  0  0  0  0
  -27.2304  -37.1366   25.8876 H   0  0  0  0  0  0
  -20.9312  -29.8766   21.6944 H   0  0  0  0  0  0
  -26.0178  -38.2862   24.1468 H   0  0  0  0  0  0
  -31.0120  -17.6758   19.7055 H   0  0  0  0  0  0
  -27.3661  -24.7925   20.4270 H   0  0  0  0  0  0
  -28.1575  -24.9552   18.8617 H   0  0  0  0  0  0
  -28.2637  -21.5563   20.2391 H   0  0  0  0  0  0
  -29.3410  -21.7816   21.5917 H   0  0  0  0  0  0
  -29.6499  -22.9760   18.7838 H   0  0  0  0  0  0
  -29.2046  -14.9542   21.8717 H   0  0  0  0  0  0
  -30.2933  -20.3185   19.1563 H   0  0  0  0  0  0
  -31.5750  -23.2444   20.9188 H   0  0  0  0  0  0
  -31.8148  -23.5013   19.3232 H   0  0  0  0  0  0
  -31.6384  -21.9577   19.9005 H   0  0  0  0  0  0
  1 25  1  0  0  0
  1 30  2  0  0  0
  1 79  1  0  0  0
  2  3  1  0  0  0
  2 25  1  0  0  0
  2 85  1  0  0  0
  2 86  1  0  0  0
  3  4  1  0  0  0
  3 87  1  0  0  0
  3 88  1  0  0  0
  4  5  1  0  0  0
  4 89  1  0  0  0
  4 90  1  0  0  0
  5  6  1  0  0  0
  5 26  1  0  0  0
  5 91  1  0  0  0
  6 25  1  0  0  0
  6 92  1  0  0  0
  6 93  1  0  0  0
  7  8  2  0  0  0
  7 26  1  0  0  0
  7 29  1  0  0  0
  8  9  1  0  0  0
  8 22  1  0  0  0
  9 10  1  0  0  0
  9 27  2  0  0  0
 10 11  2  0  0  0
 10 15  1  0  0  0
 11 12  1  0  0  0
 11 94  1  0  0  0
 12 13  2  0  0  0
 12 95  1  0  0  0
 13 14  1  0  0  0
 13 31  1  0  0  0
 14 15  2  0  0  0
 14 96  1  0  0  0
 15 97  1  0  0  0
 16 17  2  0  0  0
 16 21  1  0  0  0
 16 31  1  0  0  0
 17 18  1  0  0  0
 17 98  1  0  0  0
 18 19  2  0  0  0
 18 99  1  0  0  0
 19 20  1  0  0  0
 19 24  1  0  0  0
 20 21  2  0  0  0
 20100  1  0  0  0
 21 23  1  0  0  0
 22 28  1  0  0  0
 22 32  2  0  0  0
 26 27  1  0  0  0
 28101  1  0  0  0
 28102  1  0  0  0
 29103  1  0  0  0
 29104  1  0  0  0
 33 34  1  0  0  0
 33 66  1  0  0  0
 33 70  2  0  0  0
 34 36  1  0  0  0
 34 59  1  0  0  0
 34105  1  0  0  0
 35 44  2  0  0  0
 35 45  1  0  0  0
 35 68  1  0  0  0
 36 56  1  0  0  0
 36106  1  0  0  0
 37 39  1  0  0  0
 37 47  1  0  0  0
 37 66  1  0  0  0
 37107  1  0  0  0
 38 43  2  0  0  0
 38 46  1  0  0  0
 38 47  1  0  0  0
 39 64  1  0  0  0
 39 67  2  0  0  0
 40 52  1  0  0  0
 40 53  2  0  0  0
 40 58  1  0  0  0
 41108  1  0  0  0
 41109  1  0  0  0
 41110  1  0  0  0
 41 48  1  0  0  0
 42 43  1  0  0  0
 42 66  1  0  0  0
 42111  1  0  0  0
 42112  1  0  0  0
 43 44  1  0  0  0
 44113  1  0  0  0
 45 46  2  0  0  0
 45114  1  0  0  0
 46115  1  0  0  0
 47116  1  0  0  0
 47117  1  0  0  0
 48 56  1  0  0  0
 48 65  1  0  0  0
 48118  1  0  0  0
 49 50  1  0  0  0
 49 53  1  0  0  0
 49 64  1  0  0  0
 49119  1  0  0  0
 50 51  1  0  0  0
 50120  1  0  0  0
 50121  1  0  0  0
 51 52  1  0  0  0
 51122  1  0  0  0
 51123  1  0  0  0
 52124  1  0  0  0
 52125  1  0  0  0
 53 54  1  0  0  0
 54 55  2  0  0  0
 54126  1  0  0  0
 55 57  1  0  0  0
 55127  1  0  0  0
 56 69  2  0  0  0
 57 58  2  0  0  0
 57128  1  0  0  0
 58129  1  0  0  0
 59 60  1  0  0  0
 59 61  1  0  0  0
 59 62  1  0  0  0
 60130  1  0  0  0
 60131  1  0  0  0
 60132  1  0  0  0
 61133  1  0  0  0
 61134  1  0  0  0
 61135  1  0  0  0
 62136  1  0  0  0
 62137  1  0  0  0
 62138  1  0  0  0
 63 65  1  0  0  0
 63139  1  0  0  0
 63140  1  0  0  0
 63141  1  0  0  0
 64142  1  0  0  0
 65143  1  0  0  0
 68 76  1  0  0  0
 71 72  1  0  0  0
 71 73  2  0  0  0
 71144  1  0  0  0
 72 74  2  0  0  0
 72 79  1  0  0  0
 73 80  1  0  0  0
 73 84  1  0  0  0
 74 83  1  0  0  0
 74 84  1  0  0  0
 75 76  1  0  0  0
 75 78  1  0  0  0
 75 82  2  0  0  0
 76145  1  0  0  0
 76146  1  0  0  0
 77 78  1  0  0  0
 77 80  1  0  0  0
 77147  1  0  0  0
 77148  1  0  0  0
 78 81  1  0  0  0
 78149  1  0  0  0
 79150  1  0  0  0
 80151  1  0  0  0
 81152  1  0  0  0
 81153  1  0  0  0
 81154  1  0  0  0
M  CHG  1  81   1
M  ISO  4   1 100  68 101  76 101  79 100
M  END
> <chiral flag>
0

> <version>
0

> <s_m_source_file>
/data/baiqing/PycharmProjects/Reinvent-master-3.2/result/LINK_invent/BTK/process_docking_weight1_custom_product_contain_oxygen_bond_distance_aromatic_linkinvent_7_9_3/rearranged_h_0153.sdf

> <i_m_source_file_index>
69

> <r_mmod_Potential_Energy-OPLS-2005>
-304.512542724609

> <r_mmod_Stretch_Energy-OPLS-2005>
58.0344161987305

> <r_mmod_Bend_Energy-OPLS-2005>
139.554840087891

> <r_mmod_Torsional_Energy-OPLS-2005>
237.129196166992

> <r_mmod_Improper_Torsional_Energy-OPLS-2005>
5.76354646682739

> <r_mmod_Van_der_Waal_Energy-OPLS-2005>
133.15869140625

> <r_mmod_Electrostatic_Energy-OPLS-2005>
-388.503265380859

> <r_mmod_Solvation_Energy-OPLS-2005>
-514.9296875

> <b_mmod_Minimization_Converged-OPLS-2005>
0

> <r_mmod_RMS_Derivative-OPLS-2005>
1.92950165271759

$$$$
69
                    3D
 Structure written by MMmdl.
160169  0  0  1  0            999 V2000
  -30.6589  -14.4436   20.5612 C   0  0  0  0  0  0
  -30.4396  -12.2836   19.4155 C   0  0  0  0  0  0
  -29.5050  -12.5012   18.2046 C   0  0  0  0  0  0
  -28.0203  -12.3695   18.6084 C   0  0  0  0  0  0
  -27.6681  -13.1924   19.8786 C   0  0  2  0  0  0
  -28.7056  -12.9131   20.9906 C   0  0  0  0  0  0
  -25.2625  -13.8138   20.5636 C   0  0  0  0  0  0
  -24.1848  -13.0432   20.9136 C   0  0  0  0  0  0
  -24.6380  -11.6899   20.8703 C   0  0  0  0  0  0
  -23.9035  -10.4299   21.0413 C   0  0  0  0  0  0
  -24.3578   -9.4201   21.9184 C   0  0  0  0  0  0
  -23.6265   -8.2227   22.0748 C   0  0  0  0  0  0
  -22.4250   -8.0268   21.3544 C   0  0  0  0  0  0
  -21.9881   -9.0238   20.4644 C   0  0  0  0  0  0
  -22.7204  -10.2130   20.3056 C   0  0  0  0  0  0
  -21.6844   -6.0724   22.5286 C   0  0  0  0  0  0
  -21.4011   -6.5632   23.8221 C   0  0  0  0  0  0
  -21.3659   -5.6782   24.9182 C   0  0  0  0  0  0
  -21.6044   -4.3048   24.7231 C   0  0  0  0  0  0
  -21.8818   -3.8139   23.4354 C   0  0  0  0  0  0
  -21.9193   -4.6953   22.3414 C   0  0  0  0  0  0
  -22.7887  -13.5268   21.1830 C   0  0  0  0  0  0
  -22.1670   -4.2143   21.0988 F   0  0  0  0  0  0
  -21.5622   -3.4534   25.7742 F   0  0  0  0  0  0
  -30.0429  -13.2382   20.4603 N   0  0  0  0  0  0
  -26.3047  -12.9268   20.3328 N   0  0  0  0  0  0
  -25.9293  -11.6451   20.5710 N   0  0  0  0  0  0
  -22.0496  -12.8270   22.0385 N   0  0  0  0  0  0
  -25.4373  -15.1841   20.4028 N   0  0  0  0  0  0
  -31.7607  -14.6909   20.0552 O   0  0  0  0  0  0
  -21.6618   -6.8860   21.4245 O   0  0  0  0  0  0
  -22.3589  -14.5594   20.6709 O   0  0  0  0  0  0
  -24.6147  -31.8667   23.2087 C   0  0  0  0  0  0
  -25.9037  -32.4806   23.8377 C   0  0  1  0  0  0
  -27.2351  -27.4414   20.1039 C   0  0  0  0  0  0
  -25.5916  -33.8603   24.2313 N   0  0  0  0  0  0
  -23.4008  -30.4898   21.5466 C   0  0  2  0  0  0
  -24.8489  -28.9521   20.1187 C   0  0  0  0  0  0
  -22.7380  -29.4658   22.4972 C   0  0  0  0  0  0
  -18.0206  -28.1369   22.8467 C   0  0  0  0  0  0
  -24.1492  -36.7314   23.2637 C   0  0  0  0  0  0
  -25.9293  -30.8356   21.3612 C   0  0  0  0  0  0
  -26.0073  -29.4707   20.7101 C   0  0  0  0  0  0
  -27.2043  -28.7230   20.6962 C   0  0  0  0  0  0
  -26.0585  -26.9283   19.5176 C   0  0  0  0  0  0
  -24.8690  -27.6804   19.5192 C   0  0  0  0  0  0
  -23.6118  -29.8185   20.1624 C   0  0  0  0  0  0
  -25.4111  -36.3102   24.0331 C   0  0  1  0  0  0
  -20.5807  -28.3668   23.1281 C   0  0  2  0  0  0
  -20.6737  -26.9423   22.5342 C   0  0  0  0  0  0
  -19.5657  -26.6253   21.5236 C   0  0  0  0  0  0
  -18.1819  -26.7939   22.1547 C   0  0  0  0  0  0
  -19.1456  -28.8818   23.2880 C   0  0  0  0  0  0
  -18.9383  -30.1404   23.8921 C   0  0  0  0  0  0
  -17.6393  -30.6570   24.0582 C   0  0  0  0  0  0
  -25.9040  -34.9465   23.5107 C   0  0  0  0  0  0
  -16.5277  -29.9093   23.6297 C   0  0  0  0  0  0
  -16.7198  -28.6524   23.0295 C   0  0  0  0  0  0
  -26.4478  -31.6592   25.0701 C   0  0  0  0  0  0
  -25.3739  -31.3717   26.1445 C   0  0  0  0  0  0
  -27.0323  -30.3036   24.6094 C   0  0  0  0  0  0
  -27.6035  -32.4323   25.7471 C   0  0  0  0  0  0
  -27.5578  -37.1820   24.8471 C   0  0  0  0  0  0
  -21.4100  -29.3063   22.3733 N   0  0  0  0  0  0
  -26.4294  -37.3796   23.9408 N   0  0  0  0  0  0
  -24.6649  -31.0786   22.0970 N   0  0  0  0  0  0
  -23.4165  -28.8182   23.2987 O   0  0  0  0  0  0
  -28.4243  -26.7287   20.0964 O   0  0  0  0  0  0
  -26.5590  -34.8912   22.4666 O   0  0  0  0  0  0
  -23.5337  -32.1391   23.7502 O   0  0  0  0  0  0
  -28.7885  -17.6131   21.2856 C   0  0  0  0  0  0
  -29.5892  -16.9062   19.1957 C   0  0  0  0  0  0
  -29.4887  -16.6174   20.5355 C   0  0  0  0  0  0
  -28.3258  -18.6496   20.5044 C   0  0  0  0  0  0
  -27.4485  -19.7425   20.9135 C   0  0  0  0  0  0
  -26.9000  -23.3908   21.0962 C   0  0  0  0  0  0
  -29.0889  -22.9452   20.0096 C   0  0  0  0  0  0
  -26.4067  -21.9978   20.6560 C   0  0  0  0  0  0
  -28.6003  -21.5432   19.5833 C   0  0  0  0  0  0
  -27.9526  -23.9829   20.1287 C   0  0  0  0  0  0
  -28.5361  -25.3671   20.6057 C   0  0  0  0  0  0
  -27.5217  -21.0350   20.4607 N   0  0  0  0  0  0
  -29.9191  -15.4019   21.1474 N   0  0  0  0  0  0
  -26.4929  -19.4060   21.7977 N   0  3  0  0  0  0
  -27.3688  -24.0750   18.9293 F   0  0  0  0  0  0
  -28.7642  -18.3980   18.8221 S   0  0  0  0  0  0
  -31.4816  -12.4078   19.1139 H   0  0  0  0  0  0
  -30.3611  -11.2609   19.7884 H   0  0  0  0  0  0
  -29.7452  -11.7874   17.4147 H   0  0  0  0  0  0
  -29.6791  -13.4933   17.7840 H   0  0  0  0  0  0
  -27.8223  -11.3121   18.7886 H   0  0  0  0  0  0
  -27.3777  -12.6616   17.7752 H   0  0  0  0  0  0
  -27.7275  -14.2467   19.6081 H   0  0  0  0  0  0
  -28.6723  -11.8555   21.2605 H   0  0  0  0  0  0
  -28.4665  -13.4526   21.9063 H   0  0  0  0  0  0
  -25.2723   -9.5674   22.4760 H   0  0  0  0  0  0
  -23.9979   -7.4614   22.7460 H   0  0  0  0  0  0
  -21.0816   -8.8747   19.8959 H   0  0  0  0  0  0
  -22.3654  -10.9650   19.6159 H   0  0  0  0  0  0
  -21.2004   -7.6139   23.9735 H   0  0  0  0  0  0
  -21.1482   -6.0503   25.9089 H   0  0  0  0  0  0
  -22.0602   -2.7602   23.2848 H   0  0  0  0  0  0
  -22.4058  -11.9913   22.4771 H   0  0  0  0  0  0
  -21.1117  -13.1335   22.2589 H   0  0  0  0  0  0
  -24.6678  -15.8377   20.4945 H   0  0  0  0  0  0
  -26.2864  -15.6181   20.0641 H   0  0  0  0  0  0
  -26.7086  -32.5519   23.1121 H   0  0  0  0  0  0
  -25.0105  -33.9755   25.0481 H   0  0  0  0  0  0
  -22.6880  -31.3045   21.4020 H   0  0  0  0  0  0
  -23.3743  -35.9666   23.3326 H   0  0  0  0  0  0
  -24.3584  -36.8906   22.2053 H   0  0  0  0  0  0
  -23.7259  -37.6527   23.6633 H   0  0  0  0  0  0
  -26.0395  -31.5994   20.5904 H   0  0  0  0  0  0
  -26.8183  -30.8891   21.9790 H   0  0  0  0  0  0
  -28.1004  -29.1172   21.1553 H   0  0  0  0  0  0
  -26.0504  -25.9572   19.0525 H   0  0  0  0  0  0
  -23.9786  -27.2715   19.0606 H   0  0  0  0  0  0
  -23.7238  -30.5896   19.3986 H   0  0  0  0  0  0
  -22.7396  -29.2345   19.8634 H   0  0  0  0  0  0
  -25.1294  -36.1959   25.0826 H   0  0  0  0  0  0
  -20.9881  -28.3258   24.1418 H   0  0  0  0  0  0
  -20.5870  -26.2283   23.3544 H   0  0  0  0  0  0
  -21.6552  -26.7607   22.0965 H   0  0  0  0  0  0
  -19.6755  -25.6060   21.1496 H   0  0  0  0  0  0
  -19.6593  -27.2853   20.6610 H   0  0  0  0  0  0
  -17.4149  -26.6863   21.3855 H   0  0  0  0  0  0
  -18.0019  -26.0006   22.8801 H   0  0  0  0  0  0
  -19.7878  -30.7202   24.2292 H   0  0  0  0  0  0
  -17.4930  -31.6253   24.5169 H   0  0  0  0  0  0
  -15.5275  -30.3019   23.7577 H   0  0  0  0  0  0
  -15.8565  -28.0918   22.6942 H   0  0  0  0  0  0
  -24.5878  -30.7103   25.7781 H   0  0  0  0  0  0
  -24.8971  -32.2894   26.4908 H   0  0  0  0  0  0
  -25.8086  -30.8856   27.0187 H   0  0  0  0  0  0
  -26.2874  -29.6763   24.1180 H   0  0  0  0  0  0
  -27.4132  -29.7304   25.4562 H   0  0  0  0  0  0
  -27.8685  -30.4364   23.9217 H   0  0  0  0  0  0
  -27.2630  -33.3597   26.2094 H   0  0  0  0  0  0
  -28.3832  -32.6939   25.0299 H   0  0  0  0  0  0
  -28.0715  -31.8418   26.5361 H   0  0  0  0  0  0
  -28.2616  -38.0098   24.7490 H   0  0  0  0  0  0
  -28.1046  -36.2624   24.6328 H   0  0  0  0  0  0
  -27.2281  -37.1513   25.8870 H   0  0  0  0  0  0
  -20.9239  -29.8840   21.7009 H   0  0  0  0  0  0
  -26.0173  -38.2865   24.1417 H   0  0  0  0  0  0
  -28.6152  -17.5145   22.3485 H   0  0  0  0  0  0
  -30.0418  -16.3359   18.3936 H   0  0  0  0  0  0
  -27.3113  -23.3240   22.1046 H   0  0  0  0  0  0
  -26.0392  -24.0605   21.1562 H   0  0  0  0  0  0
  -29.8321  -23.2942   19.2918 H   0  0  0  0  0  0
  -29.6099  -22.8659   20.9645 H   0  0  0  0  0  0
  -25.8793  -22.0863   19.7070 H   0  0  0  0  0  0
  -25.6662  -21.6469   21.3732 H   0  0  0  0  0  0
  -29.4567  -20.8751   19.6090 H   0  0  0  0  0  0
  -28.2315  -21.5618   18.5582 H   0  0  0  0  0  0
  -27.6790  -25.5979   21.2329 H   0  0  0  0  0  0
  -28.8468  -25.4726   19.5646 H   0  0  0  0  0  0
  -29.2829  -15.0520   21.8500 H   0  0  0  0  0  0
  -26.4305  -18.4627   22.1487 H   0  0  0  0  0  0
  -25.8375  -20.0812   22.1584 H   0  0  0  0  0  0
  1 25  1  0  0  0
  1 30  2  0  0  0
  1 83  1  0  0  0
  2  3  1  0  0  0
  2 25  1  0  0  0
  2 87  1  0  0  0
  2 88  1  0  0  0
  3  4  1  0  0  0
  3 89  1  0  0  0
  3 90  1  0  0  0
  4  5  1  0  0  0
  4 91  1  0  0  0
  4 92  1  0  0  0
  5  6  1  0  0  0
  5 26  1  0  0  0
  5 93  1  0  0  0
  6 25  1  0  0  0
  6 94  1  0  0  0
  6 95  1  0  0  0
  7  8  2  0  0  0
  7 26  1  0  0  0
  7 29  1  0  0  0
  8  9  1  0  0  0
  8 22  1  0  0  0
  9 10  1  0  0  0
  9 27  2  0  0  0
 10 11  2  0  0  0
 10 15  1  0  0  0
 11 12  1  0  0  0
 11 96  1  0  0  0
 12 13  2  0  0  0
 12 97  1  0  0  0
 13 14  1  0  0  0
 13 31  1  0  0  0
 14 15  2  0  0  0
 14 98  1  0  0  0
 15 99  1  0  0  0
 16 17  2  0  0  0
 16 21  1  0  0  0
 16 31  1  0  0  0
 17 18  1  0  0  0
 17100  1  0  0  0
 18 19  2  0  0  0
 18101  1  0  0  0
 19 20  1  0  0  0
 19 24  1  0  0  0
 20 21  2  0  0  0
 20102  1  0  0  0
 21 23  1  0  0  0
 22 28  1  0  0  0
 22 32  2  0  0  0
 26 27  1  0  0  0
 28103  1  0  0  0
 28104  1  0  0  0
 29105  1  0  0  0
 29106  1  0  0  0
 33 34  1  0  0  0
 33 66  1  0  0  0
 33 70  2  0  0  0
 34 36  1  0  0  0
 34 59  1  0  0  0
 34107  1  0  0  0
 35 44  2  0  0  0
 35 45  1  0  0  0
 35 68  1  0  0  0
 36 56  1  0  0  0
 36108  1  0  0  0
 37 39  1  0  0  0
 37 47  1  0  0  0
 37 66  1  0  0  0
 37109  1  0  0  0
 38 43  2  0  0  0
 38 46  1  0  0  0
 38 47  1  0  0  0
 39 64  1  0  0  0
 39 67  2  0  0  0
 40 52  1  0  0  0
 40 53  2  0  0  0
 40 58  1  0  0  0
 41110  1  0  0  0
 41111  1  0  0  0
 41112  1  0  0  0
 41 48  1  0  0  0
 42 43  1  0  0  0
 42 66  1  0  0  0
 42113  1  0  0  0
 42114  1  0  0  0
 43 44  1  0  0  0
 44115  1  0  0  0
 45 46  2  0  0  0
 45116  1  0  0  0
 46117  1  0  0  0
 47118  1  0  0  0
 47119  1  0  0  0
 48 56  1  0  0  0
 48 65  1  0  0  0
 48120  1  0  0  0
 49 50  1  0  0  0
 49 53  1  0  0  0
 49 64  1  0  0  0
 49121  1  0  0  0
 50 51  1  0  0  0
 50122  1  0  0  0
 50123  1  0  0  0
 51 52  1  0  0  0
 51124  1  0  0  0
 51125  1  0  0  0
 52126  1  0  0  0
 52127  1  0  0  0
 53 54  1  0  0  0
 54 55  2  0  0  0
 54128  1  0  0  0
 55 57  1  0  0  0
 55129  1  0  0  0
 56 69  2  0  0  0
 57 58  2  0  0  0
 57130  1  0  0  0
 58131  1  0  0  0
 59 60  1  0  0  0
 59 61  1  0  0  0
 59 62  1  0  0  0
 60132  1  0  0  0
 60133  1  0  0  0
 60134  1  0  0  0
 61135  1  0  0  0
 61136  1  0  0  0
 61137  1  0  0  0
 62138  1  0  0  0
 62139  1  0  0  0
 62140  1  0  0  0
 63 65  1  0  0  0
 63141  1  0  0  0
 63142  1  0  0  0
 63143  1  0  0  0
 64144  1  0  0  0
 65145  1  0  0  0
 68 81  1  0  0  0
 71 73  1  0  0  0
 71 74  2  0  0  0
 71146  1  0  0  0
 72 73  2  0  0  0
 72 86  1  0  0  0
 72147  1  0  0  0
 73 83  1  0  0  0
 74 75  1  0  0  0
 74 86  1  0  0  0
 75 82  1  0  0  0
 75 84  2  0  0  0
 76 78  1  0  0  0
 76 80  1  0  0  0
 76148  1  0  0  0
 76149  1  0  0  0
 77 79  1  0  0  0
 77 80  1  0  0  0
 77150  1  0  0  0
 77151  1  0  0  0
 78 82  1  0  0  0
 78152  1  0  0  0
 78153  1  0  0  0
 79 82  1  0  0  0
 79154  1  0  0  0
 79155  1  0  0  0
 80 81  1  0  0  0
 80 85  1  0  0  0
 81156  1  0  0  0
 81157  1  0  0  0
 83158  1  0  0  0
 84159  1  0  0  0
 84160  1  0  0  0
M  CHG  1  84   1
M  ISO  4   1 100  68 101  81 101  83 100
M  END
> <chiral flag>
0

> <version>
0

> <s_m_source_file>
/data/baiqing/PycharmProjects/Reinvent-master-3.2/result/LINK_invent/BTK/process_docking_weight1_custom_product_contain_oxygen_bond_distance_aromatic_linkinvent_7_9_3/rearranged_h_0153.sdf

> <i_m_source_file_index>
70

> <r_mmod_Potential_Energy-OPLS-2005>
174.612411499023

> <r_mmod_Stretch_Energy-OPLS-2005>
42.3347473144531

> <r_mmod_Bend_Energy-OPLS-2005>
347.150299072266

> <r_mmod_Torsional_Energy-OPLS-2005>
298.895202636719

> <r_mmod_Improper_Torsional_Energy-OPLS-2005>
6.67865705490112

> <r_mmod_Van_der_Waal_Energy-OPLS-2005>
161.82698059082

> <r_mmod_Electrostatic_Energy-OPLS-2005>
-240.323776245117

> <r_mmod_Solvation_Energy-OPLS-2005>
-453.270751953125

> <b_mmod_Minimization_Converged-OPLS-2005>
0

> <r_mmod_RMS_Derivative-OPLS-2005>
3.7488899230957

$$$$
70
                    3D
 Structure written by MMmdl.
160169  0  0  1  0            999 V2000
  -30.5332  -14.7888   20.4822 C   0  0  0  0  0  0
  -30.4609  -12.4884   19.4639 C   0  0  0  0  0  0
  -29.5201  -12.5255   18.2351 C   0  0  0  0  0  0
  -28.0457  -12.3335   18.6486 C   0  0  0  0  0  0
  -27.6494  -13.2190   19.8584 C   0  0  2  0  0  0
  -28.6975  -13.1117   20.9888 C   0  0  0  0  0  0
  -25.2557  -13.8160   20.5689 C   0  0  0  0  0  0
  -24.1828  -13.0426   20.9202 C   0  0  0  0  0  0
  -24.6398  -11.6898   20.8742 C   0  0  0  0  0  0
  -23.9064  -10.4285   21.0406 C   0  0  0  0  0  0
  -24.3615   -9.4200   21.9183 C   0  0  0  0  0  0
  -23.6291   -8.2239   22.0751 C   0  0  0  0  0  0
  -22.4273   -8.0278   21.3544 C   0  0  0  0  0  0
  -21.9910   -9.0249   20.4643 C   0  0  0  0  0  0
  -22.7236  -10.2129   20.3054 C   0  0  0  0  0  0
  -21.6850   -6.0735   22.5278 C   0  0  0  0  0  0
  -21.4010   -6.5638   23.8211 C   0  0  0  0  0  0
  -21.3660   -5.6791   24.9172 C   0  0  0  0  0  0
  -21.6046   -4.3055   24.7225 C   0  0  0  0  0  0
  -21.8819   -3.8146   23.4345 C   0  0  0  0  0  0
  -21.9192   -4.6963   22.3401 C   0  0  0  0  0  0
  -22.7850  -13.5224   21.1865 C   0  0  0  0  0  0
  -22.1661   -4.2147   21.0979 F   0  0  0  0  0  0
  -21.5632   -3.4538   25.7739 F   0  0  0  0  0  0
  -29.9962  -13.5169   20.4228 N   0  0  0  0  0  0
  -26.2976  -12.9338   20.3297 N   0  0  0  0  0  0
  -25.9328  -11.6494   20.5745 N   0  0  0  0  0  0
  -22.0491  -12.8213   22.0415 N   0  0  0  0  0  0
  -25.4261  -15.1888   20.4109 N   0  0  0  0  0  0
  -31.6977  -14.9924   20.1203 O   0  0  0  0  0  0
  -21.6637   -6.8875   21.4239 O   0  0  0  0  0  0
  -22.3537  -14.5531   20.6711 O   0  0  0  0  0  0
  -24.6353  -31.8525   23.1962 C   0  0  0  0  0  0
  -25.9161  -32.4743   23.8315 C   0  0  1  0  0  0
  -27.2200  -27.2290   20.1285 C   0  0  0  0  0  0
  -25.5937  -33.8546   24.2234 N   0  0  0  0  0  0
  -23.4336  -30.4765   21.5410 C   0  0  2  0  0  0
  -24.8804  -28.9210   20.1132 C   0  0  0  0  0  0
  -22.7529  -29.4596   22.4897 C   0  0  0  0  0  0
  -18.0299  -28.1393   22.8487 C   0  0  0  0  0  0
  -24.1491  -36.7274   23.2642 C   0  0  0  0  0  0
  -25.9841  -30.7569   21.3806 C   0  0  0  0  0  0
  -26.0565  -29.3768   20.7216 C   0  0  0  0  0  0
  -27.2286  -28.5459   20.7150 C   0  0  0  0  0  0
  -26.0123  -26.8529   19.4936 C   0  0  0  0  0  0
  -24.8656  -27.6681   19.4879 C   0  0  0  0  0  0
  -23.6542  -29.8124   20.1579 C   0  0  0  0  0  0
  -25.4114  -36.3060   24.0329 C   0  0  1  0  0  0
  -20.5908  -28.3710   23.1256 C   0  0  2  0  0  0
  -20.6788  -26.9424   22.5400 C   0  0  0  0  0  0
  -19.5759  -26.6383   21.5212 C   0  0  0  0  0  0
  -18.1939  -26.7936   22.1626 C   0  0  0  0  0  0
  -19.1554  -28.8868   23.2868 C   0  0  0  0  0  0
  -18.9476  -30.1466   23.8892 C   0  0  0  0  0  0
  -17.6475  -30.6594   24.0565 C   0  0  0  0  0  0
  -25.9057  -34.9434   23.5085 C   0  0  0  0  0  0
  -16.5364  -29.9092   23.6338 C   0  0  0  0  0  0
  -16.7285  -28.6511   23.0356 C   0  0  0  0  0  0
  -26.4502  -31.6582   25.0725 C   0  0  0  0  0  0
  -25.3704  -31.3758   26.1434 C   0  0  0  0  0  0
  -27.0348  -30.2991   24.6235 C   0  0  0  0  0  0
  -27.6054  -32.4323   25.7507 C   0  0  0  0  0  0
  -27.5577  -37.1789   24.8465 C   0  0  0  0  0  0
  -21.4231  -29.3057   22.3647 N   0  0  0  0  0  0
  -26.4282  -37.3763   23.9417 N   0  0  0  0  0  0
  -24.7041  -31.0466   22.0955 N   0  0  0  0  0  0
  -23.4219  -28.8130   23.3002 O   0  0  0  0  0  0
  -28.3087  -26.3099   20.1782 O   0  0  0  0  0  0
  -26.5633  -34.8923   22.4659 O   0  0  0  0  0  0
  -23.5489  -32.1358   23.7231 O   0  0  0  0  0  0
  -29.9528  -18.4115   20.4032 C   0  0  0  0  0  0
  -29.2575  -19.6679   20.8370 C   0  0  0  0  0  0
  -28.2630  -19.3386   21.7355 C   0  0  0  0  0  0
  -29.4610  -17.1868   20.9315 C   0  0  0  0  0  0
  -27.3657  -20.2132   22.4885 C   0  0  0  0  0  0
  -29.8665  -23.3498   21.4258 C   0  0  0  0  0  0
  -30.3566  -21.8629   21.4316 C   0  0  0  0  0  0
  -28.6556  -22.0925   19.8436 C   0  0  0  0  0  0
  -29.1461  -23.6111   20.0921 C   0  0  1  0  0  0
  -31.2094  -23.3153   18.7482 C   0  0  0  0  0  0
  -28.0332  -24.8162   20.0804 C   0  0  0  0  0  0
  -26.4419  -19.8397   23.2720 N   0  0  0  0  0  0
  -29.5824  -21.0695   20.4658 N   0  0  0  0  0  0
  -29.6206  -15.7848   20.8095 N   0  0  0  0  0  0
  -30.0168  -24.0394   19.0313 O   0  0  0  0  0  0
  -28.1343  -17.6081   21.9873 S   0  0  0  0  0  0
  -31.4921  -12.6650   19.1535 H   0  0  0  0  0  0
  -30.4530  -11.5018   19.9297 H   0  0  0  0  0  0
  -29.8089  -11.7579   17.5160 H   0  0  0  0  0  0
  -29.6306  -13.4811   17.7202 H   0  0  0  0  0  0
  -27.9079  -11.2816   18.9019 H   0  0  0  0  0  0
  -27.3864  -12.5301   17.8024 H   0  0  0  0  0  0
  -27.6501  -14.2458   19.4929 H   0  0  0  0  0  0
  -28.7495  -12.0899   21.3677 H   0  0  0  0  0  0
  -28.4175  -13.7283   21.8443 H   0  0  0  0  0  0
  -25.2760   -9.5680   22.4755 H   0  0  0  0  0  0
  -24.0001   -7.4630   22.7469 H   0  0  0  0  0  0
  -21.0843   -8.8762   19.8948 H   0  0  0  0  0  0
  -22.3692  -10.9666   19.6163 H   0  0  0  0  0  0
  -21.1996   -7.6146   23.9714 H   0  0  0  0  0  0
  -21.1486   -6.0522   25.9076 H   0  0  0  0  0  0
  -22.0599   -2.7609   23.2845 H   0  0  0  0  0  0
  -22.4104  -11.9873   22.4803 H   0  0  0  0  0  0
  -21.1105  -13.1232   22.2619 H   0  0  0  0  0  0
  -24.6536  -15.8371   20.5155 H   0  0  0  0  0  0
  -26.2625  -15.6273   20.0479 H   0  0  0  0  0  0
  -26.7233  -32.5390   23.1060 H   0  0  0  0  0  0
  -25.0081  -33.9677   25.0378 H   0  0  0  0  0  0
  -22.7322  -31.3006   21.3929 H   0  0  0  0  0  0
  -23.3761  -35.9598   23.3284 H   0  0  0  0  0  0
  -24.3580  -36.8908   22.2057 H   0  0  0  0  0  0
  -23.7236  -37.6469   23.6673 H   0  0  0  0  0  0
  -26.1247  -31.5165   20.6102 H   0  0  0  0  0  0
  -26.8608  -30.8063   22.0148 H   0  0  0  0  0  0
  -28.1277  -28.8916   21.2054 H   0  0  0  0  0  0
  -25.9040  -25.9027   18.9968 H   0  0  0  0  0  0
  -23.9661  -27.3124   19.0042 H   0  0  0  0  0  0
  -23.7852  -30.5890   19.4036 H   0  0  0  0  0  0
  -22.7717  -29.2492   19.8489 H   0  0  0  0  0  0
  -25.1296  -36.1897   25.0819 H   0  0  0  0  0  0
  -20.9997  -28.3283   24.1378 H   0  0  0  0  0  0
  -20.5680  -26.2324   23.3608 H   0  0  0  0  0  0
  -21.6655  -26.7438   22.1196 H   0  0  0  0  0  0
  -19.6921  -25.6290   21.1249 H   0  0  0  0  0  0
  -19.6694  -27.3193   20.6742 H   0  0  0  0  0  0
  -17.4205  -26.6684   21.4029 H   0  0  0  0  0  0
  -18.0339  -26.0079   22.9025 H   0  0  0  0  0  0
  -19.7952  -30.7280   24.2258 H   0  0  0  0  0  0
  -17.5034  -31.6279   24.5162 H   0  0  0  0  0  0
  -15.5366  -30.2996   23.7668 H   0  0  0  0  0  0
  -15.8683  -28.0826   22.7078 H   0  0  0  0  0  0
  -24.5912  -30.7064   25.7767 H   0  0  0  0  0  0
  -24.8858  -32.2937   26.4777 H   0  0  0  0  0  0
  -25.8001  -30.9005   27.0262 H   0  0  0  0  0  0
  -26.2942  -29.6743   24.1231 H   0  0  0  0  0  0
  -27.3990  -29.7251   25.4767 H   0  0  0  0  0  0
  -27.8837  -30.4256   23.9512 H   0  0  0  0  0  0
  -27.2671  -33.3655   26.2026 H   0  0  0  0  0  0
  -28.3902  -32.6819   25.0353 H   0  0  0  0  0  0
  -28.0677  -31.8476   26.5472 H   0  0  0  0  0  0
  -28.2578  -38.0103   24.7520 H   0  0  0  0  0  0
  -28.1086  -36.2631   24.6270 H   0  0  0  0  0  0
  -27.2300  -37.1409   25.8869 H   0  0  0  0  0  0
  -20.9419  -29.8792   21.6860 H   0  0  0  0  0  0
  -26.0156  -38.2832   24.1432 H   0  0  0  0  0  0
  -30.7714  -18.4605   19.6998 H   0  0  0  0  0  0
  -27.5286  -21.2859   22.3582 H   0  0  0  0  0  0
  -30.6718  -24.0594   21.6164 H   0  0  0  0  0  0
  -29.1479  -23.4740   22.2371 H   0  0  0  0  0  0
  -30.2851  -21.4461   22.4376 H   0  0  0  0  0  0
  -31.4105  -21.8101   21.1561 H   0  0  0  0  0  0
  -28.5486  -21.9002   18.7755 H   0  0  0  0  0  0
  -27.6567  -21.9698   20.2613 H   0  0  0  0  0  0
  -31.0121  -22.2772   18.4821 H   0  0  0  0  0  0
  -31.9127  -23.3477   19.5795 H   0  0  0  0  0  0
  -31.7089  -23.7758   17.8959 H   0  0  0  0  0  0
  -27.2939  -24.5830   20.8476 H   0  0  0  0  0  0
  -27.5283  -24.6573   19.1298 H   0  0  0  0  0  0
  -26.3810  -18.8284   23.3257 H   0  0  0  0  0  0
  -28.7834  -15.3125   21.1157 H   0  0  0  0  0  0
  1 25  1  0  0  0
  1 30  2  0  0  0
  1 84  1  0  0  0
  2  3  1  0  0  0
  2 25  1  0  0  0
  2 87  1  0  0  0
  2 88  1  0  0  0
  3  4  1  0  0  0
  3 89  1  0  0  0
  3 90  1  0  0  0
  4  5  1  0  0  0
  4 91  1  0  0  0
  4 92  1  0  0  0
  5  6  1  0  0  0
  5 26  1  0  0  0
  5 93  1  0  0  0
  6 25  1  0  0  0
  6 94  1  0  0  0
  6 95  1  0  0  0
  7  8  2  0  0  0
  7 26  1  0  0  0
  7 29  1  0  0  0
  8  9  1  0  0  0
  8 22  1  0  0  0
  9 10  1  0  0  0
  9 27  2  0  0  0
 10 11  2  0  0  0
 10 15  1  0  0  0
 11 12  1  0  0  0
 11 96  1  0  0  0
 12 13  2  0  0  0
 12 97  1  0  0  0
 13 14  1  0  0  0
 13 31  1  0  0  0
 14 15  2  0  0  0
 14 98  1  0  0  0
 15 99  1  0  0  0
 16 17  2  0  0  0
 16 21  1  0  0  0
 16 31  1  0  0  0
 17 18  1  0  0  0
 17100  1  0  0  0
 18 19  2  0  0  0
 18101  1  0  0  0
 19 20  1  0  0  0
 19 24  1  0  0  0
 20 21  2  0  0  0
 20102  1  0  0  0
 21 23  1  0  0  0
 22 28  1  0  0  0
 22 32  2  0  0  0
 26 27  1  0  0  0
 28103  1  0  0  0
 28104  1  0  0  0
 29105  1  0  0  0
 29106  1  0  0  0
 33 34  1  0  0  0
 33 66  1  0  0  0
 33 70  2  0  0  0
 34 36  1  0  0  0
 34 59  1  0  0  0
 34107  1  0  0  0
 35 44  2  0  0  0
 35 45  1  0  0  0
 35 68  1  0  0  0
 36 56  1  0  0  0
 36108  1  0  0  0
 37 39  1  0  0  0
 37 47  1  0  0  0
 37 66  1  0  0  0
 37109  1  0  0  0
 38 43  2  0  0  0
 38 46  1  0  0  0
 38 47  1  0  0  0
 39 64  1  0  0  0
 39 67  2  0  0  0
 40 52  1  0  0  0
 40 53  2  0  0  0
 40 58  1  0  0  0
 41110  1  0  0  0
 41111  1  0  0  0
 41112  1  0  0  0
 41 48  1  0  0  0
 42 43  1  0  0  0
 42 66  1  0  0  0
 42113  1  0  0  0
 42114  1  0  0  0
 43 44  1  0  0  0
 44115  1  0  0  0
 45 46  2  0  0  0
 45116  1  0  0  0
 46117  1  0  0  0
 47118  1  0  0  0
 47119  1  0  0  0
 48 56  1  0  0  0
 48 65  1  0  0  0
 48120  1  0  0  0
 49 50  1  0  0  0
 49 53  1  0  0  0
 49 64  1  0  0  0
 49121  1  0  0  0
 50 51  1  0  0  0
 50122  1  0  0  0
 50123  1  0  0  0
 51 52  1  0  0  0
 51124  1  0  0  0
 51125  1  0  0  0
 52126  1  0  0  0
 52127  1  0  0  0
 53 54  1  0  0  0
 54 55  2  0  0  0
 54128  1  0  0  0
 55 57  1  0  0  0
 55129  1  0  0  0
 56 69  2  0  0  0
 57 58  2  0  0  0
 57130  1  0  0  0
 58131  1  0  0  0
 59 60  1  0  0  0
 59 61  1  0  0  0
 59 62  1  0  0  0
 60132  1  0  0  0
 60133  1  0  0  0
 60134  1  0  0  0
 61135  1  0  0  0
 61136  1  0  0  0
 61137  1  0  0  0
 62138  1  0  0  0
 62139  1  0  0  0
 62140  1  0  0  0
 63 65  1  0  0  0
 63141  1  0  0  0
 63142  1  0  0  0
 63143  1  0  0  0
 64144  1  0  0  0
 65145  1  0  0  0
 68 81  1  0  0  0
 71 72  1  0  0  0
 71 74  2  0  0  0
 71146  1  0  0  0
 72 73  2  0  0  0
 72 83  1  0  0  0
 73 75  1  0  0  0
 73 86  1  0  0  0
 74 84  1  0  0  0
 74 86  1  0  0  0
 75 82  2  0  0  0
 75147  1  0  0  0
 76 77  1  0  0  0
 76 79  1  0  0  0
 76148  1  0  0  0
 76149  1  0  0  0
 77 83  1  0  0  0
 77150  1  0  0  0
 77151  1  0  0  0
 78 79  1  0  0  0
 78 83  1  0  0  0
 78152  1  0  0  0
 78153  1  0  0  0
 79 81  1  0  0  0
 79 85  1  0  0  0
 80 85  1  0  0  0
 80154  1  0  0  0
 80155  1  0  0  0
 80156  1  0  0  0
 81157  1  0  0  0
 81158  1  0  0  0
 82159  1  0  0  0
 84160  1  0  0  0
M  ISO  4   1 100  68 101  81 101  84 100
M  END
> <chiral flag>
0

> <version>
0

> <s_m_source_file>
/data/baiqing/PycharmProjects/Reinvent-master-3.2/result/LINK_invent/BTK/process_docking_weight1_custom_product_contain_oxygen_bond_distance_aromatic_linkinvent_7_9_3/rearranged_h_0153.sdf

> <i_m_source_file_index>
71

> <r_mmod_Potential_Energy-OPLS-2005>
430.558074951172

> <r_mmod_Stretch_Energy-OPLS-2005>
142.788314819336

> <r_mmod_Bend_Energy-OPLS-2005>
269.123657226562

> <r_mmod_Torsional_Energy-OPLS-2005>
318.925018310547

> <r_mmod_Improper_Torsional_Energy-OPLS-2005>
8.31403923034668

> <r_mmod_Van_der_Waal_Energy-OPLS-2005>
119.059242248535

> <r_mmod_Electrostatic_Energy-OPLS-2005>
-292.32421875

> <r_mmod_Solvation_Energy-OPLS-2005>
-242.368377685547

> <b_mmod_Minimization_Converged-OPLS-2005>
0

> <r_mmod_RMS_Derivative-OPLS-2005>
0.897137045860291

$$$$
71
                    3D
 Structure written by MMmdl.
153161  0  0  1  0            999 V2000
  -30.6204  -14.7408   20.4974 C   0  0  0  0  0  0
  -30.4379  -12.4632   19.4667 C   0  0  0  0  0  0
  -29.5077  -12.5012   18.2336 C   0  0  0  0  0  0
  -28.0369  -12.3202   18.6547 C   0  0  0  0  0  0
  -27.6419  -13.2265   19.8507 C   0  0  2  0  0  0
  -28.6882  -13.1646   20.9851 C   0  0  0  0  0  0
  -25.2511  -13.8181   20.5686 C   0  0  0  0  0  0
  -24.1806  -13.0438   20.9212 C   0  0  0  0  0  0
  -24.6388  -11.6912   20.8743 C   0  0  0  0  0  0
  -23.9062  -10.4290   21.0404 C   0  0  0  0  0  0
  -24.3610   -9.4206   21.9185 C   0  0  0  0  0  0
  -23.6278   -8.2244   22.0757 C   0  0  0  0  0  0
  -22.4267   -8.0275   21.3542 C   0  0  0  0  0  0
  -21.9903   -9.0252   20.4651 C   0  0  0  0  0  0
  -22.7232  -10.2130   20.3058 C   0  0  0  0  0  0
  -21.6854   -6.0724   22.5263 C   0  0  0  0  0  0
  -21.4014   -6.5630   23.8196 C   0  0  0  0  0  0
  -21.3657   -5.6785   24.9163 C   0  0  0  0  0  0
  -21.6042   -4.3048   24.7221 C   0  0  0  0  0  0
  -21.8824   -3.8139   23.4344 C   0  0  0  0  0  0
  -21.9192   -4.6951   22.3392 C   0  0  0  0  0  0
  -22.7825  -13.5218   21.1863 C   0  0  0  0  0  0
  -22.1663   -4.2130   21.0976 F   0  0  0  0  0  0
  -21.5627   -3.4536   25.7738 F   0  0  0  0  0  0
  -29.9858  -13.5223   20.3993 N   0  0  0  0  0  0
  -26.2939  -12.9377   20.3298 N   0  0  0  0  0  0
  -25.9317  -11.6526   20.5763 N   0  0  0  0  0  0
  -22.0479  -12.8211   22.0423 N   0  0  0  0  0  0
  -25.4204  -15.1907   20.4074 N   0  0  0  0  0  0
  -31.8145  -14.8322   20.1969 O   0  0  0  0  0  0
  -21.6641   -6.8869   21.4229 O   0  0  0  0  0  0
  -22.3503  -14.5519   20.6700 O   0  0  0  0  0  0
  -24.6325  -31.8537   23.1986 C   0  0  0  0  0  0
  -25.9146  -32.4750   23.8328 C   0  0  1  0  0  0
  -27.2133  -27.2500   20.1421 C   0  0  0  0  0  0
  -25.5929  -33.8554   24.2243 N   0  0  0  0  0  0
  -23.4306  -30.4755   21.5439 C   0  0  2  0  0  0
  -24.8765  -28.9252   20.1103 C   0  0  0  0  0  0
  -22.7515  -29.4576   22.4926 C   0  0  0  0  0  0
  -18.0290  -28.1381   22.8459 C   0  0  0  0  0  0
  -24.1495  -36.7308   23.2640 C   0  0  0  0  0  0
  -25.9758  -30.7632   21.3806 C   0  0  0  0  0  0
  -26.0501  -29.3850   20.7244 C   0  0  0  0  0  0
  -27.2236  -28.5622   20.7270 C   0  0  0  0  0  0
  -26.0226  -26.8708   19.4794 C   0  0  0  0  0  0
  -24.8706  -27.6773   19.4722 C   0  0  0  0  0  0
  -23.6483  -29.8112   20.1596 C   0  0  0  0  0  0
  -25.4110  -36.3069   24.0317 C   0  0  1  0  0  0
  -20.5884  -28.3690   23.1261 C   0  0  2  0  0  0
  -20.6772  -26.9405   22.5399 C   0  0  0  0  0  0
  -19.5744  -26.6373   21.5206 C   0  0  0  0  0  0
  -18.1925  -26.7912   22.1610 C   0  0  0  0  0  0
  -19.1539  -28.8858   23.2848 C   0  0  0  0  0  0
  -18.9465  -30.1457   23.8861 C   0  0  0  0  0  0
  -17.6468  -30.6587   24.0557 C   0  0  0  0  0  0
  -25.9044  -34.9440   23.5082 C   0  0  0  0  0  0
  -16.5352  -29.9069   23.6343 C   0  0  0  0  0  0
  -16.7280  -28.6493   23.0341 C   0  0  0  0  0  0
  -26.4496  -31.6591   25.0745 C   0  0  0  0  0  0
  -25.3699  -31.3761   26.1459 C   0  0  0  0  0  0
  -27.0354  -30.2996   24.6258 C   0  0  0  0  0  0
  -27.6035  -32.4361   25.7516 C   0  0  0  0  0  0
  -27.5577  -37.1801   24.8451 C   0  0  0  0  0  0
  -21.4215  -29.3042   22.3672 N   0  0  0  0  0  0
  -26.4291  -37.3763   23.9394 N   0  0  0  0  0  0
  -24.6994  -31.0486   22.0978 N   0  0  0  0  0  0
  -23.4208  -28.8116   23.3030 O   0  0  0  0  0  0
  -28.2814  -26.3223   20.2080 O   0  0  0  0  0  0
  -26.5640  -34.8926   22.4668 O   0  0  0  0  0  0
  -23.5471  -32.1368   23.7290 O   0  0  0  0  0  0
  -29.5123  -18.4799   20.4809 C   0  0  0  0  0  0
  -31.3559  -17.5380   21.7594 C   0  0  0  0  0  0
  -30.2313  -17.2929   20.9411 C   0  0  0  0  0  0
  -29.9275  -19.8480   20.7758 C   0  0  0  0  0  0
  -31.0798  -19.9793   21.5907 C   0  0  0  0  0  0
  -31.7645  -18.8457   22.0866 C   0  0  0  0  0  0
  -28.9923  -23.7197   20.3479 C   0  0  0  0  0  0
  -28.7158  -22.2212   20.8695 C   0  0  0  0  0  0
  -27.9161  -24.8923   20.5401 C   0  0  0  0  0  0
  -31.5917  -21.2478   21.8745 N   0  0  0  0  0  0
  -29.8430  -15.8804   20.6788 N   0  0  0  0  0  0
  -29.3940  -21.0562   20.1648 N   0  0  0  0  0  0
  -30.0669  -23.9544   19.7838 O   0  0  0  0  0  0
  -32.8520  -19.0208   22.8791 F   0  0  0  0  0  0
  -31.4738  -12.6016   19.1550 H   0  0  0  0  0  0
  -30.4008  -11.4862   19.9514 H   0  0  0  0  0  0
  -29.7903  -11.7234   17.5233 H   0  0  0  0  0  0
  -29.6261  -13.4525   17.7130 H   0  0  0  0  0  0
  -27.9012  -11.2724   18.9260 H   0  0  0  0  0  0
  -27.3738  -12.5007   17.8095 H   0  0  0  0  0  0
  -27.6370  -14.2472   19.4671 H   0  0  0  0  0  0
  -28.7292  -12.1664   21.4213 H   0  0  0  0  0  0
  -28.4233  -13.8419   21.7985 H   0  0  0  0  0  0
  -25.2754   -9.5670   22.4765 H   0  0  0  0  0  0
  -23.9975   -7.4633   22.7482 H   0  0  0  0  0  0
  -21.0831   -8.8776   19.8957 H   0  0  0  0  0  0
  -22.3689  -10.9671   19.6164 H   0  0  0  0  0  0
  -21.2016   -7.6142   23.9687 H   0  0  0  0  0  0
  -21.1470   -6.0527   25.9062 H   0  0  0  0  0  0
  -22.0610   -2.7599   23.2854 H   0  0  0  0  0  0
  -22.4111  -11.9863   22.4787 H   0  0  0  0  0  0
  -21.1093  -13.1220   22.2646 H   0  0  0  0  0  0
  -24.6500  -15.8414   20.5178 H   0  0  0  0  0  0
  -26.2549  -15.6287   20.0399 H   0  0  0  0  0  0
  -26.7229  -32.5407   23.1079 H   0  0  0  0  0  0
  -25.0052  -33.9673   25.0367 H   0  0  0  0  0  0
  -22.7277  -31.2976   21.4007 H   0  0  0  0  0  0
  -23.3748  -35.9651   23.3291 H   0  0  0  0  0  0
  -24.3582  -36.8947   22.2057 H   0  0  0  0  0  0
  -23.7260  -37.6504   23.6685 H   0  0  0  0  0  0
  -26.1108  -31.5221   20.6086 H   0  0  0  0  0  0
  -26.8528  -30.8151   22.0130 H   0  0  0  0  0  0
  -28.1202  -28.9070   21.2254 H   0  0  0  0  0  0
  -25.9521  -25.9280   18.9598 H   0  0  0  0  0  0
  -23.9796  -27.3226   18.9719 H   0  0  0  0  0  0
  -23.7751  -30.5871   19.4043 H   0  0  0  0  0  0
  -22.7656  -29.2437   19.8578 H   0  0  0  0  0  0
  -25.1293  -36.1930   25.0809 H   0  0  0  0  0  0
  -20.9950  -28.3294   24.1393 H   0  0  0  0  0  0
  -20.5682  -26.2299   23.3606 H   0  0  0  0  0  0
  -21.6646  -26.7437   22.1193 H   0  0  0  0  0  0
  -19.6912  -25.6283   21.1249 H   0  0  0  0  0  0
  -19.6706  -27.3182   20.6733 H   0  0  0  0  0  0
  -17.4193  -26.6660   21.4018 H   0  0  0  0  0  0
  -18.0322  -26.0062   22.9014 H   0  0  0  0  0  0
  -19.7960  -30.7261   24.2217 H   0  0  0  0  0  0
  -17.5038  -31.6264   24.5167 H   0  0  0  0  0  0
  -15.5351  -30.2962   23.7699 H   0  0  0  0  0  0
  -15.8669  -28.0824   22.7043 H   0  0  0  0  0  0
  -24.5872  -30.7118   25.7787 H   0  0  0  0  0  0
  -24.8904  -32.2942   26.4869 H   0  0  0  0  0  0
  -25.8000  -30.8953   27.0253 H   0  0  0  0  0  0
  -26.2958  -29.6729   24.1260 H   0  0  0  0  0  0
  -27.3978  -29.7284   25.4813 H   0  0  0  0  0  0
  -27.8861  -30.4239   23.9547 H   0  0  0  0  0  0
  -27.2619  -33.3681   26.2036 H   0  0  0  0  0  0
  -28.3868  -32.6886   25.0359 H   0  0  0  0  0  0
  -28.0669  -31.8529   26.5478 H   0  0  0  0  0  0
  -28.2567  -38.0124   24.7509 H   0  0  0  0  0  0
  -28.1099  -36.2650   24.6266 H   0  0  0  0  0  0
  -27.2297  -37.1430   25.8853 H   0  0  0  0  0  0
  -20.9412  -29.8796   21.6899 H   0  0  0  0  0  0
  -26.0183  -38.2838   24.1414 H   0  0  0  0  0  0
  -28.6497  -18.3433   19.8468 H   0  0  0  0  0  0
  -31.9264  -16.7174   22.1674 H   0  0  0  0  0  0
  -27.6386  -22.0596   20.8229 H   0  0  0  0  0  0
  -28.9637  -22.1879   21.9311 H   0  0  0  0  0  0
  -27.5738  -24.8658   21.5761 H   0  0  0  0  0  0
  -27.0635  -24.5708   19.9471 H   0  0  0  0  0  0
  -30.9426  -22.0191   21.7971 H   0  0  0  0  0  0
  -32.2224  -21.3095   22.6667 H   0  0  0  0  0  0
  -28.8507  -15.7043   20.6662 H   0  0  0  0  0  0
  -30.1722  -21.4925   19.6719 H   0  0  0  0  0  0
  1 25  1  0  0  0
  1 30  2  0  0  0
  1 81  1  0  0  0
  2  3  1  0  0  0
  2 25  1  0  0  0
  2 85  1  0  0  0
  2 86  1  0  0  0
  3  4  1  0  0  0
  3 87  1  0  0  0
  3 88  1  0  0  0
  4  5  1  0  0  0
  4 89  1  0  0  0
  4 90  1  0  0  0
  5  6  1  0  0  0
  5 26  1  0  0  0
  5 91  1  0  0  0
  6 25  1  0  0  0
  6 92  1  0  0  0
  6 93  1  0  0  0
  7  8  2  0  0  0
  7 26  1  0  0  0
  7 29  1  0  0  0
  8  9  1  0  0  0
  8 22  1  0  0  0
  9 10  1  0  0  0
  9 27  2  0  0  0
 10 11  2  0  0  0
 10 15  1  0  0  0
 11 12  1  0  0  0
 11 94  1  0  0  0
 12 13  2  0  0  0
 12 95  1  0  0  0
 13 14  1  0  0  0
 13 31  1  0  0  0
 14 15  2  0  0  0
 14 96  1  0  0  0
 15 97  1  0  0  0
 16 17  2  0  0  0
 16 21  1  0  0  0
 16 31  1  0  0  0
 17 18  1  0  0  0
 17 98  1  0  0  0
 18 19  2  0  0  0
 18 99  1  0  0  0
 19 20  1  0  0  0
 19 24  1  0  0  0
 20 21  2  0  0  0
 20100  1  0  0  0
 21 23  1  0  0  0
 22 28  1  0  0  0
 22 32  2  0  0  0
 26 27  1  0  0  0
 28101  1  0  0  0
 28102  1  0  0  0
 29103  1  0  0  0
 29104  1  0  0  0
 33 34  1  0  0  0
 33 66  1  0  0  0
 33 70  2  0  0  0
 34 36  1  0  0  0
 34 59  1  0  0  0
 34105  1  0  0  0
 35 44  2  0  0  0
 35 45  1  0  0  0
 35 68  1  0  0  0
 36 56  1  0  0  0
 36106  1  0  0  0
 37 39  1  0  0  0
 37 47  1  0  0  0
 37 66  1  0  0  0
 37107  1  0  0  0
 38 43  2  0  0  0
 38 46  1  0  0  0
 38 47  1  0  0  0
 39 64  1  0  0  0
 39 67  2  0  0  0
 40 52  1  0  0  0
 40 53  2  0  0  0
 40 58  1  0  0  0
 41108  1  0  0  0
 41109  1  0  0  0
 41110  1  0  0  0
 41 48  1  0  0  0
 42 43  1  0  0  0
 42 66  1  0  0  0
 42111  1  0  0  0
 42112  1  0  0  0
 43 44  1  0  0  0
 44113  1  0  0  0
 45 46  2  0  0  0
 45114  1  0  0  0
 46115  1  0  0  0
 47116  1  0  0  0
 47117  1  0  0  0
 48 56  1  0  0  0
 48 65  1  0  0  0
 48118  1  0  0  0
 49 50  1  0  0  0
 49 53  1  0  0  0
 49 64  1  0  0  0
 49119  1  0  0  0
 50 51  1  0  0  0
 50120  1  0  0  0
 50121  1  0  0  0
 51 52  1  0  0  0
 51122  1  0  0  0
 51123  1  0  0  0
 52124  1  0  0  0
 52125  1  0  0  0
 53 54  1  0  0  0
 54 55  2  0  0  0
 54126  1  0  0  0
 55 57  1  0  0  0
 55127  1  0  0  0
 56 69  2  0  0  0
 57 58  2  0  0  0
 57128  1  0  0  0
 58129  1  0  0  0
 59 60  1  0  0  0
 59 61  1  0  0  0
 59 62  1  0  0  0
 60130  1  0  0  0
 60131  1  0  0  0
 60132  1  0  0  0
 61133  1  0  0  0
 61134  1  0  0  0
 61135  1  0  0  0
 62136  1  0  0  0
 62137  1  0  0  0
 62138  1  0  0  0
 63 65  1  0  0  0
 63139  1  0  0  0
 63140  1  0  0  0
 63141  1  0  0  0
 64142  1  0  0  0
 65143  1  0  0  0
 68 79  1  0  0  0
 71 73  2  0  0  0
 71 74  1  0  0  0
 71144  1  0  0  0
 72 73  1  0  0  0
 72 76  2  0  0  0
 72145  1  0  0  0
 73 81  1  0  0  0
 74 75  2  0  0  0
 74 82  1  0  0  0
 75 76  1  0  0  0
 75 80  1  0  0  0
 76 84  1  0  0  0
 77 78  1  0  0  0
 77 79  1  0  0  0
 77 83  2  0  0  0
 78 82  1  0  0  0
 78146  1  0  0  0
 78147  1  0  0  0
 79148  1  0  0  0
 79149  1  0  0  0
 80150  1  0  0  0
 80151  1  0  0  0
 81152  1  0  0  0
 82153  1  0  0  0
M  ISO  4   1 100  68 101  79 101  81 100
M  END
> <chiral flag>
0

> <version>
0

> <s_m_source_file>
/data/baiqing/PycharmProjects/Reinvent-master-3.2/result/LINK_invent/BTK/process_docking_weight1_custom_product_contain_oxygen_bond_distance_aromatic_linkinvent_7_9_3/rearranged_h_0153.sdf

> <i_m_source_file_index>
72

> <r_mmod_Potential_Energy-OPLS-2005>
208.602661132812

> <r_mmod_Stretch_Energy-OPLS-2005>
126.43270111084

> <r_mmod_Bend_Energy-OPLS-2005>
166.289443969727

> <r_mmod_Torsional_Energy-OPLS-2005>
261.008636474609

> <r_mmod_Improper_Torsional_Energy-OPLS-2005>
16.6298313140869

> <r_mmod_Van_der_Waal_Energy-OPLS-2005>
142.989761352539

> <r_mmod_Electrostatic_Energy-OPLS-2005>
-350.271575927734

> <r_mmod_Solvation_Energy-OPLS-2005>
-246.157073974609

> <b_mmod_Minimization_Converged-OPLS-2005>
0

> <r_mmod_RMS_Derivative-OPLS-2005>
2.69069981575012

$$$$
72
                    3D
 Structure written by MMmdl.
158167  0  0  1  0            999 V2000
  -30.6087  -14.7251   20.4845 C   0  0  0  0  0  0
  -30.4292  -12.4421   19.4889 C   0  0  0  0  0  0
  -29.5160  -12.5246   18.2462 C   0  0  0  0  0  0
  -28.0381  -12.3526   18.6443 C   0  0  0  0  0  0
  -27.6476  -13.2314   19.8634 C   0  0  2  0  0  0
  -28.6856  -13.1378   21.0048 C   0  0  0  0  0  0
  -25.2518  -13.8207   20.5691 C   0  0  0  0  0  0
  -24.1799  -13.0440   20.9188 C   0  0  0  0  0  0
  -24.6385  -11.6920   20.8712 C   0  0  0  0  0  0
  -23.9053  -10.4304   21.0383 C   0  0  0  0  0  0
  -24.3621   -9.4230   21.9162 C   0  0  0  0  0  0
  -23.6315   -8.2258   22.0745 C   0  0  0  0  0  0
  -22.4296   -8.0279   21.3549 C   0  0  0  0  0  0
  -21.9915   -9.0237   20.4642 C   0  0  0  0  0  0
  -22.7222  -10.2126   20.3047 C   0  0  0  0  0  0
  -21.6865   -6.0737   22.5276 C   0  0  0  0  0  0
  -21.4019   -6.5645   23.8206 C   0  0  0  0  0  0
  -21.3672   -5.6800   24.9174 C   0  0  0  0  0  0
  -21.6051   -4.3059   24.7222 C   0  0  0  0  0  0
  -21.8826   -3.8147   23.4341 C   0  0  0  0  0  0
  -21.9204   -4.6964   22.3396 C   0  0  0  0  0  0
  -22.7821  -13.5215   21.1854 C   0  0  0  0  0  0
  -22.1669   -4.2146   21.0973 F   0  0  0  0  0  0
  -21.5629   -3.4543   25.7734 F   0  0  0  0  0  0
  -29.9993  -13.4893   20.4466 N   0  0  0  0  0  0
  -26.2946  -12.9400   20.3310 N   0  0  0  0  0  0
  -25.9317  -11.6540   20.5735 N   0  0  0  0  0  0
  -22.0490  -12.8190   22.0406 N   0  0  0  0  0  0
  -25.4216  -15.1934   20.4167 N   0  0  0  0  0  0
  -31.7579  -14.8552   20.0483 O   0  0  0  0  0  0
  -21.6664   -6.8876   21.4239 O   0  0  0  0  0  0
  -22.3478  -14.5521   20.6712 O   0  0  0  0  0  0
  -24.6333  -31.8552   23.2005 C   0  0  0  0  0  0
  -25.9169  -32.4733   23.8340 C   0  0  1  0  0  0
  -27.1927  -27.2501   20.1242 C   0  0  0  0  0  0
  -25.5992  -33.8536   24.2273 N   0  0  0  0  0  0
  -23.4294  -30.4814   21.5456 C   0  0  2  0  0  0
  -24.8730  -28.9390   20.1042 C   0  0  0  0  0  0
  -22.7537  -29.4571   22.4894 C   0  0  0  0  0  0
  -18.0297  -28.1391   22.8471 C   0  0  0  0  0  0
  -24.1516  -36.7273   23.2624 C   0  0  0  0  0  0
  -25.9798  -30.7628   21.3884 C   0  0  0  0  0  0
  -26.0473  -29.3902   20.7200 C   0  0  0  0  0  0
  -27.2136  -28.5577   20.7185 C   0  0  0  0  0  0
  -26.0020  -26.8855   19.4552 C   0  0  0  0  0  0
  -24.8580  -27.6985   19.4580 C   0  0  0  0  0  0
  -23.6497  -29.8308   20.1565 C   0  0  0  0  0  0
  -25.4133  -36.3045   24.0312 C   0  0  1  0  0  0
  -20.5904  -28.3698   23.1260 C   0  0  2  0  0  0
  -20.6793  -26.9417   22.5402 C   0  0  0  0  0  0
  -19.5768  -26.6383   21.5213 C   0  0  0  0  0  0
  -18.1940  -26.7929   22.1617 C   0  0  0  0  0  0
  -19.1552  -28.8859   23.2856 C   0  0  0  0  0  0
  -18.9469  -30.1462   23.8876 C   0  0  0  0  0  0
  -17.6465  -30.6581   24.0555 C   0  0  0  0  0  0
  -25.9068  -34.9414   23.5072 C   0  0  0  0  0  0
  -16.5354  -29.9073   23.6336 C   0  0  0  0  0  0
  -16.7279  -28.6499   23.0335 C   0  0  0  0  0  0
  -26.4539  -31.6533   25.0716 C   0  0  0  0  0  0
  -25.3769  -31.3688   26.1438 C   0  0  0  0  0  0
  -27.0388  -30.2938   24.6228 C   0  0  0  0  0  0
  -27.6100  -32.4261   25.7500 C   0  0  0  0  0  0
  -27.5599  -37.1777   24.8448 C   0  0  0  0  0  0
  -21.4235  -29.3030   22.3659 N   0  0  0  0  0  0
  -26.4300  -37.3751   23.9403 N   0  0  0  0  0  0
  -24.6995  -31.0502   22.1001 N   0  0  0  0  0  0
  -23.4229  -28.8099   23.2978 O   0  0  0  0  0  0
  -28.2496  -26.3140   20.2141 O   0  0  0  0  0  0
  -26.5628  -34.8885   22.4631 O   0  0  0  0  0  0
  -23.5470  -32.1375   23.7294 O   0  0  0  0  0  0
  -28.9720  -18.3778   18.2889 C   0  0  0  0  0  0
  -28.9756  -19.6180   18.9673 C   0  0  0  0  0  0
  -29.3371  -17.1723   18.9280 C   0  0  0  0  0  0
  -29.6806  -18.4379   20.9701 C   0  0  0  0  0  0
  -29.3502  -19.7091   20.3241 C   0  0  0  0  0  0
  -29.6891  -17.1473   20.2941 C   0  0  0  0  0  0
  -28.8706  -23.7616   20.6807 C   0  0  0  0  0  0
  -30.8358  -21.1649   22.7305 C   0  0  0  0  0  0
  -30.9960  -21.4756   21.2425 C   0  0  0  0  0  0
  -29.3155  -21.1703   22.5421 C   0  0  0  0  0  0
  -29.4965  -21.1580   21.0061 C   0  0  0  0  0  0
  -27.9319  -24.8515   19.9888 C   0  0  0  0  0  0
  -29.8920  -15.8229   20.9334 N   0  0  0  0  0  0
  -28.7805  -22.3909   20.4017 N   0  0  0  0  0  0
  -29.6601  -24.1978   21.5217 O   0  0  0  0  0  0
  -31.4733  -12.5530   19.1942 H   0  0  0  0  0  0
  -30.3552  -11.4580   19.9528 H   0  0  0  0  0  0
  -29.7953  -11.7641   17.5172 H   0  0  0  0  0  0
  -29.6512  -13.4862   17.7501 H   0  0  0  0  0  0
  -27.8786  -11.2984   18.8766 H   0  0  0  0  0  0
  -27.3912  -12.5785   17.7949 H   0  0  0  0  0  0
  -27.6520  -14.2615   19.5047 H   0  0  0  0  0  0
  -28.7090  -12.1305   21.4240 H   0  0  0  0  0  0
  -28.4097  -13.7989   21.8270 H   0  0  0  0  0  0
  -25.2778   -9.5715   22.4714 H   0  0  0  0  0  0
  -24.0044   -7.4658   22.7456 H   0  0  0  0  0  0
  -21.0854   -8.8729   19.8940 H   0  0  0  0  0  0
  -22.3672  -10.9648   19.6149 H   0  0  0  0  0  0
  -21.2008   -7.6153   23.9702 H   0  0  0  0  0  0
  -21.1490   -6.0535   25.9079 H   0  0  0  0  0  0
  -22.0598   -2.7604   23.2841 H   0  0  0  0  0  0
  -22.4168  -11.9903   22.4820 H   0  0  0  0  0  0
  -21.1084  -13.1138   22.2592 H   0  0  0  0  0  0
  -24.6542  -15.8469   20.5330 H   0  0  0  0  0  0
  -26.2778  -15.6412   20.1133 H   0  0  0  0  0  0
  -26.7235  -32.5382   23.1071 H   0  0  0  0  0  0
  -25.0197  -33.9685   25.0461 H   0  0  0  0  0  0
  -22.7251  -31.3040   21.4077 H   0  0  0  0  0  0
  -23.3790  -35.9596   23.3227 H   0  0  0  0  0  0
  -24.3624  -36.8947   22.2049 H   0  0  0  0  0  0
  -23.7250  -37.6438   23.6692 H   0  0  0  0  0  0
  -26.1324  -31.5286   20.6269 H   0  0  0  0  0  0
  -26.8515  -30.7963   22.0318 H   0  0  0  0  0  0
  -28.1134  -28.8915   21.2167 H   0  0  0  0  0  0
  -25.9128  -25.9437   18.9355 H   0  0  0  0  0  0
  -23.9622  -27.3571   18.9569 H   0  0  0  0  0  0
  -23.7915  -30.6178   19.4161 H   0  0  0  0  0  0
  -22.7658  -29.2773   19.8319 H   0  0  0  0  0  0
  -25.1306  -36.1882   25.0798 H   0  0  0  0  0  0
  -20.9976  -28.3280   24.1383 H   0  0  0  0  0  0
  -20.5720  -26.2294   23.3607 H   0  0  0  0  0  0
  -21.6654  -26.7457   22.1184 H   0  0  0  0  0  0
  -19.6932  -25.6292   21.1235 H   0  0  0  0  0  0
  -19.6705  -27.3201   20.6749 H   0  0  0  0  0  0
  -17.4209  -26.6683   21.4004 H   0  0  0  0  0  0
  -18.0344  -26.0070   22.9002 H   0  0  0  0  0  0
  -19.7934  -30.7299   24.2229 H   0  0  0  0  0  0
  -17.4998  -31.6248   24.5173 H   0  0  0  0  0  0
  -15.5348  -30.2949   23.7666 H   0  0  0  0  0  0
  -15.8694  -28.0814   22.7036 H   0  0  0  0  0  0
  -24.5949  -30.7041   25.7742 H   0  0  0  0  0  0
  -24.8984  -32.2869   26.4866 H   0  0  0  0  0  0
  -25.8086  -30.8840   27.0215 H   0  0  0  0  0  0
  -26.2968  -29.6653   24.1289 H   0  0  0  0  0  0
  -27.4078  -29.7209   25.4745 H   0  0  0  0  0  0
  -27.8859  -30.4153   23.9473 H   0  0  0  0  0  0
  -27.2722  -33.3555   26.2105 H   0  0  0  0  0  0
  -28.3931  -32.6821   25.0341 H   0  0  0  0  0  0
  -28.0786  -31.8372   26.5400 H   0  0  0  0  0  0
  -28.2541  -38.0146   24.7559 H   0  0  0  0  0  0
  -28.1172  -36.2662   24.6203 H   0  0  0  0  0  0
  -27.2321  -37.1322   25.8852 H   0  0  0  0  0  0
  -20.9441  -29.8774   21.6878 H   0  0  0  0  0  0
  -26.0168  -38.2802   24.1462 H   0  0  0  0  0  0
  -28.6837  -18.3490   17.2479 H   0  0  0  0  0  0
  -28.7084  -20.5097   18.4183 H   0  0  0  0  0  0
  -29.3049  -16.2547   18.3563 H   0  0  0  0  0  0
  -29.9514  -18.4488   22.0153 H   0  0  0  0  0  0
  -31.2046  -21.9518   23.3901 H   0  0  0  0  0  0
  -31.2370  -20.1899   23.0067 H   0  0  0  0  0  0
  -31.6863  -20.8112   20.7230 H   0  0  0  0  0  0
  -31.3085  -22.5031   21.0726 H   0  0  0  0  0  0
  -28.8622  -22.0772   22.9448 H   0  0  0  0  0  0
  -28.8071  -20.2936   22.9429 H   0  0  0  0  0  0
  -26.9406  -24.6306   20.3899 H   0  0  0  0  0  0
  -27.8912  -24.6541   18.9173 H   0  0  0  0  0  0
  -29.1546  -15.5691   21.5736 H   0  0  0  0  0  0
  -28.0547  -22.1556   19.7377 H   0  0  0  0  0  0
  1 25  1  0  0  0
  1 30  2  0  0  0
  1 83  1  0  0  0
  2  3  1  0  0  0
  2 25  1  0  0  0
  2 86  1  0  0  0
  2 87  1  0  0  0
  3  4  1  0  0  0
  3 88  1  0  0  0
  3 89  1  0  0  0
  4  5  1  0  0  0
  4 90  1  0  0  0
  4 91  1  0  0  0
  5  6  1  0  0  0
  5 26  1  0  0  0
  5 92  1  0  0  0
  6 25  1  0  0  0
  6 93  1  0  0  0
  6 94  1  0  0  0
  7  8  2  0  0  0
  7 26  1  0  0  0
  7 29  1  0  0  0
  8  9  1  0  0  0
  8 22  1  0  0  0
  9 10  1  0  0  0
  9 27  2  0  0  0
 10 11  2  0  0  0
 10 15  1  0  0  0
 11 12  1  0  0  0
 11 95  1  0  0  0
 12 13  2  0  0  0
 12 96  1  0  0  0
 13 14  1  0  0  0
 13 31  1  0  0  0
 14 15  2  0  0  0
 14 97  1  0  0  0
 15 98  1  0  0  0
 16 17  2  0  0  0
 16 21  1  0  0  0
 16 31  1  0  0  0
 17 18  1  0  0  0
 17 99  1  0  0  0
 18 19  2  0  0  0
 18100  1  0  0  0
 19 20  1  0  0  0
 19 24  1  0  0  0
 20 21  2  0  0  0
 20101  1  0  0  0
 21 23  1  0  0  0
 22 28  1  0  0  0
 22 32  2  0  0  0
 26 27  1  0  0  0
 28102  1  0  0  0
 28103  1  0  0  0
 29104  1  0  0  0
 29105  1  0  0  0
 33 34  1  0  0  0
 33 66  1  0  0  0
 33 70  2  0  0  0
 34 36  1  0  0  0
 34 59  1  0  0  0
 34106  1  0  0  0
 35 44  2  0  0  0
 35 45  1  0  0  0
 35 68  1  0  0  0
 36 56  1  0  0  0
 36107  1  0  0  0
 37 39  1  0  0  0
 37 47  1  0  0  0
 37 66  1  0  0  0
 37108  1  0  0  0
 38 43  2  0  0  0
 38 46  1  0  0  0
 38 47  1  0  0  0
 39 64  1  0  0  0
 39 67  2  0  0  0
 40 52  1  0  0  0
 40 53  2  0  0  0
 40 58  1  0  0  0
 41109  1  0  0  0
 41110  1  0  0  0
 41111  1  0  0  0
 41 48  1  0  0  0
 42 43  1  0  0  0
 42 66  1  0  0  0
 42112  1  0  0  0
 42113  1  0  0  0
 43 44  1  0  0  0
 44114  1  0  0  0
 45 46  2  0  0  0
 45115  1  0  0  0
 46116  1  0  0  0
 47117  1  0  0  0
 47118  1  0  0  0
 48 56  1  0  0  0
 48 65  1  0  0  0
 48119  1  0  0  0
 49 50  1  0  0  0
 49 53  1  0  0  0
 49 64  1  0  0  0
 49120  1  0  0  0
 50 51  1  0  0  0
 50121  1  0  0  0
 50122  1  0  0  0
 51 52  1  0  0  0
 51123  1  0  0  0
 51124  1  0  0  0
 52125  1  0  0  0
 52126  1  0  0  0
 53 54  1  0  0  0
 54 55  2  0  0  0
 54127  1  0  0  0
 55 57  1  0  0  0
 55128  1  0  0  0
 56 69  2  0  0  0
 57 58  2  0  0  0
 57129  1  0  0  0
 58130  1  0  0  0
 59 60  1  0  0  0
 59 61  1  0  0  0
 59 62  1  0  0  0
 60131  1  0  0  0
 60132  1  0  0  0
 60133  1  0  0  0
 61134  1  0  0  0
 61135  1  0  0  0
 61136  1  0  0  0
 62137  1  0  0  0
 62138  1  0  0  0
 62139  1  0  0  0
 63 65  1  0  0  0
 63140  1  0  0  0
 63141  1  0  0  0
 63142  1  0  0  0
 64143  1  0  0  0
 65144  1  0  0  0
 68 82  1  0  0  0
 71 72  2  0  0  0
 71 73  1  0  0  0
 71145  1  0  0  0
 72 75  1  0  0  0
 72146  1  0  0  0
 73 76  2  0  0  0
 73147  1  0  0  0
 74 75  2  0  0  0
 74 76  1  0  0  0
 74148  1  0  0  0
 75 81  1  0  0  0
 76 83  1  0  0  0
 77 82  1  0  0  0
 77 84  1  0  0  0
 77 85  2  0  0  0
 78 79  1  0  0  0
 78 80  1  0  0  0
 78149  1  0  0  0
 78150  1  0  0  0
 79 81  1  0  0  0
 79151  1  0  0  0
 79152  1  0  0  0
 80 81  1  0  0  0
 80153  1  0  0  0
 80154  1  0  0  0
 81 84  1  0  0  0
 82155  1  0  0  0
 82156  1  0  0  0
 83157  1  0  0  0
 84158  1  0  0  0
M  ISO  4   1 100  68 101  82 101  83 100
M  END
> <chiral flag>
0

> <version>
0

> <s_m_source_file>
/data/baiqing/PycharmProjects/Reinvent-master-3.2/result/LINK_invent/BTK/process_docking_weight1_custom_product_contain_oxygen_bond_distance_aromatic_linkinvent_7_9_3/rearranged_h_0153.sdf

> <i_m_source_file_index>
73

> <r_mmod_Potential_Energy-OPLS-2005>
176.222503662109

> <r_mmod_Stretch_Energy-OPLS-2005>
132.011215209961

> <r_mmod_Bend_Energy-OPLS-2005>
167.361755371094

> <r_mmod_Torsional_Energy-OPLS-2005>
286.992004394531

> <r_mmod_Improper_Torsional_Energy-OPLS-2005>
5.04671955108643

> <r_mmod_Van_der_Waal_Energy-OPLS-2005>
146.337799072266

> <r_mmod_Electrostatic_Energy-OPLS-2005>
-402.410888671875

> <r_mmod_Solvation_Energy-OPLS-2005>
-247.35578918457

> <b_mmod_Minimization_Converged-OPLS-2005>
0

> <r_mmod_RMS_Derivative-OPLS-2005>
3.23416972160339

$$$$
73
                    3D
 Structure written by MMmdl.
146154  0  0  1  0            999 V2000
  -30.5228  -15.0589   20.3904 C   0  0  0  0  0  0
  -30.4387  -12.6603   19.4934 C   0  0  0  0  0  0
  -29.5169  -12.5580   18.2520 C   0  0  0  0  0  0
  -28.0581  -12.3252   18.6876 C   0  0  0  0  0  0
  -27.6277  -13.2698   19.8378 C   0  0  2  0  0  0
  -28.6760  -13.3511   20.9677 C   0  0  0  0  0  0
  -25.2477  -13.8279   20.5769 C   0  0  0  0  0  0
  -24.1800  -13.0455   20.9226 C   0  0  0  0  0  0
  -24.6419  -11.6977   20.8777 C   0  0  0  0  0  0
  -23.9113  -10.4330   21.0394 C   0  0  0  0  0  0
  -24.3660   -9.4259   21.9190 C   0  0  0  0  0  0
  -23.6329   -8.2289   22.0707 C   0  0  0  0  0  0
  -22.4303   -8.0328   21.3499 C   0  0  0  0  0  0
  -21.9964   -9.0305   20.4619 C   0  0  0  0  0  0
  -22.7291  -10.2189   20.3047 C   0  0  0  0  0  0
  -21.6838   -6.0770   22.5282 C   0  0  0  0  0  0
  -21.4030   -6.5655   23.8224 C   0  0  0  0  0  0
  -21.3670   -5.6796   24.9180 C   0  0  0  0  0  0
  -21.6064   -4.3062   24.7210 C   0  0  0  0  0  0
  -21.8822   -3.8150   23.4315 C   0  0  0  0  0  0
  -21.9182   -4.6984   22.3395 C   0  0  0  0  0  0
  -22.7834  -13.5231   21.1883 C   0  0  0  0  0  0
  -22.1630   -4.2179   21.0965 F   0  0  0  0  0  0
  -21.5652   -3.4544   25.7707 F   0  0  0  0  0  0
  -29.9384  -13.7818   20.3529 N   0  0  0  0  0  0
  -26.2928  -12.9552   20.3299 N   0  0  0  0  0  0
  -25.9374  -11.6656   20.5790 N   0  0  0  0  0  0
  -22.0512  -12.8161   22.0446 N   0  0  0  0  0  0
  -25.4124  -15.1993   20.4145 N   0  0  0  0  0  0
  -31.7355  -15.0986   20.1381 O   0  0  0  0  0  0
  -21.6629   -6.8923   21.4247 O   0  0  0  0  0  0
  -22.3488  -14.5492   20.6699 O   0  0  0  0  0  0
  -24.6509  -31.8374   23.1784 C   0  0  0  0  0  0
  -25.9239  -32.4690   23.8227 C   0  0  1  0  0  0
  -27.2358  -27.0582   20.2047 C   0  0  0  0  0  0
  -25.5978  -33.8490   24.2162 N   0  0  0  0  0  0
  -23.4652  -30.4476   21.5255 C   0  0  2  0  0  0
  -24.9152  -28.8537   20.1223 C   0  0  0  0  0  0
  -22.7648  -29.4513   22.4877 C   0  0  0  0  0  0
  -18.0331  -28.1401   22.8480 C   0  0  0  0  0  0
  -24.1489  -36.7238   23.2657 C   0  0  0  0  0  0
  -26.0215  -30.6917   21.3830 C   0  0  0  0  0  0
  -26.0919  -29.2867   20.7445 C   0  0  0  0  0  0
  -27.2483  -28.4094   20.7635 C   0  0  0  0  0  0
  -26.0292  -26.7435   19.5365 C   0  0  0  0  0  0
  -24.9012  -27.5957   19.4983 C   0  0  0  0  0  0
  -23.6978  -29.7627   20.1523 C   0  0  0  0  0  0
  -25.4122  -36.3015   24.0339 C   0  0  1  0  0  0
  -20.5937  -28.3738   23.1239 C   0  0  2  0  0  0
  -20.6807  -26.9444   22.5413 C   0  0  0  0  0  0
  -19.5776  -26.6376   21.5244 C   0  0  0  0  0  0
  -18.1960  -26.7927   22.1624 C   0  0  0  0  0  0
  -19.1579  -28.8893   23.2845 C   0  0  0  0  0  0
  -18.9482  -30.1481   23.8873 C   0  0  0  0  0  0
  -17.6474  -30.6595   24.0577 C   0  0  0  0  0  0
  -25.9069  -34.9417   23.5049 C   0  0  0  0  0  0
  -16.5363  -29.9092   23.6334 C   0  0  0  0  0  0
  -16.7320  -28.6502   23.0370 C   0  0  0  0  0  0
  -26.4529  -31.6556   25.0677 C   0  0  0  0  0  0
  -25.3700  -31.3740   26.1373 C   0  0  0  0  0  0
  -27.0416  -30.2976   24.6244 C   0  0  0  0  0  0
  -27.6109  -32.4299   25.7437 C   0  0  0  0  0  0
  -27.5560  -37.1781   24.8488 C   0  0  0  0  0  0
  -21.4337  -29.3055   22.3602 N   0  0  0  0  0  0
  -26.4271  -37.3745   23.9434 N   0  0  0  0  0  0
  -24.7356  -31.0155   22.0850 N   0  0  0  0  0  0
  -23.4240  -28.8088   23.3101 O   0  0  0  0  0  0
  -28.2839  -26.0387   20.2743 O   0  0  0  0  0  0
  -26.5678  -34.8943   22.4635 O   0  0  0  0  0  0
  -23.5588  -32.1304   23.6897 O   0  0  0  0  0  0
  -31.1373  -18.5241   20.4221 C   0  0  0  0  0  0
  -30.8552  -19.8946   20.4714 C   0  0  0  0  0  0
  -29.8943  -17.8063   20.4410 C   0  0  0  0  0  0
  -29.0557  -23.1971   20.3943 C   0  0  0  0  0  0
  -28.6825  -21.5642   20.6567 C   0  0  0  0  0  0
  -27.9543  -24.4883   20.4474 C   0  0  0  0  0  0
  -28.9260  -18.8300   20.4768 N   0  0  0  0  0  0
  -29.4845  -20.1637   20.4800 N   0  0  0  0  0  0
  -29.7182  -16.2529   20.4893 N   0  0  0  0  0  0
  -30.2444  -23.4768   20.1963 O   0  0  0  0  0  0
  -31.4742  -12.8109   19.1773 H   0  0  0  0  0  0
  -30.4347  -11.7198   20.0460 H   0  0  0  0  0  0
  -29.8424  -11.7484   17.5965 H   0  0  0  0  0  0
  -29.5840  -13.4789   17.6715 H   0  0  0  0  0  0
  -27.9806  -11.2881   19.0144 H   0  0  0  0  0  0
  -27.3762  -12.4216   17.8406 H   0  0  0  0  0  0
  -27.5717  -14.2610   19.3867 H   0  0  0  0  0  0
  -28.7966  -12.3947   21.4746 H   0  0  0  0  0  0
  -28.3656  -14.0676   21.7299 H   0  0  0  0  0  0
  -25.2817   -9.5691   22.4777 H   0  0  0  0  0  0
  -24.0008   -7.4644   22.7406 H   0  0  0  0  0  0
  -21.0881   -8.8845   19.8926 H   0  0  0  0  0  0
  -22.3772  -10.9732   19.6132 H   0  0  0  0  0  0
  -21.2019   -7.6177   23.9746 H   0  0  0  0  0  0
  -21.1483   -6.0516   25.9086 H   0  0  0  0  0  0
  -22.0579   -2.7632   23.2790 H   0  0  0  0  0  0
  -22.4102  -11.9760   22.4783 H   0  0  0  0  0  0
  -21.1142  -13.1171   22.2676 H   0  0  0  0  0  0
  -24.6488  -15.8595   20.5206 H   0  0  0  0  0  0
  -26.2693  -15.6431   20.1134 H   0  0  0  0  0  0
  -26.7348  -32.5246   23.0991 H   0  0  0  0  0  0
  -25.0184  -33.9605   25.0347 H   0  0  0  0  0  0
  -22.7731  -31.2749   21.3581 H   0  0  0  0  0  0
  -23.3747  -35.9567   23.3307 H   0  0  0  0  0  0
  -24.3589  -36.8853   22.2074 H   0  0  0  0  0  0
  -23.7235  -37.6437   23.6682 H   0  0  0  0  0  0
  -26.1677  -31.4238   20.5866 H   0  0  0  0  0  0
  -26.8976  -30.7586   22.0182 H   0  0  0  0  0  0
  -28.1429  -28.7354   21.2758 H   0  0  0  0  0  0
  -25.9282  -25.7859   19.0481 H   0  0  0  0  0  0
  -24.0073  -27.2564   18.9967 H   0  0  0  0  0  0
  -23.8456  -30.5311   19.3944 H   0  0  0  0  0  0
  -22.8098  -29.2118   19.8343 H   0  0  0  0  0  0
  -25.1284  -36.1854   25.0828 H   0  0  0  0  0  0
  -21.0029  -28.3316   24.1363 H   0  0  0  0  0  0
  -20.5709  -26.2387   23.3650 H   0  0  0  0  0  0
  -21.6669  -26.7466   22.1190 H   0  0  0  0  0  0
  -19.6963  -25.6288   21.1283 H   0  0  0  0  0  0
  -19.6680  -27.3179   20.6768 H   0  0  0  0  0  0
  -17.4241  -26.6732   21.4017 H   0  0  0  0  0  0
  -18.0316  -26.0070   22.8988 H   0  0  0  0  0  0
  -19.7967  -30.7314   24.2224 H   0  0  0  0  0  0
  -17.5034  -31.6255   24.5170 H   0  0  0  0  0  0
  -15.5364  -30.2988   23.7662 H   0  0  0  0  0  0
  -15.8724  -28.0808   22.7091 H   0  0  0  0  0  0
  -24.5944  -30.7028   25.7666 H   0  0  0  0  0  0
  -24.8787  -32.2886   26.4709 H   0  0  0  0  0  0
  -25.7941  -30.8981   27.0225 H   0  0  0  0  0  0
  -26.3026  -29.6710   24.1255 H   0  0  0  0  0  0
  -27.4088  -29.7271   25.4783 H   0  0  0  0  0  0
  -27.8900  -30.4266   23.9533 H   0  0  0  0  0  0
  -27.2797  -33.3701   26.1877 H   0  0  0  0  0  0
  -28.3978  -32.6689   25.0257 H   0  0  0  0  0  0
  -28.0744  -31.8489   26.5431 H   0  0  0  0  0  0
  -28.2595  -38.0057   24.7484 H   0  0  0  0  0  0
  -28.1008  -36.2582   24.6315 H   0  0  0  0  0  0
  -27.2290  -37.1436   25.8895 H   0  0  0  0  0  0
  -20.9594  -29.8767   21.6720 H   0  0  0  0  0  0
  -26.0114  -38.2810   24.1379 H   0  0  0  0  0  0
  -32.1328  -18.1015   20.4198 H   0  0  0  0  0  0
  -31.5541  -20.7230   20.5176 H   0  0  0  0  0  0
  -27.7116  -21.4149   20.1809 H   0  0  0  0  0  0
  -28.4521  -21.5733   21.7241 H   0  0  0  0  0  0
  -27.4998  -24.4017   21.4377 H   0  0  0  0  0  0
  -27.1611  -24.2256   19.7480 H   0  0  0  0  0  0
  -28.7480  -16.0021   20.6016 H   0  0  0  0  0  0
  1 25  1  0  0  0
  1 30  2  0  0  0
  1 79  1  0  0  0
  2  3  1  0  0  0
  2 25  1  0  0  0
  2 81  1  0  0  0
  2 82  1  0  0  0
  3  4  1  0  0  0
  3 83  1  0  0  0
  3 84  1  0  0  0
  4  5  1  0  0  0
  4 85  1  0  0  0
  4 86  1  0  0  0
  5  6  1  0  0  0
  5 26  1  0  0  0
  5 87  1  0  0  0
  6 25  1  0  0  0
  6 88  1  0  0  0
  6 89  1  0  0  0
  7  8  2  0  0  0
  7 26  1  0  0  0
  7 29  1  0  0  0
  8  9  1  0  0  0
  8 22  1  0  0  0
  9 10  1  0  0  0
  9 27  2  0  0  0
 10 11  2  0  0  0
 10 15  1  0  0  0
 11 12  1  0  0  0
 11 90  1  0  0  0
 12 13  2  0  0  0
 12 91  1  0  0  0
 13 14  1  0  0  0
 13 31  1  0  0  0
 14 15  2  0  0  0
 14 92  1  0  0  0
 15 93  1  0  0  0
 16 17  2  0  0  0
 16 21  1  0  0  0
 16 31  1  0  0  0
 17 18  1  0  0  0
 17 94  1  0  0  0
 18 19  2  0  0  0
 18 95  1  0  0  0
 19 20  1  0  0  0
 19 24  1  0  0  0
 20 21  2  0  0  0
 20 96  1  0  0  0
 21 23  1  0  0  0
 22 28  1  0  0  0
 22 32  2  0  0  0
 26 27  1  0  0  0
 28 97  1  0  0  0
 28 98  1  0  0  0
 29 99  1  0  0  0
 29100  1  0  0  0
 33 34  1  0  0  0
 33 66  1  0  0  0
 33 70  2  0  0  0
 34 36  1  0  0  0
 34 59  1  0  0  0
 34101  1  0  0  0
 35 44  2  0  0  0
 35 45  1  0  0  0
 35 68  1  0  0  0
 36 56  1  0  0  0
 36102  1  0  0  0
 37 39  1  0  0  0
 37 47  1  0  0  0
 37 66  1  0  0  0
 37103  1  0  0  0
 38 43  2  0  0  0
 38 46  1  0  0  0
 38 47  1  0  0  0
 39 64  1  0  0  0
 39 67  2  0  0  0
 40 52  1  0  0  0
 40 53  2  0  0  0
 40 58  1  0  0  0
 41104  1  0  0  0
 41105  1  0  0  0
 41106  1  0  0  0
 41 48  1  0  0  0
 42 43  1  0  0  0
 42 66  1  0  0  0
 42107  1  0  0  0
 42108  1  0  0  0
 43 44  1  0  0  0
 44109  1  0  0  0
 45 46  2  0  0  0
 45110  1  0  0  0
 46111  1  0  0  0
 47112  1  0  0  0
 47113  1  0  0  0
 48 56  1  0  0  0
 48 65  1  0  0  0
 48114  1  0  0  0
 49 50  1  0  0  0
 49 53  1  0  0  0
 49 64  1  0  0  0
 49115  1  0  0  0
 50 51  1  0  0  0
 50116  1  0  0  0
 50117  1  0  0  0
 51 52  1  0  0  0
 51118  1  0  0  0
 51119  1  0  0  0
 52120  1  0  0  0
 52121  1  0  0  0
 53 54  1  0  0  0
 54 55  2  0  0  0
 54122  1  0  0  0
 55 57  1  0  0  0
 55123  1  0  0  0
 56 69  2  0  0  0
 57 58  2  0  0  0
 57124  1  0  0  0
 58125  1  0  0  0
 59 60  1  0  0  0
 59 61  1  0  0  0
 59 62  1  0  0  0
 60126  1  0  0  0
 60127  1  0  0  0
 60128  1  0  0  0
 61129  1  0  0  0
 61130  1  0  0  0
 61131  1  0  0  0
 62132  1  0  0  0
 62133  1  0  0  0
 62134  1  0  0  0
 63 65  1  0  0  0
 63135  1  0  0  0
 63136  1  0  0  0
 63137  1  0  0  0
 64138  1  0  0  0
 65139  1  0  0  0
 68 76  1  0  0  0
 71 72  2  0  0  0
 71 73  1  0  0  0
 71140  1  0  0  0
 72 78  1  0  0  0
 72141  1  0  0  0
 73 77  2  0  0  0
 73 79  1  0  0  0
 74 75  1  0  0  0
 74 76  1  0  0  0
 74 80  2  0  0  0
 75 78  1  0  0  0
 75142  1  0  0  0
 75143  1  0  0  0
 76144  1  0  0  0
 76145  1  0  0  0
 77 78  1  0  0  0
 79146  1  0  0  0
M  ISO  4   1 100  68 101  76 101  79 100
M  END
> <chiral flag>
0

> <version>
0

> <s_m_source_file>
/data/baiqing/PycharmProjects/Reinvent-master-3.2/result/LINK_invent/BTK/process_docking_weight1_custom_product_contain_oxygen_bond_distance_aromatic_linkinvent_7_9_3/rearranged_h_0153.sdf

> <i_m_source_file_index>
74

> <r_mmod_Potential_Energy-OPLS-2005>
637.177795410156

> <r_mmod_Stretch_Energy-OPLS-2005>
343.772430419922

> <r_mmod_Bend_Energy-OPLS-2005>
302.529937744141

> <r_mmod_Torsional_Energy-OPLS-2005>
224.652954101562

> <r_mmod_Improper_Torsional_Energy-OPLS-2005>
5.39339017868042

> <r_mmod_Van_der_Waal_Energy-OPLS-2005>
106.511894226074

> <r_mmod_Electrostatic_Energy-OPLS-2005>
-373.859649658203

> <r_mmod_Solvation_Energy-OPLS-2005>
-245.504547119141

> <b_mmod_Minimization_Converged-OPLS-2005>
0

> <r_mmod_RMS_Derivative-OPLS-2005>
8.02329349517822

$$$$
74
                    3D
 Structure written by MMmdl.
151159  0  0  1  0            999 V2000
  -30.6659  -14.7091   20.4252 C   0  0  0  0  0  0
  -30.4139  -12.4215   19.4902 C   0  0  0  0  0  0
  -29.5083  -12.4960   18.2430 C   0  0  0  0  0  0
  -28.0323  -12.3367   18.6496 C   0  0  0  0  0  0
  -27.6407  -13.2402   19.8503 C   0  0  2  0  0  0
  -28.6837  -13.1924   20.9898 C   0  0  0  0  0  0
  -25.2502  -13.8223   20.5707 C   0  0  0  0  0  0
  -24.1801  -13.0454   20.9211 C   0  0  0  0  0  0
  -24.6403  -11.6935   20.8750 C   0  0  0  0  0  0
  -23.9082  -10.4302   21.0404 C   0  0  0  0  0  0
  -24.3628   -9.4212   21.9181 C   0  0  0  0  0  0
  -23.6299   -8.2249   22.0753 C   0  0  0  0  0  0
  -22.4281   -8.0286   21.3543 C   0  0  0  0  0  0
  -21.9919   -9.0261   20.4645 C   0  0  0  0  0  0
  -22.7253  -10.2139   20.3053 C   0  0  0  0  0  0
  -21.6859   -6.0739   22.5277 C   0  0  0  0  0  0
  -21.4020   -6.5642   23.8211 C   0  0  0  0  0  0
  -21.3659   -5.6793   24.9173 C   0  0  0  0  0  0
  -21.6040   -4.3055   24.7223 C   0  0  0  0  0  0
  -21.8820   -3.8148   23.4344 C   0  0  0  0  0  0
  -21.9194   -4.6966   22.3400 C   0  0  0  0  0  0
  -22.7818  -13.5224   21.1861 C   0  0  0  0  0  0
  -22.1664   -4.2151   21.0977 F   0  0  0  0  0  0
  -21.5622   -3.4537   25.7734 F   0  0  0  0  0  0
  -29.9934  -13.5069   20.4091 N   0  0  0  0  0  0
  -26.2937  -12.9450   20.3292 N   0  0  0  0  0  0
  -25.9338  -11.6580   20.5759 N   0  0  0  0  0  0
  -22.0466  -12.8215   22.0419 N   0  0  0  0  0  0
  -25.4178  -15.1949   20.4126 N   0  0  0  0  0  0
  -31.8623  -14.7051   20.1240 O   0  0  0  0  0  0
  -21.6643   -6.8884   21.4240 O   0  0  0  0  0  0
  -22.3497  -14.5522   20.6698 O   0  0  0  0  0  0
  -24.6303  -31.8579   23.2018 C   0  0  0  0  0  0
  -25.9140  -32.4767   23.8355 C   0  0  1  0  0  0
  -27.2057  -27.2720   20.1264 C   0  0  0  0  0  0
  -25.5950  -33.8570   24.2279 N   0  0  0  0  0  0
  -23.4257  -30.4837   21.5451 C   0  0  2  0  0  0
  -24.8717  -28.9441   20.1031 C   0  0  0  0  0  0
  -22.7504  -29.4612   22.4911 C   0  0  0  0  0  0
  -18.0294  -28.1383   22.8486 C   0  0  0  0  0  0
  -24.1488  -36.7281   23.2638 C   0  0  0  0  0  0
  -25.9724  -30.7737   21.3832 C   0  0  0  0  0  0
  -26.0432  -29.4006   20.7202 C   0  0  0  0  0  0
  -27.2140  -28.5764   20.7243 C   0  0  0  0  0  0
  -26.0207  -26.9043   19.4463 C   0  0  0  0  0  0
  -24.8659  -27.7038   19.4532 C   0  0  0  0  0  0
  -23.6423  -29.8274   20.1574 C   0  0  0  0  0  0
  -25.4115  -36.3077   24.0328 C   0  0  1  0  0  0
  -20.5900  -28.3694   23.1266 C   0  0  2  0  0  0
  -20.6784  -26.9413   22.5404 C   0  0  0  0  0  0
  -19.5754  -26.6380   21.5212 C   0  0  0  0  0  0
  -18.1936  -26.7925   22.1628 C   0  0  0  0  0  0
  -19.1549  -28.8856   23.2871 C   0  0  0  0  0  0
  -18.9471  -30.1457   23.8888 C   0  0  0  0  0  0
  -17.6469  -30.6583   24.0560 C   0  0  0  0  0  0
  -25.9056  -34.9446   23.5101 C   0  0  0  0  0  0
  -16.5359  -29.9080   23.6329 C   0  0  0  0  0  0
  -16.7282  -28.6498   23.0351 C   0  0  0  0  0  0
  -26.4510  -31.6584   25.0736 C   0  0  0  0  0  0
  -25.3733  -31.3740   26.1457 C   0  0  0  0  0  0
  -27.0356  -30.2997   24.6226 C   0  0  0  0  0  0
  -27.6065  -32.4320   25.7513 C   0  0  0  0  0  0
  -27.5578  -37.1800   24.8465 C   0  0  0  0  0  0
  -21.4211  -29.3044   22.3658 N   0  0  0  0  0  0
  -26.4289  -37.3776   23.9409 N   0  0  0  0  0  0
  -24.6951  -31.0560   22.0991 N   0  0  0  0  0  0
  -23.4211  -28.8145   23.2998 O   0  0  0  0  0  0
  -28.2698  -26.3428   20.2341 O   0  0  0  0  0  0
  -26.5617  -34.8915   22.4663 O   0  0  0  0  0  0
  -23.5456  -32.1401   23.7317 O   0  0  0  0  0  0
  -28.8126  -20.4813   21.5449 C   0  0  0  0  0  0
  -29.1428  -19.0657   21.6161 C   0  0  0  0  0  0
  -29.6690  -18.4937   20.4772 C   0  0  0  0  0  0
  -29.0544  -21.0707   20.3191 C   0  0  0  0  0  0
  -30.3499  -17.1560   20.1205 C   0  0  0  0  0  0
  -26.9629  -24.6005   21.4380 C   0  0  0  0  0  0
  -29.0812  -23.7345   20.4001 C   0  0  0  0  0  0
  -27.9425  -24.8690   20.2730 C   0  0  2  0  0  0
  -28.7501  -22.3871   19.8021 N   0  0  0  0  0  0
  -29.9642  -15.9006   20.5829 N   0  0  0  0  0  0
  -31.2916  -17.2681   19.3262 O   0  0  0  0  0  0
  -28.9809  -18.3916   22.7325 F   0  0  0  0  0  0
  -29.7364  -19.8057   19.2651 S   0  0  0  0  0  0
  -31.4617  -12.4939   19.1944 H   0  0  0  0  0  0
  -30.3156  -11.4514   19.9797 H   0  0  0  0  0  0
  -29.7843  -11.7207   17.5271 H   0  0  0  0  0  0
  -29.6531  -13.4502   17.7342 H   0  0  0  0  0  0
  -27.8776  -11.2888   18.9091 H   0  0  0  0  0  0
  -27.3813  -12.5363   17.7975 H   0  0  0  0  0  0
  -27.6323  -14.2598   19.4643 H   0  0  0  0  0  0
  -28.7029  -12.2078   21.4594 H   0  0  0  0  0  0
  -28.4281  -13.9032   21.7769 H   0  0  0  0  0  0
  -25.2769   -9.5687   22.4759 H   0  0  0  0  0  0
  -24.0003   -7.4641   22.7474 H   0  0  0  0  0  0
  -21.0846   -8.8785   19.8953 H   0  0  0  0  0  0
  -22.3709  -10.9679   19.6163 H   0  0  0  0  0  0
  -21.2021   -7.6150   23.9718 H   0  0  0  0  0  0
  -21.1479   -6.0521   25.9075 H   0  0  0  0  0  0
  -22.0599   -2.7610   23.2842 H   0  0  0  0  0  0
  -22.4085  -11.9885   22.4817 H   0  0  0  0  0  0
  -21.1080  -13.1237   22.2612 H   0  0  0  0  0  0
  -24.6467  -15.8457   20.5180 H   0  0  0  0  0  0
  -26.2603  -15.6344   20.0659 H   0  0  0  0  0  0
  -26.7207  -32.5422   23.1097 H   0  0  0  0  0  0
  -25.0129  -33.9715   25.0446 H   0  0  0  0  0  0
  -22.7205  -31.3053   21.4045 H   0  0  0  0  0  0
  -23.3756  -35.9608   23.3303 H   0  0  0  0  0  0
  -24.3575  -36.8896   22.2050 H   0  0  0  0  0  0
  -23.7231  -37.6480   23.6656 H   0  0  0  0  0  0
  -26.1153  -31.5377   20.6177 H   0  0  0  0  0  0
  -26.8485  -30.8172   22.0185 H   0  0  0  0  0  0
  -28.1034  -28.9128   21.2390 H   0  0  0  0  0  0
  -25.9374  -25.9634   18.9273 H   0  0  0  0  0  0
  -23.9739  -27.3542   18.9515 H   0  0  0  0  0  0
  -23.7647  -30.6088   19.4063 H   0  0  0  0  0  0
  -22.7608  -29.2617   19.8501 H   0  0  0  0  0  0
  -25.1294  -36.1931   25.0821 H   0  0  0  0  0  0
  -20.9996  -28.3274   24.1385 H   0  0  0  0  0  0
  -20.5688  -26.2308   23.3611 H   0  0  0  0  0  0
  -21.6650  -26.7436   22.1193 H   0  0  0  0  0  0
  -19.6914  -25.6290   21.1242 H   0  0  0  0  0  0
  -19.6683  -27.3191   20.6741 H   0  0  0  0  0  0
  -17.4204  -26.6671   21.4031 H   0  0  0  0  0  0
  -18.0335  -26.0066   22.9025 H   0  0  0  0  0  0
  -19.7946  -30.7276   24.2249 H   0  0  0  0  0  0
  -17.5022  -31.6261   24.5165 H   0  0  0  0  0  0
  -15.5358  -30.2978   23.7651 H   0  0  0  0  0  0
  -15.8685  -28.0810   22.7068 H   0  0  0  0  0  0
  -24.5896  -30.7105   25.7784 H   0  0  0  0  0  0
  -24.8944  -32.2918   26.4883 H   0  0  0  0  0  0
  -25.8046  -30.8911   27.0234 H   0  0  0  0  0  0
  -26.2948  -29.6745   24.1229 H   0  0  0  0  0  0
  -27.4013  -29.7257   25.4750 H   0  0  0  0  0  0
  -27.8838  -30.4264   23.9492 H   0  0  0  0  0  0
  -27.2674  -33.3625   26.2079 H   0  0  0  0  0  0
  -28.3888  -32.6869   25.0350 H   0  0  0  0  0  0
  -28.0722  -31.8452   26.5442 H   0  0  0  0  0  0
  -28.2597  -38.0095   24.7515 H   0  0  0  0  0  0
  -28.1071  -36.2627   24.6291 H   0  0  0  0  0  0
  -27.2296  -37.1447   25.8868 H   0  0  0  0  0  0
  -20.9394  -29.8781   21.6878 H   0  0  0  0  0  0
  -26.0171  -38.2850   24.1412 H   0  0  0  0  0  0
  -28.3866  -20.9966   22.3924 H   0  0  0  0  0  0
  -26.7153  -23.5401   21.5024 H   0  0  0  0  0  0
  -26.0177  -25.1310   21.3454 H   0  0  0  0  0  0
  -27.4081  -24.8895   22.3900 H   0  0  0  0  0  0
  -29.3879  -23.6171   21.4406 H   0  0  0  0  0  0
  -29.9668  -24.0941   19.8741 H   0  0  0  0  0  0
  -27.4582  -24.6355   19.3267 H   0  0  0  0  0  0
  -28.7319  -22.4202   18.7844 H   0  0  0  0  0  0
  -29.0622  -15.8449   21.0243 H   0  0  0  0  0  0
  1 25  1  0  0  0
  1 30  2  0  0  0
  1 80  1  0  0  0
  2  3  1  0  0  0
  2 25  1  0  0  0
  2 84  1  0  0  0
  2 85  1  0  0  0
  3  4  1  0  0  0
  3 86  1  0  0  0
  3 87  1  0  0  0
  4  5  1  0  0  0
  4 88  1  0  0  0
  4 89  1  0  0  0
  5  6  1  0  0  0
  5 26  1  0  0  0
  5 90  1  0  0  0
  6 25  1  0  0  0
  6 91  1  0  0  0
  6 92  1  0  0  0
  7  8  2  0  0  0
  7 26  1  0  0  0
  7 29  1  0  0  0
  8  9  1  0  0  0
  8 22  1  0  0  0
  9 10  1  0  0  0
  9 27  2  0  0  0
 10 11  2  0  0  0
 10 15  1  0  0  0
 11 12  1  0  0  0
 11 93  1  0  0  0
 12 13  2  0  0  0
 12 94  1  0  0  0
 13 14  1  0  0  0
 13 31  1  0  0  0
 14 15  2  0  0  0
 14 95  1  0  0  0
 15 96  1  0  0  0
 16 17  2  0  0  0
 16 21  1  0  0  0
 16 31  1  0  0  0
 17 18  1  0  0  0
 17 97  1  0  0  0
 18 19  2  0  0  0
 18 98  1  0  0  0
 19 20  1  0  0  0
 19 24  1  0  0  0
 20 21  2  0  0  0
 20 99  1  0  0  0
 21 23  1  0  0  0
 22 28  1  0  0  0
 22 32  2  0  0  0
 26 27  1  0  0  0
 28100  1  0  0  0
 28101  1  0  0  0
 29102  1  0  0  0
 29103  1  0  0  0
 33 34  1  0  0  0
 33 66  1  0  0  0
 33 70  2  0  0  0
 34 36  1  0  0  0
 34 59  1  0  0  0
 34104  1  0  0  0
 35 44  2  0  0  0
 35 45  1  0  0  0
 35 68  1  0  0  0
 36 56  1  0  0  0
 36105  1  0  0  0
 37 39  1  0  0  0
 37 47  1  0  0  0
 37 66  1  0  0  0
 37106  1  0  0  0
 38 43  2  0  0  0
 38 46  1  0  0  0
 38 47  1  0  0  0
 39 64  1  0  0  0
 39 67  2  0  0  0
 40 52  1  0  0  0
 40 53  2  0  0  0
 40 58  1  0  0  0
 41107  1  0  0  0
 41108  1  0  0  0
 41109  1  0  0  0
 41 48  1  0  0  0
 42 43  1  0  0  0
 42 66  1  0  0  0
 42110  1  0  0  0
 42111  1  0  0  0
 43 44  1  0  0  0
 44112  1  0  0  0
 45 46  2  0  0  0
 45113  1  0  0  0
 46114  1  0  0  0
 47115  1  0  0  0
 47116  1  0  0  0
 48 56  1  0  0  0
 48 65  1  0  0  0
 48117  1  0  0  0
 49 50  1  0  0  0
 49 53  1  0  0  0
 49 64  1  0  0  0
 49118  1  0  0  0
 50 51  1  0  0  0
 50119  1  0  0  0
 50120  1  0  0  0
 51 52  1  0  0  0
 51121  1  0  0  0
 51122  1  0  0  0
 52123  1  0  0  0
 52124  1  0  0  0
 53 54  1  0  0  0
 54 55  2  0  0  0
 54125  1  0  0  0
 55 57  1  0  0  0
 55126  1  0  0  0
 56 69  2  0  0  0
 57 58  2  0  0  0
 57127  1  0  0  0
 58128  1  0  0  0
 59 60  1  0  0  0
 59 61  1  0  0  0
 59 62  1  0  0  0
 60129  1  0  0  0
 60130  1  0  0  0
 60131  1  0  0  0
 61132  1  0  0  0
 61133  1  0  0  0
 61134  1  0  0  0
 62135  1  0  0  0
 62136  1  0  0  0
 62137  1  0  0  0
 63 65  1  0  0  0
 63138  1  0  0  0
 63139  1  0  0  0
 63140  1  0  0  0
 64141  1  0  0  0
 65142  1  0  0  0
 68 78  1  0  0  0
 71 72  1  0  0  0
 71 74  2  0  0  0
 71143  1  0  0  0
 72 73  2  0  0  0
 72 82  1  0  0  0
 73 75  1  0  0  0
 73 83  1  0  0  0
 74 79  1  0  0  0
 74 83  1  0  0  0
 75 80  1  0  0  0
 75 81  2  0  0  0
 76144  1  0  0  0
 76145  1  0  0  0
 76146  1  0  0  0
 76 78  1  0  0  0
 77 78  1  0  0  0
 77 79  1  0  0  0
 77147  1  0  0  0
 77148  1  0  0  0
 78149  1  0  0  0
 79150  1  0  0  0
 80151  1  0  0  0
M  ISO  4   1 100  68 101  78 101  80 100
M  END
> <chiral flag>
0

> <version>
0

> <s_m_source_file>
/data/baiqing/PycharmProjects/Reinvent-master-3.2/result/LINK_invent/BTK/process_docking_weight1_custom_product_contain_oxygen_bond_distance_aromatic_linkinvent_7_9_3/rearranged_h_0153.sdf

> <i_m_source_file_index>
75

> <r_mmod_Potential_Energy-OPLS-2005>
91.5564422607422

> <r_mmod_Stretch_Energy-OPLS-2005>
104.116119384766

> <r_mmod_Bend_Energy-OPLS-2005>
170.18376159668

> <r_mmod_Torsional_Energy-OPLS-2005>
255.829895019531

> <r_mmod_Improper_Torsional_Energy-OPLS-2005>
7.8642373085022

> <r_mmod_Van_der_Waal_Energy-OPLS-2005>
135.81803894043

> <r_mmod_Electrostatic_Energy-OPLS-2005>
-436.769561767578

> <r_mmod_Solvation_Energy-OPLS-2005>
-229.140594482422

> <b_mmod_Minimization_Converged-OPLS-2005>
0

> <r_mmod_RMS_Derivative-OPLS-2005>
0.639658868312836

$$$$
75
                    3D
 Structure written by MMmdl.
151159  0  0  1  0            999 V2000
  -30.5786  -14.7391   20.4646 C   0  0  0  0  0  0
  -30.4453  -12.4526   19.4635 C   0  0  0  0  0  0
  -29.5121  -12.5065   18.2321 C   0  0  0  0  0  0
  -28.0370  -12.3313   18.6467 C   0  0  0  0  0  0
  -27.6436  -13.2249   19.8520 C   0  0  2  0  0  0
  -28.6898  -13.1363   20.9848 C   0  0  0  0  0  0
  -25.2517  -13.8189   20.5702 C   0  0  0  0  0  0
  -24.1804  -13.0441   20.9233 C   0  0  0  0  0  0
  -24.6387  -11.6919   20.8773 C   0  0  0  0  0  0
  -23.9069  -10.4297   21.0429 C   0  0  0  0  0  0
  -24.3618   -9.4205   21.9195 C   0  0  0  0  0  0
  -23.6298   -8.2238   22.0746 C   0  0  0  0  0  0
  -22.4279   -8.0281   21.3541 C   0  0  0  0  0  0
  -21.9923   -9.0259   20.4646 C   0  0  0  0  0  0
  -22.7252  -10.2140   20.3069 C   0  0  0  0  0  0
  -21.6847   -6.0744   22.5287 C   0  0  0  0  0  0
  -21.4010   -6.5646   23.8221 C   0  0  0  0  0  0
  -21.3659   -5.6796   24.9181 C   0  0  0  0  0  0
  -21.6046   -4.3059   24.7226 C   0  0  0  0  0  0
  -21.8817   -3.8154   23.4344 C   0  0  0  0  0  0
  -21.9186   -4.6973   22.3404 C   0  0  0  0  0  0
  -22.7827  -13.5227   21.1887 C   0  0  0  0  0  0
  -22.1659   -4.2161   21.0980 F   0  0  0  0  0  0
  -21.5622   -3.4537   25.7734 F   0  0  0  0  0  0
  -29.9922  -13.4963   20.4069 N   0  0  0  0  0  0
  -26.2937  -12.9379   20.3281 N   0  0  0  0  0  0
  -25.9312  -11.6533   20.5768 N   0  0  0  0  0  0
  -22.0460  -12.8222   22.0444 N   0  0  0  0  0  0
  -25.4202  -15.1914   20.4109 N   0  0  0  0  0  0
  -31.7719  -14.8838   20.1807 O   0  0  0  0  0  0
  -21.6631   -6.8887   21.4248 O   0  0  0  0  0  0
  -22.3525  -14.5534   20.6737 O   0  0  0  0  0  0
  -24.6300  -31.8547   23.1980 C   0  0  0  0  0  0
  -25.9139  -32.4739   23.8314 C   0  0  1  0  0  0
  -27.2256  -27.2776   20.1340 C   0  0  0  0  0  0
  -25.5940  -33.8542   24.2248 N   0  0  0  0  0  0
  -23.4251  -30.4777   21.5385 C   0  0  2  0  0  0
  -24.8733  -28.9182   20.1145 C   0  0  0  0  0  0
  -22.7473  -29.4620   22.4897 C   0  0  0  0  0  0
  -18.0286  -28.1393   22.8473 C   0  0  0  0  0  0
  -24.1489  -36.7291   23.2638 C   0  0  0  0  0  0
  -25.9679  -30.7737   21.3718 C   0  0  0  0  0  0
  -26.0434  -29.3944   20.7210 C   0  0  0  0  0  0
  -27.2242  -28.5875   20.7175 C   0  0  0  0  0  0
  -26.0339  -26.8581   19.5074 C   0  0  0  0  0  0
  -24.8724  -27.6557   19.4979 C   0  0  0  0  0  0
  -23.6443  -29.8057   20.1561 C   0  0  0  0  0  0
  -25.4111  -36.3057   24.0321 C   0  0  1  0  0  0
  -20.5884  -28.3715   23.1258 C   0  0  2  0  0  0
  -20.6775  -26.9436   22.5400 C   0  0  0  0  0  0
  -19.5758  -26.6395   21.5194 C   0  0  0  0  0  0
  -18.1939  -26.7933   22.1614 C   0  0  0  0  0  0
  -19.1537  -28.8866   23.2864 C   0  0  0  0  0  0
  -18.9469  -30.1459   23.8893 C   0  0  0  0  0  0
  -17.6477  -30.6594   24.0570 C   0  0  0  0  0  0
  -25.9055  -34.9428   23.5090 C   0  0  0  0  0  0
  -16.5364  -29.9099   23.6334 C   0  0  0  0  0  0
  -16.7276  -28.6516   23.0350 C   0  0  0  0  0  0
  -26.4515  -31.6551   25.0694 C   0  0  0  0  0  0
  -25.3758  -31.3709   26.1432 C   0  0  0  0  0  0
  -27.0355  -30.2962   24.6169 C   0  0  0  0  0  0
  -27.6060  -32.4281   25.7491 C   0  0  0  0  0  0
  -27.5572  -37.1799   24.8462 C   0  0  0  0  0  0
  -21.4180  -29.3066   22.3638 N   0  0  0  0  0  0
  -26.4281  -37.3761   23.9406 N   0  0  0  0  0  0
  -24.6935  -31.0524   22.0937 N   0  0  0  0  0  0
  -23.4173  -28.8169   23.3005 O   0  0  0  0  0  0
  -28.3350  -26.4094   20.1323 O   0  0  0  0  0  0
  -26.5627  -34.8910   22.4655 O   0  0  0  0  0  0
  -23.5459  -32.1363   23.7290 O   0  0  0  0  0  0
  -30.6250  -19.4624   20.9180 C   0  0  0  0  0  0
  -30.8707  -18.0309   21.0208 C   0  0  0  0  0  0
  -29.4268  -19.8397   20.3388 C   0  0  0  0  0  0
  -29.8597  -17.2070   20.5651 C   0  0  0  0  0  0
  -29.1851  -22.3771   20.5051 C   0  0  0  0  0  0
  -27.7461  -23.4136   18.5881 C   0  0  0  0  0  0
  -28.1694  -24.9945   20.6101 C   0  0  0  0  0  0
  -28.7015  -23.7224   19.7571 C   0  0  1  0  0  0
  -28.9236  -21.1104   20.0060 N   0  0  0  0  0  0
  -29.7120  -15.8107   20.6010 N   0  0  0  0  0  0
  -29.8335  -22.5046   21.5455 O   0  0  0  0  0  0
  -28.5836  -18.3078   19.9619 S   0  0  0  0  0  0
  -31.4813  -12.6050   19.1555 H   0  0  0  0  0  0
  -30.4127  -11.4709   19.9389 H   0  0  0  0  0  0
  -29.7931  -11.7357   17.5132 H   0  0  0  0  0  0
  -29.6353  -13.4606   17.7177 H   0  0  0  0  0  0
  -27.8888  -11.2823   18.9039 H   0  0  0  0  0  0
  -27.3805  -12.5311   17.7990 H   0  0  0  0  0  0
  -27.6409  -14.2477   19.4738 H   0  0  0  0  0  0
  -28.7248  -12.1307   21.4048 H   0  0  0  0  0  0
  -28.4254  -13.8005   21.8097 H   0  0  0  0  0  0
  -25.2758   -9.5665   22.4777 H   0  0  0  0  0  0
  -23.9998   -7.4619   22.7457 H   0  0  0  0  0  0
  -21.0851   -8.8803   19.8950 H   0  0  0  0  0  0
  -22.3727  -10.9689   19.6182 H   0  0  0  0  0  0
  -21.2010   -7.6153   23.9733 H   0  0  0  0  0  0
  -21.1483   -6.0519   25.9085 H   0  0  0  0  0  0
  -22.0593   -2.7615   23.2840 H   0  0  0  0  0  0
  -22.4063  -11.9882   22.4841 H   0  0  0  0  0  0
  -21.1071  -13.1258   22.2633 H   0  0  0  0  0  0
  -24.6476  -15.8396   20.5161 H   0  0  0  0  0  0
  -26.2517  -15.6315   20.0401 H   0  0  0  0  0  0
  -26.7204  -32.5399   23.1054 H   0  0  0  0  0  0
  -25.0075  -33.9671   25.0388 H   0  0  0  0  0  0
  -22.7228  -31.3003   21.3884 H   0  0  0  0  0  0
  -23.3732  -35.9642   23.3289 H   0  0  0  0  0  0
  -24.3593  -36.8928   22.2058 H   0  0  0  0  0  0
  -23.7267  -37.6500   23.6670 H   0  0  0  0  0  0
  -26.0972  -31.5302   20.5963 H   0  0  0  0  0  0
  -26.8491  -30.8299   21.9994 H   0  0  0  0  0  0
  -28.1222  -28.9499   21.1978 H   0  0  0  0  0  0
  -25.9964  -25.8906   19.0269 H   0  0  0  0  0  0
  -23.9779  -27.2843   19.0159 H   0  0  0  0  0  0
  -23.7721  -30.5786   19.3970 H   0  0  0  0  0  0
  -22.7621  -29.2395   19.8513 H   0  0  0  0  0  0
  -25.1290  -36.1894   25.0812 H   0  0  0  0  0  0
  -20.9988  -28.3311   24.1374 H   0  0  0  0  0  0
  -20.5661  -26.2341   23.3610 H   0  0  0  0  0  0
  -21.6650  -26.7456   22.1212 H   0  0  0  0  0  0
  -19.6937  -25.6300   21.1238 H   0  0  0  0  0  0
  -19.6695  -27.3192   20.6709 H   0  0  0  0  0  0
  -17.4204  -26.6652   21.4027 H   0  0  0  0  0  0
  -18.0370  -26.0071   22.9015 H   0  0  0  0  0  0
  -19.7952  -30.7259   24.2272 H   0  0  0  0  0  0
  -17.5044  -31.6275   24.5172 H   0  0  0  0  0  0
  -15.5371  -30.3018   23.7655 H   0  0  0  0  0  0
  -15.8668  -28.0845   22.7072 H   0  0  0  0  0  0
  -24.5944  -30.7022   25.7794 H   0  0  0  0  0  0
  -24.8941  -32.2883   26.4820 H   0  0  0  0  0  0
  -25.8111  -30.8940   27.0224 H   0  0  0  0  0  0
  -26.2931  -29.6701   24.1203 H   0  0  0  0  0  0
  -27.4048  -29.7222   25.4677 H   0  0  0  0  0  0
  -27.8799  -30.4214   23.9387 H   0  0  0  0  0  0
  -27.2653  -33.3578   26.2055 H   0  0  0  0  0  0
  -28.3907  -32.6836   25.0359 H   0  0  0  0  0  0
  -28.0680  -31.8406   26.5437 H   0  0  0  0  0  0
  -28.2577  -38.0105   24.7497 H   0  0  0  0  0  0
  -28.1074  -36.2633   24.6281 H   0  0  0  0  0  0
  -27.2295  -37.1446   25.8868 H   0  0  0  0  0  0
  -20.9357  -29.8804   21.6861 H   0  0  0  0  0  0
  -26.0147  -38.2828   24.1412 H   0  0  0  0  0  0
  -31.3662  -20.1689   21.2634 H   0  0  0  0  0  0
  -31.7874  -17.6643   21.4614 H   0  0  0  0  0  0
  -27.5424  -24.3150   18.0097 H   0  0  0  0  0  0
  -26.7914  -23.0248   18.9419 H   0  0  0  0  0  0
  -28.1722  -22.6855   17.8967 H   0  0  0  0  0  0
  -28.6671  -24.9682   21.5798 H   0  0  0  0  0  0
  -27.1229  -24.8157   20.8567 H   0  0  0  0  0  0
  -29.6253  -24.0764   19.3000 H   0  0  0  0  0  0
  -28.2604  -21.1100   19.2419 H   0  0  0  0  0  0
  -28.7531  -15.5044   20.6571 H   0  0  0  0  0  0
  1 25  1  0  0  0
  1 30  2  0  0  0
  1 80  1  0  0  0
  2  3  1  0  0  0
  2 25  1  0  0  0
  2 83  1  0  0  0
  2 84  1  0  0  0
  3  4  1  0  0  0
  3 85  1  0  0  0
  3 86  1  0  0  0
  4  5  1  0  0  0
  4 87  1  0  0  0
  4 88  1  0  0  0
  5  6  1  0  0  0
  5 26  1  0  0  0
  5 89  1  0  0  0
  6 25  1  0  0  0
  6 90  1  0  0  0
  6 91  1  0  0  0
  7  8  2  0  0  0
  7 26  1  0  0  0
  7 29  1  0  0  0
  8  9  1  0  0  0
  8 22  1  0  0  0
  9 10  1  0  0  0
  9 27  2  0  0  0
 10 11  2  0  0  0
 10 15  1  0  0  0
 11 12  1  0  0  0
 11 92  1  0  0  0
 12 13  2  0  0  0
 12 93  1  0  0  0
 13 14  1  0  0  0
 13 31  1  0  0  0
 14 15  2  0  0  0
 14 94  1  0  0  0
 15 95  1  0  0  0
 16 17  2  0  0  0
 16 21  1  0  0  0
 16 31  1  0  0  0
 17 18  1  0  0  0
 17 96  1  0  0  0
 18 19  2  0  0  0
 18 97  1  0  0  0
 19 20  1  0  0  0
 19 24  1  0  0  0
 20 21  2  0  0  0
 20 98  1  0  0  0
 21 23  1  0  0  0
 22 28  1  0  0  0
 22 32  2  0  0  0
 26 27  1  0  0  0
 28 99  1  0  0  0
 28100  1  0  0  0
 29101  1  0  0  0
 29102  1  0  0  0
 33 34  1  0  0  0
 33 66  1  0  0  0
 33 70  2  0  0  0
 34 36  1  0  0  0
 34 59  1  0  0  0
 34103  1  0  0  0
 35 44  2  0  0  0
 35 45  1  0  0  0
 35 68  1  0  0  0
 36 56  1  0  0  0
 36104  1  0  0  0
 37 39  1  0  0  0
 37 47  1  0  0  0
 37 66  1  0  0  0
 37105  1  0  0  0
 38 43  2  0  0  0
 38 46  1  0  0  0
 38 47  1  0  0  0
 39 64  1  0  0  0
 39 67  2  0  0  0
 40 52  1  0  0  0
 40 53  2  0  0  0
 40 58  1  0  0  0
 41106  1  0  0  0
 41107  1  0  0  0
 41108  1  0  0  0
 41 48  1  0  0  0
 42 43  1  0  0  0
 42 66  1  0  0  0
 42109  1  0  0  0
 42110  1  0  0  0
 43 44  1  0  0  0
 44111  1  0  0  0
 45 46  2  0  0  0
 45112  1  0  0  0
 46113  1  0  0  0
 47114  1  0  0  0
 47115  1  0  0  0
 48 56  1  0  0  0
 48 65  1  0  0  0
 48116  1  0  0  0
 49 50  1  0  0  0
 49 53  1  0  0  0
 49 64  1  0  0  0
 49117  1  0  0  0
 50 51  1  0  0  0
 50118  1  0  0  0
 50119  1  0  0  0
 51 52  1  0  0  0
 51120  1  0  0  0
 51121  1  0  0  0
 52122  1  0  0  0
 52123  1  0  0  0
 53 54  1  0  0  0
 54 55  2  0  0  0
 54124  1  0  0  0
 55 57  1  0  0  0
 55125  1  0  0  0
 56 69  2  0  0  0
 57 58  2  0  0  0
 57126  1  0  0  0
 58127  1  0  0  0
 59 60  1  0  0  0
 59 61  1  0  0  0
 59 62  1  0  0  0
 60128  1  0  0  0
 60129  1  0  0  0
 60130  1  0  0  0
 61131  1  0  0  0
 61132  1  0  0  0
 61133  1  0  0  0
 62134  1  0  0  0
 62135  1  0  0  0
 62136  1  0  0  0
 63 65  1  0  0  0
 63137  1  0  0  0
 63138  1  0  0  0
 63139  1  0  0  0
 64140  1  0  0  0
 65141  1  0  0  0
 68 77  1  0  0  0
 71 72  1  0  0  0
 71 73  2  0  0  0
 71142  1  0  0  0
 72 74  2  0  0  0
 72143  1  0  0  0
 73 79  1  0  0  0
 73 82  1  0  0  0
 74 80  1  0  0  0
 74 82  1  0  0  0
 75 78  1  0  0  0
 75 79  1  0  0  0
 75 81  2  0  0  0
 76144  1  0  0  0
 76145  1  0  0  0
 76146  1  0  0  0
 76 78  1  0  0  0
 77 78  1  0  0  0
 77147  1  0  0  0
 77148  1  0  0  0
 78149  1  0  0  0
 79150  1  0  0  0
 80151  1  0  0  0
M  ISO  4   1 100  68 101  77 101  80 100
M  END
> <chiral flag>
0

> <version>
0

> <s_m_source_file>
/data/baiqing/PycharmProjects/Reinvent-master-3.2/result/LINK_invent/BTK/process_docking_weight1_custom_product_contain_oxygen_bond_distance_aromatic_linkinvent_7_9_3/rearranged_h_0153.sdf

> <i_m_source_file_index>
76

> <r_mmod_Potential_Energy-OPLS-2005>
109.973526000977

> <r_mmod_Stretch_Energy-OPLS-2005>
104.426177978516

> <r_mmod_Bend_Energy-OPLS-2005>
169.081588745117

> <r_mmod_Torsional_Energy-OPLS-2005>
261.776397705078

> <r_mmod_Improper_Torsional_Energy-OPLS-2005>
6.33163356781006

> <r_mmod_Van_der_Waal_Energy-OPLS-2005>
113.578422546387

> <r_mmod_Electrostatic_Energy-OPLS-2005>
-394.263977050781

> <r_mmod_Solvation_Energy-OPLS-2005>
-229.699462890625

> <b_mmod_Minimization_Converged-OPLS-2005>
0

> <r_mmod_RMS_Derivative-OPLS-2005>
1.58073079586029

$$$$
76
                    3D
 Structure written by MMmdl.
155163  0  0  1  0            999 V2000
  -30.6597  -14.5381   20.5281 C   0  0  0  0  0  0
  -30.4303  -12.3343   19.4367 C   0  0  0  0  0  0
  -29.5023  -12.5029   18.2148 C   0  0  0  0  0  0
  -28.0223  -12.3557   18.6235 C   0  0  0  0  0  0
  -27.6566  -13.2080   19.8686 C   0  0  2  0  0  0
  -28.6989  -13.0189   20.9951 C   0  0  0  0  0  0
  -25.2567  -13.8149   20.5669 C   0  0  0  0  0  0
  -24.1825  -13.0431   20.9184 C   0  0  0  0  0  0
  -24.6380  -11.6901   20.8733 C   0  0  0  0  0  0
  -23.9047  -10.4290   21.0400 C   0  0  0  0  0  0
  -24.3604   -9.4210   21.9179 C   0  0  0  0  0  0
  -23.6292   -8.2239   22.0743 C   0  0  0  0  0  0
  -22.4275   -8.0271   21.3534 C   0  0  0  0  0  0
  -21.9899   -9.0243   20.4642 C   0  0  0  0  0  0
  -22.7215  -10.2129   20.3055 C   0  0  0  0  0  0
  -21.6852   -6.0729   22.5280 C   0  0  0  0  0  0
  -21.4009   -6.5636   23.8210 C   0  0  0  0  0  0
  -21.3664   -5.6788   24.9173 C   0  0  0  0  0  0
  -21.6052   -4.3051   24.7223 C   0  0  0  0  0  0
  -21.8821   -3.8139   23.4346 C   0  0  0  0  0  0
  -21.9190   -4.6955   22.3403 C   0  0  0  0  0  0
  -22.7851  -13.5236   21.1862 C   0  0  0  0  0  0
  -22.1663   -4.2141   21.0982 F   0  0  0  0  0  0
  -21.5630   -3.4537   25.7739 F   0  0  0  0  0  0
  -30.0248  -13.3345   20.4383 N   0  0  0  0  0  0
  -26.2993  -12.9322   20.3327 N   0  0  0  0  0  0
  -25.9304  -11.6484   20.5742 N   0  0  0  0  0  0
  -22.0488  -12.8231   22.0422 N   0  0  0  0  0  0
  -25.4288  -15.1861   20.4061 N   0  0  0  0  0  0
  -31.8191  -14.6972   20.1360 O   0  0  0  0  0  0
  -21.6638   -6.8869   21.4243 O   0  0  0  0  0  0
  -22.3550  -14.5555   20.6716 O   0  0  0  0  0  0
  -24.6174  -31.8643   23.2065 C   0  0  0  0  0  0
  -25.9056  -32.4797   23.8366 C   0  0  1  0  0  0
  -27.2352  -27.3944   20.0925 C   0  0  0  0  0  0
  -25.5892  -33.8597   24.2288 N   0  0  0  0  0  0
  -23.4062  -30.4885   21.5478 C   0  0  2  0  0  0
  -24.8507  -28.9468   20.1139 C   0  0  0  0  0  0
  -22.7420  -29.4646   22.4972 C   0  0  0  0  0  0
  -18.0269  -28.1379   22.8490 C   0  0  0  0  0  0
  -24.1484  -36.7316   23.2640 C   0  0  0  0  0  0
  -25.9391  -30.8161   21.3657 C   0  0  0  0  0  0
  -26.0127  -29.4474   20.7120 C   0  0  0  0  0  0
  -27.2025  -28.6779   20.6994 C   0  0  0  0  0  0
  -26.0445  -26.9119   19.5004 C   0  0  0  0  0  0
  -24.8632  -27.6794   19.5079 C   0  0  0  0  0  0
  -23.6161  -29.8210   20.1621 C   0  0  0  0  0  0
  -25.4106  -36.3100   24.0330 C   0  0  1  0  0  0
  -20.5862  -28.3666   23.1309 C   0  0  2  0  0  0
  -20.6758  -26.9399   22.5424 C   0  0  0  0  0  0
  -19.5737  -26.6381   21.5221 C   0  0  0  0  0  0
  -18.1916  -26.7921   22.1631 C   0  0  0  0  0  0
  -19.1521  -28.8839   23.2896 C   0  0  0  0  0  0
  -18.9453  -30.1446   23.8904 C   0  0  0  0  0  0
  -17.6457  -30.6585   24.0565 C   0  0  0  0  0  0
  -25.9040  -34.9465   23.5115 C   0  0  0  0  0  0
  -16.5347  -29.9091   23.6324 C   0  0  0  0  0  0
  -16.7260  -28.6512   23.0336 C   0  0  0  0  0  0
  -26.4464  -31.6592   25.0715 C   0  0  0  0  0  0
  -25.3731  -31.3722   26.1470 C   0  0  0  0  0  0
  -27.0290  -30.3022   24.6126 C   0  0  0  0  0  0
  -27.6026  -32.4323   25.7483 C   0  0  0  0  0  0
  -27.5576  -37.1814   24.8461 C   0  0  0  0  0  0
  -21.4145  -29.3030   22.3713 N   0  0  0  0  0  0
  -26.4283  -37.3793   23.9413 N   0  0  0  0  0  0
  -24.6727  -31.0718   22.0979 N   0  0  0  0  0  0
  -23.4185  -28.8187   23.3020 O   0  0  0  0  0  0
  -28.4203  -26.6690   20.1185 O   0  0  0  0  0  0
  -26.5621  -34.8927   22.4688 O   0  0  0  0  0  0
  -23.5359  -32.1410   23.7445 O   0  0  0  0  0  0
  -29.0809  -17.8704   20.4056 C   0  0  0  0  0  0
  -29.5828  -19.2047   20.1853 C   0  0  0  0  0  0
  -30.0539  -16.9269   20.6907 C   0  0  0  0  0  0
  -30.9411  -19.3029   20.3829 C   0  0  0  0  0  0
  -28.7097  -20.3227   19.7206 C   0  0  0  0  0  0
  -28.4465  -24.1253   20.3217 C   0  0  0  0  0  0
  -28.1196  -22.8048   19.5919 C   0  0  0  0  0  0
  -28.5652  -25.3921   19.4358 C   0  0  0  0  0  0
  -28.6050  -24.1685   21.5800 N   0  0  0  0  0  0
  -31.7963  -20.3959   20.2566 N   0  0  0  0  0  0
  -29.8603  -15.5789   20.8830 N   0  0  0  0  0  0
  -28.8901  -21.6223   20.0892 N   0  0  0  0  0  0
  -27.7137  -20.0260   18.8675 N   0  3  0  0  0  0
  -31.6121  -17.7388   20.8029 S   0  0  0  0  0  0
  -31.4746  -12.4435   19.1377 H   0  0  0  0  0  0
  -30.3435  -11.3290   19.8508 H   0  0  0  0  0  0
  -29.7533  -11.7685   17.4485 H   0  0  0  0  0  0
  -29.6641  -13.4829   17.7624 H   0  0  0  0  0  0
  -27.8421  -11.3001   18.8312 H   0  0  0  0  0  0
  -27.3723  -12.6146   17.7864 H   0  0  0  0  0  0
  -27.6898  -14.2504   19.5513 H   0  0  0  0  0  0
  -28.6858  -11.9897   21.3576 H   0  0  0  0  0  0
  -28.4577  -13.6388   21.8606 H   0  0  0  0  0  0
  -25.2747   -9.5695   22.4751 H   0  0  0  0  0  0
  -24.0007   -7.4629   22.7456 H   0  0  0  0  0  0
  -21.0823   -8.8754   19.8954 H   0  0  0  0  0  0
  -22.3659  -10.9665   19.6167 H   0  0  0  0  0  0
  -21.2000   -7.6144   23.9717 H   0  0  0  0  0  0
  -21.1490   -6.0513   25.9078 H   0  0  0  0  0  0
  -22.0597   -2.7599   23.2845 H   0  0  0  0  0  0
  -22.4085  -11.9894   22.4823 H   0  0  0  0  0  0
  -21.1108  -13.1257   22.2626 H   0  0  0  0  0  0
  -24.6569  -15.8371   20.5033 H   0  0  0  0  0  0
  -26.2688  -15.6193   20.0465 H   0  0  0  0  0  0
  -26.7123  -32.5491   23.1122 H   0  0  0  0  0  0
  -25.0009  -33.9744   25.0410 H   0  0  0  0  0  0
  -22.6962  -31.3066   21.4084 H   0  0  0  0  0  0
  -23.3734  -35.9662   23.3309 H   0  0  0  0  0  0
  -24.3578  -36.8931   22.2055 H   0  0  0  0  0  0
  -23.7250  -37.6526   23.6658 H   0  0  0  0  0  0
  -26.0599  -31.5801   20.5963 H   0  0  0  0  0  0
  -26.8239  -30.8658   21.9891 H   0  0  0  0  0  0
  -28.0991  -29.0635   21.1644 H   0  0  0  0  0  0
  -25.9909  -25.9384   19.0385 H   0  0  0  0  0  0
  -23.9665  -27.2836   19.0507 H   0  0  0  0  0  0
  -23.7312  -30.5970   19.4040 H   0  0  0  0  0  0
  -22.7372  -29.2474   19.8625 H   0  0  0  0  0  0
  -25.1285  -36.1957   25.0821 H   0  0  0  0  0  0
  -20.9952  -28.3239   24.1432 H   0  0  0  0  0  0
  -20.5661  -26.2277   23.3617 H   0  0  0  0  0  0
  -21.6629  -26.7438   22.1220 H   0  0  0  0  0  0
  -19.6895  -25.6298   21.1236 H   0  0  0  0  0  0
  -19.6667  -27.3202   20.6760 H   0  0  0  0  0  0
  -17.4186  -26.6660   21.4036 H   0  0  0  0  0  0
  -18.0315  -26.0065   22.9029 H   0  0  0  0  0  0
  -19.7933  -30.7255   24.2270 H   0  0  0  0  0  0
  -17.5019  -31.6263   24.5168 H   0  0  0  0  0  0
  -15.5350  -30.3001   23.7641 H   0  0  0  0  0  0
  -15.8659  -28.0847   22.7027 H   0  0  0  0  0  0
  -24.5892  -30.7069   25.7832 H   0  0  0  0  0  0
  -24.8934  -32.2884   26.4921 H   0  0  0  0  0  0
  -25.8086  -30.8901   27.0231 H   0  0  0  0  0  0
  -26.2843  -29.6798   24.1146 H   0  0  0  0  0  0
  -27.3998  -29.7248   25.4607 H   0  0  0  0  0  0
  -27.8708  -30.4317   23.9319 H   0  0  0  0  0  0
  -27.2620  -33.3605   26.2084 H   0  0  0  0  0  0
  -28.3821  -32.6913   25.0309 H   0  0  0  0  0  0
  -28.0706  -31.8441   26.5388 H   0  0  0  0  0  0
  -28.2598  -38.0108   24.7505 H   0  0  0  0  0  0
  -28.1064  -36.2641   24.6277 H   0  0  0  0  0  0
  -27.2302  -37.1458   25.8866 H   0  0  0  0  0  0
  -20.9306  -29.8763   21.6945 H   0  0  0  0  0  0
  -26.0166  -38.2869   24.1414 H   0  0  0  0  0  0
  -28.0298  -17.6450   20.3009 H   0  0  0  0  0  0
  -28.3126  -22.9262   18.5259 H   0  0  0  0  0  0
  -27.0527  -22.6102   19.7018 H   0  0  0  0  0  0
  -27.9335  -25.3046   18.5534 H   0  0  0  0  0  0
  -29.5789  -25.3907   19.0348 H   0  0  0  0  0  0
  -28.4680  -23.2621   22.0126 H   0  0  0  0  0  0
  -31.6838  -21.0069   19.4527 H   0  0  0  0  0  0
  -32.7853  -20.2038   20.3934 H   0  0  0  0  0  0
  -28.9235  -15.2985   21.1317 H   0  0  0  0  0  0
  -29.6774  -21.8219   20.6935 H   0  0  0  0  0  0
  -27.6070  -19.0804   18.5330 H   0  0  0  0  0  0
  -27.0866  -20.7146   18.4864 H   0  0  0  0  0  0
  1 25  1  0  0  0
  1 30  2  0  0  0
  1 81  1  0  0  0
  2  3  1  0  0  0
  2 25  1  0  0  0
  2 85  1  0  0  0
  2 86  1  0  0  0
  3  4  1  0  0  0
  3 87  1  0  0  0
  3 88  1  0  0  0
  4  5  1  0  0  0
  4 89  1  0  0  0
  4 90  1  0  0  0
  5  6  1  0  0  0
  5 26  1  0  0  0
  5 91  1  0  0  0
  6 25  1  0  0  0
  6 92  1  0  0  0
  6 93  1  0  0  0
  7  8  2  0  0  0
  7 26  1  0  0  0
  7 29  1  0  0  0
  8  9  1  0  0  0
  8 22  1  0  0  0
  9 10  1  0  0  0
  9 27  2  0  0  0
 10 11  2  0  0  0
 10 15  1  0  0  0
 11 12  1  0  0  0
 11 94  1  0  0  0
 12 13  2  0  0  0
 12 95  1  0  0  0
 13 14  1  0  0  0
 13 31  1  0  0  0
 14 15  2  0  0  0
 14 96  1  0  0  0
 15 97  1  0  0  0
 16 17  2  0  0  0
 16 21  1  0  0  0
 16 31  1  0  0  0
 17 18  1  0  0  0
 17 98  1  0  0  0
 18 19  2  0  0  0
 18 99  1  0  0  0
 19 20  1  0  0  0
 19 24  1  0  0  0
 20 21  2  0  0  0
 20100  1  0  0  0
 21 23  1  0  0  0
 22 28  1  0  0  0
 22 32  2  0  0  0
 26 27  1  0  0  0
 28101  1  0  0  0
 28102  1  0  0  0
 29103  1  0  0  0
 29104  1  0  0  0
 33 34  1  0  0  0
 33 66  1  0  0  0
 33 70  2  0  0  0
 34 36  1  0  0  0
 34 59  1  0  0  0
 34105  1  0  0  0
 35 44  2  0  0  0
 35 45  1  0  0  0
 35 68  1  0  0  0
 36 56  1  0  0  0
 36106  1  0  0  0
 37 39  1  0  0  0
 37 47  1  0  0  0
 37 66  1  0  0  0
 37107  1  0  0  0
 38 43  2  0  0  0
 38 46  1  0  0  0
 38 47  1  0  0  0
 39 64  1  0  0  0
 39 67  2  0  0  0
 40 52  1  0  0  0
 40 53  2  0  0  0
 40 58  1  0  0  0
 41108  1  0  0  0
 41109  1  0  0  0
 41110  1  0  0  0
 41 48  1  0  0  0
 42 43  1  0  0  0
 42 66  1  0  0  0
 42111  1  0  0  0
 42112  1  0  0  0
 43 44  1  0  0  0
 44113  1  0  0  0
 45 46  2  0  0  0
 45114  1  0  0  0
 46115  1  0  0  0
 47116  1  0  0  0
 47117  1  0  0  0
 48 56  1  0  0  0
 48 65  1  0  0  0
 48118  1  0  0  0
 49 50  1  0  0  0
 49 53  1  0  0  0
 49 64  1  0  0  0
 49119  1  0  0  0
 50 51  1  0  0  0
 50120  1  0  0  0
 50121  1  0  0  0
 51 52  1  0  0  0
 51122  1  0  0  0
 51123  1  0  0  0
 52124  1  0  0  0
 52125  1  0  0  0
 53 54  1  0  0  0
 54 55  2  0  0  0
 54126  1  0  0  0
 55 57  1  0  0  0
 55127  1  0  0  0
 56 69  2  0  0  0
 57 58  2  0  0  0
 57128  1  0  0  0
 58129  1  0  0  0
 59 60  1  0  0  0
 59 61  1  0  0  0
 59 62  1  0  0  0
 60130  1  0  0  0
 60131  1  0  0  0
 60132  1  0  0  0
 61133  1  0  0  0
 61134  1  0  0  0
 61135  1  0  0  0
 62136  1  0  0  0
 62137  1  0  0  0
 62138  1  0  0  0
 63 65  1  0  0  0
 63139  1  0  0  0
 63140  1  0  0  0
 63141  1  0  0  0
 64142  1  0  0  0
 65143  1  0  0  0
 68 78  1  0  0  0
 71 72  1  0  0  0
 71 73  2  0  0  0
 71144  1  0  0  0
 72 74  2  0  0  0
 72 75  1  0  0  0
 73 81  1  0  0  0
 73 84  1  0  0  0
 74 80  1  0  0  0
 74 84  1  0  0  0
 75 82  1  0  0  0
 75 83  2  0  0  0
 76 77  1  0  0  0
 76 78  1  0  0  0
 76 79  2  0  0  0
 77 82  1  0  0  0
 77145  1  0  0  0
 77146  1  0  0  0
 78147  1  0  0  0
 78148  1  0  0  0
 79149  1  0  0  0
 80150  1  0  0  0
 80151  1  0  0  0
 81152  1  0  0  0
 82153  1  0  0  0
 83154  1  0  0  0
 83155  1  0  0  0
M  CHG  1  83   1
M  ISO  4   1 100  68 101  78 101  81 100
M  END
> <chiral flag>
0

> <version>
0

> <s_m_source_file>
/data/baiqing/PycharmProjects/Reinvent-master-3.2/result/LINK_invent/BTK/process_docking_weight1_custom_product_contain_oxygen_bond_distance_aromatic_linkinvent_7_9_3/rearranged_h_0153.sdf

> <i_m_source_file_index>
77

> <r_mmod_Potential_Energy-OPLS-2005>
-188.206680297852

> <r_mmod_Stretch_Energy-OPLS-2005>
47.9488906860352

> <r_mmod_Bend_Energy-OPLS-2005>
119.380462646484

> <r_mmod_Torsional_Energy-OPLS-2005>
204.371994018555

> <r_mmod_Improper_Torsional_Energy-OPLS-2005>
10.1702671051025

> <r_mmod_Van_der_Waal_Energy-OPLS-2005>
131.435684204102

> <r_mmod_Electrostatic_Energy-OPLS-2005>
-190.450622558594

> <r_mmod_Solvation_Energy-OPLS-2005>
-532.492797851562

> <b_mmod_Minimization_Converged-OPLS-2005>
0

> <r_mmod_RMS_Derivative-OPLS-2005>
1.16086530685425

$$$$
77
                    3D
 Structure written by MMmdl.
166175  0  0  1  0            999 V2000
  -30.6627  -14.5379   20.5879 C   0  0  0  0  0  0
  -30.4352  -12.3580   19.4270 C   0  0  0  0  0  0
  -29.5029  -12.5450   18.2100 C   0  0  0  0  0  0
  -28.0225  -12.3886   18.6151 C   0  0  0  0  0  0
  -27.6608  -13.2166   19.8775 C   0  0  2  0  0  0
  -28.7032  -12.9924   20.9960 C   0  0  0  0  0  0
  -25.2577  -13.8182   20.5735 C   0  0  0  0  0  0
  -24.1828  -13.0447   20.9192 C   0  0  0  0  0  0
  -24.6395  -11.6916   20.8732 C   0  0  0  0  0  0
  -23.9066  -10.4301   21.0416 C   0  0  0  0  0  0
  -24.3625   -9.4212   21.9181 C   0  0  0  0  0  0
  -23.6300   -8.2245   22.0748 C   0  0  0  0  0  0
  -22.4271   -8.0291   21.3550 C   0  0  0  0  0  0
  -21.9908   -9.0271   20.4659 C   0  0  0  0  0  0
  -22.7245  -10.2143   20.3067 C   0  0  0  0  0  0
  -21.6849   -6.0753   22.5283 C   0  0  0  0  0  0
  -21.4017   -6.5646   23.8227 C   0  0  0  0  0  0
  -21.3664   -5.6788   24.9178 C   0  0  0  0  0  0
  -21.6038   -4.3054   24.7224 C   0  0  0  0  0  0
  -21.8811   -3.8154   23.4346 C   0  0  0  0  0  0
  -21.9188   -4.6977   22.3403 C   0  0  0  0  0  0
  -22.7850  -13.5253   21.1853 C   0  0  0  0  0  0
  -22.1657   -4.2172   21.0976 F   0  0  0  0  0  0
  -21.5631   -3.4534   25.7729 F   0  0  0  0  0  0
  -30.0302  -13.3355   20.4529 N   0  0  0  0  0  0
  -26.3016  -12.9367   20.3363 N   0  0  0  0  0  0
  -25.9317  -11.6515   20.5720 N   0  0  0  0  0  0
  -22.0474  -12.8271   22.0413 N   0  0  0  0  0  0
  -25.4302  -15.1914   20.4249 N   0  0  0  0  0  0
  -31.7819  -14.7537   20.1109 O   0  0  0  0  0  0
  -21.6629   -6.8897   21.4243 O   0  0  0  0  0  0
  -22.3535  -14.5555   20.6694 O   0  0  0  0  0  0
  -24.6213  -31.8644   23.2079 C   0  0  0  0  0  0
  -25.9105  -32.4811   23.8362 C   0  0  1  0  0  0
  -27.2270  -27.3837   20.0932 C   0  0  0  0  0  0
  -25.5958  -33.8598   24.2336 N   0  0  0  0  0  0
  -23.4078  -30.4904   21.5491 C   0  0  2  0  0  0
  -24.8520  -28.9525   20.1092 C   0  0  0  0  0  0
  -22.7435  -29.4654   22.4969 C   0  0  0  0  0  0
  -18.0278  -28.1371   22.8494 C   0  0  0  0  0  0
  -24.1483  -36.7290   23.2638 C   0  0  0  0  0  0
  -25.9417  -30.8148   21.3654 C   0  0  0  0  0  0
  -26.0151  -29.4449   20.7132 C   0  0  0  0  0  0
  -27.2015  -28.6644   20.7091 C   0  0  0  0  0  0
  -26.0397  -26.9246   19.4845 C   0  0  0  0  0  0
  -24.8610  -27.6917   19.4928 C   0  0  0  0  0  0
  -23.6175  -29.8258   20.1627 C   0  0  0  0  0  0
  -25.4106  -36.3096   24.0355 C   0  0  1  0  0  0
  -20.5875  -28.3659   23.1315 C   0  0  2  0  0  0
  -20.6771  -26.9395   22.5411 C   0  0  0  0  0  0
  -19.5744  -26.6385   21.5207 C   0  0  0  0  0  0
  -18.1923  -26.7922   22.1623 C   0  0  0  0  0  0
  -19.1532  -28.8829   23.2896 C   0  0  0  0  0  0
  -18.9459  -30.1431   23.8904 C   0  0  0  0  0  0
  -17.6467  -30.6577   24.0555 C   0  0  0  0  0  0
  -25.9041  -34.9467   23.5136 C   0  0  0  0  0  0
  -16.5357  -29.9073   23.6328 C   0  0  0  0  0  0
  -16.7268  -28.6489   23.0355 C   0  0  0  0  0  0
  -26.4536  -31.6594   25.0689 C   0  0  0  0  0  0
  -25.3824  -31.3689   26.1459 C   0  0  0  0  0  0
  -27.0364  -30.3036   24.6067 C   0  0  0  0  0  0
  -27.6107  -32.4321   25.7455 C   0  0  0  0  0  0
  -27.5586  -37.1792   24.8469 C   0  0  0  0  0  0
  -21.4156  -29.3023   22.3717 N   0  0  0  0  0  0
  -26.4287  -37.3798   23.9429 N   0  0  0  0  0  0
  -24.6750  -31.0717   22.0987 N   0  0  0  0  0  0
  -23.4199  -28.8198   23.3020 O   0  0  0  0  0  0
  -28.3838  -26.6119   20.1369 O   0  0  0  0  0  0
  -26.5562  -34.8941   22.4667 O   0  0  0  0  0  0
  -23.5398  -32.1410   23.7467 O   0  0  0  0  0  0
  -30.7256  -17.5725   22.2824 C   0  0  0  0  0  0
  -30.7668  -19.0006   22.1092 C   0  0  0  0  0  0
  -30.1799  -16.8625   21.2428 C   0  0  0  0  0  0
  -30.2239  -19.4260   20.9009 C   0  0  0  0  0  0
  -31.3934  -19.8328   23.1454 C   0  0  0  0  0  0
  -29.1971  -21.6023   20.4001 C   0  0  0  0  0  0
  -27.1619  -23.3741   18.7704 C   0  0  0  0  0  0
  -28.0083  -22.9097   17.5808 C   0  0  0  0  0  0
  -29.3514  -22.9295   19.5727 C   0  0  2  0  0  0
  -28.1990  -24.0060   19.7198 C   0  0  1  0  0  0
  -30.9978  -21.3014   23.2390 C   0  0  0  0  0  0
  -30.4798  -23.0775   17.3460 C   0  0  0  0  0  0
  -28.5816  -25.4759   19.2516 C   0  0  0  0  0  0
  -30.1962  -20.6817   20.3395 N   0  0  0  0  0  0
  -29.9405  -15.5122   21.1966 N   0  0  0  0  0  0
  -29.3386  -22.5557   18.1339 N   0  3  2  0  0  0
  -32.1940  -19.4055   23.9836 O   0  0  0  0  0  0
  -28.1803  -21.3981   21.0672 O   0  0  0  0  0  0
  -29.6708  -18.0032   20.0037 S   0  0  0  0  0  0
  -31.4790  -12.4820   19.1288 H   0  0  0  0  0  0
  -30.3546  -11.3446   19.8209 H   0  0  0  0  0  0
  -29.7575  -11.8341   17.4236 H   0  0  0  0  0  0
  -29.6578  -13.5378   17.7820 H   0  0  0  0  0  0
  -27.8344  -11.3317   18.8000 H   0  0  0  0  0  0
  -27.3757  -12.6732   17.7833 H   0  0  0  0  0  0
  -27.7010  -14.2675   19.5888 H   0  0  0  0  0  0
  -28.6942  -11.9481   21.3097 H   0  0  0  0  0  0
  -28.4521  -13.5622   21.8916 H   0  0  0  0  0  0
  -25.2784   -9.5679   22.4748 H   0  0  0  0  0  0
  -24.0024   -7.4624   22.7452 H   0  0  0  0  0  0
  -21.0839   -8.8808   19.8970 H   0  0  0  0  0  0
  -22.3722  -10.9689   19.6183 H   0  0  0  0  0  0
  -21.2013   -7.6155   23.9746 H   0  0  0  0  0  0
  -21.1491   -6.0510   25.9087 H   0  0  0  0  0  0
  -22.0588   -2.7624   23.2824 H   0  0  0  0  0  0
  -22.4070  -11.9948   22.4843 H   0  0  0  0  0  0
  -21.1101  -13.1340   22.2622 H   0  0  0  0  0  0
  -24.6742  -15.8521   20.5672 H   0  0  0  0  0  0
  -26.2929  -15.6359   20.1362 H   0  0  0  0  0  0
  -26.7164  -32.5541   23.1102 H   0  0  0  0  0  0
  -25.0146  -33.9711   25.0514 H   0  0  0  0  0  0
  -22.6979  -31.3092   21.4103 H   0  0  0  0  0  0
  -23.3755  -35.9613   23.3284 H   0  0  0  0  0  0
  -24.3562  -36.8899   22.2050 H   0  0  0  0  0  0
  -23.7227  -37.6494   23.6642 H   0  0  0  0  0  0
  -26.0584  -31.5805   20.5972 H   0  0  0  0  0  0
  -26.8276  -30.8689   21.9853 H   0  0  0  0  0  0
  -28.0950  -29.0378   21.1903 H   0  0  0  0  0  0
  -25.9935  -25.9641   19.0097 H   0  0  0  0  0  0
  -23.9669  -27.3018   19.0245 H   0  0  0  0  0  0
  -23.7343  -30.6019   19.4060 H   0  0  0  0  0  0
  -22.7394  -29.2506   19.8625 H   0  0  0  0  0  0
  -25.1285  -36.1942   25.0855 H   0  0  0  0  0  0
  -20.9955  -28.3219   24.1439 H   0  0  0  0  0  0
  -20.5681  -26.2253   23.3579 H   0  0  0  0  0  0
  -21.6642  -26.7439   22.1197 H   0  0  0  0  0  0
  -19.6892  -25.6295   21.1217 H   0  0  0  0  0  0
  -19.6696  -27.3210   20.6741 H   0  0  0  0  0  0
  -17.4201  -26.6682   21.4016 H   0  0  0  0  0  0
  -18.0308  -26.0065   22.9016 H   0  0  0  0  0  0
  -19.7936  -30.7234   24.2294 H   0  0  0  0  0  0
  -17.5026  -31.6269   24.5132 H   0  0  0  0  0  0
  -15.5355  -30.2975   23.7645 H   0  0  0  0  0  0
  -15.8672  -28.0800   22.7070 H   0  0  0  0  0  0
  -24.5984  -30.7056   25.7797 H   0  0  0  0  0  0
  -24.9047  -32.2837   26.4969 H   0  0  0  0  0  0
  -25.8221  -30.8811   27.0166 H   0  0  0  0  0  0
  -26.2865  -29.6762   24.1233 H   0  0  0  0  0  0
  -27.4234  -29.7336   25.4520 H   0  0  0  0  0  0
  -27.8675  -30.4331   23.9134 H   0  0  0  0  0  0
  -27.2716  -33.3605   26.2065 H   0  0  0  0  0  0
  -28.3915  -32.6905   25.0291 H   0  0  0  0  0  0
  -28.0789  -31.8428   26.5350 H   0  0  0  0  0  0
  -28.2621  -38.0074   24.7528 H   0  0  0  0  0  0
  -28.1070  -36.2609   24.6283 H   0  0  0  0  0  0
  -27.2299  -37.1446   25.8871 H   0  0  0  0  0  0
  -20.9305  -29.8741   21.6942 H   0  0  0  0  0  0
  -26.0172  -38.2879   24.1439 H   0  0  0  0  0  0
  -31.1008  -17.1160   23.1882 H   0  0  0  0  0  0
  -26.6986  -22.5060   19.2436 H   0  0  0  0  0  0
  -26.3415  -24.0157   18.4624 H   0  0  0  0  0  0
  -28.0925  -23.7167   16.8508 H   0  0  0  0  0  0
  -27.5541  -22.0626   17.0681 H   0  0  0  0  0  0
  -30.3078  -23.3635   19.8683 H   0  0  0  0  0  0
  -27.8201  -24.0450   20.7413 H   0  0  0  0  0  0
  -31.2743  -21.7032   24.2125 H   0  0  0  0  0  0
  -29.9206  -21.4136   23.1250 H   0  0  0  0  0  0
  -31.5069  -21.8870   22.4757 H   0  0  0  0  0  0
  -30.3973  -22.7793   16.3013 H   0  0  0  0  0  0
  -31.4264  -22.6901   17.7232 H   0  0  0  0  0  0
  -30.5272  -24.1663   17.3751 H   0  0  0  0  0  0
  -28.1481  -25.7001   18.2776 H   0  0  0  0  0  0
  -29.6516  -25.4949   19.0524 H   0  0  0  0  0  0
  -31.0307  -20.9480   19.8328 H   0  0  0  0  0  0
  -29.0552  -15.2059   21.5735 H   0  0  0  0  0  0
  -29.4073  -21.5481   18.1053 H   0  0  0  0  0  0
  1 25  1  0  0  0
  1 30  2  0  0  0
  1 85  1  0  0  0
  2  3  1  0  0  0
  2 25  1  0  0  0
  2 90  1  0  0  0
  2 91  1  0  0  0
  3  4  1  0  0  0
  3 92  1  0  0  0
  3 93  1  0  0  0
  4  5  1  0  0  0
  4 94  1  0  0  0
  4 95  1  0  0  0
  5  6  1  0  0  0
  5 26  1  0  0  0
  5 96  1  0  0  0
  6 25  1  0  0  0
  6 97  1  0  0  0
  6 98  1  0  0  0
  7  8  2  0  0  0
  7 26  1  0  0  0
  7 29  1  0  0  0
  8  9  1  0  0  0
  8 22  1  0  0  0
  9 10  1  0  0  0
  9 27  2  0  0  0
 10 11  2  0  0  0
 10 15  1  0  0  0
 11 12  1  0  0  0
 11 99  1  0  0  0
 12 13  2  0  0  0
 12100  1  0  0  0
 13 14  1  0  0  0
 13 31  1  0  0  0
 14 15  2  0  0  0
 14101  1  0  0  0
 15102  1  0  0  0
 16 17  2  0  0  0
 16 21  1  0  0  0
 16 31  1  0  0  0
 17 18  1  0  0  0
 17103  1  0  0  0
 18 19  2  0  0  0
 18104  1  0  0  0
 19 20  1  0  0  0
 19 24  1  0  0  0
 20 21  2  0  0  0
 20105  1  0  0  0
 21 23  1  0  0  0
 22 28  1  0  0  0
 22 32  2  0  0  0
 26 27  1  0  0  0
 28106  1  0  0  0
 28107  1  0  0  0
 29108  1  0  0  0
 29109  1  0  0  0
 33 34  1  0  0  0
 33 66  1  0  0  0
 33 70  2  0  0  0
 34 36  1  0  0  0
 34 59  1  0  0  0
 34110  1  0  0  0
 35 44  2  0  0  0
 35 45  1  0  0  0
 35 68  1  0  0  0
 36 56  1  0  0  0
 36111  1  0  0  0
 37 39  1  0  0  0
 37 47  1  0  0  0
 37 66  1  0  0  0
 37112  1  0  0  0
 38 43  2  0  0  0
 38 46  1  0  0  0
 38 47  1  0  0  0
 39 64  1  0  0  0
 39 67  2  0  0  0
 40 52  1  0  0  0
 40 53  2  0  0  0
 40 58  1  0  0  0
 41113  1  0  0  0
 41114  1  0  0  0
 41115  1  0  0  0
 41 48  1  0  0  0
 42 43  1  0  0  0
 42 66  1  0  0  0
 42116  1  0  0  0
 42117  1  0  0  0
 43 44  1  0  0  0
 44118  1  0  0  0
 45 46  2  0  0  0
 45119  1  0  0  0
 46120  1  0  0  0
 47121  1  0  0  0
 47122  1  0  0  0
 48 56  1  0  0  0
 48 65  1  0  0  0
 48123  1  0  0  0
 49 50  1  0  0  0
 49 53  1  0  0  0
 49 64  1  0  0  0
 49124  1  0  0  0
 50 51  1  0  0  0
 50125  1  0  0  0
 50126  1  0  0  0
 51 52  1  0  0  0
 51127  1  0  0  0
 51128  1  0  0  0
 52129  1  0  0  0
 52130  1  0  0  0
 53 54  1  0  0  0
 54 55  2  0  0  0
 54131  1  0  0  0
 55 57  1  0  0  0
 55132  1  0  0  0
 56 69  2  0  0  0
 57 58  2  0  0  0
 57133  1  0  0  0
 58134  1  0  0  0
 59 60  1  0  0  0
 59 61  1  0  0  0
 59 62  1  0  0  0
 60135  1  0  0  0
 60136  1  0  0  0
 60137  1  0  0  0
 61138  1  0  0  0
 61139  1  0  0  0
 61140  1  0  0  0
 62141  1  0  0  0
 62142  1  0  0  0
 62143  1  0  0  0
 63 65  1  0  0  0
 63144  1  0  0  0
 63145  1  0  0  0
 63146  1  0  0  0
 64147  1  0  0  0
 65148  1  0  0  0
 68 83  1  0  0  0
 71 72  1  0  0  0
 71 73  2  0  0  0
 71149  1  0  0  0
 72 74  2  0  0  0
 72 75  1  0  0  0
 73 85  1  0  0  0
 73 89  1  0  0  0
 74 84  1  0  0  0
 74 89  1  0  0  0
 75 81  1  0  0  0
 75 87  2  0  0  0
 76 84  1  0  0  0
 76 88  2  0  0  0
 76 79  1  0  0  0
 77 78  1  0  0  0
 77 80  1  0  0  0
 77150  1  0  0  0
 77151  1  0  0  0
 78 86  1  0  0  0
 78152  1  0  0  0
 78153  1  0  0  0
 79 80  1  0  0  0
 79 86  1  0  0  0
 79154  1  0  0  0
 80 83  1  0  0  0
 80155  1  0  0  0
 81156  1  0  0  0
 81157  1  0  0  0
 81158  1  0  0  0
 82159  1  0  0  0
 82160  1  0  0  0
 82161  1  0  0  0
 82 86  1  0  0  0
 83162  1  0  0  0
 83163  1  0  0  0
 84164  1  0  0  0
 85165  1  0  0  0
 86166  1  0  0  0
M  CHG  1  86   1
M  ISO  4   1 100  68 101  83 101  85 100
M  END
> <chiral flag>
0

> <version>
0

> <s_m_source_file>
/data/baiqing/PycharmProjects/Reinvent-master-3.2/result/LINK_invent/BTK/process_docking_weight1_custom_product_contain_oxygen_bond_distance_aromatic_linkinvent_7_9_3/rearranged_h_0153.sdf

> <i_m_source_file_index>
78

> <r_mmod_Potential_Energy-OPLS-2005>
-78.4611587524414

> <r_mmod_Stretch_Energy-OPLS-2005>
56.0310096740723

> <r_mmod_Bend_Energy-OPLS-2005>
166.161163330078

> <r_mmod_Torsional_Energy-OPLS-2005>
352.44287109375

> <r_mmod_Improper_Torsional_Energy-OPLS-2005>
3.52684211730957

> <r_mmod_Van_der_Waal_Energy-OPLS-2005>
127.476020812988

> <r_mmod_Electrostatic_Energy-OPLS-2005>
-293.441680908203

> <r_mmod_Solvation_Energy-OPLS-2005>
-512.858947753906

> <b_mmod_Minimization_Converged-OPLS-2005>
0

> <r_mmod_RMS_Derivative-OPLS-2005>
2.64810371398926

$$$$
78
                    3D
 Structure written by MMmdl.
151160  0  0  1  0            999 V2000
  -30.5815  -14.7786   20.4608 C   0  0  0  0  0  0
  -30.4429  -12.4732   19.4834 C   0  0  0  0  0  0
  -29.5179  -12.5193   18.2452 C   0  0  0  0  0  0
  -28.0442  -12.3341   18.6557 C   0  0  0  0  0  0
  -27.6463  -13.2314   19.8573 C   0  0  2  0  0  0
  -28.6899  -13.1585   20.9946 C   0  0  0  0  0  0
  -25.2523  -13.8195   20.5698 C   0  0  0  0  0  0
  -24.1808  -13.0443   20.9202 C   0  0  0  0  0  0
  -24.6396  -11.6919   20.8741 C   0  0  0  0  0  0
  -23.9069  -10.4297   21.0399 C   0  0  0  0  0  0
  -24.3618   -9.4214   21.9179 C   0  0  0  0  0  0
  -23.6293   -8.2248   22.0754 C   0  0  0  0  0  0
  -22.4275   -8.0282   21.3545 C   0  0  0  0  0  0
  -21.9910   -9.0255   20.4645 C   0  0  0  0  0  0
  -22.7239  -10.2134   20.3052 C   0  0  0  0  0  0
  -21.6855   -6.0733   22.5277 C   0  0  0  0  0  0
  -21.4016   -6.5637   23.8210 C   0  0  0  0  0  0
  -21.3661   -5.6791   24.9173 C   0  0  0  0  0  0
  -21.6047   -4.3054   24.7224 C   0  0  0  0  0  0
  -21.8817   -3.8144   23.4346 C   0  0  0  0  0  0
  -21.9193   -4.6960   22.3402 C   0  0  0  0  0  0
  -22.7828  -13.5226   21.1865 C   0  0  0  0  0  0
  -22.1660   -4.2145   21.0980 F   0  0  0  0  0  0
  -21.5630   -3.4538   25.7738 F   0  0  0  0  0  0
  -29.9930  -13.5289   20.4230 N   0  0  0  0  0  0
  -26.2960  -12.9402   20.3305 N   0  0  0  0  0  0
  -25.9332  -11.6546   20.5759 N   0  0  0  0  0  0
  -22.0473  -12.8213   22.0418 N   0  0  0  0  0  0
  -25.4214  -15.1920   20.4116 N   0  0  0  0  0  0
  -31.7515  -14.9122   20.0873 O   0  0  0  0  0  0
  -21.6641   -6.8875   21.4239 O   0  0  0  0  0  0
  -22.3510  -14.5532   20.6716 O   0  0  0  0  0  0
  -24.6341  -31.8523   23.1962 C   0  0  0  0  0  0
  -25.9153  -32.4741   23.8321 C   0  0  1  0  0  0
  -27.2248  -27.2473   20.1311 C   0  0  0  0  0  0
  -25.5939  -33.8544   24.2245 N   0  0  0  0  0  0
  -23.4341  -30.4743   21.5386 C   0  0  2  0  0  0
  -24.8867  -28.9223   20.1056 C   0  0  0  0  0  0
  -22.7528  -29.4587   22.4885 C   0  0  0  0  0  0
  -18.0299  -28.1395   22.8479 C   0  0  0  0  0  0
  -24.1489  -36.7277   23.2642 C   0  0  0  0  0  0
  -25.9824  -30.7607   21.3813 C   0  0  0  0  0  0
  -26.0593  -29.3828   20.7212 C   0  0  0  0  0  0
  -27.2343  -28.5565   20.7272 C   0  0  0  0  0  0
  -26.0346  -26.8648   19.4775 C   0  0  0  0  0  0
  -24.8802  -27.6715   19.4709 C   0  0  0  0  0  0
  -23.6559  -29.8088   20.1549 C   0  0  0  0  0  0
  -25.4115  -36.3061   24.0327 C   0  0  1  0  0  0
  -20.5906  -28.3709   23.1250 C   0  0  2  0  0  0
  -20.6790  -26.9421   22.5401 C   0  0  0  0  0  0
  -19.5763  -26.6384   21.5212 C   0  0  0  0  0  0
  -18.1942  -26.7936   22.1621 C   0  0  0  0  0  0
  -19.1554  -28.8869   23.2859 C   0  0  0  0  0  0
  -18.9479  -30.1467   23.8881 C   0  0  0  0  0  0
  -17.6478  -30.6592   24.0562 C   0  0  0  0  0  0
  -25.9056  -34.9433   23.5088 C   0  0  0  0  0  0
  -16.5366  -29.9089   23.6339 C   0  0  0  0  0  0
  -16.7285  -28.6510   23.0354 C   0  0  0  0  0  0
  -26.4511  -31.6579   25.0720 C   0  0  0  0  0  0
  -25.3726  -31.3750   26.1438 C   0  0  0  0  0  0
  -27.0364  -30.2993   24.6228 C   0  0  0  0  0  0
  -27.6057  -32.4326   25.7497 C   0  0  0  0  0  0
  -27.5575  -37.1794   24.8467 C   0  0  0  0  0  0
  -21.4229  -29.3051   22.3638 N   0  0  0  0  0  0
  -26.4290  -37.3763   23.9409 N   0  0  0  0  0  0
  -24.7025  -31.0471   22.0949 N   0  0  0  0  0  0
  -23.4217  -28.8129   23.2994 O   0  0  0  0  0  0
  -28.2446  -26.2623   20.2065 O   0  0  0  0  0  0
  -26.5626  -34.8913   22.4654 O   0  0  0  0  0  0
  -23.5479  -32.1348   23.7237 O   0  0  0  0  0  0
  -30.4345  -19.4902   19.7794 C   0  0  0  0  0  0
  -30.7036  -18.0496   19.8004 C   0  0  0  0  0  0
  -29.3747  -19.9265   20.5527 C   0  0  0  0  0  0
  -29.8622  -17.2662   20.5765 C   0  0  0  0  0  0
  -28.1655  -23.7021   20.9390 C   0  0  0  0  0  0
  -27.8716  -25.0744   20.9069 C   0  0  0  0  0  0
  -27.3679  -22.8713   21.9293 C   0  0  0  0  0  0
  -29.0890  -22.6308   20.2245 C   0  0  0  0  0  0
  -27.8555  -21.4128   21.9061 C   0  0  0  0  0  0
  -28.8085  -21.2574   20.8184 N   0  0  0  0  0  0
  -29.7779  -15.8685   20.7862 N   0  0  0  0  0  0
  -28.7140  -18.4330   21.3090 S   0  0  0  0  0  0
  -31.4824  -12.6090   19.1811 H   0  0  0  0  0  0
  -30.3985  -11.4941   19.9630 H   0  0  0  0  0  0
  -29.8067  -11.7500   17.5281 H   0  0  0  0  0  0
  -29.6378  -13.4755   17.7337 H   0  0  0  0  0  0
  -27.9057  -11.2848   18.9188 H   0  0  0  0  0  0
  -27.3870  -12.5239   17.8066 H   0  0  0  0  0  0
  -27.6422  -14.2543   19.4804 H   0  0  0  0  0  0
  -28.7304  -12.1551   21.4206 H   0  0  0  0  0  0
  -28.4150  -13.8227   21.8152 H   0  0  0  0  0  0
  -25.2759   -9.5693   22.4756 H   0  0  0  0  0  0
  -24.0002   -7.4641   22.7475 H   0  0  0  0  0  0
  -21.0842   -8.8772   19.8948 H   0  0  0  0  0  0
  -22.3694  -10.9672   19.6162 H   0  0  0  0  0  0
  -21.2007   -7.6144   23.9713 H   0  0  0  0  0  0
  -21.1487   -6.0521   25.9076 H   0  0  0  0  0  0
  -22.0594   -2.7606   23.2848 H   0  0  0  0  0  0
  -22.4087  -11.9869   22.4800 H   0  0  0  0  0  0
  -21.1093  -13.1240   22.2634 H   0  0  0  0  0  0
  -24.6506  -15.8434   20.5146 H   0  0  0  0  0  0
  -26.2661  -15.6321   20.0693 H   0  0  0  0  0  0
  -26.7222  -32.5394   23.1064 H   0  0  0  0  0  0
  -25.0108  -33.9682   25.0406 H   0  0  0  0  0  0
  -22.7325  -31.2978   21.3899 H   0  0  0  0  0  0
  -23.3757  -35.9602   23.3296 H   0  0  0  0  0  0
  -24.3585  -36.8906   22.2059 H   0  0  0  0  0  0
  -23.7235  -37.6471   23.6673 H   0  0  0  0  0  0
  -26.1243  -31.5218   20.6126 H   0  0  0  0  0  0
  -26.8582  -30.8095   22.0168 H   0  0  0  0  0  0
  -28.1249  -28.8941   21.2381 H   0  0  0  0  0  0
  -25.9832  -25.8941   19.0047 H   0  0  0  0  0  0
  -23.9843  -27.3129   18.9830 H   0  0  0  0  0  0
  -23.7813  -30.5852   19.3992 H   0  0  0  0  0  0
  -22.7756  -29.2413   19.8474 H   0  0  0  0  0  0
  -25.1300  -36.1904   25.0821 H   0  0  0  0  0  0
  -21.0001  -28.3289   24.1368 H   0  0  0  0  0  0
  -20.5691  -26.2319   23.3610 H   0  0  0  0  0  0
  -21.6655  -26.7441   22.1192 H   0  0  0  0  0  0
  -19.6922  -25.6290   21.1251 H   0  0  0  0  0  0
  -19.6701  -27.3186   20.6736 H   0  0  0  0  0  0
  -17.4211  -26.6685   21.4022 H   0  0  0  0  0  0
  -18.0336  -26.0079   22.9019 H   0  0  0  0  0  0
  -19.7956  -30.7290   24.2238 H   0  0  0  0  0  0
  -17.5033  -31.6271   24.5163 H   0  0  0  0  0  0
  -15.5365  -30.2986   23.7676 H   0  0  0  0  0  0
  -15.8687  -28.0828   22.7072 H   0  0  0  0  0  0
  -24.5904  -30.7092   25.7775 H   0  0  0  0  0  0
  -24.8918  -32.2928   26.4830 H   0  0  0  0  0  0
  -25.8035  -30.8955   27.0236 H   0  0  0  0  0  0
  -26.2954  -29.6729   24.1246 H   0  0  0  0  0  0
  -27.4034  -29.7270   25.4758 H   0  0  0  0  0  0
  -27.8838  -30.4267   23.9489 H   0  0  0  0  0  0
  -27.2670  -33.3655   26.2019 H   0  0  0  0  0  0
  -28.3899  -32.6835   25.0341 H   0  0  0  0  0  0
  -28.0684  -31.8481   26.5459 H   0  0  0  0  0  0
  -28.2592  -38.0090   24.7508 H   0  0  0  0  0  0
  -28.1072  -36.2620   24.6303 H   0  0  0  0  0  0
  -27.2296  -37.1453   25.8872 H   0  0  0  0  0  0
  -20.9420  -29.8774   21.6841 H   0  0  0  0  0  0
  -26.0165  -38.2836   24.1408 H   0  0  0  0  0  0
  -31.0498  -20.1530   19.1888 H   0  0  0  0  0  0
  -31.5149  -17.6436   19.2131 H   0  0  0  0  0  0
  -27.1187  -25.3672   21.6285 H   0  0  0  0  0  0
  -26.3156  -22.9110   21.6447 H   0  0  0  0  0  0
  -27.4439  -23.2900   22.9341 H   0  0  0  0  0  0
  -30.1382  -22.8986   20.3578 H   0  0  0  0  0  0
  -28.8812  -22.6271   19.1535 H   0  0  0  0  0  0
  -27.0112  -20.7324   21.7834 H   0  0  0  0  0  0
  -28.3414  -21.1629   22.8512 H   0  0  0  0  0  0
  -28.9008  -15.5737   21.1892 H   0  0  0  0  0  0
  1 25  1  0  0  0
  1 30  2  0  0  0
  1 81  1  0  0  0
  2  3  1  0  0  0
  2 25  1  0  0  0
  2 83  1  0  0  0
  2 84  1  0  0  0
  3  4  1  0  0  0
  3 85  1  0  0  0
  3 86  1  0  0  0
  4  5  1  0  0  0
  4 87  1  0  0  0
  4 88  1  0  0  0
  5  6  1  0  0  0
  5 26  1  0  0  0
  5 89  1  0  0  0
  6 25  1  0  0  0
  6 90  1  0  0  0
  6 91  1  0  0  0
  7  8  2  0  0  0
  7 26  1  0  0  0
  7 29  1  0  0  0
  8  9  1  0  0  0
  8 22  1  0  0  0
  9 10  1  0  0  0
  9 27  2  0  0  0
 10 11  2  0  0  0
 10 15  1  0  0  0
 11 12  1  0  0  0
 11 92  1  0  0  0
 12 13  2  0  0  0
 12 93  1  0  0  0
 13 14  1  0  0  0
 13 31  1  0  0  0
 14 15  2  0  0  0
 14 94  1  0  0  0
 15 95  1  0  0  0
 16 17  2  0  0  0
 16 21  1  0  0  0
 16 31  1  0  0  0
 17 18  1  0  0  0
 17 96  1  0  0  0
 18 19  2  0  0  0
 18 97  1  0  0  0
 19 20  1  0  0  0
 19 24  1  0  0  0
 20 21  2  0  0  0
 20 98  1  0  0  0
 21 23  1  0  0  0
 22 28  1  0  0  0
 22 32  2  0  0  0
 26 27  1  0  0  0
 28 99  1  0  0  0
 28100  1  0  0  0
 29101  1  0  0  0
 29102  1  0  0  0
 33 34  1  0  0  0
 33 66  1  0  0  0
 33 70  2  0  0  0
 34 36  1  0  0  0
 34 59  1  0  0  0
 34103  1  0  0  0
 35 44  2  0  0  0
 35 45  1  0  0  0
 35 68  1  0  0  0
 36 56  1  0  0  0
 36104  1  0  0  0
 37 39  1  0  0  0
 37 47  1  0  0  0
 37 66  1  0  0  0
 37105  1  0  0  0
 38 43  2  0  0  0
 38 46  1  0  0  0
 38 47  1  0  0  0
 39 64  1  0  0  0
 39 67  2  0  0  0
 40 52  1  0  0  0
 40 53  2  0  0  0
 40 58  1  0  0  0
 41106  1  0  0  0
 41107  1  0  0  0
 41108  1  0  0  0
 41 48  1  0  0  0
 42 43  1  0  0  0
 42 66  1  0  0  0
 42109  1  0  0  0
 42110  1  0  0  0
 43 44  1  0  0  0
 44111  1  0  0  0
 45 46  2  0  0  0
 45112  1  0  0  0
 46113  1  0  0  0
 47114  1  0  0  0
 47115  1  0  0  0
 48 56  1  0  0  0
 48 65  1  0  0  0
 48116  1  0  0  0
 49 50  1  0  0  0
 49 53  1  0  0  0
 49 64  1  0  0  0
 49117  1  0  0  0
 50 51  1  0  0  0
 50118  1  0  0  0
 50119  1  0  0  0
 51 52  1  0  0  0
 51120  1  0  0  0
 51121  1  0  0  0
 52122  1  0  0  0
 52123  1  0  0  0
 53 54  1  0  0  0
 54 55  2  0  0  0
 54124  1  0  0  0
 55 57  1  0  0  0
 55125  1  0  0  0
 56 69  2  0  0  0
 57 58  2  0  0  0
 57126  1  0  0  0
 58127  1  0  0  0
 59 60  1  0  0  0
 59 61  1  0  0  0
 59 62  1  0  0  0
 60128  1  0  0  0
 60129  1  0  0  0
 60130  1  0  0  0
 61131  1  0  0  0
 61132  1  0  0  0
 61133  1  0  0  0
 62134  1  0  0  0
 62135  1  0  0  0
 62136  1  0  0  0
 63 65  1  0  0  0
 63137  1  0  0  0
 63138  1  0  0  0
 63139  1  0  0  0
 64140  1  0  0  0
 65141  1  0  0  0
 68 76  1  0  0  0
 71 72  1  0  0  0
 71 73  2  0  0  0
 71142  1  0  0  0
 72 74  2  0  0  0
 72143  1  0  0  0
 73 80  1  0  0  0
 73 82  1  0  0  0
 74 81  1  0  0  0
 74 82  1  0  0  0
 75 76  2  0  0  0
 75 77  1  0  0  0
 75 78  1  0  0  0
 76144  1  0  0  0
 77 79  1  0  0  0
 77145  1  0  0  0
 77146  1  0  0  0
 78 80  1  0  0  0
 78147  1  0  0  0
 78148  1  0  0  0
 79 80  1  0  0  0
 79149  1  0  0  0
 79150  1  0  0  0
 81151  1  0  0  0
M  ISO  4   1 100  68 101  76 101  81 100
M  END
> <chiral flag>
0

> <version>
0

> <s_m_source_file>
/data/baiqing/PycharmProjects/Reinvent-master-3.2/result/LINK_invent/BTK/process_docking_weight1_custom_product_contain_oxygen_bond_distance_aromatic_linkinvent_7_9_3/rearranged_h_0153.sdf

> <i_m_source_file_index>
79

> <r_mmod_Potential_Energy-OPLS-2005>
287.762054443359

> <r_mmod_Stretch_Energy-OPLS-2005>
119.516632080078

> <r_mmod_Bend_Energy-OPLS-2005>
261.224517822266

> <r_mmod_Torsional_Energy-OPLS-2005>
245.144607543945

> <r_mmod_Improper_Torsional_Energy-OPLS-2005>
3.78673791885376

> <r_mmod_Van_der_Waal_Energy-OPLS-2005>
115.785125732422

> <r_mmod_Electrostatic_Energy-OPLS-2005>
-338.058288574219

> <r_mmod_Solvation_Energy-OPLS-2005>
-226.097808837891

> <b_mmod_Minimization_Converged-OPLS-2005>
0

> <r_mmod_RMS_Derivative-OPLS-2005>
0.695441365242004

$$$$
79
                    3D
 Structure written by MMmdl.
159168  0  0  1  0            999 V2000
  -30.6093  -14.7080   20.5105 C   0  0  0  0  0  0
  -30.4438  -12.4539   19.4309 C   0  0  0  0  0  0
  -29.4969  -12.5413   18.2088 C   0  0  0  0  0  0
  -28.0132  -12.4008   18.6191 C   0  0  0  0  0  0
  -27.6546  -13.2268   19.8842 C   0  0  2  0  0  0
  -28.7180  -13.0245   20.9879 C   0  0  0  0  0  0
  -25.2542  -13.8202   20.5745 C   0  0  0  0  0  0
  -24.1809  -13.0454   20.9206 C   0  0  0  0  0  0
  -24.6408  -11.6922   20.8789 C   0  0  0  0  0  0
  -23.9086  -10.4302   21.0442 C   0  0  0  0  0  0
  -24.3637   -9.4207   21.9206 C   0  0  0  0  0  0
  -23.6316   -8.2239   22.0763 C   0  0  0  0  0  0
  -22.4291   -8.0292   21.3551 C   0  0  0  0  0  0
  -21.9935   -9.0268   20.4644 C   0  0  0  0  0  0
  -22.7261  -10.2152   20.3090 C   0  0  0  0  0  0
  -21.6849   -6.0758   22.5278 C   0  0  0  0  0  0
  -21.4004   -6.5653   23.8214 C   0  0  0  0  0  0
  -21.3667   -5.6805   24.9175 C   0  0  0  0  0  0
  -21.6039   -4.3070   24.7220 C   0  0  0  0  0  0
  -21.8814   -3.8164   23.4338 C   0  0  0  0  0  0
  -21.9189   -4.6991   22.3403 C   0  0  0  0  0  0
  -22.7828  -13.5222   21.1853 C   0  0  0  0  0  0
  -22.1664   -4.2181   21.0987 F   0  0  0  0  0  0
  -21.5632   -3.4556   25.7738 F   0  0  0  0  0  0
  -30.0010  -13.4681   20.4206 N   0  0  0  0  0  0
  -26.3016  -12.9393   20.3488 N   0  0  0  0  0  0
  -25.9358  -11.6534   20.5852 N   0  0  0  0  0  0
  -22.0496  -12.8195   22.0409 N   0  0  0  0  0  0
  -25.4226  -15.1921   20.4106 N   0  0  0  0  0  0
  -31.7714  -14.8294   20.0977 O   0  0  0  0  0  0
  -21.6630   -6.8894   21.4243 O   0  0  0  0  0  0
  -22.3506  -14.5541   20.6737 O   0  0  0  0  0  0
  -24.6290  -31.8551   23.1956 C   0  0  0  0  0  0
  -25.9126  -32.4747   23.8307 C   0  0  1  0  0  0
  -27.2300  -27.2704   20.1256 C   0  0  0  0  0  0
  -25.5929  -33.8547   24.2239 N   0  0  0  0  0  0
  -23.4272  -30.4745   21.5398 C   0  0  2  0  0  0
  -24.8766  -28.9178   20.1126 C   0  0  0  0  0  0
  -22.7496  -29.4581   22.4907 C   0  0  0  0  0  0
  -18.0299  -28.1372   22.8482 C   0  0  0  0  0  0
  -24.1494  -36.7286   23.2635 C   0  0  0  0  0  0
  -25.9731  -30.7699   21.3760 C   0  0  0  0  0  0
  -26.0478  -29.3908   20.7193 C   0  0  0  0  0  0
  -27.2303  -28.5815   20.7107 C   0  0  0  0  0  0
  -26.0388  -26.8654   19.4881 C   0  0  0  0  0  0
  -24.8766  -27.6635   19.4844 C   0  0  0  0  0  0
  -23.6460  -29.8028   20.1581 C   0  0  0  0  0  0
  -25.4125  -36.3060   24.0319 C   0  0  1  0  0  0
  -20.5895  -28.3702   23.1268 C   0  0  2  0  0  0
  -20.6782  -26.9415   22.5410 C   0  0  0  0  0  0
  -19.5762  -26.6367   21.5210 C   0  0  0  0  0  0
  -18.1943  -26.7914   22.1610 C   0  0  0  0  0  0
  -19.1548  -28.8856   23.2864 C   0  0  0  0  0  0
  -18.9459  -30.1462   23.8875 C   0  0  0  0  0  0
  -17.6446  -30.6571   24.0561 C   0  0  0  0  0  0
  -25.9068  -34.9438   23.5095 C   0  0  0  0  0  0
  -16.5350  -29.9059   23.6318 C   0  0  0  0  0  0
  -16.7288  -28.6483   23.0349 C   0  0  0  0  0  0
  -26.4492  -31.6561   25.0698 C   0  0  0  0  0  0
  -25.3711  -31.3721   26.1416 C   0  0  0  0  0  0
  -27.0339  -30.2964   24.6196 C   0  0  0  0  0  0
  -27.6029  -32.4312   25.7493 C   0  0  0  0  0  0
  -27.5588  -37.1796   24.8450 C   0  0  0  0  0  0
  -21.4204  -29.3042   22.3651 N   0  0  0  0  0  0
  -26.4294  -37.3765   23.9403 N   0  0  0  0  0  0
  -24.6951  -31.0515   22.0930 N   0  0  0  0  0  0
  -23.4216  -28.8153   23.3016 O   0  0  0  0  0  0
  -28.3303  -26.3845   20.1352 O   0  0  0  0  0  0
  -26.5627  -34.8901   22.4656 O   0  0  0  0  0  0
  -23.5447  -32.1378   23.7253 O   0  0  0  0  0  0
  -28.1124  -19.8488   22.3560 C   0  0  0  0  0  0
  -29.2818  -18.2935   21.0589 C   0  0  0  0  0  0
  -28.9028  -19.7350   21.2299 C   0  0  0  0  0  0
  -28.7138  -17.4973   21.9967 C   0  0  0  0  0  0
  -30.0821  -17.2759   20.2036 C   0  0  0  0  0  0
  -28.9305  -16.0314   21.8798 C   0  0  0  0  0  0
  -30.4123  -23.9474   20.1076 C   0  0  0  0  0  0
  -28.5026  -23.5037   18.5431 C   0  0  0  0  0  0
  -28.5884  -22.2962   20.8155 C   0  0  0  0  0  0
  -28.1161  -24.9760   20.6129 C   0  0  0  0  0  0
  -28.9036  -23.6769   20.0193 C   0  0  0  0  0  0
  -29.8379  -15.8550   20.7321 N   0  0  0  0  0  0
  -29.1954  -20.9427   20.4535 N   0  0  0  0  0  0
  -27.7750  -18.3430   23.1702 S   0  0  0  0  0  0
  -31.4743  -12.6131   19.1078 H   0  0  0  0  0  0
  -30.4296  -11.4523   19.8643 H   0  0  0  0  0  0
  -29.7478  -11.7785   17.4705 H   0  0  0  0  0  0
  -29.6423  -13.5025   17.7126 H   0  0  0  0  0  0
  -27.8046  -11.3434   18.7870 H   0  0  0  0  0  0
  -27.3693  -12.7109   17.7945 H   0  0  0  0  0  0
  -27.6766  -14.2749   19.5877 H   0  0  0  0  0  0
  -28.7686  -11.9658   21.2540 H   0  0  0  0  0  0
  -28.4789  -13.5130   21.9289 H   0  0  0  0  0  0
  -25.2806   -9.5662   22.4753 H   0  0  0  0  0  0
  -24.0037   -7.4610   22.7466 H   0  0  0  0  0  0
  -21.0878   -8.8785   19.8942 H   0  0  0  0  0  0
  -22.3747  -10.9688   19.6190 H   0  0  0  0  0  0
  -21.2015   -7.6166   23.9731 H   0  0  0  0  0  0
  -21.1484   -6.0535   25.9067 H   0  0  0  0  0  0
  -22.0601   -2.7636   23.2828 H   0  0  0  0  0  0
  -22.4169  -11.9859   22.4765 H   0  0  0  0  0  0
  -21.1134  -13.1220   22.2706 H   0  0  0  0  0  0
  -24.6576  -15.8499   20.5167 H   0  0  0  0  0  0
  -26.2829  -15.6319   20.1084 H   0  0  0  0  0  0
  -26.7204  -32.5382   23.1056 H   0  0  0  0  0  0
  -25.0097  -33.9709   25.0394 H   0  0  0  0  0  0
  -22.7211  -31.2938   21.3874 H   0  0  0  0  0  0
  -23.3759  -35.9609   23.3256 H   0  0  0  0  0  0
  -24.3596  -36.8959   22.2057 H   0  0  0  0  0  0
  -23.7236  -37.6468   23.6697 H   0  0  0  0  0  0
  -26.1135  -31.5333   20.6075 H   0  0  0  0  0  0
  -26.8500  -30.8161   22.0126 H   0  0  0  0  0  0
  -28.1301  -28.9435   21.1895 H   0  0  0  0  0  0
  -25.9995  -25.9074   18.9889 H   0  0  0  0  0  0
  -23.9829  -27.2973   18.9984 H   0  0  0  0  0  0
  -23.7655  -30.5732   19.3947 H   0  0  0  0  0  0
  -22.7658  -29.2307   19.8577 H   0  0  0  0  0  0
  -25.1298  -36.1907   25.0809 H   0  0  0  0  0  0
  -20.9994  -28.3278   24.1386 H   0  0  0  0  0  0
  -20.5685  -26.2305   23.3627 H   0  0  0  0  0  0
  -21.6656  -26.7424   22.1212 H   0  0  0  0  0  0
  -19.6928  -25.6274   21.1258 H   0  0  0  0  0  0
  -19.6700  -27.3162   20.6738 H   0  0  0  0  0  0
  -17.4218  -26.6683   21.4005 H   0  0  0  0  0  0
  -18.0317  -26.0056   22.9005 H   0  0  0  0  0  0
  -19.7941  -30.7286   24.2230 H   0  0  0  0  0  0
  -17.5007  -31.6253   24.5167 H   0  0  0  0  0  0
  -15.5355  -30.2958   23.7648 H   0  0  0  0  0  0
  -15.8693  -28.0799   22.7063 H   0  0  0  0  0  0
  -24.5879  -30.7083   25.7731 H   0  0  0  0  0  0
  -24.8917  -32.2904   26.4815 H   0  0  0  0  0  0
  -25.8026  -30.8902   27.0199 H   0  0  0  0  0  0
  -26.2932  -29.6707   24.1202 H   0  0  0  0  0  0
  -27.3980  -29.7224   25.4726 H   0  0  0  0  0  0
  -27.8819  -30.4200   23.9458 H   0  0  0  0  0  0
  -27.2598  -33.3596   26.2068 H   0  0  0  0  0  0
  -28.3845  -32.6908   25.0342 H   0  0  0  0  0  0
  -28.0684  -31.8442   26.5421 H   0  0  0  0  0  0
  -28.2560  -38.0130   24.7533 H   0  0  0  0  0  0
  -28.1132  -36.2669   24.6228 H   0  0  0  0  0  0
  -27.2320  -37.1373   25.8852 H   0  0  0  0  0  0
  -20.9395  -29.8761   21.6843 H   0  0  0  0  0  0
  -26.0165  -38.2830   24.1413 H   0  0  0  0  0  0
  -27.6642  -20.7370   22.7803 H   0  0  0  0  0  0
  -31.1485  -17.5059   20.2372 H   0  0  0  0  0  0
  -29.7677  -17.3213   19.1609 H   0  0  0  0  0  0
  -27.9645  -15.5656   21.6887 H   0  0  0  0  0  0
  -29.3489  -15.6208   22.8009 H   0  0  0  0  0  0
  -30.9898  -23.0959   19.7460 H   0  0  0  0  0  0
  -30.7186  -24.1464   21.1366 H   0  0  0  0  0  0
  -30.6921  -24.8131   19.5064 H   0  0  0  0  0  0
  -29.1214  -22.7573   18.0424 H   0  0  0  0  0  0
  -28.6082  -24.4372   17.9886 H   0  0  0  0  0  0
  -27.4654  -23.1832   18.4503 H   0  0  0  0  0  0
  -27.5052  -22.1648   20.8049 H   0  0  0  0  0  0
  -28.8399  -22.4811   21.8618 H   0  0  0  0  0  0
  -28.3584  -25.0204   21.6757 H   0  0  0  0  0  0
  -27.0514  -24.7414   20.6025 H   0  0  0  0  0  0
  -29.6861  -20.8614   19.5676 H   0  0  0  0  0  0
  1 25  1  0  0  0
  1 30  2  0  0  0
  1 82  1  0  0  0
  2  3  1  0  0  0
  2 25  1  0  0  0
  2 85  1  0  0  0
  2 86  1  0  0  0
  3  4  1  0  0  0
  3 87  1  0  0  0
  3 88  1  0  0  0
  4  5  1  0  0  0
  4 89  1  0  0  0
  4 90  1  0  0  0
  5  6  1  0  0  0
  5 26  1  0  0  0
  5 91  1  0  0  0
  6 25  1  0  0  0
  6 92  1  0  0  0
  6 93  1  0  0  0
  7  8  2  0  0  0
  7 26  1  0  0  0
  7 29  1  0  0  0
  8  9  1  0  0  0
  8 22  1  0  0  0
  9 10  1  0  0  0
  9 27  2  0  0  0
 10 11  2  0  0  0
 10 15  1  0  0  0
 11 12  1  0  0  0
 11 94  1  0  0  0
 12 13  2  0  0  0
 12 95  1  0  0  0
 13 14  1  0  0  0
 13 31  1  0  0  0
 14 15  2  0  0  0
 14 96  1  0  0  0
 15 97  1  0  0  0
 16 17  2  0  0  0
 16 21  1  0  0  0
 16 31  1  0  0  0
 17 18  1  0  0  0
 17 98  1  0  0  0
 18 19  2  0  0  0
 18 99  1  0  0  0
 19 20  1  0  0  0
 19 24  1  0  0  0
 20 21  2  0  0  0
 20100  1  0  0  0
 21 23  1  0  0  0
 22 28  1  0  0  0
 22 32  2  0  0  0
 26 27  1  0  0  0
 28101  1  0  0  0
 28102  1  0  0  0
 29103  1  0  0  0
 29104  1  0  0  0
 33 34  1  0  0  0
 33 66  1  0  0  0
 33 70  2  0  0  0
 34 36  1  0  0  0
 34 59  1  0  0  0
 34105  1  0  0  0
 35 44  2  0  0  0
 35 45  1  0  0  0
 35 68  1  0  0  0
 36 56  1  0  0  0
 36106  1  0  0  0
 37 39  1  0  0  0
 37 47  1  0  0  0
 37 66  1  0  0  0
 37107  1  0  0  0
 38 43  2  0  0  0
 38 46  1  0  0  0
 38 47  1  0  0  0
 39 64  1  0  0  0
 39 67  2  0  0  0
 40 52  1  0  0  0
 40 53  2  0  0  0
 40 58  1  0  0  0
 41108  1  0  0  0
 41109  1  0  0  0
 41110  1  0  0  0
 41 48  1  0  0  0
 42 43  1  0  0  0
 42 66  1  0  0  0
 42111  1  0  0  0
 42112  1  0  0  0
 43 44  1  0  0  0
 44113  1  0  0  0
 45 46  2  0  0  0
 45114  1  0  0  0
 46115  1  0  0  0
 47116  1  0  0  0
 47117  1  0  0  0
 48 56  1  0  0  0
 48 65  1  0  0  0
 48118  1  0  0  0
 49 50  1  0  0  0
 49 53  1  0  0  0
 49 64  1  0  0  0
 49119  1  0  0  0
 50 51  1  0  0  0
 50120  1  0  0  0
 50121  1  0  0  0
 51 52  1  0  0  0
 51122  1  0  0  0
 51123  1  0  0  0
 52124  1  0  0  0
 52125  1  0  0  0
 53 54  1  0  0  0
 54 55  2  0  0  0
 54126  1  0  0  0
 55 57  1  0  0  0
 55127  1  0  0  0
 56 69  2  0  0  0
 57 58  2  0  0  0
 57128  1  0  0  0
 58129  1  0  0  0
 59 60  1  0  0  0
 59 61  1  0  0  0
 59 62  1  0  0  0
 60130  1  0  0  0
 60131  1  0  0  0
 60132  1  0  0  0
 61133  1  0  0  0
 61134  1  0  0  0
 61135  1  0  0  0
 62136  1  0  0  0
 62137  1  0  0  0
 62138  1  0  0  0
 63 65  1  0  0  0
 63139  1  0  0  0
 63140  1  0  0  0
 63141  1  0  0  0
 64142  1  0  0  0
 65143  1  0  0  0
 68 80  1  0  0  0
 71 73  2  0  0  0
 71 84  1  0  0  0
 71144  1  0  0  0
 72 73  1  0  0  0
 72 74  2  0  0  0
 72 75  1  0  0  0
 73 83  1  0  0  0
 74 76  1  0  0  0
 74 84  1  0  0  0
 75 82  1  0  0  0
 75145  1  0  0  0
 75146  1  0  0  0
 76 82  1  0  0  0
 76147  1  0  0  0
 76148  1  0  0  0
 77149  1  0  0  0
 77150  1  0  0  0
 77151  1  0  0  0
 77 81  1  0  0  0
 78 81  1  0  0  0
 78152  1  0  0  0
 78153  1  0  0  0
 78154  1  0  0  0
 79 81  1  0  0  0
 79 83  1  0  0  0
 79155  1  0  0  0
 79156  1  0  0  0
 80 81  1  0  0  0
 80157  1  0  0  0
 80158  1  0  0  0
 83159  1  0  0  0
M  ISO  4   1 100  68 101  80 101  82 100
M  END
> <chiral flag>
0

> <version>
0

> <s_m_source_file>
/data/baiqing/PycharmProjects/Reinvent-master-3.2/result/LINK_invent/BTK/process_docking_weight1_custom_product_contain_oxygen_bond_distance_aromatic_linkinvent_7_9_3/rearranged_h_0153.sdf

> <i_m_source_file_index>
80

> <r_mmod_Potential_Energy-OPLS-2005>
282.445861816406

> <r_mmod_Stretch_Energy-OPLS-2005>
130.519271850586

> <r_mmod_Bend_Energy-OPLS-2005>
271.780792236328

> <r_mmod_Torsional_Energy-OPLS-2005>
277.662078857422

> <r_mmod_Improper_Torsional_Energy-OPLS-2005>
10.2185497283936

> <r_mmod_Van_der_Waal_Energy-OPLS-2005>
115.626647949219

> <r_mmod_Electrostatic_Energy-OPLS-2005>
-381.810241699219

> <r_mmod_Solvation_Energy-OPLS-2005>
-208.733795166016

> <b_mmod_Minimization_Converged-OPLS-2005>
0

> <r_mmod_RMS_Derivative-OPLS-2005>
3.99410223960876

$$$$
80
                    3D
 Structure written by MMmdl.
162171  0  0  1  0            999 V2000
  -27.9618  -17.1646   20.7959 C   0  0  0  0  0  0
  -29.6041  -14.6229   19.7149 C   0  0  0  0  0  0
  -29.3848  -13.3780   18.6603 C   0  0  0  0  0  0
  -28.2385  -12.4526   19.0538 C   0  0  0  0  0  0
  -27.3637  -13.3788   19.8811 C   0  0  2  0  0  0
  -27.9961  -14.1829   21.0527 C   0  0  0  0  0  0
  -25.0842  -13.8071   20.5566 C   0  0  0  0  0  0
  -24.0690  -13.0090   20.9415 C   0  0  0  0  0  0
  -24.5706  -11.6694   20.8913 C   0  0  0  0  0  0
  -23.8704  -10.4066   21.0524 C   0  0  0  0  0  0
  -24.3422   -9.4052   21.9259 C   0  0  0  0  0  0
  -23.6181   -8.2057   22.0768 C   0  0  0  0  0  0
  -22.4169   -8.0101   21.3539 C   0  0  0  0  0  0
  -21.9730   -9.0021   20.4635 C   0  0  0  0  0  0
  -22.6966  -10.1919   20.3084 C   0  0  0  0  0  0
  -21.6789   -6.0644   22.5300 C   0  0  0  0  0  0
  -21.3968   -6.5585   23.8223 C   0  0  0  0  0  0
  -21.3647   -5.6759   24.9200 C   0  0  0  0  0  0
  -21.6044   -4.3021   24.7260 C   0  0  0  0  0  0
  -21.8824   -3.8091   23.4389 C   0  0  0  0  0  0
  -21.9176   -4.6889   22.3434 C   0  0  0  0  0  0
  -22.6848  -13.4860   21.2120 C   0  0  0  0  0  0
  -22.1653   -4.2080   21.1011 F   0  0  0  0  0  0
  -21.5639   -3.4521   25.7783 F   0  0  0  0  0  0
  -28.3473  -15.5295   20.4442 N   0  0  0  0  0  0
  -26.1149  -12.9370   20.3063 N   0  0  0  0  0  0
  -25.8546  -11.6447   20.5655 N   0  0  0  0  0  0
  -21.9629  -12.7912   22.0776 N   0  0  0  0  0  0
  -25.2086  -15.1880   20.3700 N   0  0  0  0  0  0
  -29.2982  -17.1940   20.7378 O   0  0  0  0  0  0
  -21.6545   -6.8724   21.4238 O   0  0  0  0  0  0
  -22.2644  -14.5213   20.6953 O   0  0  0  0  0  0
  -24.6717  -31.9015   22.9320 C   0  0  0  0  0  0
  -25.9340  -32.5021   23.7136 C   0  0  1  0  0  0
  -26.6940  -27.9247   21.2604 C   0  0  0  0  0  0
  -25.5716  -33.8609   24.1416 N   0  0  0  0  0  0
  -23.7191  -29.9622   21.1118 C   0  0  2  0  0  0
  -25.2492  -29.1636   19.5702 C   0  0  0  0  0  0
  -23.3966  -28.2780   21.5074 C   0  0  0  0  0  0
  -18.5538  -27.0907   23.0461 C   0  0  0  0  0  0
  -24.1406  -36.7415   23.2679 C   0  0  0  0  0  0
  -25.9842  -31.1029   21.0347 C   0  0  0  0  0  0
  -26.2591  -29.8038   20.3264 C   0  0  0  0  0  0
  -27.3196  -29.0438   20.7917 C   0  0  0  0  0  0
  -26.2026  -27.1003   20.1628 C   0  0  0  0  0  0
  -25.3467  -27.7875   19.2728 C   0  0  0  0  0  0
  -23.9497  -29.8236   19.6286 C   0  0  0  0  0  0
  -25.4090  -36.3177   24.0259 C   0  0  1  0  0  0
  -21.8259  -26.7276   23.3404 C   0  0  2  0  0  0
  -22.0938  -26.0029   21.1401 C   0  0  0  0  0  0
  -20.1646  -25.4923   20.6771 C   0  0  0  0  0  0
  -18.6632  -25.9869   21.7289 C   0  0  0  0  0  0
  -19.8071  -27.3353   23.9610 C   0  0  0  0  0  0
  -19.3879  -28.6608   24.6622 C   0  0  0  0  0  0
  -18.2529  -29.5860   24.4538 C   0  0  0  0  0  0
  -25.9101  -34.9693   23.4775 C   0  0  0  0  0  0
  -17.1789  -29.2233   23.6363 C   0  0  0  0  0  0
  -17.3538  -27.9727   22.9888 C   0  0  0  0  0  0
  -26.4812  -31.7256   25.0085 C   0  0  0  0  0  0
  -25.4035  -31.4590   26.1072 C   0  0  0  0  0  0
  -27.2416  -30.4264   24.6108 C   0  0  0  0  0  0
  -27.5776  -32.5608   25.7209 C   0  0  0  0  0  0
  -27.5569  -37.1813   24.8459 C   0  0  0  0  0  0
  -22.9359  -27.5660   22.6699 N   0  0  0  0  0  0
  -26.4224  -37.3929   23.9502 N   0  0  0  0  0  0
  -24.7355  -31.0375   21.7897 N   0  0  0  0  0  0
  -24.1438  -27.4318   21.6901 O   0  0  0  0  0  0
  -26.0606  -28.2545   22.5964 O   0  0  0  0  0  0
  -26.5914  -34.9400   22.4501 O   0  0  0  0  0  0
  -23.6209  -32.2098   23.5031 O   0  0  0  0  0  0
  -24.0108  -21.7305   21.1914 C   0  0  0  0  0  0
  -22.7697  -23.2680   22.0386 C   0  0  0  0  0  0
  -25.2614  -20.2859   21.4288 C   0  0  0  0  0  0
  -23.3949  -22.5507   23.1429 C   0  0  0  0  0  0
  -21.0926  -25.2404   22.3616 C   0  0  0  0  0  0
  -20.5931  -30.2727   20.7067 C   0  0  0  0  0  0
  -21.4623  -30.8973   22.2020 C   0  0  0  0  0  0
  -20.3124  -28.5133   20.4585 C   0  0  0  0  0  0
  -20.9640  -28.9738   22.6889 C   0  0  0  0  0  0
  -22.4374  -29.8439   23.3188 C   0  0  1  0  0  0
  -24.5918  -29.1557   23.5312 C   0  0  0  0  0  0
  -20.5711  -27.5052   21.7207 N   0  0  0  0  0  0
  -23.0882  -22.8948   24.4525 N   0  0  0  0  0  0
  -26.4545  -18.6028   20.9854 N   0  0  0  0  0  0
  -20.3471  -24.6003   23.3464 N   0  3  0  0  0  0
  -22.1138  -30.2060   24.5598 F   0  0  0  0  0  0
  -24.7327  -21.0170   23.1107 S   0  0  0  0  0  0
  -30.1563  -15.3643   19.1362 H   0  0  0  0  0  0
  -30.3515  -14.3402   20.4610 H   0  0  0  0  0  0
  -30.3094  -12.8170   18.5197 H   0  0  0  0  0  0
  -29.1481  -13.8102   17.6868 H   0  0  0  0  0  0
  -28.5947  -11.6262   19.6694 H   0  0  0  0  0  0
  -27.7238  -12.0405   18.1846 H   0  0  0  0  0  0
  -27.0802  -14.0926   19.1019 H   0  0  0  0  0  0
  -28.7609  -13.6316   21.6081 H   0  0  0  0  0  0
  -27.2761  -14.4143   21.8392 H   0  0  0  0  0  0
  -25.2543   -9.5615   22.4853 H   0  0  0  0  0  0
  -23.9911   -7.4447   22.7472 H   0  0  0  0  0  0
  -21.0669   -8.8488   19.8945 H   0  0  0  0  0  0
  -22.3395  -10.9470   19.6221 H   0  0  0  0  0  0
  -21.1935   -7.6091   23.9707 H   0  0  0  0  0  0
  -21.1475   -6.0497   25.9103 H   0  0  0  0  0  0
  -22.0621   -2.7553   23.2910 H   0  0  0  0  0  0
  -22.3272  -11.9582   22.5159 H   0  0  0  0  0  0
  -21.0289  -13.0975   22.3102 H   0  0  0  0  0  0
  -24.3393  -15.7084   20.3118 H   0  0  0  0  0  0
  -25.8928  -15.4959   19.6933 H   0  0  0  0  0  0
  -26.7908  -32.6241   23.0639 H   0  0  0  0  0  0
  -24.9372  -33.9379   24.9235 H   0  0  0  0  0  0
  -22.9604  -30.5609   20.7024 H   0  0  0  0  0  0
  -23.3739  -35.9667   23.3227 H   0  0  0  0  0  0
  -24.3431  -36.9256   22.2117 H   0  0  0  0  0  0
  -23.7083  -37.6499   23.6895 H   0  0  0  0  0  0
  -25.8960  -31.9028   20.2980 H   0  0  0  0  0  0
  -26.8777  -31.3311   21.5979 H   0  0  0  0  0  0
  -27.9758  -29.5483   21.4864 H   0  0  0  0  0  0
  -25.9729  -26.0548   20.3111 H   0  0  0  0  0  0
  -24.5959  -27.2519   18.7095 H   0  0  0  0  0  0
  -24.0218  -30.7709   19.0823 H   0  0  0  0  0  0
  -23.1889  -29.2303   19.1132 H   0  0  0  0  0  0
  -25.1309  -36.1844   25.0735 H   0  0  0  0  0  0
  -22.2931  -26.0785   24.0855 H   0  0  0  0  0  0
  -22.8858  -25.2923   20.9581 H   0  0  0  0  0  0
  -22.2681  -26.6273   20.2618 H   0  0  0  0  0  0
  -20.1211  -24.4079   20.5527 H   0  0  0  0  0  0
  -19.9744  -25.8400   19.6604 H   0  0  0  0  0  0
  -17.9299  -26.3390   21.0019 H   0  0  0  0  0  0
  -18.1949  -25.0664   22.0772 H   0  0  0  0  0  0
  -20.1482  -29.0641   25.3157 H   0  0  0  0  0  0
  -18.2147  -30.5163   25.0056 H   0  0  0  0  0  0
  -16.3075  -29.8479   23.4979 H   0  0  0  0  0  0
  -16.5737  -27.6998   22.2912 H   0  0  0  0  0  0
  -24.4619  -31.0486   25.7516 H   0  0  0  0  0  0
  -25.1282  -32.3888   26.6069 H   0  0  0  0  0  0
  -25.7791  -30.7916   26.8834 H   0  0  0  0  0  0
  -26.9594  -29.5624   25.2131 H   0  0  0  0  0  0
  -28.3247  -30.5187   24.7108 H   0  0  0  0  0  0
  -27.1035  -30.1830   23.5645 H   0  0  0  0  0  0
  -27.1880  -33.4807   26.1589 H   0  0  0  0  0  0
  -28.3717  -32.8522   25.0316 H   0  0  0  0  0  0
  -28.0433  -32.0076   26.5380 H   0  0  0  0  0  0
  -28.2550  -38.0157   24.7664 H   0  0  0  0  0  0
  -28.1097  -36.2716   24.6070 H   0  0  0  0  0  0
  -27.2321  -37.1219   25.8860 H   0  0  0  0  0  0
  -23.7921  -27.0388   22.8005 H   0  0  0  0  0  0
  -26.0084  -38.2940   24.1750 H   0  0  0  0  0  0
  -23.8156  -21.7986   20.1302 H   0  0  0  0  0  0
  -21.0650  -30.6616   19.8039 H   0  0  0  0  0  0
  -19.6122  -30.7491   20.6869 H   0  0  0  0  0  0
  -20.6939  -31.3631   22.8287 H   0  0  0  0  0  0
  -21.9547  -31.8257   21.9218 H   0  0  0  0  0  0
  -20.9270  -28.1854   19.6229 H   0  0  0  0  0  0
  -19.2850  -28.3638   20.1266 H   0  0  0  0  0  0
  -19.9963  -29.4911   22.6847 H   0  0  0  0  0  0
  -21.4871  -28.9477   21.9143 H   0  0  0  0  0  0
  -24.4800  -28.4028   24.3169 H   0  0  0  0  0  0
  -25.0249  -29.8384   24.2001 H   0  0  0  0  0  0
  -22.6917  -23.7840   24.7348 H   0  0  0  0  0  0
  -23.5217  -22.4092   25.2329 H   0  0  0  0  0  0
  -25.7454  -17.9758   20.6237 H   0  0  0  0  0  0
  -20.5581  -23.6451   23.6051 H   0  0  0  0  0  0
  -19.5682  -25.0691   23.7884 H   0  0  0  0  0  0
  1 25  1  0  0  0
  1 30  2  0  0  0
  1 84  1  0  0  0
  2  3  1  0  0  0
  2 25  1  0  0  0
  2 88  1  0  0  0
  2 89  1  0  0  0
  3  4  1  0  0  0
  3 90  1  0  0  0
  3 91  1  0  0  0
  4  5  1  0  0  0
  4 92  1  0  0  0
  4 93  1  0  0  0
  5  6  1  0  0  0
  5 26  1  0  0  0
  5 94  1  0  0  0
  6 25  1  0  0  0
  6 95  1  0  0  0
  6 96  1  0  0  0
  7  8  2  0  0  0
  7 26  1  0  0  0
  7 29  1  0  0  0
  8  9  1  0  0  0
  8 22  1  0  0  0
  9 10  1  0  0  0
  9 27  2  0  0  0
 10 11  2  0  0  0
 10 15  1  0  0  0
 11 12  1  0  0  0
 11 97  1  0  0  0
 12 13  2  0  0  0
 12 98  1  0  0  0
 13 14  1  0  0  0
 13 31  1  0  0  0
 14 15  2  0  0  0
 14 99  1  0  0  0
 15100  1  0  0  0
 16 17  2  0  0  0
 16 21  1  0  0  0
 16 31  1  0  0  0
 17 18  1  0  0  0
 17101  1  0  0  0
 18 19  2  0  0  0
 18102  1  0  0  0
 19 20  1  0  0  0
 19 24  1  0  0  0
 20 21  2  0  0  0
 20103  1  0  0  0
 21 23  1  0  0  0
 22 28  1  0  0  0
 22 32  2  0  0  0
 26 27  1  0  0  0
 28104  1  0  0  0
 28105  1  0  0  0
 29106  1  0  0  0
 29107  1  0  0  0
 33 34  1  0  0  0
 33 66  1  0  0  0
 33 70  2  0  0  0
 34 36  1  0  0  0
 34 59  1  0  0  0
 34108  1  0  0  0
 35 44  2  0  0  0
 35 45  1  0  0  0
 35 68  1  0  0  0
 36 56  1  0  0  0
 36109  1  0  0  0
 37 39  1  0  0  0
 37 47  1  0  0  0
 37 66  1  0  0  0
 37110  1  0  0  0
 38 43  2  0  0  0
 38 46  1  0  0  0
 38 47  1  0  0  0
 39 64  1  0  0  0
 39 67  2  0  0  0
 40 52  1  0  0  0
 40 53  2  0  0  0
 40 58  1  0  0  0
 41111  1  0  0  0
 41112  1  0  0  0
 41113  1  0  0  0
 41 48  1  0  0  0
 42 43  1  0  0  0
 42 66  1  0  0  0
 42114  1  0  0  0
 42115  1  0  0  0
 43 44  1  0  0  0
 44116  1  0  0  0
 45 46  2  0  0  0
 45117  1  0  0  0
 46118  1  0  0  0
 47119  1  0  0  0
 47120  1  0  0  0
 48 56  1  0  0  0
 48 65  1  0  0  0
 48121  1  0  0  0
 49 50  1  0  0  0
 49 53  1  0  0  0
 49 64  1  0  0  0
 49122  1  0  0  0
 50 51  1  0  0  0
 50123  1  0  0  0
 50124  1  0  0  0
 51 52  1  0  0  0
 51125  1  0  0  0
 51126  1  0  0  0
 52127  1  0  0  0
 52128  1  0  0  0
 53 54  1  0  0  0
 54 55  2  0  0  0
 54129  1  0  0  0
 55 57  1  0  0  0
 55130  1  0  0  0
 56 69  2  0  0  0
 57 58  2  0  0  0
 57131  1  0  0  0
 58132  1  0  0  0
 59 60  1  0  0  0
 59 61  1  0  0  0
 59 62  1  0  0  0
 60133  1  0  0  0
 60134  1  0  0  0
 60135  1  0  0  0
 61136  1  0  0  0
 61137  1  0  0  0
 61138  1  0  0  0
 62139  1  0  0  0
 62140  1  0  0  0
 62141  1  0  0  0
 63 65  1  0  0  0
 63142  1  0  0  0
 63143  1  0  0  0
 63144  1  0  0  0
 64145  1  0  0  0
 65146  1  0  0  0
 68 81  1  0  0  0
 71 72  1  0  0  0
 71 73  2  0  0  0
 71147  1  0  0  0
 72 74  2  0  0  0
 72 75  1  0  0  0
 73 84  1  0  0  0
 73 87  1  0  0  0
 74 83  1  0  0  0
 74 87  1  0  0  0
 75 82  1  0  0  0
 75 85  2  0  0  0
 76 77  1  0  0  0
 76 78  1  0  0  0
 76148  1  0  0  0
 76149  1  0  0  0
 77 80  1  0  0  0
 77150  1  0  0  0
 77151  1  0  0  0
 78 82  1  0  0  0
 78152  1  0  0  0
 78153  1  0  0  0
 79 80  1  0  0  0
 79 82  1  0  0  0
 79154  1  0  0  0
 79155  1  0  0  0
 80 81  1  0  0  0
 80 86  1  0  0  0
 81156  1  0  0  0
 81157  1  0  0  0
 83158  1  0  0  0
 83159  1  0  0  0
 84160  1  0  0  0
 85161  1  0  0  0
 85162  1  0  0  0
M  CHG  1  85   1
M  ISO  4   1 100  68 101  81 101  84 100
M  END
> <chiral flag>
0

> <version>
0

> <s_m_source_file>
/data/baiqing/PycharmProjects/Reinvent-master-3.2/result/LINK_invent/BTK/process_docking_weight1_custom_product_contain_oxygen_bond_distance_aromatic_linkinvent_7_9_3/rearranged_h_0153.sdf

> <i_m_source_file_index>
81

> <r_mmod_Potential_Energy-OPLS-2005>
30075.658203125

> <r_mmod_Stretch_Energy-OPLS-2005>
12626.50390625

> <r_mmod_Bend_Energy-OPLS-2005>
3588.93432617188

> <r_mmod_Torsional_Energy-OPLS-2005>
897.255676269531

> <r_mmod_Improper_Torsional_Energy-OPLS-2005>
123.30583190918

> <r_mmod_Van_der_Waal_Energy-OPLS-2005>
3142.462890625

> <r_mmod_Electrostatic_Energy-OPLS-2005>
-258.570129394531

> <r_mmod_Solvation_Energy-OPLS-2005>
-400.581604003906

> <b_mmod_Minimization_Converged-OPLS-2005>
0

> <r_mmod_RMS_Derivative-OPLS-2005>
3.98740935325623

$$$$
81
                    3D
 Structure written by MMmdl.
162171  0  0  1  0            999 V2000
  -30.6401  -14.7165   20.4787 C   0  0  0  0  0  0
  -30.4223  -12.4465   19.4712 C   0  0  0  0  0  0
  -29.5070  -12.5141   18.2305 C   0  0  0  0  0  0
  -28.0309  -12.3422   18.6374 C   0  0  0  0  0  0
  -27.6361  -13.2339   19.8453 C   0  0  2  0  0  0
  -28.6779  -13.1704   20.9819 C   0  0  0  0  0  0
  -25.2476  -13.8193   20.5652 C   0  0  0  0  0  0
  -24.1774  -13.0438   20.9189 C   0  0  0  0  0  0
  -24.6364  -11.6912   20.8719 C   0  0  0  0  0  0
  -23.9030  -10.4296   21.0378 C   0  0  0  0  0  0
  -24.3582   -9.4223   21.9156 C   0  0  0  0  0  0
  -23.6289   -8.2231   22.0718 C   0  0  0  0  0  0
  -22.4273   -8.0260   21.3514 C   0  0  0  0  0  0
  -21.9902   -9.0219   20.4601 C   0  0  0  0  0  0
  -22.7200  -10.2124   20.3023 C   0  0  0  0  0  0
  -21.6864   -6.0717   22.5265 C   0  0  0  0  0  0
  -21.4005   -6.5613   23.8203 C   0  0  0  0  0  0
  -21.3668   -5.6771   24.9164 C   0  0  0  0  0  0
  -21.6068   -4.3028   24.7217 C   0  0  0  0  0  0
  -21.8829   -3.8121   23.4324 C   0  0  0  0  0  0
  -21.9189   -4.6941   22.3384 C   0  0  0  0  0  0
  -22.7806  -13.5215   21.1894 C   0  0  0  0  0  0
  -22.1672   -4.2126   21.0961 F   0  0  0  0  0  0
  -21.5639   -3.4517   25.7723 F   0  0  0  0  0  0
  -29.9800  -13.5137   20.3977 N   0  0  0  0  0  0
  -26.2898  -12.9395   20.3224 N   0  0  0  0  0  0
  -25.9286  -11.6543   20.5685 N   0  0  0  0  0  0
  -22.0430  -12.8189   22.0431 N   0  0  0  0  0  0
  -25.4185  -15.1909   20.3999 N   0  0  0  0  0  0
  -31.8419  -14.7526   20.2129 O   0  0  0  0  0  0
  -21.6634   -6.8857   21.4231 O   0  0  0  0  0  0
  -22.3489  -14.5526   20.6749 O   0  0  0  0  0  0
  -24.6298  -31.8560   23.2021 C   0  0  0  0  0  0
  -25.9135  -32.4776   23.8334 C   0  0  1  0  0  0
  -27.2217  -27.3009   20.1044 C   0  0  0  0  0  0
  -25.5935  -33.8580   24.2283 N   0  0  0  0  0  0
  -23.4229  -30.4827   21.5413 C   0  0  2  0  0  0
  -24.8670  -28.9314   20.1076 C   0  0  0  0  0  0
  -22.7510  -29.4587   22.4891 C   0  0  0  0  0  0
  -18.0288  -28.1390   22.8496 C   0  0  0  0  0  0
  -24.1471  -36.7268   23.2635 C   0  0  0  0  0  0
  -25.9670  -30.7821   21.3715 C   0  0  0  0  0  0
  -26.0365  -29.4075   20.7123 C   0  0  0  0  0  0
  -27.2127  -28.6000   20.7031 C   0  0  0  0  0  0
  -26.0193  -26.8670   19.4987 C   0  0  0  0  0  0
  -24.8599  -27.6667   19.4962 C   0  0  0  0  0  0
  -23.6394  -29.8195   20.1557 C   0  0  0  0  0  0
  -25.4092  -36.3085   24.0348 C   0  0  1  0  0  0
  -20.5898  -28.3675   23.1289 C   0  0  2  0  0  0
  -20.6781  -26.9395   22.5421 C   0  0  0  0  0  0
  -19.5752  -26.6384   21.5225 C   0  0  0  0  0  0
  -18.1922  -26.7935   22.1631 C   0  0  0  0  0  0
  -19.1544  -28.8850   23.2888 C   0  0  0  0  0  0
  -18.9461  -30.1450   23.8911 C   0  0  0  0  0  0
  -17.6465  -30.6588   24.0547 C   0  0  0  0  0  0
  -25.9044  -34.9457   23.5116 C   0  0  0  0  0  0
  -16.5357  -29.9096   23.6320 C   0  0  0  0  0  0
  -16.7272  -28.6511   23.0352 C   0  0  0  0  0  0
  -26.4516  -31.6608   25.0711 C   0  0  0  0  0  0
  -25.3771  -31.3756   26.1459 C   0  0  0  0  0  0
  -27.0320  -30.3023   24.6133 C   0  0  0  0  0  0
  -27.6040  -32.4374   25.7500 C   0  0  0  0  0  0
  -27.5571  -37.1804   24.8458 C   0  0  0  0  0  0
  -21.4215  -29.3030   22.3680 N   0  0  0  0  0  0
  -26.4261  -37.3790   23.9436 N   0  0  0  0  0  0
  -24.6921  -31.0565   22.0961 N   0  0  0  0  0  0
  -23.4239  -28.8115   23.2946 O   0  0  0  0  0  0
  -28.3596  -26.4804   20.1599 O   0  0  0  0  0  0
  -26.5571  -34.8946   22.4662 O   0  0  0  0  0  0
  -23.5457  -32.1330   23.7373 O   0  0  0  0  0  0
  -31.0891  -20.2131   19.9881 C   0  0  0  0  0  0
  -27.6029  -23.7778   21.4354 C   0  0  0  0  0  0
  -28.3350  -23.8372   20.3109 C   0  0  0  0  0  0
  -29.8064  -20.0007   20.3421 C   0  0  0  0  0  0
  -32.0253  -19.1157   19.6960 C   0  0  0  0  0  0
  -27.4935  -22.5171   22.2749 C   0  0  0  0  0  0
  -29.0908  -22.5382   19.8254 C   0  0  0  0  0  0
  -29.2442  -18.5333   20.5690 C   0  0  0  0  0  0
  -31.4857  -17.6859   19.6304 C   0  0  0  0  0  0
  -28.6658  -21.5340   22.0327 C   0  0  0  0  0  0
  -30.3632  -17.3658   20.6613 C   0  0  2  0  0  0
  -28.4661  -25.1666   19.4755 C   0  0  0  0  0  0
  -33.2464  -19.3635   19.4749 N   0  0  0  0  0  0
  -29.9111  -15.8895   20.6403 N   0  0  0  0  0  0
  -28.8531  -21.2236   20.5937 N   0  3  2  0  0  0
  -31.4670  -12.5587   19.1718 H   0  0  0  0  0  0
  -30.3514  -11.4693   19.9517 H   0  0  0  0  0  0
  -29.7918  -11.7500   17.5080 H   0  0  0  0  0  0
  -29.6413  -13.4731   17.7291 H   0  0  0  0  0  0
  -27.8790  -11.2925   18.8882 H   0  0  0  0  0  0
  -27.3787  -12.5486   17.7882 H   0  0  0  0  0  0
  -27.6314  -14.2553   19.4679 H   0  0  0  0  0  0
  -28.7093  -12.1728   21.4221 H   0  0  0  0  0  0
  -28.4092  -13.8533   21.7884 H   0  0  0  0  0  0
  -25.2711   -9.5725   22.4744 H   0  0  0  0  0  0
  -24.0012   -7.4626   22.7429 H   0  0  0  0  0  0
  -21.0834   -8.8707   19.8906 H   0  0  0  0  0  0
  -22.3617  -10.9649   19.6133 H   0  0  0  0  0  0
  -21.1995   -7.6120   23.9704 H   0  0  0  0  0  0
  -21.1502   -6.0478   25.9077 H   0  0  0  0  0  0
  -22.0608   -2.7578   23.2805 H   0  0  0  0  0  0
  -22.4024  -11.9831   22.4796 H   0  0  0  0  0  0
  -21.1032  -13.1193   22.2615 H   0  0  0  0  0  0
  -24.6400  -15.8370   20.4771 H   0  0  0  0  0  0
  -26.2497  -15.6164   20.0098 H   0  0  0  0  0  0
  -26.7194  -32.5423   23.1069 H   0  0  0  0  0  0
  -25.0220  -33.9709   25.0521 H   0  0  0  0  0  0
  -22.7127  -31.2999   21.3980 H   0  0  0  0  0  0
  -23.3763  -35.9568   23.3273 H   0  0  0  0  0  0
  -24.3563  -36.8894   22.2050 H   0  0  0  0  0  0
  -23.7207  -37.6466   23.6646 H   0  0  0  0  0  0
  -26.0911  -31.5432   20.6002 H   0  0  0  0  0  0
  -26.8522  -30.8362   21.9933 H   0  0  0  0  0  0
  -28.1122  -28.9617   21.1804 H   0  0  0  0  0  0
  -25.9364  -25.8911   19.0464 H   0  0  0  0  0  0
  -23.9578  -27.2914   19.0307 H   0  0  0  0  0  0
  -23.7736  -30.5971   19.4034 H   0  0  0  0  0  0
  -22.7587  -29.2574   19.8414 H   0  0  0  0  0  0
  -25.1283  -36.1912   25.0840 H   0  0  0  0  0  0
  -20.9992  -28.3250   24.1408 H   0  0  0  0  0  0
  -20.5672  -26.2284   23.3625 H   0  0  0  0  0  0
  -21.6646  -26.7425   22.1200 H   0  0  0  0  0  0
  -19.6886  -25.6295   21.1242 H   0  0  0  0  0  0
  -19.6686  -27.3210   20.6761 H   0  0  0  0  0  0
  -17.4208  -26.6703   21.4014 H   0  0  0  0  0  0
  -18.0279  -26.0065   22.9006 H   0  0  0  0  0  0
  -19.7929  -30.7245   24.2311 H   0  0  0  0  0  0
  -17.5014  -31.6260   24.5144 H   0  0  0  0  0  0
  -15.5357  -30.2998   23.7613 H   0  0  0  0  0  0
  -15.8673  -28.0824   22.7065 H   0  0  0  0  0  0
  -24.5915  -30.7127   25.7839 H   0  0  0  0  0  0
  -24.9000  -32.2929   26.4913 H   0  0  0  0  0  0
  -25.8125  -30.8941   27.0222 H   0  0  0  0  0  0
  -26.2870  -29.6829   24.1125 H   0  0  0  0  0  0
  -27.3986  -29.7230   25.4614 H   0  0  0  0  0  0
  -27.8764  -30.4304   23.9358 H   0  0  0  0  0  0
  -27.2595  -33.3680   26.2030 H   0  0  0  0  0  0
  -28.3877  -32.6950   25.0367 H   0  0  0  0  0  0
  -28.0666  -31.8548   26.5474 H   0  0  0  0  0  0
  -28.2575  -38.0118   24.7533 H   0  0  0  0  0  0
  -28.1088  -36.2653   24.6234 H   0  0  0  0  0  0
  -27.2294  -37.1393   25.8863 H   0  0  0  0  0  0
  -20.9392  -29.8788   21.6929 H   0  0  0  0  0  0
  -26.0127  -38.2857   24.1472 H   0  0  0  0  0  0
  -31.5058  -21.2009   19.8723 H   0  0  0  0  0  0
  -27.0524  -24.6462   21.7753 H   0  0  0  0  0  0
  -26.5375  -22.0363   22.0624 H   0  0  0  0  0  0
  -27.4680  -22.8011   23.3271 H   0  0  0  0  0  0
  -30.1417  -22.8123   19.8825 H   0  0  0  0  0  0
  -28.8709  -22.3703   18.7708 H   0  0  0  0  0  0
  -28.5673  -18.3175   19.7428 H   0  0  0  0  0  0
  -28.6367  -18.5157   21.4730 H   0  0  0  0  0  0
  -32.3441  -17.0311   19.7667 H   0  0  0  0  0  0
  -31.1184  -17.5098   18.6185 H   0  0  0  0  0  0
  -28.4982  -20.6201   22.6017 H   0  0  0  0  0  0
  -29.5950  -21.9688   22.4094 H   0  0  0  0  0  0
  -30.8199  -17.4854   21.6456 H   0  0  0  0  0  0
  -27.8403  -25.1018   18.5869 H   0  0  0  0  0  0
  -29.4808  -25.1552   19.0760 H   0  0  0  0  0  0
  -33.4602  -20.3533   19.5401 H   0  0  0  0  0  0
  -28.9249  -15.7418   20.7904 H   0  0  0  0  0  0
  -27.9354  -20.9355   20.2902 H   0  0  0  0  0  0
  1 25  1  0  0  0
  1 30  2  0  0  0
  1 84  1  0  0  0
  2  3  1  0  0  0
  2 25  1  0  0  0
  2 86  1  0  0  0
  2 87  1  0  0  0
  3  4  1  0  0  0
  3 88  1  0  0  0
  3 89  1  0  0  0
  4  5  1  0  0  0
  4 90  1  0  0  0
  4 91  1  0  0  0
  5  6  1  0  0  0
  5 26  1  0  0  0
  5 92  1  0  0  0
  6 25  1  0  0  0
  6 93  1  0  0  0
  6 94  1  0  0  0
  7  8  2  0  0  0
  7 26  1  0  0  0
  7 29  1  0  0  0
  8  9  1  0  0  0
  8 22  1  0  0  0
  9 10  1  0  0  0
  9 27  2  0  0  0
 10 11  2  0  0  0
 10 15  1  0  0  0
 11 12  1  0  0  0
 11 95  1  0  0  0
 12 13  2  0  0  0
 12 96  1  0  0  0
 13 14  1  0  0  0
 13 31  1  0  0  0
 14 15  2  0  0  0
 14 97  1  0  0  0
 15 98  1  0  0  0
 16 17  2  0  0  0
 16 21  1  0  0  0
 16 31  1  0  0  0
 17 18  1  0  0  0
 17 99  1  0  0  0
 18 19  2  0  0  0
 18100  1  0  0  0
 19 20  1  0  0  0
 19 24  1  0  0  0
 20 21  2  0  0  0
 20101  1  0  0  0
 21 23  1  0  0  0
 22 28  1  0  0  0
 22 32  2  0  0  0
 26 27  1  0  0  0
 28102  1  0  0  0
 28103  1  0  0  0
 29104  1  0  0  0
 29105  1  0  0  0
 33 34  1  0  0  0
 33 66  1  0  0  0
 33 70  2  0  0  0
 34 36  1  0  0  0
 34 59  1  0  0  0
 34106  1  0  0  0
 35 44  2  0  0  0
 35 45  1  0  0  0
 35 68  1  0  0  0
 36 56  1  0  0  0
 36107  1  0  0  0
 37 39  1  0  0  0
 37 47  1  0  0  0
 37 66  1  0  0  0
 37108  1  0  0  0
 38 43  2  0  0  0
 38 46  1  0  0  0
 38 47  1  0  0  0
 39 64  1  0  0  0
 39 67  2  0  0  0
 40 52  1  0  0  0
 40 53  2  0  0  0
 40 58  1  0  0  0
 41109  1  0  0  0
 41110  1  0  0  0
 41111  1  0  0  0
 41 48  1  0  0  0
 42 43  1  0  0  0
 42 66  1  0  0  0
 42112  1  0  0  0
 42113  1  0  0  0
 43 44  1  0  0  0
 44114  1  0  0  0
 45 46  2  0  0  0
 45115  1  0  0  0
 46116  1  0  0  0
 47117  1  0  0  0
 47118  1  0  0  0
 48 56  1  0  0  0
 48 65  1  0  0  0
 48119  1  0  0  0
 49 50  1  0  0  0
 49 53  1  0  0  0
 49 64  1  0  0  0
 49120  1  0  0  0
 50 51  1  0  0  0
 50121  1  0  0  0
 50122  1  0  0  0
 51 52  1  0  0  0
 51123  1  0  0  0
 51124  1  0  0  0
 52125  1  0  0  0
 52126  1  0  0  0
 53 54  1  0  0  0
 54 55  2  0  0  0
 54127  1  0  0  0
 55 57  1  0  0  0
 55128  1  0  0  0
 56 69  2  0  0  0
 57 58  2  0  0  0
 57129  1  0  0  0
 58130  1  0  0  0
 59 60  1  0  0  0
 59 61  1  0  0  0
 59 62  1  0  0  0
 60131  1  0  0  0
 60132  1  0  0  0
 60133  1  0  0  0
 61134  1  0  0  0
 61135  1  0  0  0
 61136  1  0  0  0
 62137  1  0  0  0
 62138  1  0  0  0
 62139  1  0  0  0
 63 65  1  0  0  0
 63140  1  0  0  0
 63141  1  0  0  0
 63142  1  0  0  0
 64143  1  0  0  0
 65144  1  0  0  0
 68 82  1  0  0  0
 71 74  2  0  0  0
 71 75  1  0  0  0
 71145  1  0  0  0
 72 73  2  0  0  0
 72 76  1  0  0  0
 72146  1  0  0  0
 73 77  1  0  0  0
 73 82  1  0  0  0
 74 78  1  0  0  0
 74 85  1  0  0  0
 75 79  1  0  0  0
 75 83  2  0  0  0
 76 80  1  0  0  0
 76147  1  0  0  0
 76148  1  0  0  0
 77 85  1  0  0  0
 77149  1  0  0  0
 77150  1  0  0  0
 78 81  1  0  0  0
 78151  1  0  0  0
 78152  1  0  0  0
 79 81  1  0  0  0
 79153  1  0  0  0
 79154  1  0  0  0
 80 85  1  0  0  0
 80155  1  0  0  0
 80156  1  0  0  0
 81 84  1  0  0  0
 81157  1  0  0  0
 82158  1  0  0  0
 82159  1  0  0  0
 83160  1  0  0  0
 84161  1  0  0  0
 85162  1  0  0  0
M  CHG  1  85   1
M  ISO  4   1 100  68 101  82 101  84 100
M  END
> <chiral flag>
0

> <version>
0

> <s_m_source_file>
/data/baiqing/PycharmProjects/Reinvent-master-3.2/result/LINK_invent/BTK/process_docking_weight1_custom_product_contain_oxygen_bond_distance_aromatic_linkinvent_7_9_3/rearranged_h_0153.sdf

> <i_m_source_file_index>
82

> <r_mmod_Potential_Energy-OPLS-2005>
10.5982980728149

> <r_mmod_Stretch_Energy-OPLS-2005>
116.212669372559

> <r_mmod_Bend_Energy-OPLS-2005>
172.222717285156

> <r_mmod_Torsional_Energy-OPLS-2005>
200.384399414062

> <r_mmod_Improper_Torsional_Energy-OPLS-2005>
4.98395729064941

> <r_mmod_Van_der_Waal_Energy-OPLS-2005>
138.195892333984

> <r_mmod_Electrostatic_Energy-OPLS-2005>
-206.034118652344

> <r_mmod_Solvation_Energy-OPLS-2005>
-484.217956542969

> <b_mmod_Minimization_Converged-OPLS-2005>
0

> <r_mmod_RMS_Derivative-OPLS-2005>
3.64863395690918

$$$$
82
                    3D
 Structure written by MMmdl.
149157  0  0  1  0            999 V2000
  -30.5373  -14.7757   20.4890 C   0  0  0  0  0  0
  -30.4600  -12.4788   19.4659 C   0  0  0  0  0  0
  -29.5216  -12.5314   18.2354 C   0  0  0  0  0  0
  -28.0459  -12.3404   18.6452 C   0  0  0  0  0  0
  -27.6521  -13.2192   19.8608 C   0  0  2  0  0  0
  -28.6985  -13.0984   20.9925 C   0  0  0  0  0  0
  -25.2551  -13.8151   20.5656 C   0  0  0  0  0  0
  -24.1832  -13.0428   20.9213 C   0  0  0  0  0  0
  -24.6404  -11.6899   20.8752 C   0  0  0  0  0  0
  -23.9063  -10.4287   21.0410 C   0  0  0  0  0  0
  -24.3613   -9.4203   21.9186 C   0  0  0  0  0  0
  -23.6287   -8.2240   22.0755 C   0  0  0  0  0  0
  -22.4269   -8.0279   21.3547 C   0  0  0  0  0  0
  -21.9905   -9.0254   20.4651 C   0  0  0  0  0  0
  -22.7234  -10.2133   20.3060 C   0  0  0  0  0  0
  -21.6852   -6.0734   22.5279 C   0  0  0  0  0  0
  -21.4017   -6.5637   23.8214 C   0  0  0  0  0  0
  -21.3658   -5.6788   24.9174 C   0  0  0  0  0  0
  -21.6042   -4.3049   24.7224 C   0  0  0  0  0  0
  -21.8817   -3.8145   23.4342 C   0  0  0  0  0  0
  -21.9194   -4.6963   22.3403 C   0  0  0  0  0  0
  -22.7853  -13.5232   21.1864 C   0  0  0  0  0  0
  -22.1661   -4.2151   21.0980 F   0  0  0  0  0  0
  -21.5630   -3.4533   25.7736 F   0  0  0  0  0  0
  -30.0011  -13.5025   20.4333 N   0  0  0  0  0  0
  -26.2981  -12.9337   20.3282 N   0  0  0  0  0  0
  -25.9329  -11.6494   20.5739 N   0  0  0  0  0  0
  -22.0482  -12.8236   22.0419 N   0  0  0  0  0  0
  -25.4226  -15.1860   20.3962 N   0  0  0  0  0  0
  -31.6913  -14.9847   20.0979 O   0  0  0  0  0  0
  -21.6637   -6.8874   21.4240 O   0  0  0  0  0  0
  -22.3549  -14.5536   20.6698 O   0  0  0  0  0  0
  -24.6355  -31.8531   23.1968 C   0  0  0  0  0  0
  -25.9165  -32.4744   23.8323 C   0  0  1  0  0  0
  -27.2224  -27.2334   20.1265 C   0  0  0  0  0  0
  -25.5943  -33.8547   24.2243 N   0  0  0  0  0  0
  -23.4338  -30.4764   21.5416 C   0  0  2  0  0  0
  -24.8814  -28.9219   20.1107 C   0  0  0  0  0  0
  -22.7525  -29.4596   22.4904 C   0  0  0  0  0  0
  -18.0298  -28.1390   22.8486 C   0  0  0  0  0  0
  -24.1490  -36.7279   23.2640 C   0  0  0  0  0  0
  -25.9837  -30.7576   21.3814 C   0  0  0  0  0  0
  -26.0566  -29.3786   20.7203 C   0  0  0  0  0  0
  -27.2295  -28.5493   20.7137 C   0  0  0  0  0  0
  -26.0176  -26.8557   19.4871 C   0  0  0  0  0  0
  -24.8692  -27.6698   19.4822 C   0  0  0  0  0  0
  -23.6540  -29.8126   20.1578 C   0  0  0  0  0  0
  -25.4118  -36.3065   24.0325 C   0  0  1  0  0  0
  -20.5905  -28.3709   23.1263 C   0  0  2  0  0  0
  -20.6789  -26.9425   22.5408 C   0  0  0  0  0  0
  -19.5758  -26.6385   21.5217 C   0  0  0  0  0  0
  -18.1938  -26.7932   22.1630 C   0  0  0  0  0  0
  -19.1553  -28.8866   23.2869 C   0  0  0  0  0  0
  -18.9469  -30.1465   23.8891 C   0  0  0  0  0  0
  -17.6465  -30.6590   24.0561 C   0  0  0  0  0  0
  -25.9060  -34.9434   23.5087 C   0  0  0  0  0  0
  -16.5357  -29.9084   23.6333 C   0  0  0  0  0  0
  -16.7283  -28.6502   23.0356 C   0  0  0  0  0  0
  -26.4510  -31.6581   25.0729 C   0  0  0  0  0  0
  -25.3715  -31.3750   26.1440 C   0  0  0  0  0  0
  -27.0358  -30.2990   24.6244 C   0  0  0  0  0  0
  -27.6053  -32.4333   25.7505 C   0  0  0  0  0  0
  -27.5582  -37.1797   24.8464 C   0  0  0  0  0  0
  -21.4229  -29.3049   22.3649 N   0  0  0  0  0  0
  -26.4289  -37.3768   23.9412 N   0  0  0  0  0  0
  -24.7037  -31.0469   22.0959 N   0  0  0  0  0  0
  -23.4208  -28.8133   23.3014 O   0  0  0  0  0  0
  -28.3066  -26.3102   20.1823 O   0  0  0  0  0  0
  -26.5632  -34.8916   22.4656 O   0  0  0  0  0  0
  -23.5498  -32.1367   23.7242 O   0  0  0  0  0  0
  -30.1756  -18.4322   20.4525 C   0  0  0  0  0  0
  -28.0992  -17.6102   21.1085 C   0  0  0  0  0  0
  -29.3811  -17.2305   20.7845 C   0  0  0  0  0  0
  -29.4800  -19.6727   20.5357 C   0  0  0  0  0  0
  -29.8591  -21.1855   20.4027 C   0  0  0  0  0  0
  -29.1354  -23.7251   20.2599 C   0  0  0  0  0  0
  -28.0109  -24.8238   20.0544 C   0  0  0  0  0  0
  -29.6527  -15.7632   20.9030 N   0  0  0  0  0  0
  -28.8852  -22.3359   20.3065 N   0  0  0  0  0  0
  -30.3769  -24.2273   20.3640 N   0  3  0  0  0  0
  -31.0644  -21.4660   20.3714 O   0  0  0  0  0  0
  -27.8312  -19.3437   21.0070 S   0  0  0  0  0  0
  -31.4940  -12.6474   19.1596 H   0  0  0  0  0  0
  -30.4424  -11.4882   19.9230 H   0  0  0  0  0  0
  -29.8101  -11.7711   17.5082 H   0  0  0  0  0  0
  -29.6354  -13.4928   17.7323 H   0  0  0  0  0  0
  -27.9034  -11.2878   18.8918 H   0  0  0  0  0  0
  -27.3886  -12.5467   17.7994 H   0  0  0  0  0  0
  -27.6594  -14.2496   19.5052 H   0  0  0  0  0  0
  -28.7450  -12.0732   21.3634 H   0  0  0  0  0  0
  -28.4168  -13.7057   21.8534 H   0  0  0  0  0  0
  -25.2758   -9.5682   22.4756 H   0  0  0  0  0  0
  -24.0003   -7.4629   22.7468 H   0  0  0  0  0  0
  -21.0841   -8.8772   19.8952 H   0  0  0  0  0  0
  -22.3694  -10.9672   19.6168 H   0  0  0  0  0  0
  -21.2010   -7.6143   23.9718 H   0  0  0  0  0  0
  -21.1481   -6.0516   25.9078 H   0  0  0  0  0  0
  -22.0600   -2.7608   23.2840 H   0  0  0  0  0  0
  -22.4086  -11.9898   22.4816 H   0  0  0  0  0  0
  -21.1098  -13.1269   22.2611 H   0  0  0  0  0  0
  -24.6238  -15.8095   20.4361 H   0  0  0  0  0  0
  -26.2081  -15.5839   19.8974 H   0  0  0  0  0  0
  -26.7232  -32.5384   23.1063 H   0  0  0  0  0  0
  -25.0081  -33.9674   25.0383 H   0  0  0  0  0  0
  -22.7323  -31.3003   21.3951 H   0  0  0  0  0  0
  -23.3756  -35.9606   23.3287 H   0  0  0  0  0  0
  -24.3584  -36.8921   22.2059 H   0  0  0  0  0  0
  -23.7237  -37.6473   23.6675 H   0  0  0  0  0  0
  -26.1280  -31.5193   20.6139 H   0  0  0  0  0  0
  -26.8586  -30.8038   22.0184 H   0  0  0  0  0  0
  -28.1276  -28.8962   21.2052 H   0  0  0  0  0  0
  -25.9196  -25.9035   18.9907 H   0  0  0  0  0  0
  -23.9704  -27.3158   18.9960 H   0  0  0  0  0  0
  -23.7841  -30.5902   19.4040 H   0  0  0  0  0  0
  -22.7708  -29.2507   19.8493 H   0  0  0  0  0  0
  -25.1300  -36.1905   25.0818 H   0  0  0  0  0  0
  -20.9995  -28.3285   24.1384 H   0  0  0  0  0  0
  -20.5700  -26.2315   23.3613 H   0  0  0  0  0  0
  -21.6654  -26.7450   22.1195 H   0  0  0  0  0  0
  -19.6919  -25.6291   21.1257 H   0  0  0  0  0  0
  -19.6691  -27.3188   20.6738 H   0  0  0  0  0  0
  -17.4209  -26.6678   21.4031 H   0  0  0  0  0  0
  -18.0337  -26.0078   22.9030 H   0  0  0  0  0  0
  -19.7941  -30.7288   24.2258 H   0  0  0  0  0  0
  -17.5015  -31.6271   24.5161 H   0  0  0  0  0  0
  -15.5356  -30.2982   23.7658 H   0  0  0  0  0  0
  -15.8684  -28.0816   22.7077 H   0  0  0  0  0  0
  -24.5868  -30.7132   25.7760 H   0  0  0  0  0  0
  -24.8934  -32.2928   26.4871 H   0  0  0  0  0  0
  -25.8010  -30.8908   27.0219 H   0  0  0  0  0  0
  -26.2950  -29.6734   24.1251 H   0  0  0  0  0  0
  -27.4001  -29.7267   25.4787 H   0  0  0  0  0  0
  -27.8848  -30.4251   23.9521 H   0  0  0  0  0  0
  -27.2648  -33.3637   26.2063 H   0  0  0  0  0  0
  -28.3868  -32.6892   25.0337 H   0  0  0  0  0  0
  -28.0713  -31.8474   26.5439 H   0  0  0  0  0  0
  -28.2587  -38.0106   24.7526 H   0  0  0  0  0  0
  -28.1090  -36.2638   24.6266 H   0  0  0  0  0  0
  -27.2303  -37.1420   25.8867 H   0  0  0  0  0  0
  -20.9423  -29.8767   21.6847 H   0  0  0  0  0  0
  -26.0164  -38.2840   24.1414 H   0  0  0  0  0  0
  -31.2232  -18.3596   20.1971 H   0  0  0  0  0  0
  -27.2688  -16.9887   21.4233 H   0  0  0  0  0  0
  -27.1945  -24.5809   20.7359 H   0  0  0  0  0  0
  -27.6343  -24.6498   19.0470 H   0  0  0  0  0  0
  -28.8443  -15.2801   21.2624 H   0  0  0  0  0  0
  -27.8985  -22.1397   20.2771 H   0  0  0  0  0  0
  -30.5120  -25.2267   20.3227 H   0  0  0  0  0  0
  -31.1760  -23.6140   20.4559 H   0  0  0  0  0  0
  1 25  1  0  0  0
  1 30  2  0  0  0
  1 78  1  0  0  0
  2  3  1  0  0  0
  2 25  1  0  0  0
  2 83  1  0  0  0
  2 84  1  0  0  0
  3  4  1  0  0  0
  3 85  1  0  0  0
  3 86  1  0  0  0
  4  5  1  0  0  0
  4 87  1  0  0  0
  4 88  1  0  0  0
  5  6  1  0  0  0
  5 26  1  0  0  0
  5 89  1  0  0  0
  6 25  1  0  0  0
  6 90  1  0  0  0
  6 91  1  0  0  0
  7  8  2  0  0  0
  7 26  1  0  0  0
  7 29  1  0  0  0
  8  9  1  0  0  0
  8 22  1  0  0  0
  9 10  1  0  0  0
  9 27  2  0  0  0
 10 11  2  0  0  0
 10 15  1  0  0  0
 11 12  1  0  0  0
 11 92  1  0  0  0
 12 13  2  0  0  0
 12 93  1  0  0  0
 13 14  1  0  0  0
 13 31  1  0  0  0
 14 15  2  0  0  0
 14 94  1  0  0  0
 15 95  1  0  0  0
 16 17  2  0  0  0
 16 21  1  0  0  0
 16 31  1  0  0  0
 17 18  1  0  0  0
 17 96  1  0  0  0
 18 19  2  0  0  0
 18 97  1  0  0  0
 19 20  1  0  0  0
 19 24  1  0  0  0
 20 21  2  0  0  0
 20 98  1  0  0  0
 21 23  1  0  0  0
 22 28  1  0  0  0
 22 32  2  0  0  0
 26 27  1  0  0  0
 28 99  1  0  0  0
 28100  1  0  0  0
 29101  1  0  0  0
 29102  1  0  0  0
 33 34  1  0  0  0
 33 66  1  0  0  0
 33 70  2  0  0  0
 34 36  1  0  0  0
 34 59  1  0  0  0
 34103  1  0  0  0
 35 44  2  0  0  0
 35 45  1  0  0  0
 35 68  1  0  0  0
 36 56  1  0  0  0
 36104  1  0  0  0
 37 39  1  0  0  0
 37 47  1  0  0  0
 37 66  1  0  0  0
 37105  1  0  0  0
 38 43  2  0  0  0
 38 46  1  0  0  0
 38 47  1  0  0  0
 39 64  1  0  0  0
 39 67  2  0  0  0
 40 52  1  0  0  0
 40 53  2  0  0  0
 40 58  1  0  0  0
 41106  1  0  0  0
 41107  1  0  0  0
 41108  1  0  0  0
 41 48  1  0  0  0
 42 43  1  0  0  0
 42 66  1  0  0  0
 42109  1  0  0  0
 42110  1  0  0  0
 43 44  1  0  0  0
 44111  1  0  0  0
 45 46  2  0  0  0
 45112  1  0  0  0
 46113  1  0  0  0
 47114  1  0  0  0
 47115  1  0  0  0
 48 56  1  0  0  0
 48 65  1  0  0  0
 48116  1  0  0  0
 49 50  1  0  0  0
 49 53  1  0  0  0
 49 64  1  0  0  0
 49117  1  0  0  0
 50 51  1  0  0  0
 50118  1  0  0  0
 50119  1  0  0  0
 51 52  1  0  0  0
 51120  1  0  0  0
 51121  1  0  0  0
 52122  1  0  0  0
 52123  1  0  0  0
 53 54  1  0  0  0
 54 55  2  0  0  0
 54124  1  0  0  0
 55 57  1  0  0  0
 55125  1  0  0  0
 56 69  2  0  0  0
 57 58  2  0  0  0
 57126  1  0  0  0
 58127  1  0  0  0
 59 60  1  0  0  0
 59 61  1  0  0  0
 59 62  1  0  0  0
 60128  1  0  0  0
 60129  1  0  0  0
 60130  1  0  0  0
 61131  1  0  0  0
 61132  1  0  0  0
 61133  1  0  0  0
 62134  1  0  0  0
 62135  1  0  0  0
 62136  1  0  0  0
 63 65  1  0  0  0
 63137  1  0  0  0
 63138  1  0  0  0
 63139  1  0  0  0
 64140  1  0  0  0
 65141  1  0  0  0
 68 77  1  0  0  0
 71 73  1  0  0  0
 71 74  2  0  0  0
 71142  1  0  0  0
 72 73  2  0  0  0
 72 82  1  0  0  0
 72143  1  0  0  0
 73 78  1  0  0  0
 74 75  1  0  0  0
 74 82  1  0  0  0
 75 79  1  0  0  0
 75 81  2  0  0  0
 76 77  1  0  0  0
 76 79  1  0  0  0
 76 80  2  0  0  0
 77144  1  0  0  0
 77145  1  0  0  0
 78146  1  0  0  0
 79147  1  0  0  0
 80148  1  0  0  0
 80149  1  0  0  0
M  CHG  1  80   1
M  ISO  4   1 100  68 101  77 101  78 100
M  END
> <chiral flag>
0

> <version>
0

> <s_m_source_file>
/data/baiqing/PycharmProjects/Reinvent-master-3.2/result/LINK_invent/BTK/process_docking_weight1_custom_product_contain_oxygen_bond_distance_aromatic_linkinvent_7_9_3/rearranged_h_0153.sdf

> <i_m_source_file_index>
83

> <r_mmod_Potential_Energy-OPLS-2005>
-14.4662895202637

> <r_mmod_Stretch_Energy-OPLS-2005>
142.201431274414

> <r_mmod_Bend_Energy-OPLS-2005>
214.265670776367

> <r_mmod_Torsional_Energy-OPLS-2005>
231.813980102539

> <r_mmod_Improper_Torsional_Energy-OPLS-2005>
5.05137348175049

> <r_mmod_Van_der_Waal_Energy-OPLS-2005>
122.851821899414

> <r_mmod_Electrostatic_Energy-OPLS-2005>
-354.849456787109

> <r_mmod_Solvation_Energy-OPLS-2005>
-478.330993652344

> <b_mmod_Minimization_Converged-OPLS-2005>
0

> <r_mmod_RMS_Derivative-OPLS-2005>
0.680639982223511

$$$$
83
                    3D
 Structure written by MMmdl.
159167  0  0  1  0            999 V2000
  -30.5917  -14.6308   20.5487 C   0  0  0  0  0  0
  -30.4289  -12.3995   19.4522 C   0  0  0  0  0  0
  -29.5044  -12.5512   18.2249 C   0  0  0  0  0  0
  -28.0280  -12.3749   18.6314 C   0  0  0  0  0  0
  -27.6545  -13.2157   19.8824 C   0  0  2  0  0  0
  -28.6940  -13.0306   21.0125 C   0  0  0  0  0  0
  -25.2558  -13.8160   20.5713 C   0  0  0  0  0  0
  -24.1815  -13.0427   20.9192 C   0  0  0  0  0  0
  -24.6371  -11.6890   20.8727 C   0  0  0  0  0  0
  -23.9040  -10.4265   21.0361 C   0  0  0  0  0  0
  -24.3600   -9.4195   21.9156 C   0  0  0  0  0  0
  -23.6279   -8.2234   22.0721 C   0  0  0  0  0  0
  -22.4265   -8.0258   21.3533 C   0  0  0  0  0  0
  -21.9909   -9.0226   20.4635 C   0  0  0  0  0  0
  -22.7207  -10.2109   20.3040 C   0  0  0  0  0  0
  -21.6870   -6.0717   22.5268 C   0  0  0  0  0  0
  -21.4015   -6.5621   23.8199 C   0  0  0  0  0  0
  -21.3668   -5.6775   24.9164 C   0  0  0  0  0  0
  -21.6065   -4.3036   24.7220 C   0  0  0  0  0  0
  -21.8828   -3.8131   23.4335 C   0  0  0  0  0  0
  -21.9193   -4.6944   22.3395 C   0  0  0  0  0  0
  -22.7852  -13.5237   21.1890 C   0  0  0  0  0  0
  -22.1662   -4.2129   21.0965 F   0  0  0  0  0  0
  -21.5643   -3.4529   25.7731 F   0  0  0  0  0  0
  -30.0096  -13.3923   20.4642 N   0  0  0  0  0  0
  -26.2986  -12.9332   20.3392 N   0  0  0  0  0  0
  -25.9309  -11.6489   20.5787 N   0  0  0  0  0  0
  -22.0502  -12.8194   22.0432 N   0  0  0  0  0  0
  -25.4324  -15.1879   20.4107 N   0  0  0  0  0  0
  -31.7220  -14.8383   20.0894 O   0  0  0  0  0  0
  -21.6652   -6.8847   21.4221 O   0  0  0  0  0  0
  -22.3525  -14.5526   20.6711 O   0  0  0  0  0  0
  -24.6235  -31.8574   23.2025 C   0  0  0  0  0  0
  -25.9075  -32.4773   23.8353 C   0  0  1  0  0  0
  -27.2179  -27.3165   20.1436 C   0  0  0  0  0  0
  -25.5880  -33.8589   24.2263 N   0  0  0  0  0  0
  -23.4178  -30.4771   21.5459 C   0  0  2  0  0  0
  -24.8646  -28.9264   20.1137 C   0  0  0  0  0  0
  -22.7460  -29.4599   22.4991 C   0  0  0  0  0  0
  -18.0277  -28.1345   22.8518 C   0  0  0  0  0  0
  -24.1479  -36.7291   23.2636 C   0  0  0  0  0  0
  -25.9561  -30.7919   21.3689 C   0  0  0  0  0  0
  -26.0292  -29.4161   20.7174 C   0  0  0  0  0  0
  -27.2134  -28.6238   20.7152 C   0  0  0  0  0  0
  -26.0392  -26.8720   19.5119 C   0  0  0  0  0  0
  -24.8709  -27.6608   19.4982 C   0  0  0  0  0  0
  -23.6274  -29.7995   20.1641 C   0  0  0  0  0  0
  -25.4129  -36.3101   24.0299 C   0  0  1  0  0  0
  -20.5877  -28.3635   23.1305 C   0  0  2  0  0  0
  -20.6782  -26.9379   22.5414 C   0  0  0  0  0  0
  -19.5757  -26.6358   21.5214 C   0  0  0  0  0  0
  -18.1919  -26.7903   22.1621 C   0  0  0  0  0  0
  -19.1535  -28.8809   23.2905 C   0  0  0  0  0  0
  -18.9464  -30.1417   23.8897 C   0  0  0  0  0  0
  -17.6467  -30.6551   24.0562 C   0  0  0  0  0  0
  -25.9047  -34.9448   23.5091 C   0  0  0  0  0  0
  -16.5348  -29.9045   23.6359 C   0  0  0  0  0  0
  -16.7264  -28.6454   23.0397 C   0  0  0  0  0  0
  -26.4461  -31.6595   25.0718 C   0  0  0  0  0  0
  -25.3722  -31.3695   26.1465 C   0  0  0  0  0  0
  -27.0288  -30.3018   24.6162 C   0  0  0  0  0  0
  -27.6040  -32.4323   25.7468 C   0  0  0  0  0  0
  -27.5591  -37.1811   24.8471 C   0  0  0  0  0  0
  -21.4176  -29.2990   22.3721 N   0  0  0  0  0  0
  -26.4308  -37.3802   23.9396 N   0  0  0  0  0  0
  -24.6850  -31.0585   22.0954 N   0  0  0  0  0  0
  -23.4171  -28.8156   23.3078 O   0  0  0  0  0  0
  -28.3459  -26.4892   20.1594 O   0  0  0  0  0  0
  -26.5640  -34.8911   22.4669 O   0  0  0  0  0  0
  -23.5414  -32.1355   23.7355 O   0  0  0  0  0  0
  -30.3219  -19.1880   19.7022 C   0  0  0  0  0  0
  -30.5531  -17.8043   19.9699 C   0  0  0  0  0  0
  -28.6755  -17.8208   21.4709 C   0  0  0  0  0  0
  -29.2470  -19.9292   20.2789 C   0  0  0  0  0  0
  -29.7108  -17.0665   20.8432 C   0  0  0  0  0  0
  -28.4415  -19.2083   21.2047 C   0  0  0  0  0  0
  -28.9382  -21.3292   19.7614 C   0  0  0  0  0  0
  -27.2398  -25.0310   21.8889 C   0  0  0  0  0  0
  -29.7069  -25.2035   21.5564 C   0  0  0  0  0  0
  -28.3650  -23.8737   19.8654 C   0  0  0  0  0  0
  -28.3566  -25.1516   20.8264 C   0  0  0  0  0  0
  -28.9439  -21.4477   18.4318 N   0  0  0  0  0  0
  -29.8040  -15.6208   21.0792 N   0  0  0  0  0  0
  -28.6628  -22.4886   20.4558 N   0  3  0  0  0  0
  -27.3925  -19.8236   21.8062 F   0  0  0  0  0  0
  -31.4709  -12.5266   19.1544 H   0  0  0  0  0  0
  -30.3485  -11.3883   19.8551 H   0  0  0  0  0  0
  -29.7712  -11.8342   17.4469 H   0  0  0  0  0  0
  -29.6440  -13.5414   17.7856 H   0  0  0  0  0  0
  -27.8612  -11.3151   18.8310 H   0  0  0  0  0  0
  -27.3724  -12.6355   17.8003 H   0  0  0  0  0  0
  -27.6847  -14.2620   19.5785 H   0  0  0  0  0  0
  -28.7050  -11.9973   21.3614 H   0  0  0  0  0  0
  -28.4307  -13.6278   21.8871 H   0  0  0  0  0  0
  -25.2744   -9.5694   22.4736 H   0  0  0  0  0  0
  -24.0015   -7.4627   22.7449 H   0  0  0  0  0  0
  -21.0850   -8.8713   19.8950 H   0  0  0  0  0  0
  -22.3631  -10.9639   19.6161 H   0  0  0  0  0  0
  -21.1990   -7.6133   23.9688 H   0  0  0  0  0  0
  -21.1510   -6.0513   25.9061 H   0  0  0  0  0  0
  -22.0606   -2.7602   23.2844 H   0  0  0  0  0  0
  -22.4125  -11.9834   22.4791 H   0  0  0  0  0  0
  -21.1114  -13.1199   22.2638 H   0  0  0  0  0  0
  -24.6687  -15.8475   20.5001 H   0  0  0  0  0  0
  -26.2928  -15.6205   20.0974 H   0  0  0  0  0  0
  -26.7150  -32.5423   23.1109 H   0  0  0  0  0  0
  -25.0032  -33.9786   25.0404 H   0  0  0  0  0  0
  -22.7090  -31.2937   21.3991 H   0  0  0  0  0  0
  -23.3764  -35.9610   23.3305 H   0  0  0  0  0  0
  -24.3595  -36.8933   22.2066 H   0  0  0  0  0  0
  -23.7194  -37.6465   23.6667 H   0  0  0  0  0  0
  -26.0857  -31.5566   20.5995 H   0  0  0  0  0  0
  -26.8378  -30.8398   21.9971 H   0  0  0  0  0  0
  -28.1110  -29.0046   21.1838 H   0  0  0  0  0  0
  -26.0147  -25.8974   19.0439 H   0  0  0  0  0  0
  -23.9759  -27.2804   19.0222 H   0  0  0  0  0  0
  -23.7260  -30.5642   19.3936 H   0  0  0  0  0  0
  -22.7496  -29.2101   19.8858 H   0  0  0  0  0  0
  -25.1326  -36.1968   25.0798 H   0  0  0  0  0  0
  -20.9974  -28.3190   24.1414 H   0  0  0  0  0  0
  -20.5698  -26.2241   23.3605 H   0  0  0  0  0  0
  -21.6654  -26.7424   22.1193 H   0  0  0  0  0  0
  -19.6915  -25.6259   21.1235 H   0  0  0  0  0  0
  -19.6680  -27.3179   20.6754 H   0  0  0  0  0  0
  -17.4223  -26.6688   21.3980 H   0  0  0  0  0  0
  -18.0299  -26.0016   22.8977 H   0  0  0  0  0  0
  -19.7938  -30.7262   24.2236 H   0  0  0  0  0  0
  -17.5004  -31.6243   24.5145 H   0  0  0  0  0  0
  -15.5341  -30.2936   23.7675 H   0  0  0  0  0  0
  -15.8674  -28.0745   22.7139 H   0  0  0  0  0  0
  -24.5926  -30.6987   25.7801 H   0  0  0  0  0  0
  -24.8858  -32.2839   26.4872 H   0  0  0  0  0  0
  -25.8094  -30.8904   27.0239 H   0  0  0  0  0  0
  -26.2840  -29.6786   24.1187 H   0  0  0  0  0  0
  -27.3969  -29.7244   25.4657 H   0  0  0  0  0  0
  -27.8716  -30.4286   23.9372 H   0  0  0  0  0  0
  -27.2662  -33.3651   26.1998 H   0  0  0  0  0  0
  -28.3855  -32.6858   25.0284 H   0  0  0  0  0  0
  -28.0689  -31.8472   26.5416 H   0  0  0  0  0  0
  -28.2624  -38.0108   24.7585 H   0  0  0  0  0  0
  -28.1078  -36.2642   24.6236 H   0  0  0  0  0  0
  -27.2303  -37.1399   25.8877 H   0  0  0  0  0  0
  -20.9336  -29.8695   21.6937 H   0  0  0  0  0  0
  -26.0179  -38.2864   24.1439 H   0  0  0  0  0  0
  -30.9673  -19.6839   18.9894 H   0  0  0  0  0  0
  -31.3704  -17.3063   19.4660 H   0  0  0  0  0  0
  -28.0005  -17.3206   22.1525 H   0  0  0  0  0  0
  -27.3808  -24.1584   22.5246 H   0  0  0  0  0  0
  -26.2574  -24.9283   21.4321 H   0  0  0  0  0  0
  -27.2130  -25.9017   22.5452 H   0  0  0  0  0  0
  -29.8731  -24.3182   22.1699 H   0  0  0  0  0  0
  -29.7563  -26.0699   22.2169 H   0  0  0  0  0  0
  -30.5337  -25.2836   20.8483 H   0  0  0  0  0  0
  -29.1190  -24.0664   19.1001 H   0  0  0  0  0  0
  -27.4108  -23.8238   19.3362 H   0  0  0  0  0  0
  -29.0435  -20.6093   17.8792 H   0  0  0  0  0  0
  -28.7941  -22.3166   17.9511 H   0  0  0  0  0  0
  -29.0116  -15.2382   21.5721 H   0  0  0  0  0  0
  -28.5768  -22.3960   21.4596 H   0  0  0  0  0  0
  1 25  1  0  0  0
  1 30  2  0  0  0
  1 83  1  0  0  0
  2  3  1  0  0  0
  2 25  1  0  0  0
  2 86  1  0  0  0
  2 87  1  0  0  0
  3  4  1  0  0  0
  3 88  1  0  0  0
  3 89  1  0  0  0
  4  5  1  0  0  0
  4 90  1  0  0  0
  4 91  1  0  0  0
  5  6  1  0  0  0
  5 26  1  0  0  0
  5 92  1  0  0  0
  6 25  1  0  0  0
  6 93  1  0  0  0
  6 94  1  0  0  0
  7  8  2  0  0  0
  7 26  1  0  0  0
  7 29  1  0  0  0
  8  9  1  0  0  0
  8 22  1  0  0  0
  9 10  1  0  0  0
  9 27  2  0  0  0
 10 11  2  0  0  0
 10 15  1  0  0  0
 11 12  1  0  0  0
 11 95  1  0  0  0
 12 13  2  0  0  0
 12 96  1  0  0  0
 13 14  1  0  0  0
 13 31  1  0  0  0
 14 15  2  0  0  0
 14 97  1  0  0  0
 15 98  1  0  0  0
 16 17  2  0  0  0
 16 21  1  0  0  0
 16 31  1  0  0  0
 17 18  1  0  0  0
 17 99  1  0  0  0
 18 19  2  0  0  0
 18100  1  0  0  0
 19 20  1  0  0  0
 19 24  1  0  0  0
 20 21  2  0  0  0
 20101  1  0  0  0
 21 23  1  0  0  0
 22 28  1  0  0  0
 22 32  2  0  0  0
 26 27  1  0  0  0
 28102  1  0  0  0
 28103  1  0  0  0
 29104  1  0  0  0
 29105  1  0  0  0
 33 34  1  0  0  0
 33 66  1  0  0  0
 33 70  2  0  0  0
 34 36  1  0  0  0
 34 59  1  0  0  0
 34106  1  0  0  0
 35 44  2  0  0  0
 35 45  1  0  0  0
 35 68  1  0  0  0
 36 56  1  0  0  0
 36107  1  0  0  0
 37 39  1  0  0  0
 37 47  1  0  0  0
 37 66  1  0  0  0
 37108  1  0  0  0
 38 43  2  0  0  0
 38 46  1  0  0  0
 38 47  1  0  0  0
 39 64  1  0  0  0
 39 67  2  0  0  0
 40 52  1  0  0  0
 40 53  2  0  0  0
 40 58  1  0  0  0
 41109  1  0  0  0
 41110  1  0  0  0
 41111  1  0  0  0
 41 48  1  0  0  0
 42 43  1  0  0  0
 42 66  1  0  0  0
 42112  1  0  0  0
 42113  1  0  0  0
 43 44  1  0  0  0
 44114  1  0  0  0
 45 46  2  0  0  0
 45115  1  0  0  0
 46116  1  0  0  0
 47117  1  0  0  0
 47118  1  0  0  0
 48 56  1  0  0  0
 48 65  1  0  0  0
 48119  1  0  0  0
 49 50  1  0  0  0
 49 53  1  0  0  0
 49 64  1  0  0  0
 49120  1  0  0  0
 50 51  1  0  0  0
 50121  1  0  0  0
 50122  1  0  0  0
 51 52  1  0  0  0
 51123  1  0  0  0
 51124  1  0  0  0
 52125  1  0  0  0
 52126  1  0  0  0
 53 54  1  0  0  0
 54 55  2  0  0  0
 54127  1  0  0  0
 55 57  1  0  0  0
 55128  1  0  0  0
 56 69  2  0  0  0
 57 58  2  0  0  0
 57129  1  0  0  0
 58130  1  0  0  0
 59 60  1  0  0  0
 59 61  1  0  0  0
 59 62  1  0  0  0
 60131  1  0  0  0
 60132  1  0  0  0
 60133  1  0  0  0
 61134  1  0  0  0
 61135  1  0  0  0
 61136  1  0  0  0
 62137  1  0  0  0
 62138  1  0  0  0
 62139  1  0  0  0
 63 65  1  0  0  0
 63140  1  0  0  0
 63141  1  0  0  0
 63142  1  0  0  0
 64143  1  0  0  0
 65144  1  0  0  0
 68 81  1  0  0  0
 71 72  2  0  0  0
 71 74  1  0  0  0
 71145  1  0  0  0
 72 75  1  0  0  0
 72146  1  0  0  0
 73 75  2  0  0  0
 73 76  1  0  0  0
 73147  1  0  0  0
 74 76  2  0  0  0
 74 77  1  0  0  0
 75 83  1  0  0  0
 76 85  1  0  0  0
 77 82  1  0  0  0
 77 84  2  0  0  0
 78148  1  0  0  0
 78149  1  0  0  0
 78150  1  0  0  0
 78 81  1  0  0  0
 79 81  1  0  0  0
 79151  1  0  0  0
 79152  1  0  0  0
 79153  1  0  0  0
 80 81  1  0  0  0
 80 84  1  0  0  0
 80154  1  0  0  0
 80155  1  0  0  0
 82156  1  0  0  0
 82157  1  0  0  0
 83158  1  0  0  0
 84159  1  0  0  0
M  CHG  1  84   1
M  ISO  4   1 100  68 101  81 101  83 100
M  END
> <chiral flag>
0

> <version>
0

> <s_m_source_file>
/data/baiqing/PycharmProjects/Reinvent-master-3.2/result/LINK_invent/BTK/process_docking_weight1_custom_product_contain_oxygen_bond_distance_aromatic_linkinvent_7_9_3/rearranged_h_0153.sdf

> <i_m_source_file_index>
84

> <r_mmod_Potential_Energy-OPLS-2005>
-132.072387695312

> <r_mmod_Stretch_Energy-OPLS-2005>
86.7758407592773

> <r_mmod_Bend_Energy-OPLS-2005>
153.826370239258

> <r_mmod_Torsional_Energy-OPLS-2005>
248.643142700195

> <r_mmod_Improper_Torsional_Energy-OPLS-2005>
4.31761598587036

> <r_mmod_Van_der_Waal_Energy-OPLS-2005>
142.553939819336

> <r_mmod_Electrostatic_Energy-OPLS-2005>
-401.722686767578

> <r_mmod_Solvation_Energy-OPLS-2005>
-412.335601806641

> <b_mmod_Minimization_Converged-OPLS-2005>
0

> <r_mmod_RMS_Derivative-OPLS-2005>
4.1786093711853

$$$$
84
                    3D
 Structure written by MMmdl.
152161  0  0  1  0            999 V2000
  -30.5681  -15.0596   20.3605 C   0  0  0  0  0  0
  -30.4244  -12.6583   19.4978 C   0  0  0  0  0  0
  -29.5105  -12.5272   18.2592 C   0  0  0  0  0  0
  -28.0502  -12.3061   18.6875 C   0  0  0  0  0  0
  -27.6133  -13.2636   19.8265 C   0  0  2  0  0  0
  -28.6672  -13.3584   20.9533 C   0  0  0  0  0  0
  -25.2393  -13.8264   20.5813 C   0  0  0  0  0  0
  -24.1715  -13.0455   20.9279 C   0  0  0  0  0  0
  -24.6355  -11.6941   20.8773 C   0  0  0  0  0  0
  -23.9050  -10.4307   21.0418 C   0  0  0  0  0  0
  -24.3618   -9.4222   21.9174 C   0  0  0  0  0  0
  -23.6299   -8.2247   22.0749 C   0  0  0  0  0  0
  -22.4278   -8.0272   21.3553 C   0  0  0  0  0  0
  -21.9930   -9.0246   20.4649 C   0  0  0  0  0  0
  -22.7247  -10.2121   20.3045 C   0  0  0  0  0  0
  -21.6843   -6.0735   22.5283 C   0  0  0  0  0  0
  -21.4000   -6.5636   23.8219 C   0  0  0  0  0  0
  -21.3660   -5.6779   24.9172 C   0  0  0  0  0  0
  -21.6051   -4.3042   24.7209 C   0  0  0  0  0  0
  -21.8829   -3.8146   23.4334 C   0  0  0  0  0  0
  -21.9194   -4.6974   22.3394 C   0  0  0  0  0  0
  -22.7727  -13.5206   21.1906 C   0  0  0  0  0  0
  -22.1660   -4.2176   21.0972 F   0  0  0  0  0  0
  -21.5643   -3.4510   25.7714 F   0  0  0  0  0  0
  -29.9170  -13.8078   20.3241 N   0  0  0  0  0  0
  -26.2802  -12.9511   20.3248 N   0  0  0  0  0  0
  -25.9278  -11.6628   20.5747 N   0  0  0  0  0  0
  -22.0371  -12.8186   22.0455 N   0  0  0  0  0  0
  -25.4051  -15.2016   20.4330 N   0  0  0  0  0  0
  -31.7879  -14.9601   20.1984 O   0  0  0  0  0  0
  -21.6632   -6.8879   21.4241 O   0  0  0  0  0  0
  -22.3443  -14.5526   20.6753 O   0  0  0  0  0  0
  -24.6539  -31.8358   23.1795 C   0  0  0  0  0  0
  -25.9241  -32.4637   23.8234 C   0  0  1  0  0  0
  -27.2139  -27.0503   20.1911 C   0  0  0  0  0  0
  -25.5987  -33.8462   24.2135 N   0  0  0  0  0  0
  -23.4590  -30.4543   21.5274 C   0  0  2  0  0  0
  -24.9041  -28.8493   20.1284 C   0  0  0  0  0  0
  -22.7575  -29.4550   22.4802 C   0  0  0  0  0  0
  -18.0272  -28.1319   22.8481 C   0  0  0  0  0  0
  -24.1501  -36.7230   23.2656 C   0  0  0  0  0  0
  -26.0236  -30.6788   21.3969 C   0  0  0  0  0  0
  -26.0874  -29.2809   20.7456 C   0  0  0  0  0  0
  -27.2446  -28.4030   20.7480 C   0  0  0  0  0  0
  -25.9979  -26.7227   19.5609 C   0  0  0  0  0  0
  -24.8753  -27.5816   19.5227 C   0  0  0  0  0  0
  -23.6899  -29.7722   20.1532 C   0  0  0  0  0  0
  -25.4143  -36.2996   24.0305 C   0  0  1  0  0  0
  -20.5895  -28.3766   23.1193 C   0  0  2  0  0  0
  -20.6821  -26.9484   22.5393 C   0  0  0  0  0  0
  -19.5802  -26.6320   21.5196 C   0  0  0  0  0  0
  -18.1939  -26.7890   22.1562 C   0  0  0  0  0  0
  -19.1525  -28.8856   23.2806 C   0  0  0  0  0  0
  -18.9487  -30.1456   23.8803 C   0  0  0  0  0  0
  -17.6473  -30.6595   24.0468 C   0  0  0  0  0  0
  -25.9115  -34.9380   23.5036 C   0  0  0  0  0  0
  -16.5372  -29.9067   23.6317 C   0  0  0  0  0  0
  -16.7258  -28.6436   23.0400 C   0  0  0  0  0  0
  -26.4518  -31.6539   25.0711 C   0  0  0  0  0  0
  -25.3709  -31.3777   26.1415 C   0  0  0  0  0  0
  -27.0444  -30.2919   24.6430 C   0  0  0  0  0  0
  -27.5993  -32.4377   25.7520 C   0  0  0  0  0  0
  -27.5563  -37.1792   24.8476 C   0  0  0  0  0  0
  -21.4254  -29.3114   22.3594 N   0  0  0  0  0  0
  -26.4297  -37.3720   23.9402 N   0  0  0  0  0  0
  -24.7329  -31.0126   22.0884 N   0  0  0  0  0  0
  -23.4166  -28.8104   23.3000 O   0  0  0  0  0  0
  -28.2870  -26.0708   20.1024 O   0  0  0  0  0  0
  -26.5717  -34.8925   22.4629 O   0  0  0  0  0  0
  -23.5628  -32.1312   23.6912 O   0  0  0  0  0  0
  -32.1195  -19.3098   19.0498 C   0  0  0  0  0  0
  -30.0356  -19.2031   20.0663 C   0  0  0  0  0  0
  -30.3777  -17.7280   20.0302 C   0  0  0  0  0  0
  -27.9851  -22.1686   21.8430 C   0  0  0  0  0  0
  -28.9177  -20.4161   20.4172 C   0  0  2  0  0  0
  -28.1811  -22.9488   20.5007 C   0  0  1  0  0  0
  -28.4169  -24.6501   20.8047 C   0  0  0  0  0  0
  -31.1124  -19.9710   19.5861 N   0  0  0  0  0  0
  -28.4930  -20.7583   21.7814 N   0  0  0  0  0  0
  -29.9098  -16.3717   20.3924 N   0  0  0  0  0  0
  -29.1738  -21.8937   19.9181 N   0  3  0  0  0  0
  -31.8910  -17.6082   19.0944 S   0  0  0  0  0  0
  -31.4465  -12.8134   19.1556 H   0  0  0  0  0  0
  -30.4464  -11.7304   20.0758 H   0  0  0  0  0  0
  -29.8487  -11.7132   17.6128 H   0  0  0  0  0  0
  -29.5714  -13.4396   17.6663 H   0  0  0  0  0  0
  -27.9692  -11.2735   19.0323 H   0  0  0  0  0  0
  -27.3843  -12.3937   17.8286 H   0  0  0  0  0  0
  -27.5512  -14.2464   19.3618 H   0  0  0  0  0  0
  -28.8009  -12.3931   21.4505 H   0  0  0  0  0  0
  -28.3546  -14.0627   21.7224 H   0  0  0  0  0  0
  -25.2787   -9.5706   22.4702 H   0  0  0  0  0  0
  -24.0046   -7.4658   22.7452 H   0  0  0  0  0  0
  -21.0867   -8.8756   19.8938 H   0  0  0  0  0  0
  -22.3740  -10.9640   19.6123 H   0  0  0  0  0  0
  -21.1956   -7.6137   23.9733 H   0  0  0  0  0  0
  -21.1484   -6.0489   25.9084 H   0  0  0  0  0  0
  -22.0610   -2.7621   23.2805 H   0  0  0  0  0  0
  -22.4025  -11.9886   22.4877 H   0  0  0  0  0  0
  -21.0952  -13.1189   22.2535 H   0  0  0  0  0  0
  -24.6505  -15.8563   20.6014 H   0  0  0  0  0  0
  -26.2537  -15.6552   20.1206 H   0  0  0  0  0  0
  -26.7316  -32.5162   23.0984 H   0  0  0  0  0  0
  -25.0117  -33.9593   25.0252 H   0  0  0  0  0  0
  -22.7659  -31.2835   21.3608 H   0  0  0  0  0  0
  -23.3767  -35.9550   23.3322 H   0  0  0  0  0  0
  -24.3585  -36.8874   22.2069 H   0  0  0  0  0  0
  -23.7249  -37.6427   23.6711 H   0  0  0  0  0  0
  -26.2027  -31.4246   20.6228 H   0  0  0  0  0  0
  -26.8836  -30.7135   22.0529 H   0  0  0  0  0  0
  -28.1551  -28.7517   21.2180 H   0  0  0  0  0  0
  -25.9012  -25.7472   19.1015 H   0  0  0  0  0  0
  -23.9739  -27.2323   19.0364 H   0  0  0  0  0  0
  -23.8451  -30.5440   19.3973 H   0  0  0  0  0  0
  -22.7998  -29.2240   19.8343 H   0  0  0  0  0  0
  -25.1320  -36.1844   25.0790 H   0  0  0  0  0  0
  -20.9957  -28.3389   24.1316 H   0  0  0  0  0  0
  -21.6693  -26.7458   22.1221 H   0  0  0  0  0  0
  -20.5727  -26.2435   23.3624 H   0  0  0  0  0  0
  -19.6968  -25.6191   21.1335 H   0  0  0  0  0  0
  -19.6764  -27.3050   20.6668 H   0  0  0  0  0  0
  -17.4286  -26.6746   21.3867 H   0  0  0  0  0  0
  -18.0260  -25.9983   22.8875 H   0  0  0  0  0  0
  -19.7975  -30.7309   24.2110 H   0  0  0  0  0  0
  -17.5052  -31.6302   24.4991 H   0  0  0  0  0  0
  -15.5365  -30.2959   23.7616 H   0  0  0  0  0  0
  -15.8648  -28.0683   22.7227 H   0  0  0  0  0  0
  -24.5880  -30.7119   25.7778 H   0  0  0  0  0  0
  -24.8922  -32.2984   26.4785 H   0  0  0  0  0  0
  -25.8003  -30.9021   27.0248 H   0  0  0  0  0  0
  -26.3129  -29.6596   24.1407 H   0  0  0  0  0  0
  -27.3957  -29.7266   25.5068 H   0  0  0  0  0  0
  -27.9053  -30.4103   23.9848 H   0  0  0  0  0  0
  -27.2507  -33.3715   26.1998 H   0  0  0  0  0  0
  -28.3876  -32.6941   25.0402 H   0  0  0  0  0  0
  -28.0629  -31.8617   26.5571 H   0  0  0  0  0  0
  -28.2596  -38.0072   24.7488 H   0  0  0  0  0  0
  -28.1056  -36.2601   24.6353 H   0  0  0  0  0  0
  -27.2304  -37.1494   25.8893 H   0  0  0  0  0  0
  -20.9428  -29.8960   21.6887 H   0  0  0  0  0  0
  -26.0155  -38.2792   24.1379 H   0  0  0  0  0  0
  -32.9728  -19.8121   18.6149 H   0  0  0  0  0  0
  -26.9393  -22.2102   22.1687 H   0  0  0  0  0  0
  -28.5688  -22.6611   22.6253 H   0  0  0  0  0  0
  -27.9930  -20.1184   19.9234 H   0  0  0  0  0  0
  -27.2566  -22.8511   19.9326 H   0  0  0  0  0  0
  -29.4290  -24.6968   21.2022 H   0  0  0  0  0  0
  -27.8048  -24.8206   21.6904 H   0  0  0  0  0  0
  -27.7501  -20.1221   22.0628 H   0  0  0  0  0  0
  -28.9360  -16.3267   20.6566 H   0  0  0  0  0  0
  -29.1792  -21.9114   18.9108 H   0  0  0  0  0  0
  -30.1165  -22.1055   20.2049 H   0  0  0  0  0  0
  1 25  1  0  0  0
  1 30  2  0  0  0
  1 80  1  0  0  0
  2  3  1  0  0  0
  2 25  1  0  0  0
  2 83  1  0  0  0
  2 84  1  0  0  0
  3  4  1  0  0  0
  3 85  1  0  0  0
  3 86  1  0  0  0
  4  5  1  0  0  0
  4 87  1  0  0  0
  4 88  1  0  0  0
  5  6  1  0  0  0
  5 26  1  0  0  0
  5 89  1  0  0  0
  6 25  1  0  0  0
  6 90  1  0  0  0
  6 91  1  0  0  0
  7  8  2  0  0  0
  7 26  1  0  0  0
  7 29  1  0  0  0
  8  9  1  0  0  0
  8 22  1  0  0  0
  9 10  1  0  0  0
  9 27  2  0  0  0
 10 11  2  0  0  0
 10 15  1  0  0  0
 11 12  1  0  0  0
 11 92  1  0  0  0
 12 13  2  0  0  0
 12 93  1  0  0  0
 13 14  1  0  0  0
 13 31  1  0  0  0
 14 15  2  0  0  0
 14 94  1  0  0  0
 15 95  1  0  0  0
 16 17  2  0  0  0
 16 21  1  0  0  0
 16 31  1  0  0  0
 17 18  1  0  0  0
 17 96  1  0  0  0
 18 19  2  0  0  0
 18 97  1  0  0  0
 19 20  1  0  0  0
 19 24  1  0  0  0
 20 21  2  0  0  0
 20 98  1  0  0  0
 21 23  1  0  0  0
 22 28  1  0  0  0
 22 32  2  0  0  0
 26 27  1  0  0  0
 28 99  1  0  0  0
 28100  1  0  0  0
 29101  1  0  0  0
 29102  1  0  0  0
 33 34  1  0  0  0
 33 66  1  0  0  0
 33 70  2  0  0  0
 34 36  1  0  0  0
 34 59  1  0  0  0
 34103  1  0  0  0
 35 44  2  0  0  0
 35 45  1  0  0  0
 35 68  1  0  0  0
 36 56  1  0  0  0
 36104  1  0  0  0
 37 39  1  0  0  0
 37 47  1  0  0  0
 37 66  1  0  0  0
 37105  1  0  0  0
 38 43  2  0  0  0
 38 46  1  0  0  0
 38 47  1  0  0  0
 39 64  1  0  0  0
 39 67  2  0  0  0
 40 52  1  0  0  0
 40 53  2  0  0  0
 40 58  1  0  0  0
 41106  1  0  0  0
 41107  1  0  0  0
 41108  1  0  0  0
 41 48  1  0  0  0
 42 43  1  0  0  0
 42 66  1  0  0  0
 42109  1  0  0  0
 42110  1  0  0  0
 43 44  1  0  0  0
 44111  1  0  0  0
 45 46  2  0  0  0
 45112  1  0  0  0
 46113  1  0  0  0
 47114  1  0  0  0
 47115  1  0  0  0
 48 56  1  0  0  0
 48 65  1  0  0  0
 48116  1  0  0  0
 49 50  1  0  0  0
 49 53  1  0  0  0
 49 64  1  0  0  0
 49117  1  0  0  0
 50 51  1  0  0  0
 50118  1  0  0  0
 50119  1  0  0  0
 51 52  1  0  0  0
 51120  1  0  0  0
 51121  1  0  0  0
 52122  1  0  0  0
 52123  1  0  0  0
 53 54  1  0  0  0
 54 55  2  0  0  0
 54124  1  0  0  0
 55 57  1  0  0  0
 55125  1  0  0  0
 56 69  2  0  0  0
 57 58  2  0  0  0
 57126  1  0  0  0
 58127  1  0  0  0
 59 60  1  0  0  0
 59 61  1  0  0  0
 59 62  1  0  0  0
 60128  1  0  0  0
 60129  1  0  0  0
 60130  1  0  0  0
 61131  1  0  0  0
 61132  1  0  0  0
 61133  1  0  0  0
 62134  1  0  0  0
 62135  1  0  0  0
 62136  1  0  0  0
 63 65  1  0  0  0
 63137  1  0  0  0
 63138  1  0  0  0
 63139  1  0  0  0
 64140  1  0  0  0
 65141  1  0  0  0
 68 77  1  0  0  0
 71 78  2  0  0  0
 71 82  1  0  0  0
 71142  1  0  0  0
 72 73  2  0  0  0
 72 78  1  0  0  0
 72 75  1  0  0  0
 73 80  1  0  0  0
 73 82  1  0  0  0
 74 76  1  0  0  0
 74 79  1  0  0  0
 74143  1  0  0  0
 74144  1  0  0  0
 75 79  1  0  0  0
 75 81  1  0  0  0
 75145  1  0  0  0
 76 77  1  0  0  0
 76 81  1  0  0  0
 76146  1  0  0  0
 77147  1  0  0  0
 77148  1  0  0  0
 79149  1  0  0  0
 80150  1  0  0  0
 81151  1  0  0  0
 81152  1  0  0  0
M  CHG  1  81   1
M  ISO  4   1 100  68 101  77 101  80 100
M  END
> <chiral flag>
0

> <version>
0

> <s_m_source_file>
/data/baiqing/PycharmProjects/Reinvent-master-3.2/result/LINK_invent/BTK/process_docking_weight1_custom_product_contain_oxygen_bond_distance_aromatic_linkinvent_7_9_3/rearranged_h_0153.sdf

> <i_m_source_file_index>
85

> <r_mmod_Potential_Energy-OPLS-2005>
788.235534667969

> <r_mmod_Stretch_Energy-OPLS-2005>
379.123901367188

> <r_mmod_Bend_Energy-OPLS-2005>
474.492095947266

> <r_mmod_Torsional_Energy-OPLS-2005>
291.447296142578

> <r_mmod_Improper_Torsional_Energy-OPLS-2005>
3.90216159820557

> <r_mmod_Van_der_Waal_Energy-OPLS-2005>
128.778747558594

> <r_mmod_Electrostatic_Energy-OPLS-2005>
-283.903991699219

> <r_mmod_Solvation_Energy-OPLS-2005>
-468.846496582031

> <b_mmod_Minimization_Converged-OPLS-2005>
0

> <r_mmod_RMS_Derivative-OPLS-2005>
7.24214887619019

$$$$
85
                    3D
 Structure written by MMmdl.
157166  0  0  1  0            999 V2000
  -30.5681  -14.8087   20.4368 C   0  0  0  0  0  0
  -30.4433  -12.4960   19.4598 C   0  0  0  0  0  0
  -29.5088  -12.5065   18.2290 C   0  0  0  0  0  0
  -28.0382  -12.3166   18.6523 C   0  0  0  0  0  0
  -27.6371  -13.2289   19.8408 C   0  0  2  0  0  0
  -28.6875  -13.1841   20.9701 C   0  0  0  0  0  0
  -25.2511  -13.8184   20.5695 C   0  0  0  0  0  0
  -24.1804  -13.0434   20.9232 C   0  0  0  0  0  0
  -24.6391  -11.6912   20.8750 C   0  0  0  0  0  0
  -23.9068  -10.4284   21.0416 C   0  0  0  0  0  0
  -24.3621   -9.4204   21.9192 C   0  0  0  0  0  0
  -23.6297   -8.2237   22.0756 C   0  0  0  0  0  0
  -22.4281   -8.0269   21.3546 C   0  0  0  0  0  0
  -21.9917   -9.0247   20.4648 C   0  0  0  0  0  0
  -22.7239  -10.2128   20.3060 C   0  0  0  0  0  0
  -21.6854   -6.0734   22.5281 C   0  0  0  0  0  0
  -21.4009   -6.5636   23.8214 C   0  0  0  0  0  0
  -21.3657   -5.6792   24.9178 C   0  0  0  0  0  0
  -21.6041   -4.3056   24.7230 C   0  0  0  0  0  0
  -21.8817   -3.8144   23.4353 C   0  0  0  0  0  0
  -21.9191   -4.6960   22.3408 C   0  0  0  0  0  0
  -22.7827  -13.5216   21.1892 C   0  0  0  0  0  0
  -22.1660   -4.2144   21.0987 F   0  0  0  0  0  0
  -21.5632   -3.4544   25.7744 F   0  0  0  0  0  0
  -29.9759  -13.5632   20.3738 N   0  0  0  0  0  0
  -26.2925  -12.9381   20.3256 N   0  0  0  0  0  0
  -25.9320  -11.6533   20.5747 N   0  0  0  0  0  0
  -22.0474  -12.8185   22.0436 N   0  0  0  0  0  0
  -25.4193  -15.1913   20.4100 N   0  0  0  0  0  0
  -31.7754  -14.9204   20.2050 O   0  0  0  0  0  0
  -21.6642   -6.8869   21.4242 O   0  0  0  0  0  0
  -22.3507  -14.5524   20.6751 O   0  0  0  0  0  0
  -24.6338  -31.8516   23.1931 C   0  0  0  0  0  0
  -25.9140  -32.4741   23.8301 C   0  0  1  0  0  0
  -27.2234  -27.2321   20.1341 C   0  0  0  0  0  0
  -25.5919  -33.8543   24.2223 N   0  0  0  0  0  0
  -23.4327  -30.4701   21.5377 C   0  0  2  0  0  0
  -24.8815  -28.9039   20.1180 C   0  0  0  0  0  0
  -22.7527  -29.4567   22.4901 C   0  0  0  0  0  0
  -18.0298  -28.1390   22.8475 C   0  0  0  0  0  0
  -24.1486  -36.7267   23.2642 C   0  0  0  0  0  0
  -25.9808  -30.7548   21.3760 C   0  0  0  0  0  0
  -26.0559  -29.3710   20.7248 C   0  0  0  0  0  0
  -27.2335  -28.5499   20.7145 C   0  0  0  0  0  0
  -26.0248  -26.8298   19.5138 C   0  0  0  0  0  0
  -24.8725  -27.6425   19.5011 C   0  0  0  0  0  0
  -23.6541  -29.7960   20.1579 C   0  0  0  0  0  0
  -25.4108  -36.3057   24.0331 C   0  0  1  0  0  0
  -20.5901  -28.3696   23.1258 C   0  0  2  0  0  0
  -20.6789  -26.9408   22.5403 C   0  0  0  0  0  0
  -19.5760  -26.6372   21.5209 C   0  0  0  0  0  0
  -18.1931  -26.7931   22.1616 C   0  0  0  0  0  0
  -19.1552  -28.8857   23.2862 C   0  0  0  0  0  0
  -18.9476  -30.1460   23.8890 C   0  0  0  0  0  0
  -17.6477  -30.6589   24.0559 C   0  0  0  0  0  0
  -25.9058  -34.9432   23.5079 C   0  0  0  0  0  0
  -16.5362  -29.9086   23.6344 C   0  0  0  0  0  0
  -16.7283  -28.6508   23.0357 C   0  0  0  0  0  0
  -26.4510  -31.6579   25.0704 C   0  0  0  0  0  0
  -25.3733  -31.3731   26.1430 C   0  0  0  0  0  0
  -27.0368  -30.2996   24.6188 C   0  0  0  0  0  0
  -27.6048  -32.4341   25.7483 C   0  0  0  0  0  0
  -27.5573  -37.1778   24.8462 C   0  0  0  0  0  0
  -21.4227  -29.3048   22.3658 N   0  0  0  0  0  0
  -26.4276  -37.3759   23.9430 N   0  0  0  0  0  0
  -24.7021  -31.0455   22.0917 N   0  0  0  0  0  0
  -23.4221  -28.8116   23.3004 O   0  0  0  0  0  0
  -28.3106  -26.3244   20.0778 O   0  0  0  0  0  0
  -26.5641  -34.8917   22.4659 O   0  0  0  0  0  0
  -23.5475  -32.1338   23.7206 O   0  0  0  0  0  0
  -30.1269  -18.9445   17.5136 C   0  0  0  0  0  0
  -29.6988  -20.0797   18.1437 C   0  0  0  0  0  0
  -29.8495  -18.4301   19.6201 C   0  0  0  0  0  0
  -27.1364  -22.7661   19.9929 C   0  0  0  0  0  0
  -27.4283  -21.2229   20.0428 C   0  0  0  0  0  0
  -29.4948  -22.4622   20.2496 C   0  0  0  0  0  0
  -28.3198  -23.4614   20.6708 C   0  0  1  0  0  0
  -28.9323  -20.9445   20.3658 C   0  0  2  0  0  0
  -29.9478  -17.4293   20.8295 C   0  0  0  0  0  0
  -28.3146  -25.0964   20.9510 C   0  0  0  0  0  0
  -30.2139  -17.9217   18.4408 N   0  0  0  0  0  0
  -29.5052  -19.8083   19.5003 N   0  0  0  0  0  0
  -29.7358  -15.9172   20.5746 N   0  0  0  0  0  0
  -31.4771  -12.6508   19.1481 H   0  0  0  0  0  0
  -30.4209  -11.5259   19.9574 H   0  0  0  0  0  0
  -29.7980  -11.7241   17.5262 H   0  0  0  0  0  0
  -29.6146  -13.4516   17.6942 H   0  0  0  0  0  0
  -27.9124  -11.2701   18.9322 H   0  0  0  0  0  0
  -27.3730  -12.4852   17.8044 H   0  0  0  0  0  0
  -27.6193  -14.2433   19.4422 H   0  0  0  0  0  0
  -28.7445  -12.1881   21.4122 H   0  0  0  0  0  0
  -28.4180  -13.8626   21.7816 H   0  0  0  0  0  0
  -25.2763   -9.5693   22.4780 H   0  0  0  0  0  0
  -24.0006   -7.4631   22.7479 H   0  0  0  0  0  0
  -21.0853   -8.8764   19.8953 H   0  0  0  0  0  0
  -22.3694  -10.9677   19.6179 H   0  0  0  0  0  0
  -21.1987   -7.6143   23.9721 H   0  0  0  0  0  0
  -21.1483   -6.0522   25.9083 H   0  0  0  0  0  0
  -22.0591   -2.7604   23.2861 H   0  0  0  0  0  0
  -22.4091  -11.9825   22.4785 H   0  0  0  0  0  0
  -21.1098  -13.1204   22.2666 H   0  0  0  0  0  0
  -24.6470  -15.8409   20.5132 H   0  0  0  0  0  0
  -26.2519  -15.6289   20.0384 H   0  0  0  0  0  0
  -26.7204  -32.5382   23.1039 H   0  0  0  0  0  0
  -25.0116  -33.9692   25.0398 H   0  0  0  0  0  0
  -22.7292  -31.2921   21.3843 H   0  0  0  0  0  0
  -23.3760  -35.9585   23.3294 H   0  0  0  0  0  0
  -24.3571  -36.8901   22.2055 H   0  0  0  0  0  0
  -23.7228  -37.6456   23.6683 H   0  0  0  0  0  0
  -26.1182  -31.5078   20.5996 H   0  0  0  0  0  0
  -26.8600  -30.8106   22.0071 H   0  0  0  0  0  0
  -28.1419  -28.9094   21.1776 H   0  0  0  0  0  0
  -25.9791  -25.8584   19.0415 H   0  0  0  0  0  0
  -23.9737  -27.2806   19.0219 H   0  0  0  0  0  0
  -23.7828  -30.5703   19.4000 H   0  0  0  0  0  0
  -22.7716  -29.2318   19.8507 H   0  0  0  0  0  0
  -25.1279  -36.1894   25.0817 H   0  0  0  0  0  0
  -20.9984  -28.3282   24.1382 H   0  0  0  0  0  0
  -20.5681  -26.2306   23.3617 H   0  0  0  0  0  0
  -21.6652  -26.7428   22.1184 H   0  0  0  0  0  0
  -19.6928  -25.6281   21.1242 H   0  0  0  0  0  0
  -19.6698  -27.3189   20.6741 H   0  0  0  0  0  0
  -17.4197  -26.6687   21.4026 H   0  0  0  0  0  0
  -18.0326  -26.0063   22.9004 H   0  0  0  0  0  0
  -19.7952  -30.7275   24.2249 H   0  0  0  0  0  0
  -17.5032  -31.6278   24.5155 H   0  0  0  0  0  0
  -15.5369  -30.2992   23.7678 H   0  0  0  0  0  0
  -15.8683  -28.0830   22.7081 H   0  0  0  0  0  0
  -24.5921  -30.7058   25.7773 H   0  0  0  0  0  0
  -24.8910  -32.2897   26.4837 H   0  0  0  0  0  0
  -25.8051  -30.8940   27.0224 H   0  0  0  0  0  0
  -26.2952  -29.6731   24.1214 H   0  0  0  0  0  0
  -27.4074  -29.7262   25.4693 H   0  0  0  0  0  0
  -27.8815  -30.4285   23.9414 H   0  0  0  0  0  0
  -27.2647  -33.3672   26.1987 H   0  0  0  0  0  0
  -28.3901  -32.6848   25.0340 H   0  0  0  0  0  0
  -28.0666  -31.8509   26.5459 H   0  0  0  0  0  0
  -28.2553  -38.0109   24.7544 H   0  0  0  0  0  0
  -28.1108  -36.2638   24.6241 H   0  0  0  0  0  0
  -27.2303  -37.1358   25.8867 H   0  0  0  0  0  0
  -20.9421  -29.8785   21.6875 H   0  0  0  0  0  0
  -26.0147  -38.2824   24.1464 H   0  0  0  0  0  0
  -30.3647  -18.7861   16.4700 H   0  0  0  0  0  0
  -29.4961  -21.0545   17.7222 H   0  0  0  0  0  0
  -26.1903  -23.0113   20.4778 H   0  0  0  0  0  0
  -27.0619  -23.0986   18.9568 H   0  0  0  0  0  0
  -27.1349  -20.7704   19.0944 H   0  0  0  0  0  0
  -26.8063  -20.7472   20.8020 H   0  0  0  0  0  0
  -30.3824  -22.5976   20.8694 H   0  0  0  0  0  0
  -29.7947  -22.6907   19.2264 H   0  0  0  0  0  0
  -28.1974  -23.1500   21.7109 H   0  0  0  0  0  0
  -29.0155  -20.6297   21.4068 H   0  0  0  0  0  0
  -29.2215  -17.7463   21.5781 H   0  0  0  0  0  0
  -30.9269  -17.5632   21.2901 H   0  0  0  0  0  0
  -29.1751  -25.2659   21.5988 H   0  0  0  0  0  0
  -27.4656  -25.2458   21.6214 H   0  0  0  0  0  0
  -28.7629  -15.6607   20.6062 H   0  0  0  0  0  0
  1 25  1  0  0  0
  1 30  2  0  0  0
  1 83  1  0  0  0
  2  3  1  0  0  0
  2 25  1  0  0  0
  2 84  1  0  0  0
  2 85  1  0  0  0
  3  4  1  0  0  0
  3 86  1  0  0  0
  3 87  1  0  0  0
  4  5  1  0  0  0
  4 88  1  0  0  0
  4 89  1  0  0  0
  5  6  1  0  0  0
  5 26  1  0  0  0
  5 90  1  0  0  0
  6 25  1  0  0  0
  6 91  1  0  0  0
  6 92  1  0  0  0
  7  8  2  0  0  0
  7 26  1  0  0  0
  7 29  1  0  0  0
  8  9  1  0  0  0
  8 22  1  0  0  0
  9 10  1  0  0  0
  9 27  2  0  0  0
 10 11  2  0  0  0
 10 15  1  0  0  0
 11 12  1  0  0  0
 11 93  1  0  0  0
 12 13  2  0  0  0
 12 94  1  0  0  0
 13 14  1  0  0  0
 13 31  1  0  0  0
 14 15  2  0  0  0
 14 95  1  0  0  0
 15 96  1  0  0  0
 16 17  2  0  0  0
 16 21  1  0  0  0
 16 31  1  0  0  0
 17 18  1  0  0  0
 17 97  1  0  0  0
 18 19  2  0  0  0
 18 98  1  0  0  0
 19 20  1  0  0  0
 19 24  1  0  0  0
 20 21  2  0  0  0
 20 99  1  0  0  0
 21 23  1  0  0  0
 22 28  1  0  0  0
 22 32  2  0  0  0
 26 27  1  0  0  0
 28100  1  0  0  0
 28101  1  0  0  0
 29102  1  0  0  0
 29103  1  0  0  0
 33 34  1  0  0  0
 33 66  1  0  0  0
 33 70  2  0  0  0
 34 36  1  0  0  0
 34 59  1  0  0  0
 34104  1  0  0  0
 35 44  2  0  0  0
 35 45  1  0  0  0
 35 68  1  0  0  0
 36 56  1  0  0  0
 36105  1  0  0  0
 37 39  1  0  0  0
 37 47  1  0  0  0
 37 66  1  0  0  0
 37106  1  0  0  0
 38 43  2  0  0  0
 38 46  1  0  0  0
 38 47  1  0  0  0
 39 64  1  0  0  0
 39 67  2  0  0  0
 40 52  1  0  0  0
 40 53  2  0  0  0
 40 58  1  0  0  0
 41107  1  0  0  0
 41108  1  0  0  0
 41109  1  0  0  0
 41 48  1  0  0  0
 42 43  1  0  0  0
 42 66  1  0  0  0
 42110  1  0  0  0
 42111  1  0  0  0
 43 44  1  0  0  0
 44112  1  0  0  0
 45 46  2  0  0  0
 45113  1  0  0  0
 46114  1  0  0  0
 47115  1  0  0  0
 47116  1  0  0  0
 48 56  1  0  0  0
 48 65  1  0  0  0
 48117  1  0  0  0
 49 50  1  0  0  0
 49 53  1  0  0  0
 49 64  1  0  0  0
 49118  1  0  0  0
 50 51  1  0  0  0
 50119  1  0  0  0
 50120  1  0  0  0
 51 52  1  0  0  0
 51121  1  0  0  0
 51122  1  0  0  0
 52123  1  0  0  0
 52124  1  0  0  0
 53 54  1  0  0  0
 54 55  2  0  0  0
 54125  1  0  0  0
 55 57  1  0  0  0
 55126  1  0  0  0
 56 69  2  0  0  0
 57 58  2  0  0  0
 57127  1  0  0  0
 58128  1  0  0  0
 59 60  1  0  0  0
 59 61  1  0  0  0
 59 62  1  0  0  0
 60129  1  0  0  0
 60130  1  0  0  0
 60131  1  0  0  0
 61132  1  0  0  0
 61133  1  0  0  0
 61134  1  0  0  0
 62135  1  0  0  0
 62136  1  0  0  0
 62137  1  0  0  0
 63 65  1  0  0  0
 63138  1  0  0  0
 63139  1  0  0  0
 63140  1  0  0  0
 64141  1  0  0  0
 65142  1  0  0  0
 68 80  1  0  0  0
 71 72  2  0  0  0
 71 81  1  0  0  0
 71143  1  0  0  0
 72 82  1  0  0  0
 72144  1  0  0  0
 73 79  1  0  0  0
 73 81  2  0  0  0
 73 82  1  0  0  0
 74 75  1  0  0  0
 74 77  1  0  0  0
 74145  1  0  0  0
 74146  1  0  0  0
 75 78  1  0  0  0
 75147  1  0  0  0
 75148  1  0  0  0
 76 77  1  0  0  0
 76 78  1  0  0  0
 76149  1  0  0  0
 76150  1  0  0  0
 77 80  1  0  0  0
 77151  1  0  0  0
 78 82  1  0  0  0
 78152  1  0  0  0
 79 83  1  0  0  0
 79153  1  0  0  0
 79154  1  0  0  0
 80155  1  0  0  0
 80156  1  0  0  0
 83157  1  0  0  0
M  ISO  4   1 100  68 101  80 101  83 100
M  END
> <chiral flag>
0

> <version>
0

> <s_m_source_file>
/data/baiqing/PycharmProjects/Reinvent-master-3.2/result/LINK_invent/BTK/process_docking_weight1_custom_product_contain_oxygen_bond_distance_aromatic_linkinvent_7_9_3/rearranged_h_0153.sdf

> <i_m_source_file_index>
86

> <r_mmod_Potential_Energy-OPLS-2005>
333.600524902344

> <r_mmod_Stretch_Energy-OPLS-2005>
151.761016845703

> <r_mmod_Bend_Energy-OPLS-2005>
322.391418457031

> <r_mmod_Torsional_Energy-OPLS-2005>
302.704040527344

> <r_mmod_Improper_Torsional_Energy-OPLS-2005>
4.67545223236084

> <r_mmod_Van_der_Waal_Energy-OPLS-2005>
105.462921142578

> <r_mmod_Electrostatic_Energy-OPLS-2005>
-427.011108398438

> <r_mmod_Solvation_Energy-OPLS-2005>
-236.678955078125

> <b_mmod_Minimization_Converged-OPLS-2005>
0

> <r_mmod_RMS_Derivative-OPLS-2005>
1.87867450714111

$$$$
86
                    3D
 Structure written by MMmdl.
173183  0  0  1  0            999 V2000
  -30.6025  -14.6072   20.5564 C   0  0  0  0  0  0
  -30.4524  -12.3857   19.4365 C   0  0  0  0  0  0
  -29.5110  -12.5193   18.2171 C   0  0  0  0  0  0
  -28.0318  -12.3533   18.6271 C   0  0  0  0  0  0
  -27.6617  -13.2033   19.8712 C   0  0  2  0  0  0
  -28.7046  -13.0004   20.9932 C   0  0  0  0  0  0
  -25.2608  -13.8148   20.5668 C   0  0  0  0  0  0
  -24.1854  -13.0434   20.9167 C   0  0  0  0  0  0
  -24.6400  -11.6896   20.8726 C   0  0  0  0  0  0
  -23.9062  -10.4289   21.0408 C   0  0  0  0  0  0
  -24.3614   -9.4206   21.9191 C   0  0  0  0  0  0
  -23.6287   -8.2244   22.0757 C   0  0  0  0  0  0
  -22.4271   -8.0283   21.3542 C   0  0  0  0  0  0
  -21.9899   -9.0260   20.4647 C   0  0  0  0  0  0
  -22.7232  -10.2142   20.3057 C   0  0  0  0  0  0
  -21.6849   -6.0739   22.5282 C   0  0  0  0  0  0
  -21.4014   -6.5640   23.8218 C   0  0  0  0  0  0
  -21.3656   -5.6790   24.9173 C   0  0  0  0  0  0
  -21.6043   -4.3056   24.7227 C   0  0  0  0  0  0
  -21.8819   -3.8146   23.4350 C   0  0  0  0  0  0
  -21.9191   -4.6963   22.3400 C   0  0  0  0  0  0
  -22.7881  -13.5254   21.1831 C   0  0  0  0  0  0
  -22.1662   -4.2148   21.0981 F   0  0  0  0  0  0
  -21.5619   -3.4544   25.7741 F   0  0  0  0  0  0
  -30.0245  -13.3704   20.4470 N   0  0  0  0  0  0
  -26.3027  -12.9300   20.3322 N   0  0  0  0  0  0
  -25.9326  -11.6470   20.5748 N   0  0  0  0  0  0
  -22.0499  -12.8264   22.0386 N   0  0  0  0  0  0
  -25.4349  -15.1871   20.4112 N   0  0  0  0  0  0
  -31.7317  -14.8490   20.1130 O   0  0  0  0  0  0
  -21.6628   -6.8889   21.4248 O   0  0  0  0  0  0
  -22.3579  -14.5566   20.6680 O   0  0  0  0  0  0
  -24.6239  -31.8626   23.2037 C   0  0  0  0  0  0
  -25.9100  -32.4788   23.8360 C   0  0  1  0  0  0
  -27.2308  -27.3388   20.1208 C   0  0  0  0  0  0
  -25.5933  -33.8585   24.2289 N   0  0  0  0  0  0
  -23.4166  -30.4851   21.5468 C   0  0  2  0  0  0
  -24.8648  -28.9405   20.1141 C   0  0  0  0  0  0
  -22.7459  -29.4636   22.4954 C   0  0  0  0  0  0
  -18.0286  -28.1384   22.8495 C   0  0  0  0  0  0
  -24.1490  -36.7287   23.2637 C   0  0  0  0  0  0
  -25.9558  -30.7970   21.3740 C   0  0  0  0  0  0
  -26.0318  -29.4249   20.7192 C   0  0  0  0  0  0
  -27.2177  -28.6359   20.7139 C   0  0  0  0  0  0
  -26.0456  -26.9072   19.4831 C   0  0  0  0  0  0
  -24.8729  -27.6848   19.4876 C   0  0  0  0  0  0
  -23.6309  -29.8177   20.1630 C   0  0  0  0  0  0
  -25.4114  -36.3083   24.0332 C   0  0  1  0  0  0
  -20.5883  -28.3690   23.1297 C   0  0  2  0  0  0
  -20.6778  -26.9418   22.5415 C   0  0  0  0  0  0
  -19.5746  -26.6391   21.5221 C   0  0  0  0  0  0
  -18.1926  -26.7931   22.1627 C   0  0  0  0  0  0
  -19.1537  -28.8853   23.2893 C   0  0  0  0  0  0
  -18.9462  -30.1452   23.8907 C   0  0  0  0  0  0
  -17.6463  -30.6588   24.0568 C   0  0  0  0  0  0
  -25.9055  -34.9454   23.5107 C   0  0  0  0  0  0
  -16.5355  -29.9086   23.6331 C   0  0  0  0  0  0
  -16.7274  -28.6503   23.0362 C   0  0  0  0  0  0
  -26.4497  -31.6582   25.0713 C   0  0  0  0  0  0
  -25.3744  -31.3729   26.1454 C   0  0  0  0  0  0
  -27.0321  -30.3001   24.6144 C   0  0  0  0  0  0
  -27.6062  -32.4311   25.7474 C   0  0  0  0  0  0
  -27.5579  -37.1800   24.8464 C   0  0  0  0  0  0
  -21.4181  -29.3043   22.3689 N   0  0  0  0  0  0
  -26.4290  -37.3778   23.9410 N   0  0  0  0  0  0
  -24.6835  -31.0650   22.0982 N   0  0  0  0  0  0
  -23.4192  -28.8186   23.3038 O   0  0  0  0  0  0
  -28.3606  -26.5123   20.1390 O   0  0  0  0  0  0
  -26.5620  -34.8923   22.4671 O   0  0  0  0  0  0
  -23.5414  -32.1422   23.7377 O   0  0  0  0  0  0
  -30.4848  -17.9780   20.6042 C   0  0  0  0  0  0
  -30.0785  -19.3200   21.0307 C   0  0  0  0  0  0
  -29.0315  -19.2923   21.9207 C   0  0  0  0  0  0
  -29.7502  -16.9368   21.1658 C   0  0  0  0  0  0
  -30.8461  -20.5638   20.6580 C   0  0  0  0  0  0
  -28.1027  -21.2032   24.8629 C   0  0  0  0  0  0
  -26.8424  -21.3893   24.0243 C   0  0  0  0  0  0
  -30.6715  -24.3034   20.3926 C   0  0  0  0  0  0
  -29.1734  -20.7946   23.8459 C   0  0  0  0  0  0
  -27.0284  -20.3615   22.9132 C   0  0  0  0  0  0
  -31.3999  -22.9595   20.2221 C   0  0  0  0  0  0
  -29.0852  -22.5550   20.6204 C   0  0  0  0  0  0
  -29.2237  -24.0025   19.9985 C   0  0  1  0  0  0
  -29.2100  -24.8700   17.7108 C   0  0  0  0  0  0
  -28.1643  -25.0878   20.4877 C   0  0  0  0  0  0
  -28.4635  -20.3417   22.6519 N   0  0  0  0  0  0
  -30.4212  -21.8849   20.5117 N   0  0  0  0  0  0
  -29.7770  -15.5549   21.0860 N   0  0  0  0  0  0
  -32.1606  -20.3380   20.4598 N   0  3  0  0  0  0
  -29.1011  -23.7561   18.5910 O   0  0  0  0  0  0
  -28.4900  -17.6405   22.1630 S   0  0  0  0  0  0
  -31.4904  -12.5359   19.1326 H   0  0  0  0  0  0
  -30.4042  -11.3779   19.8511 H   0  0  0  0  0  0
  -29.7722  -11.7811   17.4574 H   0  0  0  0  0  0
  -29.6521  -13.4974   17.7549 H   0  0  0  0  0  0
  -27.8637  -11.2970   18.8395 H   0  0  0  0  0  0
  -27.3788  -12.6022   17.7899 H   0  0  0  0  0  0
  -27.6962  -14.2475   19.5580 H   0  0  0  0  0  0
  -28.7159  -11.9576   21.3138 H   0  0  0  0  0  0
  -28.4392  -13.5686   21.8858 H   0  0  0  0  0  0
  -25.2770   -9.5677   22.4759 H   0  0  0  0  0  0
  -23.9990   -7.4639   22.7484 H   0  0  0  0  0  0
  -21.0823   -8.8797   19.8965 H   0  0  0  0  0  0
  -22.3704  -10.9683   19.6164 H   0  0  0  0  0  0
  -21.2012   -7.6148   23.9728 H   0  0  0  0  0  0
  -21.1471   -6.0514   25.9080 H   0  0  0  0  0  0
  -22.0596   -2.7604   23.2854 H   0  0  0  0  0  0
  -22.4087  -11.9914   22.4776 H   0  0  0  0  0  0
  -21.1123  -13.1326   22.2586 H   0  0  0  0  0  0
  -24.6674  -15.8405   20.5224 H   0  0  0  0  0  0
  -26.2838  -15.6271   20.0788 H   0  0  0  0  0  0
  -26.7162  -32.5474   23.1110 H   0  0  0  0  0  0
  -25.0085  -33.9732   25.0438 H   0  0  0  0  0  0
  -22.7086  -31.3040   21.4048 H   0  0  0  0  0  0
  -23.3755  -35.9618   23.3301 H   0  0  0  0  0  0
  -24.3580  -36.8900   22.2049 H   0  0  0  0  0  0
  -23.7240  -37.6489   23.6656 H   0  0  0  0  0  0
  -26.0849  -31.5592   20.6046 H   0  0  0  0  0  0
  -26.8368  -30.8470   22.0015 H   0  0  0  0  0  0
  -28.1126  -29.0046   21.1960 H   0  0  0  0  0  0
  -26.0104  -25.9602   18.9660 H   0  0  0  0  0  0
  -23.9821  -27.3102   19.0015 H   0  0  0  0  0  0
  -23.7468  -30.5942   19.4061 H   0  0  0  0  0  0
  -22.7515  -29.2462   19.8614 H   0  0  0  0  0  0
  -25.1291  -36.1935   25.0824 H   0  0  0  0  0  0
  -20.9974  -28.3274   24.1418 H   0  0  0  0  0  0
  -20.5688  -26.2304   23.3617 H   0  0  0  0  0  0
  -21.6648  -26.7460   22.1206 H   0  0  0  0  0  0
  -19.6911  -25.6307   21.1237 H   0  0  0  0  0  0
  -19.6673  -27.3217   20.6766 H   0  0  0  0  0  0
  -17.4199  -26.6696   21.4025 H   0  0  0  0  0  0
  -18.0311  -26.0067   22.9010 H   0  0  0  0  0  0
  -19.7936  -30.7271   24.2282 H   0  0  0  0  0  0
  -17.5016  -31.6267   24.5170 H   0  0  0  0  0  0
  -15.5356  -30.2994   23.7646 H   0  0  0  0  0  0
  -15.8675  -28.0822   22.7080 H   0  0  0  0  0  0
  -24.5900  -30.7093   25.7798 H   0  0  0  0  0  0
  -24.8967  -32.2908   26.4894 H   0  0  0  0  0  0
  -25.8084  -30.8895   27.0217 H   0  0  0  0  0  0
  -26.2877  -29.6756   24.1192 H   0  0  0  0  0  0
  -27.4051  -29.7248   25.4628 H   0  0  0  0  0  0
  -27.8739  -30.4278   23.9332 H   0  0  0  0  0  0
  -27.2677  -33.3619   26.2041 H   0  0  0  0  0  0
  -28.3878  -32.6859   25.0301 H   0  0  0  0  0  0
  -28.0723  -31.8441   26.5402 H   0  0  0  0  0  0
  -28.2607  -38.0090   24.7511 H   0  0  0  0  0  0
  -28.1067  -36.2624   24.6288 H   0  0  0  0  0  0
  -27.2300  -37.1444   25.8869 H   0  0  0  0  0  0
  -20.9359  -29.8746   21.6885 H   0  0  0  0  0  0
  -26.0172  -38.2852   24.1415 H   0  0  0  0  0  0
  -31.3126  -17.8242   19.9282 H   0  0  0  0  0  0
  -27.9497  -20.3955   25.5806 H   0  0  0  0  0  0
  -28.3738  -22.0969   25.4256 H   0  0  0  0  0  0
  -26.8141  -22.3976   23.6080 H   0  0  0  0  0  0
  -25.9246  -21.2351   24.5928 H   0  0  0  0  0  0
  -31.1253  -25.0948   19.7994 H   0  0  0  0  0  0
  -30.7252  -24.6195   21.4351 H   0  0  0  0  0  0
  -29.8265  -20.0215   24.2555 H   0  0  0  0  0  0
  -29.8005  -21.6501   23.5917 H   0  0  0  0  0  0
  -26.4626  -20.6356   22.0209 H   0  0  0  0  0  0
  -26.6704  -19.3876   23.2486 H   0  0  0  0  0  0
  -32.2624  -22.9091   20.8869 H   0  0  0  0  0  0
  -31.7503  -22.8453   19.1958 H   0  0  0  0  0  0
  -28.3063  -21.9659   20.1366 H   0  0  0  0  0  0
  -28.8283  -22.6507   21.6736 H   0  0  0  0  0  0
  -29.2655  -24.5023   16.6862 H   0  0  0  0  0  0
  -30.1050  -25.4646   17.8881 H   0  0  0  0  0  0
  -28.3387  -25.5215   17.7719 H   0  0  0  0  0  0
  -28.1406  -25.0579   21.5779 H   0  0  0  0  0  0
  -27.1857  -24.7177   20.1902 H   0  0  0  0  0  0
  -28.9510  -15.1203   21.4698 H   0  0  0  0  0  0
  -32.5456  -19.4174   20.6023 H   0  0  0  0  0  0
  -32.7933  -21.0701   20.1785 H   0  0  0  0  0  0
  1 25  1  0  0  0
  1 30  2  0  0  0
  1 88  1  0  0  0
  2  3  1  0  0  0
  2 25  1  0  0  0
  2 92  1  0  0  0
  2 93  1  0  0  0
  3  4  1  0  0  0
  3 94  1  0  0  0
  3 95  1  0  0  0
  4  5  1  0  0  0
  4 96  1  0  0  0
  4 97  1  0  0  0
  5  6  1  0  0  0
  5 26  1  0  0  0
  5 98  1  0  0  0
  6 25  1  0  0  0
  6 99  1  0  0  0
  6100  1  0  0  0
  7  8  2  0  0  0
  7 26  1  0  0  0
  7 29  1  0  0  0
  8  9  1  0  0  0
  8 22  1  0  0  0
  9 10  1  0  0  0
  9 27  2  0  0  0
 10 11  2  0  0  0
 10 15  1  0  0  0
 11 12  1  0  0  0
 11101  1  0  0  0
 12 13  2  0  0  0
 12102  1  0  0  0
 13 14  1  0  0  0
 13 31  1  0  0  0
 14 15  2  0  0  0
 14103  1  0  0  0
 15104  1  0  0  0
 16 17  2  0  0  0
 16 21  1  0  0  0
 16 31  1  0  0  0
 17 18  1  0  0  0
 17105  1  0  0  0
 18 19  2  0  0  0
 18106  1  0  0  0
 19 20  1  0  0  0
 19 24  1  0  0  0
 20 21  2  0  0  0
 20107  1  0  0  0
 21 23  1  0  0  0
 22 28  1  0  0  0
 22 32  2  0  0  0
 26 27  1  0  0  0
 28108  1  0  0  0
 28109  1  0  0  0
 29110  1  0  0  0
 29111  1  0  0  0
 33 34  1  0  0  0
 33 66  1  0  0  0
 33 70  2  0  0  0
 34 36  1  0  0  0
 34 59  1  0  0  0
 34112  1  0  0  0
 35 44  2  0  0  0
 35 45  1  0  0  0
 35 68  1  0  0  0
 36 56  1  0  0  0
 36113  1  0  0  0
 37 39  1  0  0  0
 37 47  1  0  0  0
 37 66  1  0  0  0
 37114  1  0  0  0
 38 43  2  0  0  0
 38 46  1  0  0  0
 38 47  1  0  0  0
 39 64  1  0  0  0
 39 67  2  0  0  0
 40 52  1  0  0  0
 40 53  2  0  0  0
 40 58  1  0  0  0
 41115  1  0  0  0
 41116  1  0  0  0
 41117  1  0  0  0
 41 48  1  0  0  0
 42 43  1  0  0  0
 42 66  1  0  0  0
 42118  1  0  0  0
 42119  1  0  0  0
 43 44  1  0  0  0
 44120  1  0  0  0
 45 46  2  0  0  0
 45121  1  0  0  0
 46122  1  0  0  0
 47123  1  0  0  0
 47124  1  0  0  0
 48 56  1  0  0  0
 48 65  1  0  0  0
 48125  1  0  0  0
 49 50  1  0  0  0
 49 53  1  0  0  0
 49 64  1  0  0  0
 49126  1  0  0  0
 50 51  1  0  0  0
 50127  1  0  0  0
 50128  1  0  0  0
 51 52  1  0  0  0
 51129  1  0  0  0
 51130  1  0  0  0
 52131  1  0  0  0
 52132  1  0  0  0
 53 54  1  0  0  0
 54 55  2  0  0  0
 54133  1  0  0  0
 55 57  1  0  0  0
 55134  1  0  0  0
 56 69  2  0  0  0
 57 58  2  0  0  0
 57135  1  0  0  0
 58136  1  0  0  0
 59 60  1  0  0  0
 59 61  1  0  0  0
 59 62  1  0  0  0
 60137  1  0  0  0
 60138  1  0  0  0
 60139  1  0  0  0
 61140  1  0  0  0
 61141  1  0  0  0
 61142  1  0  0  0
 62143  1  0  0  0
 62144  1  0  0  0
 62145  1  0  0  0
 63 65  1  0  0  0
 63146  1  0  0  0
 63147  1  0  0  0
 63148  1  0  0  0
 64149  1  0  0  0
 65150  1  0  0  0
 68 85  1  0  0  0
 71 72  1  0  0  0
 71 74  2  0  0  0
 71151  1  0  0  0
 72 73  2  0  0  0
 72 75  1  0  0  0
 73 86  1  0  0  0
 73 91  1  0  0  0
 74 88  1  0  0  0
 74 91  1  0  0  0
 75 87  1  0  0  0
 75 89  2  0  0  0
 76 77  1  0  0  0
 76 79  1  0  0  0
 76152  1  0  0  0
 76153  1  0  0  0
 77 80  1  0  0  0
 77154  1  0  0  0
 77155  1  0  0  0
 78 81  1  0  0  0
 78 83  1  0  0  0
 78156  1  0  0  0
 78157  1  0  0  0
 79 86  1  0  0  0
 79158  1  0  0  0
 79159  1  0  0  0
 80 86  1  0  0  0
 80160  1  0  0  0
 80161  1  0  0  0
 81 87  1  0  0  0
 81162  1  0  0  0
 81163  1  0  0  0
 82 83  1  0  0  0
 82 87  1  0  0  0
 82164  1  0  0  0
 82165  1  0  0  0
 83 85  1  0  0  0
 83 90  1  0  0  0
 84 90  1  0  0  0
 84166  1  0  0  0
 84167  1  0  0  0
 84168  1  0  0  0
 85169  1  0  0  0
 85170  1  0  0  0
 88171  1  0  0  0
 89172  1  0  0  0
 89173  1  0  0  0
M  CHG  1  89   1
M  ISO  4   1 100  68 101  85 101  88 100
M  END
> <chiral flag>
0

> <version>
0

> <s_m_source_file>
/data/baiqing/PycharmProjects/Reinvent-master-3.2/result/LINK_invent/BTK/process_docking_weight1_custom_product_contain_oxygen_bond_distance_aromatic_linkinvent_7_9_3/rearranged_h_0153.sdf

> <i_m_source_file_index>
87

> <r_mmod_Potential_Energy-OPLS-2005>
154.820617675781

> <r_mmod_Stretch_Energy-OPLS-2005>
74.1408996582031

> <r_mmod_Bend_Energy-OPLS-2005>
233.437728881836

> <r_mmod_Torsional_Energy-OPLS-2005>
366.781127929688

> <r_mmod_Improper_Torsional_Energy-OPLS-2005>
7.71491718292236

> <r_mmod_Van_der_Waal_Energy-OPLS-2005>
123.975929260254

> <r_mmod_Electrostatic_Energy-OPLS-2005>
-265.76953125

> <r_mmod_Solvation_Energy-OPLS-2005>
-424.672485351562

> <b_mmod_Minimization_Converged-OPLS-2005>
0

> <r_mmod_RMS_Derivative-OPLS-2005>
1.60819292068481

$$$$
87
                    3D
 Structure written by MMmdl.
163172  0  0  1  0            999 V2000
  -30.6039  -14.6309   20.5278 C   0  0  0  0  0  0
  -30.4512  -12.3942   19.4418 C   0  0  0  0  0  0
  -29.5100  -12.5144   18.2206 C   0  0  0  0  0  0
  -28.0323  -12.3476   18.6326 C   0  0  0  0  0  0
  -27.6586  -13.2070   19.8688 C   0  0  2  0  0  0
  -28.7050  -13.0292   20.9934 C   0  0  0  0  0  0
  -25.2587  -13.8148   20.5671 C   0  0  0  0  0  0
  -24.1838  -13.0429   20.9175 C   0  0  0  0  0  0
  -24.6394  -11.6895   20.8734 C   0  0  0  0  0  0
  -23.9055  -10.4286   21.0407 C   0  0  0  0  0  0
  -24.3609   -9.4202   21.9186 C   0  0  0  0  0  0
  -23.6285   -8.2238   22.0753 C   0  0  0  0  0  0
  -22.4269   -8.0277   21.3543 C   0  0  0  0  0  0
  -21.9902   -9.0248   20.4645 C   0  0  0  0  0  0
  -22.7227  -10.2127   20.3054 C   0  0  0  0  0  0
  -21.6852   -6.0729   22.5278 C   0  0  0  0  0  0
  -21.4013   -6.5635   23.8210 C   0  0  0  0  0  0
  -21.3658   -5.6789   24.9174 C   0  0  0  0  0  0
  -21.6045   -4.3052   24.7228 C   0  0  0  0  0  0
  -21.8818   -3.8142   23.4350 C   0  0  0  0  0  0
  -21.9192   -4.6957   22.3405 C   0  0  0  0  0  0
  -22.7862  -13.5233   21.1842 C   0  0  0  0  0  0
  -22.1660   -4.2140   21.0982 F   0  0  0  0  0  0
  -21.5631   -3.4538   25.7743 F   0  0  0  0  0  0
  -30.0225  -13.3924   20.4399 N   0  0  0  0  0  0
  -26.3013  -12.9309   20.3333 N   0  0  0  0  0  0
  -25.9324  -11.6474   20.5761 N   0  0  0  0  0  0
  -22.0501  -12.8230   22.0401 N   0  0  0  0  0  0
  -25.4308  -15.1867   20.4080 N   0  0  0  0  0  0
  -31.7509  -14.8431   20.1187 O   0  0  0  0  0  0
  -21.6635   -6.8872   21.4239 O   0  0  0  0  0  0
  -22.3551  -14.5542   20.6692 O   0  0  0  0  0  0
  -24.6251  -31.8609   23.2037 C   0  0  0  0  0  0
  -25.9104  -32.4788   23.8359 C   0  0  1  0  0  0
  -27.2272  -27.3273   20.1164 C   0  0  0  0  0  0
  -25.5923  -33.8585   24.2285 N   0  0  0  0  0  0
  -23.4185  -30.4851   21.5463 C   0  0  2  0  0  0
  -24.8659  -28.9412   20.1146 C   0  0  0  0  0  0
  -22.7471  -29.4630   22.4940 C   0  0  0  0  0  0
  -18.0287  -28.1386   22.8490 C   0  0  0  0  0  0
  -24.1484  -36.7293   23.2640 C   0  0  0  0  0  0
  -25.9596  -30.7938   21.3747 C   0  0  0  0  0  0
  -26.0344  -29.4210   20.7192 C   0  0  0  0  0  0
  -27.2186  -28.6261   20.7103 C   0  0  0  0  0  0
  -26.0377  -26.9050   19.4788 C   0  0  0  0  0  0
  -24.8689  -27.6879   19.4861 C   0  0  0  0  0  0
  -23.6338  -29.8207   20.1617 C   0  0  0  0  0  0
  -25.4109  -36.3086   24.0331 C   0  0  1  0  0  0
  -20.5886  -28.3687   23.1286 C   0  0  2  0  0  0
  -20.6775  -26.9412   22.5407 C   0  0  0  0  0  0
  -19.5750  -26.6384   21.5213 C   0  0  0  0  0  0
  -18.1930  -26.7929   22.1628 C   0  0  0  0  0  0
  -19.1540  -28.8853   23.2885 C   0  0  0  0  0  0
  -18.9469  -30.1458   23.8899 C   0  0  0  0  0  0
  -17.6471  -30.6591   24.0567 C   0  0  0  0  0  0
  -25.9048  -34.9457   23.5108 C   0  0  0  0  0  0
  -16.5359  -29.9090   23.6332 C   0  0  0  0  0  0
  -16.7277  -28.6509   23.0351 C   0  0  0  0  0  0
  -26.4489  -31.6599   25.0730 C   0  0  0  0  0  0
  -25.3724  -31.3739   26.1464 C   0  0  0  0  0  0
  -27.0336  -30.3028   24.6173 C   0  0  0  0  0  0
  -27.6048  -32.4335   25.7499 C   0  0  0  0  0  0
  -27.5578  -37.1799   24.8467 C   0  0  0  0  0  0
  -21.4185  -29.3051   22.3690 N   0  0  0  0  0  0
  -26.4287  -37.3781   23.9416 N   0  0  0  0  0  0
  -24.6865  -31.0626   22.0987 N   0  0  0  0  0  0
  -23.4204  -28.8161   23.3008 O   0  0  0  0  0  0
  -28.3551  -26.4930   20.1365 O   0  0  0  0  0  0
  -26.5614  -34.8926   22.4671 O   0  0  0  0  0  0
  -23.5415  -32.1402   23.7368 O   0  0  0  0  0  0
  -30.6929  -17.9471   20.6418 C   0  0  0  0  0  0
  -30.0957  -19.2527   20.8883 C   0  0  0  0  0  0
  -29.7218  -16.9975   20.9171 C   0  0  0  0  0  0
  -28.8055  -18.9753   21.2552 C   0  0  0  0  0  0
  -30.8418  -20.5656   20.9116 C   0  0  0  0  0  0
  -30.6025  -24.3332   20.8070 C   0  0  0  0  0  0
  -31.3682  -23.0004   20.9211 C   0  0  0  0  0  0
  -29.0799  -22.4990   20.4160 C   0  0  0  0  0  0
  -29.3160  -24.0263   20.0350 C   0  0  1  0  0  0
  -30.4723  -23.5298   17.9009 C   0  0  0  0  0  0
  -28.1489  -25.0463   20.3898 C   0  0  0  0  0  0
  -30.4097  -21.8824   20.7331 N   0  0  0  0  0  0
  -27.8157  -19.8463   21.6837 N   0  0  0  0  0  0
  -29.7591  -15.6126   20.9633 N   0  0  0  0  0  0
  -32.1535  -20.4027   21.1781 N   0  3  0  0  0  0
  -28.5545  -17.6303   21.2649 O   0  0  0  0  0  0
  -29.4271  -24.1882   18.6103 O   0  0  0  0  0  0
  -31.4882  -12.5423   19.1354 H   0  0  0  0  0  0
  -30.4059  -11.3908   19.8682 H   0  0  0  0  0  0
  -29.7736  -11.7701   17.4679 H   0  0  0  0  0  0
  -29.6472  -13.4878   17.7471 H   0  0  0  0  0  0
  -27.8683  -11.2926   18.8547 H   0  0  0  0  0  0
  -27.3766  -12.5858   17.7940 H   0  0  0  0  0  0
  -27.6841  -14.2467   19.5420 H   0  0  0  0  0  0
  -28.7189  -11.9943   21.3383 H   0  0  0  0  0  0
  -28.4444  -13.6220   21.8716 H   0  0  0  0  0  0
  -25.2756   -9.5679   22.4757 H   0  0  0  0  0  0
  -23.9993   -7.4631   22.7476 H   0  0  0  0  0  0
  -21.0832   -8.8764   19.8957 H   0  0  0  0  0  0
  -22.3686  -10.9664   19.6159 H   0  0  0  0  0  0
  -21.2003   -7.6141   23.9712 H   0  0  0  0  0  0
  -21.1483   -6.0521   25.9075 H   0  0  0  0  0  0
  -22.0600   -2.7604   23.2855 H   0  0  0  0  0  0
  -22.4105  -11.9882   22.4781 H   0  0  0  0  0  0
  -21.1122  -13.1265   22.2610 H   0  0  0  0  0  0
  -24.6643  -15.8416   20.5175 H   0  0  0  0  0  0
  -26.2803  -15.6281   20.0798 H   0  0  0  0  0  0
  -26.7171  -32.5465   23.1109 H   0  0  0  0  0  0
  -25.0078  -33.9726   25.0438 H   0  0  0  0  0  0
  -22.7130  -31.3064   21.4032 H   0  0  0  0  0  0
  -23.3749  -35.9626   23.3308 H   0  0  0  0  0  0
  -24.3574  -36.8901   22.2053 H   0  0  0  0  0  0
  -23.7230  -37.6497   23.6654 H   0  0  0  0  0  0
  -26.0893  -31.5558   20.6044 H   0  0  0  0  0  0
  -26.8405  -30.8438   22.0032 H   0  0  0  0  0  0
  -28.1170  -28.9914   21.1876 H   0  0  0  0  0  0
  -25.9851  -25.9654   18.9518 H   0  0  0  0  0  0
  -23.9773  -27.3190   18.9984 H   0  0  0  0  0  0
  -23.7551  -30.5976   19.4064 H   0  0  0  0  0  0
  -22.7542  -29.2509   19.8566 H   0  0  0  0  0  0
  -25.1282  -36.1939   25.0821 H   0  0  0  0  0  0
  -20.9986  -28.3258   24.1405 H   0  0  0  0  0  0
  -20.5676  -26.2297   23.3603 H   0  0  0  0  0  0
  -21.6642  -26.7438   22.1201 H   0  0  0  0  0  0
  -19.6909  -25.6296   21.1240 H   0  0  0  0  0  0
  -19.6687  -27.3199   20.6749 H   0  0  0  0  0  0
  -17.4197  -26.6685   21.4033 H   0  0  0  0  0  0
  -18.0335  -26.0066   22.9020 H   0  0  0  0  0  0
  -19.7949  -30.7275   24.2264 H   0  0  0  0  0  0
  -17.5030  -31.6272   24.5170 H   0  0  0  0  0  0
  -15.5363  -30.3000   23.7656 H   0  0  0  0  0  0
  -15.8675  -28.0835   22.7060 H   0  0  0  0  0  0
  -24.5901  -30.7078   25.7802 H   0  0  0  0  0  0
  -24.8918  -32.2912   26.4881 H   0  0  0  0  0  0
  -25.8053  -30.8930   27.0246 H   0  0  0  0  0  0
  -26.2913  -29.6781   24.1192 H   0  0  0  0  0  0
  -27.4046  -29.7272   25.4664 H   0  0  0  0  0  0
  -27.8772  -30.4327   23.9388 H   0  0  0  0  0  0
  -27.2657  -33.3638   26.2066 H   0  0  0  0  0  0
  -28.3865  -32.6888   25.0332 H   0  0  0  0  0  0
  -28.0713  -31.8471   26.5424 H   0  0  0  0  0  0
  -28.2592  -38.0102   24.7523 H   0  0  0  0  0  0
  -28.1073  -36.2631   24.6277 H   0  0  0  0  0  0
  -27.2300  -37.1432   25.8873 H   0  0  0  0  0  0
  -20.9360  -29.8788   21.6914 H   0  0  0  0  0  0
  -26.0169  -38.2852   24.1429 H   0  0  0  0  0  0
  -31.7137  -17.7313   20.3627 H   0  0  0  0  0  0
  -31.1907  -25.1151   20.3256 H   0  0  0  0  0  0
  -30.3646  -24.6883   21.8109 H   0  0  0  0  0  0
  -31.8533  -22.9316   21.8952 H   0  0  0  0  0  0
  -32.1455  -22.9374   20.1603 H   0  0  0  0  0  0
  -28.5650  -21.9546   19.6246 H   0  0  0  0  0  0
  -28.4620  -22.4395   21.3102 H   0  0  0  0  0  0
  -30.4427  -22.4470   18.0231 H   0  0  0  0  0  0
  -31.4558  -23.8977   18.1919 H   0  0  0  0  0  0
  -30.3589  -23.7342   16.8362 H   0  0  0  0  0  0
  -27.9184  -24.9493   21.4511 H   0  0  0  0  0  0
  -27.2680  -24.6648   19.8802 H   0  0  0  0  0  0
  -28.0023  -20.7624   22.0702 H   0  0  0  0  0  0
  -26.9309  -19.4766   22.0164 H   0  0  0  0  0  0
  -28.8914  -15.2120   21.2834 H   0  0  0  0  0  0
  -32.5176  -19.4815   21.3665 H   0  0  0  0  0  0
  -32.7948  -21.1782   21.2314 H   0  0  0  0  0  0
  1 25  1  0  0  0
  1 30  2  0  0  0
  1 84  1  0  0  0
  2  3  1  0  0  0
  2 25  1  0  0  0
  2 88  1  0  0  0
  2 89  1  0  0  0
  3  4  1  0  0  0
  3 90  1  0  0  0
  3 91  1  0  0  0
  4  5  1  0  0  0
  4 92  1  0  0  0
  4 93  1  0  0  0
  5  6  1  0  0  0
  5 26  1  0  0  0
  5 94  1  0  0  0
  6 25  1  0  0  0
  6 95  1  0  0  0
  6 96  1  0  0  0
  7  8  2  0  0  0
  7 26  1  0  0  0
  7 29  1  0  0  0
  8  9  1  0  0  0
  8 22  1  0  0  0
  9 10  1  0  0  0
  9 27  2  0  0  0
 10 11  2  0  0  0
 10 15  1  0  0  0
 11 12  1  0  0  0
 11 97  1  0  0  0
 12 13  2  0  0  0
 12 98  1  0  0  0
 13 14  1  0  0  0
 13 31  1  0  0  0
 14 15  2  0  0  0
 14 99  1  0  0  0
 15100  1  0  0  0
 16 17  2  0  0  0
 16 21  1  0  0  0
 16 31  1  0  0  0
 17 18  1  0  0  0
 17101  1  0  0  0
 18 19  2  0  0  0
 18102  1  0  0  0
 19 20  1  0  0  0
 19 24  1  0  0  0
 20 21  2  0  0  0
 20103  1  0  0  0
 21 23  1  0  0  0
 22 28  1  0  0  0
 22 32  2  0  0  0
 26 27  1  0  0  0
 28104  1  0  0  0
 28105  1  0  0  0
 29106  1  0  0  0
 29107  1  0  0  0
 33 34  1  0  0  0
 33 66  1  0  0  0
 33 70  2  0  0  0
 34 36  1  0  0  0
 34 59  1  0  0  0
 34108  1  0  0  0
 35 44  2  0  0  0
 35 45  1  0  0  0
 35 68  1  0  0  0
 36 56  1  0  0  0
 36109  1  0  0  0
 37 39  1  0  0  0
 37 47  1  0  0  0
 37 66  1  0  0  0
 37110  1  0  0  0
 38 43  2  0  0  0
 38 46  1  0  0  0
 38 47  1  0  0  0
 39 64  1  0  0  0
 39 67  2  0  0  0
 40 52  1  0  0  0
 40 53  2  0  0  0
 40 58  1  0  0  0
 41111  1  0  0  0
 41112  1  0  0  0
 41113  1  0  0  0
 41 48  1  0  0  0
 42 43  1  0  0  0
 42 66  1  0  0  0
 42114  1  0  0  0
 42115  1  0  0  0
 43 44  1  0  0  0
 44116  1  0  0  0
 45 46  2  0  0  0
 45117  1  0  0  0
 46118  1  0  0  0
 47119  1  0  0  0
 47120  1  0  0  0
 48 56  1  0  0  0
 48 65  1  0  0  0
 48121  1  0  0  0
 49 50  1  0  0  0
 49 53  1  0  0  0
 49 64  1  0  0  0
 49122  1  0  0  0
 50 51  1  0  0  0
 50123  1  0  0  0
 50124  1  0  0  0
 51 52  1  0  0  0
 51125  1  0  0  0
 51126  1  0  0  0
 52127  1  0  0  0
 52128  1  0  0  0
 53 54  1  0  0  0
 54 55  2  0  0  0
 54129  1  0  0  0
 55 57  1  0  0  0
 55130  1  0  0  0
 56 69  2  0  0  0
 57 58  2  0  0  0
 57131  1  0  0  0
 58132  1  0  0  0
 59 60  1  0  0  0
 59 61  1  0  0  0
 59 62  1  0  0  0
 60133  1  0  0  0
 60134  1  0  0  0
 60135  1  0  0  0
 61136  1  0  0  0
 61137  1  0  0  0
 61138  1  0  0  0
 62139  1  0  0  0
 62140  1  0  0  0
 62141  1  0  0  0
 63 65  1  0  0  0
 63142  1  0  0  0
 63143  1  0  0  0
 63144  1  0  0  0
 64145  1  0  0  0
 65146  1  0  0  0
 68 81  1  0  0  0
 71 72  1  0  0  0
 71 73  2  0  0  0
 71147  1  0  0  0
 72 74  2  0  0  0
 72 75  1  0  0  0
 73 84  1  0  0  0
 73 86  1  0  0  0
 74 83  1  0  0  0
 74 86  1  0  0  0
 75 82  1  0  0  0
 75 85  2  0  0  0
 76 77  1  0  0  0
 76 79  1  0  0  0
 76148  1  0  0  0
 76149  1  0  0  0
 77 82  1  0  0  0
 77150  1  0  0  0
 77151  1  0  0  0
 78 79  1  0  0  0
 78 82  1  0  0  0
 78152  1  0  0  0
 78153  1  0  0  0
 79 81  1  0  0  0
 79 87  1  0  0  0
 80 87  1  0  0  0
 80154  1  0  0  0
 80155  1  0  0  0
 80156  1  0  0  0
 81157  1  0  0  0
 81158  1  0  0  0
 83159  1  0  0  0
 83160  1  0  0  0
 84161  1  0  0  0
 85162  1  0  0  0
 85163  1  0  0  0
M  CHG  1  85   1
M  ISO  4   1 100  68 101  81 101  84 100
M  END
> <chiral flag>
0

> <version>
0

> <s_m_source_file>
/data/baiqing/PycharmProjects/Reinvent-master-3.2/result/LINK_invent/BTK/process_docking_weight1_custom_product_contain_oxygen_bond_distance_aromatic_linkinvent_7_9_3/rearranged_h_0153.sdf

> <i_m_source_file_index>
88

> <r_mmod_Potential_Energy-OPLS-2005>
67.056770324707

> <r_mmod_Stretch_Energy-OPLS-2005>
77.1916961669922

> <r_mmod_Bend_Energy-OPLS-2005>
228.61767578125

> <r_mmod_Torsional_Energy-OPLS-2005>
301.15087890625

> <r_mmod_Improper_Torsional_Energy-OPLS-2005>
6.81240367889404

> <r_mmod_Van_der_Waal_Energy-OPLS-2005>
132.669784545898

> <r_mmod_Electrostatic_Energy-OPLS-2005>
-260.140747070312

> <r_mmod_Solvation_Energy-OPLS-2005>
-463.647735595703

> <b_mmod_Minimization_Converged-OPLS-2005>
0

> <r_mmod_RMS_Derivative-OPLS-2005>
0.825470149517059

$$$$
88
                    3D
 Structure written by MMmdl.
171181  0  0  1  0            999 V2000
  -30.6066  -14.7651   20.4644 C   0  0  0  0  0  0
  -30.4350  -12.4694   19.4739 C   0  0  0  0  0  0
  -29.5122  -12.5134   18.2355 C   0  0  0  0  0  0
  -28.0385  -12.3326   18.6486 C   0  0  0  0  0  0
  -27.6419  -13.2322   19.8491 C   0  0  2  0  0  0
  -28.6872  -13.1715   20.9845 C   0  0  0  0  0  0
  -25.2515  -13.8193   20.5685 C   0  0  0  0  0  0
  -24.1808  -13.0441   20.9209 C   0  0  0  0  0  0
  -24.6398  -11.6917   20.8746 C   0  0  0  0  0  0
  -23.9072  -10.4291   21.0407 C   0  0  0  0  0  0
  -24.3622   -9.4203   21.9186 C   0  0  0  0  0  0
  -23.6291   -8.2240   22.0757 C   0  0  0  0  0  0
  -22.4272   -8.0279   21.3543 C   0  0  0  0  0  0
  -21.9910   -9.0254   20.4644 C   0  0  0  0  0  0
  -22.7243  -10.2132   20.3052 C   0  0  0  0  0  0
  -21.6853   -6.0733   22.5279 C   0  0  0  0  0  0
  -21.4012   -6.5639   23.8212 C   0  0  0  0  0  0
  -21.3662   -5.6792   24.9176 C   0  0  0  0  0  0
  -21.6042   -4.3053   24.7226 C   0  0  0  0  0  0
  -21.8821   -3.8145   23.4347 C   0  0  0  0  0  0
  -21.9193   -4.6960   22.3402 C   0  0  0  0  0  0
  -22.7826  -13.5223   21.1865 C   0  0  0  0  0  0
  -22.1661   -4.2143   21.0979 F   0  0  0  0  0  0
  -21.5632   -3.4540   25.7741 F   0  0  0  0  0  0
  -29.9854  -13.5341   20.4015 N   0  0  0  0  0  0
  -26.2940  -12.9400   20.3267 N   0  0  0  0  0  0
  -25.9331  -11.6543   20.5747 N   0  0  0  0  0  0
  -22.0472  -12.8204   22.0413 N   0  0  0  0  0  0
  -25.4204  -15.1915   20.4072 N   0  0  0  0  0  0
  -31.7974  -14.8489   20.1507 O   0  0  0  0  0  0
  -21.6639   -6.8874   21.4238 O   0  0  0  0  0  0
  -22.3512  -14.5534   20.6719 O   0  0  0  0  0  0
  -24.6344  -31.8531   23.1973 C   0  0  0  0  0  0
  -25.9151  -32.4754   23.8330 C   0  0  1  0  0  0
  -27.2151  -27.2326   20.1304 C   0  0  0  0  0  0
  -25.5925  -33.8552   24.2249 N   0  0  0  0  0  0
  -23.4327  -30.4796   21.5389 C   0  0  2  0  0  0
  -24.8816  -28.9310   20.1050 C   0  0  0  0  0  0
  -22.7523  -29.4607   22.4867 C   0  0  0  0  0  0
  -18.0306  -28.1410   22.8493 C   0  0  0  0  0  0
  -24.1483  -36.7281   23.2642 C   0  0  0  0  0  0
  -25.9834  -30.7589   21.3826 C   0  0  0  0  0  0
  -26.0558  -29.3806   20.7223 C   0  0  0  0  0  0
  -27.2244  -28.5452   20.7257 C   0  0  0  0  0  0
  -26.0205  -26.8784   19.4587 C   0  0  0  0  0  0
  -24.8720  -27.6887   19.4608 C   0  0  0  0  0  0
  -23.6545  -29.8200   20.1534 C   0  0  0  0  0  0
  -25.4111  -36.3067   24.0327 C   0  0  1  0  0  0
  -20.5909  -28.3722   23.1257 C   0  0  2  0  0  0
  -20.6802  -26.9430   22.5403 C   0  0  0  0  0  0
  -19.5770  -26.6392   21.5218 C   0  0  0  0  0  0
  -18.1946  -26.7951   22.1622 C   0  0  0  0  0  0
  -19.1564  -28.8879   23.2877 C   0  0  0  0  0  0
  -18.9485  -30.1484   23.8890 C   0  0  0  0  0  0
  -17.6478  -30.6602   24.0568 C   0  0  0  0  0  0
  -25.9053  -34.9439   23.5086 C   0  0  0  0  0  0
  -16.5368  -29.9103   23.6333 C   0  0  0  0  0  0
  -16.7291  -28.6526   23.0352 C   0  0  0  0  0  0
  -26.4497  -31.6590   25.0730 C   0  0  0  0  0  0
  -25.3700  -31.3759   26.1439 C   0  0  0  0  0  0
  -27.0354  -30.3004   24.6244 C   0  0  0  0  0  0
  -27.6048  -32.4331   25.7510 C   0  0  0  0  0  0
  -27.5574  -37.1799   24.8463 C   0  0  0  0  0  0
  -21.4223  -29.3068   22.3640 N   0  0  0  0  0  0
  -26.4278  -37.3775   23.9420 N   0  0  0  0  0  0
  -24.7028  -31.0489   22.0950 N   0  0  0  0  0  0
  -23.4217  -28.8123   23.2954 O   0  0  0  0  0  0
  -28.2781  -26.2850   20.2186 O   0  0  0  0  0  0
  -26.5631  -34.8917   22.4665 O   0  0  0  0  0  0
  -23.5487  -32.1352   23.7253 O   0  0  0  0  0  0
  -30.7256  -20.2235   20.7867 C   0  0  0  0  0  0
  -29.1064  -18.4101   20.6488 C   0  0  0  0  0  0
  -31.4511  -17.8527   20.7153 C   0  0  0  0  0  0
  -29.3693  -19.8510   20.7368 C   0  0  0  0  0  0
  -31.7516  -19.2400   20.7720 C   0  0  0  0  0  0
  -30.1225  -17.3692   20.6546 C   0  0  0  0  0  0
  -33.7857  -21.0962   18.9453 C   0  0  0  0  0  0
  -28.2557  -20.8907   20.9658 C   0  0  0  0  0  0
  -34.2398  -22.5182   18.6714 C   0  0  0  0  0  0
  -34.0149  -23.2264   20.0132 C   0  0  0  0  0  0
  -27.0063  -24.4431   21.3310 C   0  0  0  0  0  0
  -33.8264  -22.1043   21.0432 C   0  0  0  0  0  0
  -26.8296  -22.9228   21.2568 C   0  0  0  0  0  0
  -28.9414  -23.5073   20.3376 C   0  0  0  0  0  0
  -27.9509  -24.7944   20.1852 C   0  0  2  0  0  0
  -33.2164  -19.6461   20.8935 C   0  0  0  0  0  0
  -33.5606  -20.9128   20.2512 N   0  0  0  0  0  0
  -28.1134  -22.2995   20.8183 N   0  0  0  0  0  0
  -29.8184  -15.9000   20.6609 N   0  0  0  0  0  0
  -27.1746  -20.2913   21.4713 N   0  3  0  0  0  0
  -33.6669  -20.2478   18.0583 O   0  0  0  0  0  0
  -31.4756  -12.5939   19.1709 H   0  0  0  0  0  0
  -30.3816  -11.4935   19.9589 H   0  0  0  0  0  0
  -29.7983  -11.7395   17.5220 H   0  0  0  0  0  0
  -29.6350  -13.4664   17.7189 H   0  0  0  0  0  0
  -27.8981  -11.2836   18.9114 H   0  0  0  0  0  0
  -27.3810  -12.5237   17.7995 H   0  0  0  0  0  0
  -27.6330  -14.2526   19.4660 H   0  0  0  0  0  0
  -28.7289  -12.1714   21.4196 H   0  0  0  0  0  0
  -28.4182  -13.8470   21.7981 H   0  0  0  0  0  0
  -25.2771   -9.5680   22.4758 H   0  0  0  0  0  0
  -24.0001   -7.4632   22.7481 H   0  0  0  0  0  0
  -21.0843   -8.8767   19.8950 H   0  0  0  0  0  0
  -22.3701  -10.9666   19.6155 H   0  0  0  0  0  0
  -21.2000   -7.6149   23.9710 H   0  0  0  0  0  0
  -21.1485   -6.0527   25.9077 H   0  0  0  0  0  0
  -22.0597   -2.7605   23.2851 H   0  0  0  0  0  0
  -22.4086  -11.9854   22.4781 H   0  0  0  0  0  0
  -21.1090  -13.1221   22.2628 H   0  0  0  0  0  0
  -24.6438  -15.8379   20.4951 H   0  0  0  0  0  0
  -26.2479  -15.6204   20.0153 H   0  0  0  0  0  0
  -26.7209  -32.5391   23.1063 H   0  0  0  0  0  0
  -25.0083  -33.9690   25.0401 H   0  0  0  0  0  0
  -22.7312  -31.3039   21.3922 H   0  0  0  0  0  0
  -23.3748  -35.9605   23.3297 H   0  0  0  0  0  0
  -24.3577  -36.8903   22.2057 H   0  0  0  0  0  0
  -23.7228  -37.6476   23.6670 H   0  0  0  0  0  0
  -26.1267  -31.5177   20.6113 H   0  0  0  0  0  0
  -26.8605  -30.8080   22.0164 H   0  0  0  0  0  0
  -28.1158  -28.8819   21.2367 H   0  0  0  0  0  0
  -25.9223  -25.9390   18.9395 H   0  0  0  0  0  0
  -23.9776  -27.3442   18.9602 H   0  0  0  0  0  0
  -23.7836  -30.5976   19.4004 H   0  0  0  0  0  0
  -22.7725  -29.2576   19.8423 H   0  0  0  0  0  0
  -25.1296  -36.1900   25.0818 H   0  0  0  0  0  0
  -21.0031  -28.3297   24.1371 H   0  0  0  0  0  0
  -20.5718  -26.2321   23.3612 H   0  0  0  0  0  0
  -21.6667  -26.7462   22.1180 H   0  0  0  0  0  0
  -19.6920  -25.6301   21.1251 H   0  0  0  0  0  0
  -19.6705  -27.3209   20.6753 H   0  0  0  0  0  0
  -17.4216  -26.6712   21.4020 H   0  0  0  0  0  0
  -18.0337  -26.0107   22.9031 H   0  0  0  0  0  0
  -19.7954  -30.7319   24.2242 H   0  0  0  0  0  0
  -17.5026  -31.6281   24.5183 H   0  0  0  0  0  0
  -15.5372  -30.3002   23.7672 H   0  0  0  0  0  0
  -15.8688  -28.0847   22.7059 H   0  0  0  0  0  0
  -24.5901  -30.7073   25.7778 H   0  0  0  0  0  0
  -24.8866  -32.2935   26.4800 H   0  0  0  0  0  0
  -25.8005  -30.8995   27.0255 H   0  0  0  0  0  0
  -26.2961  -29.6753   24.1224 H   0  0  0  0  0  0
  -27.3986  -29.7269   25.4780 H   0  0  0  0  0  0
  -27.8850  -30.4288   23.9535 H   0  0  0  0  0  0
  -27.2661  -33.3654   26.2048 H   0  0  0  0  0  0
  -28.3889  -32.6845   25.0354 H   0  0  0  0  0  0
  -28.0673  -31.8469   26.5461 H   0  0  0  0  0  0
  -28.2580  -38.0110   24.7545 H   0  0  0  0  0  0
  -28.1081  -36.2642   24.6243 H   0  0  0  0  0  0
  -27.2300  -37.1399   25.8867 H   0  0  0  0  0  0
  -20.9396  -29.8801   21.6863 H   0  0  0  0  0  0
  -26.0141  -38.2834   24.1450 H   0  0  0  0  0  0
  -30.9746  -21.2707   20.8876 H   0  0  0  0  0  0
  -28.0799  -18.0771   20.6143 H   0  0  0  0  0  0
  -32.2771  -17.1582   20.7467 H   0  0  0  0  0  0
  -33.6743  -22.9722   17.8571 H   0  0  0  0  0  0
  -35.2972  -22.5062   18.4026 H   0  0  0  0  0  0
  -33.1145  -23.8398   19.9602 H   0  0  0  0  0  0
  -34.8438  -23.8845   20.2770 H   0  0  0  0  0  0
  -27.4427  -24.7260   22.2885 H   0  0  0  0  0  0
  -26.0397  -24.9398   21.2581 H   0  0  0  0  0  0
  -33.0121  -22.3234   21.7353 H   0  0  0  0  0  0
  -34.7350  -21.9528   21.6285 H   0  0  0  0  0  0
  -26.0487  -22.6766   20.5342 H   0  0  0  0  0  0
  -26.5021  -22.5658   22.2350 H   0  0  0  0  0  0
  -29.7155  -23.7166   21.0767 H   0  0  0  0  0  0
  -29.4461  -23.2882   19.3963 H   0  0  0  0  0  0
  -27.4655  -24.6086   19.2289 H   0  0  0  0  0  0
  -33.8527  -18.8625   20.4780 H   0  0  0  0  0  0
  -33.4668  -19.7001   21.9539 H   0  0  0  0  0  0
  -28.8470  -15.6732   20.8055 H   0  0  0  0  0  0
  -27.2408  -19.3183   21.7239 H   0  0  0  0  0  0
  -26.3178  -20.7770   21.6636 H   0  0  0  0  0  0
  1 25  1  0  0  0
  1 30  2  0  0  0
  1 89  1  0  0  0
  2  3  1  0  0  0
  2 25  1  0  0  0
  2 92  1  0  0  0
  2 93  1  0  0  0
  3  4  1  0  0  0
  3 94  1  0  0  0
  3 95  1  0  0  0
  4  5  1  0  0  0
  4 96  1  0  0  0
  4 97  1  0  0  0
  5  6  1  0  0  0
  5 26  1  0  0  0
  5 98  1  0  0  0
  6 25  1  0  0  0
  6 99  1  0  0  0
  6100  1  0  0  0
  7  8  2  0  0  0
  7 26  1  0  0  0
  7 29  1  0  0  0
  8  9  1  0  0  0
  8 22  1  0  0  0
  9 10  1  0  0  0
  9 27  2  0  0  0
 10 11  2  0  0  0
 10 15  1  0  0  0
 11 12  1  0  0  0
 11101  1  0  0  0
 12 13  2  0  0  0
 12102  1  0  0  0
 13 14  1  0  0  0
 13 31  1  0  0  0
 14 15  2  0  0  0
 14103  1  0  0  0
 15104  1  0  0  0
 16 17  2  0  0  0
 16 21  1  0  0  0
 16 31  1  0  0  0
 17 18  1  0  0  0
 17105  1  0  0  0
 18 19  2  0  0  0
 18106  1  0  0  0
 19 20  1  0  0  0
 19 24  1  0  0  0
 20 21  2  0  0  0
 20107  1  0  0  0
 21 23  1  0  0  0
 22 28  1  0  0  0
 22 32  2  0  0  0
 26 27  1  0  0  0
 28108  1  0  0  0
 28109  1  0  0  0
 29110  1  0  0  0
 29111  1  0  0  0
 33 34  1  0  0  0
 33 66  1  0  0  0
 33 70  2  0  0  0
 34 36  1  0  0  0
 34 59  1  0  0  0
 34112  1  0  0  0
 35 44  2  0  0  0
 35 45  1  0  0  0
 35 68  1  0  0  0
 36 56  1  0  0  0
 36113  1  0  0  0
 37 39  1  0  0  0
 37 47  1  0  0  0
 37 66  1  0  0  0
 37114  1  0  0  0
 38 43  2  0  0  0
 38 46  1  0  0  0
 38 47  1  0  0  0
 39 64  1  0  0  0
 39 67  2  0  0  0
 40 52  1  0  0  0
 40 53  2  0  0  0
 40 58  1  0  0  0
 41115  1  0  0  0
 41116  1  0  0  0
 41117  1  0  0  0
 41 48  1  0  0  0
 42 43  1  0  0  0
 42 66  1  0  0  0
 42118  1  0  0  0
 42119  1  0  0  0
 43 44  1  0  0  0
 44120  1  0  0  0
 45 46  2  0  0  0
 45121  1  0  0  0
 46122  1  0  0  0
 47123  1  0  0  0
 47124  1  0  0  0
 48 56  1  0  0  0
 48 65  1  0  0  0
 48125  1  0  0  0
 49 50  1  0  0  0
 49 53  1  0  0  0
 49 64  1  0  0  0
 49126  1  0  0  0
 50 51  1  0  0  0
 50127  1  0  0  0
 50128  1  0  0  0
 51 52  1  0  0  0
 51129  1  0  0  0
 51130  1  0  0  0
 52131  1  0  0  0
 52132  1  0  0  0
 53 54  1  0  0  0
 54 55  2  0  0  0
 54133  1  0  0  0
 55 57  1  0  0  0
 55134  1  0  0  0
 56 69  2  0  0  0
 57 58  2  0  0  0
 57135  1  0  0  0
 58136  1  0  0  0
 59 60  1  0  0  0
 59 61  1  0  0  0
 59 62  1  0  0  0
 60137  1  0  0  0
 60138  1  0  0  0
 60139  1  0  0  0
 61140  1  0  0  0
 61141  1  0  0  0
 61142  1  0  0  0
 62143  1  0  0  0
 62144  1  0  0  0
 62145  1  0  0  0
 63 65  1  0  0  0
 63146  1  0  0  0
 63147  1  0  0  0
 63148  1  0  0  0
 64149  1  0  0  0
 65150  1  0  0  0
 68 85  1  0  0  0
 71 74  2  0  0  0
 71 75  1  0  0  0
 71151  1  0  0  0
 72 74  1  0  0  0
 72 76  2  0  0  0
 72152  1  0  0  0
 73 75  2  0  0  0
 73 76  1  0  0  0
 73153  1  0  0  0
 74 78  1  0  0  0
 75 86  1  0  0  0
 76 89  1  0  0  0
 77 79  1  0  0  0
 77 87  1  0  0  0
 77 91  2  0  0  0
 78 88  1  0  0  0
 78 90  2  0  0  0
 79 80  1  0  0  0
 79154  1  0  0  0
 79155  1  0  0  0
 80 82  1  0  0  0
 80156  1  0  0  0
 80157  1  0  0  0
 81 83  1  0  0  0
 81 85  1  0  0  0
 81158  1  0  0  0
 81159  1  0  0  0
 82 87  1  0  0  0
 82160  1  0  0  0
 82161  1  0  0  0
 83 88  1  0  0  0
 83162  1  0  0  0
 83163  1  0  0  0
 84 85  1  0  0  0
 84 88  1  0  0  0
 84164  1  0  0  0
 84165  1  0  0  0
 85166  1  0  0  0
 86 87  1  0  0  0
 86167  1  0  0  0
 86168  1  0  0  0
 89169  1  0  0  0
 90170  1  0  0  0
 90171  1  0  0  0
M  CHG  1  90   1
M  ISO  4   1 100  68 101  85 101  89 100
M  END
> <chiral flag>
0

> <version>
0

> <s_m_source_file>
/data/baiqing/PycharmProjects/Reinvent-master-3.2/result/LINK_invent/BTK/process_docking_weight1_custom_product_contain_oxygen_bond_distance_aromatic_linkinvent_7_9_3/rearranged_h_0153.sdf

> <i_m_source_file_index>
89

> <r_mmod_Potential_Energy-OPLS-2005>
136.62451171875

> <r_mmod_Stretch_Energy-OPLS-2005>
152.053375244141

> <r_mmod_Bend_Energy-OPLS-2005>
281.908477783203

> <r_mmod_Torsional_Energy-OPLS-2005>
294.087158203125

> <r_mmod_Improper_Torsional_Energy-OPLS-2005>
6.63206577301025

> <r_mmod_Van_der_Waal_Energy-OPLS-2005>
153.273696899414

> <r_mmod_Electrostatic_Energy-OPLS-2005>
-405.500457763672

> <r_mmod_Solvation_Energy-OPLS-2005>
-447.922546386719

> <b_mmod_Minimization_Converged-OPLS-2005>
0

> <r_mmod_RMS_Derivative-OPLS-2005>
1.67429769039154

$$$$
89
                    3D
 Structure written by MMmdl.
158167  0  0  1  0            999 V2000
  -30.6114  -14.7740   20.4640 C   0  0  0  0  0  0
  -30.4390  -12.4772   19.4792 C   0  0  0  0  0  0
  -29.5188  -12.5173   18.2398 C   0  0  0  0  0  0
  -28.0452  -12.3442   18.6498 C   0  0  0  0  0  0
  -27.6451  -13.2400   19.8495 C   0  0  2  0  0  0
  -28.6884  -13.1786   20.9880 C   0  0  0  0  0  0
  -25.2492  -13.8190   20.5624 C   0  0  0  0  0  0
  -24.1792  -13.0449   20.9180 C   0  0  0  0  0  0
  -24.6372  -11.6929   20.8710 C   0  0  0  0  0  0
  -23.9055  -10.4316   21.0399 C   0  0  0  0  0  0
  -24.3595   -9.4237   21.9163 C   0  0  0  0  0  0
  -23.6276   -8.2274   22.0738 C   0  0  0  0  0  0
  -22.4248   -8.0295   21.3562 C   0  0  0  0  0  0
  -21.9860   -9.0265   20.4649 C   0  0  0  0  0  0
  -22.7213  -10.2133   20.3060 C   0  0  0  0  0  0
  -21.6863   -6.0730   22.5271 C   0  0  0  0  0  0
  -21.4022   -6.5617   23.8200 C   0  0  0  0  0  0
  -21.3674   -5.6761   24.9152 C   0  0  0  0  0  0
  -21.6050   -4.3043   24.7203 C   0  0  0  0  0  0
  -21.8824   -3.8142   23.4327 C   0  0  0  0  0  0
  -21.9208   -4.6961   22.3382 C   0  0  0  0  0  0
  -22.7822  -13.5266   21.1853 C   0  0  0  0  0  0
  -22.1680   -4.2153   21.0963 F   0  0  0  0  0  0
  -21.5633   -3.4514   25.7718 F   0  0  0  0  0  0
  -29.9937  -13.5396   20.4161 N   0  0  0  0  0  0
  -26.2939  -12.9427   20.3233 N   0  0  0  0  0  0
  -25.9309  -11.6565   20.5667 N   0  0  0  0  0  0
  -22.0447  -12.8276   22.0409 N   0  0  0  0  0  0
  -25.4143  -15.1900   20.4016 N   0  0  0  0  0  0
  -31.7867  -14.8657   20.0911 O   0  0  0  0  0  0
  -21.6651   -6.8871   21.4232 O   0  0  0  0  0  0
  -22.3522  -14.5591   20.6714 O   0  0  0  0  0  0
  -24.6330  -31.8544   23.1991 C   0  0  0  0  0  0
  -25.9147  -32.4753   23.8349 C   0  0  1  0  0  0
  -27.2228  -27.2405   20.1597 C   0  0  0  0  0  0
  -25.5937  -33.8563   24.2260 N   0  0  0  0  0  0
  -23.4311  -30.4773   21.5411 C   0  0  2  0  0  0
  -24.8857  -28.9281   20.1085 C   0  0  0  0  0  0
  -22.7515  -29.4595   22.4885 C   0  0  0  0  0  0
  -18.0301  -28.1385   22.8485 C   0  0  0  0  0  0
  -24.1487  -36.7279   23.2635 C   0  0  0  0  0  0
  -25.9803  -30.7628   21.3863 C   0  0  0  0  0  0
  -26.0565  -29.3856   20.7258 C   0  0  0  0  0  0
  -27.2272  -28.5569   20.7369 C   0  0  0  0  0  0
  -26.0320  -26.8634   19.4941 C   0  0  0  0  0  0
  -24.8820  -27.6767   19.4752 C   0  0  0  0  0  0
  -23.6542  -29.8132   20.1565 C   0  0  0  0  0  0
  -25.4104  -36.3069   24.0326 C   0  0  1  0  0  0
  -20.5913  -28.3703   23.1250 C   0  0  2  0  0  0
  -20.6789  -26.9412   22.5399 C   0  0  0  0  0  0
  -19.5753  -26.6382   21.5209 C   0  0  0  0  0  0
  -18.1941  -26.7922   22.1639 C   0  0  0  0  0  0
  -19.1557  -28.8861   23.2870 C   0  0  0  0  0  0
  -18.9477  -30.1460   23.8893 C   0  0  0  0  0  0
  -17.6473  -30.6576   24.0560 C   0  0  0  0  0  0
  -25.9050  -34.9438   23.5089 C   0  0  0  0  0  0
  -16.5365  -29.9069   23.6327 C   0  0  0  0  0  0
  -16.7289  -28.6491   23.0346 C   0  0  0  0  0  0
  -26.4494  -31.6596   25.0764 C   0  0  0  0  0  0
  -25.3711  -31.3810   26.1492 C   0  0  0  0  0  0
  -27.0305  -30.2984   24.6304 C   0  0  0  0  0  0
  -27.6080  -32.4324   25.7503 C   0  0  0  0  0  0
  -27.5577  -37.1782   24.8449 C   0  0  0  0  0  0
  -21.4217  -29.3038   22.3630 N   0  0  0  0  0  0
  -26.4275  -37.3774   23.9415 N   0  0  0  0  0  0
  -24.6997  -31.0500   22.0972 N   0  0  0  0  0  0
  -23.4195  -28.8119   23.2989 O   0  0  0  0  0  0
  -28.2963  -26.3126   20.2464 O   0  0  0  0  0  0
  -26.5617  -34.8915   22.4657 O   0  0  0  0  0  0
  -23.5470  -32.1392   23.7258 O   0  0  0  0  0  0
  -29.4958  -18.5172   21.2040 C   0  0  0  0  0  0
  -30.8029  -17.8033   19.4096 C   0  0  0  0  0  0
  -30.0686  -17.3581   20.4825 C   0  0  0  0  0  0
  -29.8424  -19.8006   20.7193 C   0  0  0  0  0  0
  -29.0754  -23.7242   20.5987 C   0  0  0  0  0  0
  -28.2516  -21.0762   23.4204 C   0  0  0  0  0  0
  -27.2349  -21.9974   22.7153 C   0  0  0  0  0  0
  -29.6864  -21.2544   22.8755 C   0  0  0  0  0  0
  -27.4067  -21.9547   21.1812 C   0  0  0  0  0  0
  -29.7497  -21.2744   21.3283 C   0  0  2  0  0  0
  -27.9339  -24.8461   20.3973 C   0  0  0  0  0  0
  -28.7761  -22.3704   20.8574 N   0  0  0  0  0  0
  -29.8651  -15.9053   20.7896 N   0  0  0  0  0  0
  -30.2497  -24.1007   20.5257 O   0  0  0  0  0  0
  -30.8239  -19.5612   19.2849 S   0  0  0  0  0  0
  -31.4792  -12.6034   19.1708 H   0  0  0  0  0  0
  -30.3932  -11.5035   19.9640 H   0  0  0  0  0  0
  -29.8010  -11.7376   17.5315 H   0  0  0  0  0  0
  -29.6500  -13.4673   17.7177 H   0  0  0  0  0  0
  -27.8959  -11.2961   18.9109 H   0  0  0  0  0  0
  -27.3961  -12.5408   17.7959 H   0  0  0  0  0  0
  -27.6404  -14.2604   19.4652 H   0  0  0  0  0  0
  -28.7283  -12.1820   21.4272 H   0  0  0  0  0  0
  -28.4145  -13.8582   21.7965 H   0  0  0  0  0  0
  -25.2734   -9.5723   22.4747 H   0  0  0  0  0  0
  -24.0010   -7.4655   22.7427 H   0  0  0  0  0  0
  -21.0794   -8.8756   19.8950 H   0  0  0  0  0  0
  -22.3647  -10.9638   19.6176 H   0  0  0  0  0  0
  -21.1999   -7.6119   23.9690 H   0  0  0  0  0  0
  -21.1489   -6.0499   25.9046 H   0  0  0  0  0  0
  -22.0588   -2.7602   23.2838 H   0  0  0  0  0  0
  -22.4015  -11.9976   22.4909 H   0  0  0  0  0  0
  -21.1061  -13.1318   22.2547 H   0  0  0  0  0  0
  -24.6348  -15.8350   20.4810 H   0  0  0  0  0  0
  -26.2572  -15.6248   20.0521 H   0  0  0  0  0  0
  -26.7232  -32.5391   23.1112 H   0  0  0  0  0  0
  -25.0053  -33.9690   25.0386 H   0  0  0  0  0  0
  -22.7287  -31.3012   21.3953 H   0  0  0  0  0  0
  -23.3757  -35.9599   23.3279 H   0  0  0  0  0  0
  -24.3607  -36.8917   22.2058 H   0  0  0  0  0  0
  -23.7234  -37.6475   23.6664 H   0  0  0  0  0  0
  -26.1306  -31.5229   20.6186 H   0  0  0  0  0  0
  -26.8520  -30.8062   22.0279 H   0  0  0  0  0  0
  -28.1166  -28.9027   21.2459 H   0  0  0  0  0  0
  -25.9503  -25.9144   18.9893 H   0  0  0  0  0  0
  -23.9902  -27.3220   18.9769 H   0  0  0  0  0  0
  -23.7790  -30.5917   19.4033 H   0  0  0  0  0  0
  -22.7733  -29.2469   19.8489 H   0  0  0  0  0  0
  -25.1281  -36.1899   25.0814 H   0  0  0  0  0  0
  -21.0017  -28.3291   24.1366 H   0  0  0  0  0  0
  -20.5685  -26.2301   23.3605 H   0  0  0  0  0  0
  -21.6652  -26.7423   22.1195 H   0  0  0  0  0  0
  -19.6897  -25.6287   21.1249 H   0  0  0  0  0  0
  -19.6662  -27.3188   20.6731 H   0  0  0  0  0  0
  -17.4182  -26.6654   21.4070 H   0  0  0  0  0  0
  -18.0367  -26.0077   22.9056 H   0  0  0  0  0  0
  -19.7945  -30.7292   24.2254 H   0  0  0  0  0  0
  -17.5014  -31.6256   24.5158 H   0  0  0  0  0  0
  -15.5360  -30.2959   23.7643 H   0  0  0  0  0  0
  -15.8701  -28.0788   22.7068 H   0  0  0  0  0  0
  -24.5762  -30.7314   25.7806 H   0  0  0  0  0  0
  -24.9054  -32.3020   26.5017 H   0  0  0  0  0  0
  -25.7990  -30.8857   27.0222 H   0  0  0  0  0  0
  -26.2885  -29.6773   24.1276 H   0  0  0  0  0  0
  -27.3860  -29.7234   25.4869 H   0  0  0  0  0  0
  -27.8839  -30.4197   23.9634 H   0  0  0  0  0  0
  -27.2726  -33.3646   26.2060 H   0  0  0  0  0  0
  -28.3887  -32.6849   25.0317 H   0  0  0  0  0  0
  -28.0752  -31.8463   26.5432 H   0  0  0  0  0  0
  -28.2561  -38.0111   24.7547 H   0  0  0  0  0  0
  -28.1106  -36.2651   24.6194 H   0  0  0  0  0  0
  -27.2323  -37.1353   25.8859 H   0  0  0  0  0  0
  -20.9385  -29.8770   21.6858 H   0  0  0  0  0  0
  -26.0148  -38.2835   24.1450 H   0  0  0  0  0  0
  -28.9083  -18.3645   22.0983 H   0  0  0  0  0  0
  -31.3403  -17.2211   18.6689 H   0  0  0  0  0  0
  -27.9381  -20.0406   23.2933 H   0  0  0  0  0  0
  -28.2424  -21.2601   24.4967 H   0  0  0  0  0  0
  -27.3607  -23.0187   23.0802 H   0  0  0  0  0  0
  -26.2210  -21.7014   22.9929 H   0  0  0  0  0  0
  -30.3527  -20.4915   23.2839 H   0  0  0  0  0  0
  -30.0630  -22.2070   23.2500 H   0  0  0  0  0  0
  -26.6527  -22.5696   20.6909 H   0  0  0  0  0  0
  -27.2345  -20.9394   20.8206 H   0  0  0  0  0  0
  -30.7370  -21.6910   21.1250 H   0  0  0  0  0  0
  -27.2611  -24.7810   21.2545 H   0  0  0  0  0  0
  -27.3774  -24.5086   19.5247 H   0  0  0  0  0  0
  -28.9773  -15.6876   21.2167 H   0  0  0  0  0  0
  1 25  1  0  0  0
  1 30  2  0  0  0
  1 83  1  0  0  0
  2  3  1  0  0  0
  2 25  1  0  0  0
  2 86  1  0  0  0
  2 87  1  0  0  0
  3  4  1  0  0  0
  3 88  1  0  0  0
  3 89  1  0  0  0
  4  5  1  0  0  0
  4 90  1  0  0  0
  4 91  1  0  0  0
  5  6  1  0  0  0
  5 26  1  0  0  0
  5 92  1  0  0  0
  6 25  1  0  0  0
  6 93  1  0  0  0
  6 94  1  0  0  0
  7  8  2  0  0  0
  7 26  1  0  0  0
  7 29  1  0  0  0
  8  9  1  0  0  0
  8 22  1  0  0  0
  9 10  1  0  0  0
  9 27  2  0  0  0
 10 11  2  0  0  0
 10 15  1  0  0  0
 11 12  1  0  0  0
 11 95  1  0  0  0
 12 13  2  0  0  0
 12 96  1  0  0  0
 13 14  1  0  0  0
 13 31  1  0  0  0
 14 15  2  0  0  0
 14 97  1  0  0  0
 15 98  1  0  0  0
 16 17  2  0  0  0
 16 21  1  0  0  0
 16 31  1  0  0  0
 17 18  1  0  0  0
 17 99  1  0  0  0
 18 19  2  0  0  0
 18100  1  0  0  0
 19 20  1  0  0  0
 19 24  1  0  0  0
 20 21  2  0  0  0
 20101  1  0  0  0
 21 23  1  0  0  0
 22 28  1  0  0  0
 22 32  2  0  0  0
 26 27  1  0  0  0
 28102  1  0  0  0
 28103  1  0  0  0
 29104  1  0  0  0
 29105  1  0  0  0
 33 34  1  0  0  0
 33 66  1  0  0  0
 33 70  2  0  0  0
 34 36  1  0  0  0
 34 59  1  0  0  0
 34106  1  0  0  0
 35 44  2  0  0  0
 35 45  1  0  0  0
 35 68  1  0  0  0
 36 56  1  0  0  0
 36107  1  0  0  0
 37 39  1  0  0  0
 37 47  1  0  0  0
 37 66  1  0  0  0
 37108  1  0  0  0
 38 43  2  0  0  0
 38 46  1  0  0  0
 38 47  1  0  0  0
 39 64  1  0  0  0
 39 67  2  0  0  0
 40 52  1  0  0  0
 40 53  2  0  0  0
 40 58  1  0  0  0
 41109  1  0  0  0
 41110  1  0  0  0
 41111  1  0  0  0
 41 48  1  0  0  0
 42 43  1  0  0  0
 42 66  1  0  0  0
 42112  1  0  0  0
 42113  1  0  0  0
 43 44  1  0  0  0
 44114  1  0  0  0
 45 46  2  0  0  0
 45115  1  0  0  0
 46116  1  0  0  0
 47117  1  0  0  0
 47118  1  0  0  0
 48 56  1  0  0  0
 48 65  1  0  0  0
 48119  1  0  0  0
 49 50  1  0  0  0
 49 53  1  0  0  0
 49 64  1  0  0  0
 49120  1  0  0  0
 50 51  1  0  0  0
 50121  1  0  0  0
 50122  1  0  0  0
 51 52  1  0  0  0
 51123  1  0  0  0
 51124  1  0  0  0
 52125  1  0  0  0
 52126  1  0  0  0
 53 54  1  0  0  0
 54 55  2  0  0  0
 54127  1  0  0  0
 55 57  1  0  0  0
 55128  1  0  0  0
 56 69  2  0  0  0
 57 58  2  0  0  0
 57129  1  0  0  0
 58130  1  0  0  0
 59 60  1  0  0  0
 59 61  1  0  0  0
 59 62  1  0  0  0
 60131  1  0  0  0
 60132  1  0  0  0
 60133  1  0  0  0
 61134  1  0  0  0
 61135  1  0  0  0
 61136  1  0  0  0
 62137  1  0  0  0
 62138  1  0  0  0
 62139  1  0  0  0
 63 65  1  0  0  0
 63140  1  0  0  0
 63141  1  0  0  0
 63142  1  0  0  0
 64143  1  0  0  0
 65144  1  0  0  0
 68 81  1  0  0  0
 71 73  1  0  0  0
 71 74  2  0  0  0
 71145  1  0  0  0
 72 73  2  0  0  0
 72 85  1  0  0  0
 72146  1  0  0  0
 73 83  1  0  0  0
 74 85  1  0  0  0
 74 80  1  0  0  0
 75 81  1  0  0  0
 75 82  1  0  0  0
 75 84  2  0  0  0
 76 77  1  0  0  0
 76 78  1  0  0  0
 76147  1  0  0  0
 76148  1  0  0  0
 77 79  1  0  0  0
 77149  1  0  0  0
 77150  1  0  0  0
 78 80  1  0  0  0
 78151  1  0  0  0
 78152  1  0  0  0
 79 82  1  0  0  0
 79153  1  0  0  0
 79154  1  0  0  0
 80 82  1  0  0  0
 80155  1  0  0  0
 81156  1  0  0  0
 81157  1  0  0  0
 83158  1  0  0  0
M  ISO  4   1 100  68 101  81 101  83 100
M  END
> <chiral flag>
0

> <version>
0

> <s_m_source_file>
/data/baiqing/PycharmProjects/Reinvent-master-3.2/result/LINK_invent/BTK/process_docking_weight1_custom_product_contain_oxygen_bond_distance_aromatic_linkinvent_7_9_3/rearranged_h_0153.sdf

> <i_m_source_file_index>
90

> <r_mmod_Potential_Energy-OPLS-2005>
304.977600097656

> <r_mmod_Stretch_Energy-OPLS-2005>
142.883850097656

> <r_mmod_Bend_Energy-OPLS-2005>
187.868072509766

> <r_mmod_Torsional_Energy-OPLS-2005>
291.17431640625

> <r_mmod_Improper_Torsional_Energy-OPLS-2005>
6.93100023269653

> <r_mmod_Van_der_Waal_Energy-OPLS-2005>
125.821182250977

> <r_mmod_Electrostatic_Energy-OPLS-2005>
-313.146240234375

> <r_mmod_Solvation_Energy-OPLS-2005>
-237.247268676758

> <b_mmod_Minimization_Converged-OPLS-2005>
0

> <r_mmod_RMS_Derivative-OPLS-2005>
3.97991061210632

$$$$
90
                    3D
 Structure written by MMmdl.
153162  0  0  1  0            999 V2000
  -30.6014  -14.7834   20.4528 C   0  0  0  0  0  0
  -30.4345  -12.4758   19.4847 C   0  0  0  0  0  0
  -29.5107  -12.5110   18.2455 C   0  0  0  0  0  0
  -28.0398  -12.3255   18.6605 C   0  0  0  0  0  0
  -27.6415  -13.2344   19.8529 C   0  0  2  0  0  0
  -28.6865  -13.1815   20.9912 C   0  0  0  0  0  0
  -25.2511  -13.8205   20.5718 C   0  0  0  0  0  0
  -24.1800  -13.0444   20.9219 C   0  0  0  0  0  0
  -24.6397  -11.6926   20.8758 C   0  0  0  0  0  0
  -23.9067  -10.4304   21.0420 C   0  0  0  0  0  0
  -24.3625   -9.4205   21.9181 C   0  0  0  0  0  0
  -23.6303   -8.2238   22.0749 C   0  0  0  0  0  0
  -22.4286   -8.0278   21.3543 C   0  0  0  0  0  0
  -21.9919   -9.0253   20.4643 C   0  0  0  0  0  0
  -22.7244  -10.2139   20.3059 C   0  0  0  0  0  0
  -21.6852   -6.0735   22.5280 C   0  0  0  0  0  0
  -21.4011   -6.5641   23.8214 C   0  0  0  0  0  0
  -21.3665   -5.6795   24.9177 C   0  0  0  0  0  0
  -21.6048   -4.3059   24.7220 C   0  0  0  0  0  0
  -21.8823   -3.8144   23.4342 C   0  0  0  0  0  0
  -21.9195   -4.6963   22.3396 C   0  0  0  0  0  0
  -22.7820  -13.5212   21.1874 C   0  0  0  0  0  0
  -22.1665   -4.2156   21.0970 F   0  0  0  0  0  0
  -21.5632   -3.4538   25.7728 F   0  0  0  0  0  0
  -29.9880  -13.5447   20.4132 N   0  0  0  0  0  0
  -26.2939  -12.9415   20.3306 N   0  0  0  0  0  0
  -25.9328  -11.6555   20.5773 N   0  0  0  0  0  0
  -22.0481  -12.8200   22.0438 N   0  0  0  0  0  0
  -25.4212  -15.1926   20.4146 N   0  0  0  0  0  0
  -31.7815  -14.8763   20.0984 O   0  0  0  0  0  0
  -21.6645   -6.8881   21.4240 O   0  0  0  0  0  0
  -22.3502  -14.5514   20.6722 O   0  0  0  0  0  0
  -24.6352  -31.8522   23.1967 C   0  0  0  0  0  0
  -25.9168  -32.4736   23.8314 C   0  0  1  0  0  0
  -27.2141  -27.2163   20.1356 C   0  0  0  0  0  0
  -25.5960  -33.8544   24.2239 N   0  0  0  0  0  0
  -23.4340  -30.4752   21.5405 C   0  0  2  0  0  0
  -24.8806  -28.9184   20.1104 C   0  0  0  0  0  0
  -22.7522  -29.4594   22.4894 C   0  0  0  0  0  0
  -18.0298  -28.1389   22.8482 C   0  0  0  0  0  0
  -24.1487  -36.7254   23.2607 C   0  0  0  0  0  0
  -25.9852  -30.7484   21.3879 C   0  0  0  0  0  0
  -26.0538  -29.3690   20.7271 C   0  0  0  0  0  0
  -27.2200  -28.5299   20.7303 C   0  0  0  0  0  0
  -26.0211  -26.8602   19.4630 C   0  0  0  0  0  0
  -24.8717  -27.6734   19.4679 C   0  0  0  0  0  0
  -23.6550  -29.8114   20.1564 C   0  0  0  0  0  0
  -25.4097  -36.3051   24.0325 C   0  0  1  0  0  0
  -20.5906  -28.3709   23.1253 C   0  0  2  0  0  0
  -20.6778  -26.9419   22.5408 C   0  0  0  0  0  0
  -19.5759  -26.6384   21.5208 C   0  0  0  0  0  0
  -18.1937  -26.7934   22.1620 C   0  0  0  0  0  0
  -19.1553  -28.8863   23.2864 C   0  0  0  0  0  0
  -18.9474  -30.1464   23.8887 C   0  0  0  0  0  0
  -17.6474  -30.6590   24.0560 C   0  0  0  0  0  0
  -25.9083  -34.9436   23.5089 C   0  0  0  0  0  0
  -16.5365  -29.9087   23.6338 C   0  0  0  0  0  0
  -16.7288  -28.6501   23.0366 C   0  0  0  0  0  0
  -26.4516  -31.6582   25.0728 C   0  0  0  0  0  0
  -25.3733  -31.3741   26.1447 C   0  0  0  0  0  0
  -27.0369  -30.2983   24.6272 C   0  0  0  0  0  0
  -27.6074  -32.4322   25.7493 C   0  0  0  0  0  0
  -27.5649  -37.1664   24.8376 C   0  0  0  0  0  0
  -21.4224  -29.3052   22.3634 N   0  0  0  0  0  0
  -26.4216  -37.3818   23.9547 N   0  0  0  0  0  0
  -24.7039  -31.0445   22.0968 N   0  0  0  0  0  0
  -23.4198  -28.8140   23.3013 O   0  0  0  0  0  0
  -28.2974  -26.2934   20.2294 O   0  0  0  0  0  0
  -26.5669  -34.8927   22.4670 O   0  0  0  0  0  0
  -23.5494  -32.1378   23.7233 O   0  0  0  0  0  0
  -29.2430  -18.4978   21.0180 C   0  0  0  0  0  0
  -30.9872  -17.8784   19.6069 C   0  0  0  0  0  0
  -30.0360  -17.3789   20.4650 C   0  0  0  0  0  0
  -29.6037  -19.8080   20.6175 C   0  0  0  0  0  0
  -28.5576  -23.7337   21.0563 C   0  0  0  0  0  0
  -29.1635  -21.1756   21.1373 C   0  0  0  0  0  0
  -28.8790  -24.2044   18.7655 C   0  0  0  0  0  0
  -29.0469  -22.6657   19.0184 C   0  0  0  0  0  0
  -28.1217  -24.7948   19.9683 C   0  0  2  0  0  0
  -28.9588  -22.4136   20.4698 N   0  0  0  0  0  0
  -29.8331  -15.9158   20.7366 N   0  0  0  0  0  0
  -28.9667  -21.1566   22.4684 N   0  3  0  0  0  0
  -28.4859  -23.9337   22.2790 O   0  0  0  0  0  0
  -30.9234  -19.6439   19.4730 S   0  0  0  0  0  0
  -31.4740  -12.6001   19.1766 H   0  0  0  0  0  0
  -30.3841  -11.5037   19.9762 H   0  0  0  0  0  0
  -29.7974  -11.7360   17.5335 H   0  0  0  0  0  0
  -29.6266  -13.4630   17.7236 H   0  0  0  0  0  0
  -27.9068  -11.2781   18.9339 H   0  0  0  0  0  0
  -27.3806  -12.5011   17.8091 H   0  0  0  0  0  0
  -27.6319  -14.2512   19.4605 H   0  0  0  0  0  0
  -28.7291  -12.1850   21.4343 H   0  0  0  0  0  0
  -28.4140  -13.8613   21.8008 H   0  0  0  0  0  0
  -25.2785   -9.5669   22.4742 H   0  0  0  0  0  0
  -24.0018   -7.4627   22.7461 H   0  0  0  0  0  0
  -21.0846   -8.8769   19.8937 H   0  0  0  0  0  0
  -22.3705  -10.9674   19.6164 H   0  0  0  0  0  0
  -21.1998   -7.6153   23.9716 H   0  0  0  0  0  0
  -21.1491   -6.0528   25.9081 H   0  0  0  0  0  0
  -22.0596   -2.7603   23.2850 H   0  0  0  0  0  0
  -22.4139  -11.9867   22.4811 H   0  0  0  0  0  0
  -21.1090  -13.1190   22.2654 H   0  0  0  0  0  0
  -24.6530  -15.8456   20.5210 H   0  0  0  0  0  0
  -26.2638  -15.6289   20.0634 H   0  0  0  0  0  0
  -26.7233  -32.5364   23.1048 H   0  0  0  0  0  0
  -25.0081  -33.9677   25.0365 H   0  0  0  0  0  0
  -22.7329  -31.2993   21.3921 H   0  0  0  0  0  0
  -23.3873  -35.9441   23.2963 H   0  0  0  0  0  0
  -24.3673  -36.9201   22.2094 H   0  0  0  0  0  0
  -23.7034  -37.6267   23.6829 H   0  0  0  0  0  0
  -26.1384  -31.5092   20.6218 H   0  0  0  0  0  0
  -26.8564  -30.7903   22.0299 H   0  0  0  0  0  0
  -28.1138  -28.8655   21.2383 H   0  0  0  0  0  0
  -25.9281  -25.9317   18.9241 H   0  0  0  0  0  0
  -23.9769  -27.3273   18.9686 H   0  0  0  0  0  0
  -23.7870  -30.5883   19.4017 H   0  0  0  0  0  0
  -22.7710  -29.2513   19.8462 H   0  0  0  0  0  0
  -25.1220  -36.1833   25.0792 H   0  0  0  0  0  0
  -20.9999  -28.3294   24.1374 H   0  0  0  0  0  0
  -20.5674  -26.2319   23.3617 H   0  0  0  0  0  0
  -21.6652  -26.7431   22.1214 H   0  0  0  0  0  0
  -19.6920  -25.6290   21.1254 H   0  0  0  0  0  0
  -19.6696  -27.3181   20.6726 H   0  0  0  0  0  0
  -17.4206  -26.6686   21.4027 H   0  0  0  0  0  0
  -18.0340  -26.0078   22.9012 H   0  0  0  0  0  0
  -19.7949  -30.7286   24.2261 H   0  0  0  0  0  0
  -17.5026  -31.6275   24.5158 H   0  0  0  0  0  0
  -15.5367  -30.2987   23.7662 H   0  0  0  0  0  0
  -15.8684  -28.0812   22.7099 H   0  0  0  0  0  0
  -24.5891  -30.7116   25.7763 H   0  0  0  0  0  0
  -24.8951  -32.2918   26.4879 H   0  0  0  0  0  0
  -25.8044  -30.8895   27.0217 H   0  0  0  0  0  0
  -26.2967  -29.6715   24.1288 H   0  0  0  0  0  0
  -27.4005  -29.7268   25.4821 H   0  0  0  0  0  0
  -27.8871  -30.4222   23.9561 H   0  0  0  0  0  0
  -27.2685  -33.3605   26.2097 H   0  0  0  0  0  0
  -28.3862  -32.6913   25.0312 H   0  0  0  0  0  0
  -28.0776  -31.8442   26.5387 H   0  0  0  0  0  0
  -28.2279  -38.0321   24.8063 H   0  0  0  0  0  0
  -28.1528  -36.2968   24.5394 H   0  0  0  0  0  0
  -27.2513  -37.0297   25.8741 H   0  0  0  0  0  0
  -20.9415  -29.8763   21.6825 H   0  0  0  0  0  0
  -26.0065  -38.2781   24.1945 H   0  0  0  0  0  0
  -28.4512  -18.3077   21.7275 H   0  0  0  0  0  0
  -31.7253  -17.3331   19.0295 H   0  0  0  0  0  0
  -28.3367  -24.3883   17.8385 H   0  0  0  0  0  0
  -29.8565  -24.6768   18.6661 H   0  0  0  0  0  0
  -29.9950  -22.3076   18.6199 H   0  0  0  0  0  0
  -28.2505  -22.1038   18.5304 H   0  0  0  0  0  0
  -27.0697  -24.5473   19.8617 H   0  0  0  0  0  0
  -28.9293  -15.6855   21.1225 H   0  0  0  0  0  0
  -29.1639  -20.3302   23.0107 H   0  0  0  0  0  0
  -28.7105  -22.0064   22.9597 H   0  0  0  0  0  0
  1 25  1  0  0  0
  1 30  2  0  0  0
  1 81  1  0  0  0
  2  3  1  0  0  0
  2 25  1  0  0  0
  2 85  1  0  0  0
  2 86  1  0  0  0
  3  4  1  0  0  0
  3 87  1  0  0  0
  3 88  1  0  0  0
  4  5  1  0  0  0
  4 89  1  0  0  0
  4 90  1  0  0  0
  5  6  1  0  0  0
  5 26  1  0  0  0
  5 91  1  0  0  0
  6 25  1  0  0  0
  6 92  1  0  0  0
  6 93  1  0  0  0
  7  8  2  0  0  0
  7 26  1  0  0  0
  7 29  1  0  0  0
  8  9  1  0  0  0
  8 22  1  0  0  0
  9 10  1  0  0  0
  9 27  2  0  0  0
 10 11  2  0  0  0
 10 15  1  0  0  0
 11 12  1  0  0  0
 11 94  1  0  0  0
 12 13  2  0  0  0
 12 95  1  0  0  0
 13 14  1  0  0  0
 13 31  1  0  0  0
 14 15  2  0  0  0
 14 96  1  0  0  0
 15 97  1  0  0  0
 16 17  2  0  0  0
 16 21  1  0  0  0
 16 31  1  0  0  0
 17 18  1  0  0  0
 17 98  1  0  0  0
 18 19  2  0  0  0
 18 99  1  0  0  0
 19 20  1  0  0  0
 19 24  1  0  0  0
 20 21  2  0  0  0
 20100  1  0  0  0
 21 23  1  0  0  0
 22 28  1  0  0  0
 22 32  2  0  0  0
 26 27  1  0  0  0
 28101  1  0  0  0
 28102  1  0  0  0
 29103  1  0  0  0
 29104  1  0  0  0
 33 34  1  0  0  0
 33 66  1  0  0  0
 33 70  2  0  0  0
 34 36  1  0  0  0
 34 59  1  0  0  0
 34105  1  0  0  0
 35 44  2  0  0  0
 35 45  1  0  0  0
 35 68  1  0  0  0
 36 56  1  0  0  0
 36106  1  0  0  0
 37 39  1  0  0  0
 37 47  1  0  0  0
 37 66  1  0  0  0
 37107  1  0  0  0
 38 43  2  0  0  0
 38 46  1  0  0  0
 38 47  1  0  0  0
 39 64  1  0  0  0
 39 67  2  0  0  0
 40 52  1  0  0  0
 40 53  2  0  0  0
 40 58  1  0  0  0
 41108  1  0  0  0
 41109  1  0  0  0
 41110  1  0  0  0
 41 48  1  0  0  0
 42 43  1  0  0  0
 42 66  1  0  0  0
 42111  1  0  0  0
 42112  1  0  0  0
 43 44  1  0  0  0
 44113  1  0  0  0
 45 46  2  0  0  0
 45114  1  0  0  0
 46115  1  0  0  0
 47116  1  0  0  0
 47117  1  0  0  0
 48 56  1  0  0  0
 48 65  1  0  0  0
 48118  1  0  0  0
 49 50  1  0  0  0
 49 53  1  0  0  0
 49 64  1  0  0  0
 49119  1  0  0  0
 50 51  1  0  0  0
 50120  1  0  0  0
 50121  1  0  0  0
 51 52  1  0  0  0
 51122  1  0  0  0
 51123  1  0  0  0
 52124  1  0  0  0
 52125  1  0  0  0
 53 54  1  0  0  0
 54 55  2  0  0  0
 54126  1  0  0  0
 55 57  1  0  0  0
 55127  1  0  0  0
 56 69  2  0  0  0
 57 58  2  0  0  0
 57128  1  0  0  0
 58129  1  0  0  0
 59 60  1  0  0  0
 59 61  1  0  0  0
 59 62  1  0  0  0
 60130  1  0  0  0
 60131  1  0  0  0
 60132  1  0  0  0
 61133  1  0  0  0
 61134  1  0  0  0
 61135  1  0  0  0
 62136  1  0  0  0
 62137  1  0  0  0
 62138  1  0  0  0
 63 65  1  0  0  0
 63139  1  0  0  0
 63140  1  0  0  0
 63141  1  0  0  0
 64142  1  0  0  0
 65143  1  0  0  0
 68 79  1  0  0  0
 71 73  1  0  0  0
 71 74  2  0  0  0
 71144  1  0  0  0
 72 73  2  0  0  0
 72 84  1  0  0  0
 72145  1  0  0  0
 73 81  1  0  0  0
 74 76  1  0  0  0
 74 84  1  0  0  0
 75 79  1  0  0  0
 75 80  1  0  0  0
 75 83  2  0  0  0
 76 80  1  0  0  0
 76 82  2  0  0  0
 77 78  1  0  0  0
 77 79  1  0  0  0
 77146  1  0  0  0
 77147  1  0  0  0
 78 80  1  0  0  0
 78148  1  0  0  0
 78149  1  0  0  0
 79150  1  0  0  0
 81151  1  0  0  0
 82152  1  0  0  0
 82153  1  0  0  0
M  CHG  1  82   1
M  ISO  4   1 100  68 101  79 101  81 100
M  END
> <chiral flag>
0

> <version>
0

> <s_m_source_file>
/data/baiqing/PycharmProjects/Reinvent-master-3.2/result/LINK_invent/BTK/process_docking_weight1_custom_product_contain_oxygen_bond_distance_aromatic_linkinvent_7_9_3/rearranged_h_0153.sdf

> <i_m_source_file_index>
91

> <r_mmod_Potential_Energy-OPLS-2005>
167.29753112793

> <r_mmod_Stretch_Energy-OPLS-2005>
143.683639526367

> <r_mmod_Bend_Energy-OPLS-2005>
221.305541992188

> <r_mmod_Torsional_Energy-OPLS-2005>
247.180450439453

> <r_mmod_Improper_Torsional_Energy-OPLS-2005>
5.04527902603149

> <r_mmod_Van_der_Waal_Energy-OPLS-2005>
122.598922729492

> <r_mmod_Electrostatic_Energy-OPLS-2005>
-216.656661987305

> <r_mmod_Solvation_Energy-OPLS-2005>
-464.477172851562

> <b_mmod_Minimization_Converged-OPLS-2005>
0

> <r_mmod_RMS_Derivative-OPLS-2005>
1.80706918239594

$$$$
91
                    3D
 Structure written by MMmdl.
151160  0  0  1  0            999 V2000
  -30.6922  -14.5087   20.5646 C   0  0  0  0  0  0
  -30.4240  -12.3300   19.4263 C   0  0  0  0  0  0
  -29.4943  -12.5036   18.2076 C   0  0  0  0  0  0
  -28.0168  -12.3580   18.6223 C   0  0  0  0  0  0
  -27.6575  -13.2097   19.8694 C   0  0  2  0  0  0
  -28.7005  -13.0157   20.9926 C   0  0  0  0  0  0
  -25.2575  -13.8165   20.5681 C   0  0  0  0  0  0
  -24.1831  -13.0439   20.9179 C   0  0  0  0  0  0
  -24.6389  -11.6907   20.8736 C   0  0  0  0  0  0
  -23.9057  -10.4292   21.0405 C   0  0  0  0  0  0
  -24.3612   -9.4208   21.9183 C   0  0  0  0  0  0
  -23.6289   -8.2244   22.0754 C   0  0  0  0  0  0
  -22.4271   -8.0280   21.3544 C   0  0  0  0  0  0
  -21.9905   -9.0253   20.4647 C   0  0  0  0  0  0
  -22.7231  -10.2133   20.3055 C   0  0  0  0  0  0
  -21.6853   -6.0734   22.5279 C   0  0  0  0  0  0
  -21.4014   -6.5639   23.8212 C   0  0  0  0  0  0
  -21.3659   -5.6793   24.9175 C   0  0  0  0  0  0
  -21.6044   -4.3055   24.7226 C   0  0  0  0  0  0
  -21.8819   -3.8147   23.4347 C   0  0  0  0  0  0
  -21.9192   -4.6962   22.3403 C   0  0  0  0  0  0
  -22.7854  -13.5237   21.1845 C   0  0  0  0  0  0
  -22.1661   -4.2148   21.0981 F   0  0  0  0  0  0
  -21.5629   -3.4539   25.7739 F   0  0  0  0  0  0
  -30.0254  -13.3276   20.4330 N   0  0  0  0  0  0
  -26.3005  -12.9338   20.3347 N   0  0  0  0  0  0
  -25.9315  -11.6496   20.5763 N   0  0  0  0  0  0
  -22.0496  -12.8230   22.0403 N   0  0  0  0  0  0
  -25.4299  -15.1885   20.4094 N   0  0  0  0  0  0
  -31.8315  -14.6781   20.1210 O   0  0  0  0  0  0
  -21.6638   -6.8876   21.4240 O   0  0  0  0  0  0
  -22.3539  -14.5545   20.6696 O   0  0  0  0  0  0
  -24.6172  -31.8661   23.2083 C   0  0  0  0  0  0
  -25.9054  -32.4815   23.8388 C   0  0  1  0  0  0
  -27.2308  -27.4099   20.1050 C   0  0  0  0  0  0
  -25.5901  -33.8614   24.2318 N   0  0  0  0  0  0
  -23.4070  -30.4892   21.5492 C   0  0  2  0  0  0
  -24.8547  -28.9521   20.1148 C   0  0  0  0  0  0
  -22.7425  -29.4651   22.4978 C   0  0  0  0  0  0
  -18.0275  -28.1377   22.8494 C   0  0  0  0  0  0
  -24.1487  -36.7313   23.2638 C   0  0  0  0  0  0
  -25.9386  -30.8248   21.3653 C   0  0  0  0  0  0
  -26.0172  -29.4571   20.7128 C   0  0  0  0  0  0
  -27.2119  -28.6942   20.7031 C   0  0  0  0  0  0
  -26.0528  -26.9270   19.4974 C   0  0  0  0  0  0
  -24.8683  -27.6870   19.5025 C   0  0  0  0  0  0
  -23.6175  -29.8214   20.1642 C   0  0  0  0  0  0
  -25.4108  -36.3108   24.0336 C   0  0  1  0  0  0
  -20.5868  -28.3669   23.1311 C   0  0  2  0  0  0
  -20.6765  -26.9402   22.5416 C   0  0  0  0  0  0
  -19.5744  -26.6385   21.5213 C   0  0  0  0  0  0
  -18.1923  -26.7923   22.1625 C   0  0  0  0  0  0
  -19.1525  -28.8839   23.2900 C   0  0  0  0  0  0
  -18.9452  -30.1445   23.8911 C   0  0  0  0  0  0
  -17.6454  -30.6584   24.0565 C   0  0  0  0  0  0
  -25.9036  -34.9473   23.5125 C   0  0  0  0  0  0
  -16.5345  -29.9086   23.6327 C   0  0  0  0  0  0
  -16.7264  -28.6502   23.0350 C   0  0  0  0  0  0
  -26.4474  -31.6598   25.0723 C   0  0  0  0  0  0
  -25.3736  -31.3705   26.1470 C   0  0  0  0  0  0
  -27.0306  -30.3039   24.6109 C   0  0  0  0  0  0
  -27.6050  -32.4317   25.7485 C   0  0  0  0  0  0
  -27.5580  -37.1811   24.8465 C   0  0  0  0  0  0
  -21.4149  -29.3035   22.3716 N   0  0  0  0  0  0
  -26.4294  -37.3793   23.9407 N   0  0  0  0  0  0
  -24.6726  -31.0744   22.0994 N   0  0  0  0  0  0
  -23.4185  -28.8194   23.3031 O   0  0  0  0  0  0
  -28.3637  -26.6183   20.0995 O   0  0  0  0  0  0
  -26.5602  -34.8926   22.4689 O   0  0  0  0  0  0
  -23.5358  -32.1420   23.7464 O   0  0  0  0  0  0
  -29.1563  -20.0385   21.9571 C   0  0  0  0  0  0
  -29.4697  -18.6524   21.9461 C   0  0  0  0  0  0
  -29.7786  -18.0641   20.6797 C   0  0  0  0  0  0
  -29.3947  -20.5999   20.7049 C   0  0  0  0  0  0
  -28.2379  -25.3617   20.6707 C   0  0  0  0  0  0
  -28.8585  -24.2412   20.2221 C   0  0  0  0  0  0
  -28.6687  -22.9520   20.9179 C   0  0  0  0  0  0
  -29.9662  -17.4847   22.7277 C   0  0  0  0  0  0
  -30.4924  -16.9014   21.3376 C   0  0  1  0  0  0
  -29.2941  -21.9125   20.3140 N   0  0  0  0  0  0
  -29.9883  -15.5343   21.0905 N   0  0  0  0  0  0
  -27.9990  -22.8150   21.9454 O   0  0  0  0  0  0
  -29.6491  -24.3095   19.1389 O   0  0  0  0  0  0
  -30.1156  -19.3846   19.5910 S   0  0  0  0  0  0
  -31.4675  -12.4343   19.1237 H   0  0  0  0  0  0
  -30.3336  -11.3241   19.8390 H   0  0  0  0  0  0
  -29.7401  -11.7701   17.4387 H   0  0  0  0  0  0
  -29.6544  -13.4845   17.7571 H   0  0  0  0  0  0
  -27.8358  -11.3029   18.8309 H   0  0  0  0  0  0
  -27.3638  -12.6175   17.7883 H   0  0  0  0  0  0
  -27.6936  -14.2537   19.5572 H   0  0  0  0  0  0
  -28.6867  -11.9854   21.3512 H   0  0  0  0  0  0
  -28.4589  -13.6304   21.8608 H   0  0  0  0  0  0
  -25.2758   -9.5685   22.4755 H   0  0  0  0  0  0
  -24.0000   -7.4635   22.7472 H   0  0  0  0  0  0
  -21.0837   -8.8770   19.8953 H   0  0  0  0  0  0
  -22.3689  -10.9671   19.6163 H   0  0  0  0  0  0
  -21.2006   -7.6147   23.9715 H   0  0  0  0  0  0
  -21.1481   -6.0523   25.9077 H   0  0  0  0  0  0
  -22.0599   -2.7608   23.2848 H   0  0  0  0  0  0
  -22.4110  -11.9890   22.4790 H   0  0  0  0  0  0
  -21.1116  -13.1259   22.2613 H   0  0  0  0  0  0
  -24.6646  -15.8449   20.5189 H   0  0  0  0  0  0
  -26.2829  -15.6279   20.0864 H   0  0  0  0  0  0
  -26.7127  -32.5521   23.1153 H   0  0  0  0  0  0
  -25.0057  -33.9775   25.0466 H   0  0  0  0  0  0
  -22.6971  -31.3069   21.4087 H   0  0  0  0  0  0
  -23.3745  -35.9651   23.3313 H   0  0  0  0  0  0
  -24.3581  -36.8916   22.2051 H   0  0  0  0  0  0
  -23.7245  -37.6524   23.6646 H   0  0  0  0  0  0
  -26.0535  -31.5899   20.5962 H   0  0  0  0  0  0
  -26.8252  -30.8786   21.9851 H   0  0  0  0  0  0
  -28.1101  -29.0768   21.1672 H   0  0  0  0  0  0
  -26.0514  -25.9546   19.0252 H   0  0  0  0  0  0
  -23.9756  -27.2926   19.0369 H   0  0  0  0  0  0
  -23.7276  -30.5964   19.4049 H   0  0  0  0  0  0
  -22.7408  -29.2427   19.8675 H   0  0  0  0  0  0
  -25.1286  -36.1973   25.0829 H   0  0  0  0  0  0
  -20.9960  -28.3234   24.1431 H   0  0  0  0  0  0
  -20.5667  -26.2277   23.3605 H   0  0  0  0  0  0
  -21.6637  -26.7443   22.1208 H   0  0  0  0  0  0
  -19.6907  -25.6299   21.1235 H   0  0  0  0  0  0
  -19.6682  -27.3204   20.6749 H   0  0  0  0  0  0
  -17.4192  -26.6674   21.4026 H   0  0  0  0  0  0
  -18.0324  -26.0058   22.9014 H   0  0  0  0  0  0
  -19.7928  -30.7258   24.2286 H   0  0  0  0  0  0
  -17.5009  -31.6266   24.5163 H   0  0  0  0  0  0
  -15.5347  -30.2993   23.7642 H   0  0  0  0  0  0
  -15.8663  -28.0827   22.7058 H   0  0  0  0  0  0
  -24.5911  -30.7051   25.7805 H   0  0  0  0  0  0
  -24.8926  -32.2859   26.4924 H   0  0  0  0  0  0
  -25.8087  -30.8869   27.0225 H   0  0  0  0  0  0
  -26.2854  -29.6800   24.1158 H   0  0  0  0  0  0
  -27.4070  -29.7275   25.4570 H   0  0  0  0  0  0
  -27.8693  -30.4358   23.9267 H   0  0  0  0  0  0
  -27.2672  -33.3608   26.2089 H   0  0  0  0  0  0
  -28.3844  -32.6891   25.0301 H   0  0  0  0  0  0
  -28.0735  -31.8424   26.5377 H   0  0  0  0  0  0
  -28.2607  -38.0100   24.7507 H   0  0  0  0  0  0
  -28.1067  -36.2633   24.6297 H   0  0  0  0  0  0
  -27.2299  -37.1469   25.8869 H   0  0  0  0  0  0
  -20.9311  -29.8760   21.6940 H   0  0  0  0  0  0
  -26.0184  -38.2873   24.1402 H   0  0  0  0  0  0
  -28.9079  -20.5784   22.8602 H   0  0  0  0  0  0
  -27.5824  -25.3693   21.5335 H   0  0  0  0  0  0
  -29.1643  -16.9116   23.1947 H   0  0  0  0  0  0
  -30.7605  -17.7320   23.4326 H   0  0  0  0  0  0
  -31.5756  -17.0058   21.2450 H   0  0  0  0  0  0
  -29.7497  -22.1694   19.4471 H   0  0  0  0  0  0
  -29.0446  -15.3313   21.3809 H   0  0  0  0  0  0
  -29.6386  -25.2142   18.8518 H   0  0  0  0  0  0
  1 25  1  0  0  0
  1 30  2  0  0  0
  1 81  1  0  0  0
  2  3  1  0  0  0
  2 25  1  0  0  0
  2 85  1  0  0  0
  2 86  1  0  0  0
  3  4  1  0  0  0
  3 87  1  0  0  0
  3 88  1  0  0  0
  4  5  1  0  0  0
  4 89  1  0  0  0
  4 90  1  0  0  0
  5  6  1  0  0  0
  5 26  1  0  0  0
  5 91  1  0  0  0
  6 25  1  0  0  0
  6 92  1  0  0  0
  6 93  1  0  0  0
  7  8  2  0  0  0
  7 26  1  0  0  0
  7 29  1  0  0  0
  8  9  1  0  0  0
  8 22  1  0  0  0
  9 10  1  0  0  0
  9 27  2  0  0  0
 10 11  2  0  0  0
 10 15  1  0  0  0
 11 12  1  0  0  0
 11 94  1  0  0  0
 12 13  2  0  0  0
 12 95  1  0  0  0
 13 14  1  0  0  0
 13 31  1  0  0  0
 14 15  2  0  0  0
 14 96  1  0  0  0
 15 97  1  0  0  0
 16 17  2  0  0  0
 16 21  1  0  0  0
 16 31  1  0  0  0
 17 18  1  0  0  0
 17 98  1  0  0  0
 18 19  2  0  0  0
 18 99  1  0  0  0
 19 20  1  0  0  0
 19 24  1  0  0  0
 20 21  2  0  0  0
 20100  1  0  0  0
 21 23  1  0  0  0
 22 28  1  0  0  0
 22 32  2  0  0  0
 26 27  1  0  0  0
 28101  1  0  0  0
 28102  1  0  0  0
 29103  1  0  0  0
 29104  1  0  0  0
 33 34  1  0  0  0
 33 66  1  0  0  0
 33 70  2  0  0  0
 34 36  1  0  0  0
 34 59  1  0  0  0
 34105  1  0  0  0
 35 44  2  0  0  0
 35 45  1  0  0  0
 35 68  1  0  0  0
 36 56  1  0  0  0
 36106  1  0  0  0
 37 39  1  0  0  0
 37 47  1  0  0  0
 37 66  1  0  0  0
 37107  1  0  0  0
 38 43  2  0  0  0
 38 46  1  0  0  0
 38 47  1  0  0  0
 39 64  1  0  0  0
 39 67  2  0  0  0
 40 52  1  0  0  0
 40 53  2  0  0  0
 40 58  1  0  0  0
 41108  1  0  0  0
 41109  1  0  0  0
 41110  1  0  0  0
 41 48  1  0  0  0
 42 43  1  0  0  0
 42 66  1  0  0  0
 42111  1  0  0  0
 42112  1  0  0  0
 43 44  1  0  0  0
 44113  1  0  0  0
 45 46  2  0  0  0
 45114  1  0  0  0
 46115  1  0  0  0
 47116  1  0  0  0
 47117  1  0  0  0
 48 56  1  0  0  0
 48 65  1  0  0  0
 48118  1  0  0  0
 49 50  1  0  0  0
 49 53  1  0  0  0
 49 64  1  0  0  0
 49119  1  0  0  0
 50 51  1  0  0  0
 50120  1  0  0  0
 50121  1  0  0  0
 51 52  1  0  0  0
 51122  1  0  0  0
 51123  1  0  0  0
 52124  1  0  0  0
 52125  1  0  0  0
 53 54  1  0  0  0
 54 55  2  0  0  0
 54126  1  0  0  0
 55 57  1  0  0  0
 55127  1  0  0  0
 56 69  2  0  0  0
 57 58  2  0  0  0
 57128  1  0  0  0
 58129  1  0  0  0
 59 60  1  0  0  0
 59 61  1  0  0  0
 59 62  1  0  0  0
 60130  1  0  0  0
 60131  1  0  0  0
 60132  1  0  0  0
 61133  1  0  0  0
 61134  1  0  0  0
 61135  1  0  0  0
 62136  1  0  0  0
 62137  1  0  0  0
 62138  1  0  0  0
 63 65  1  0  0  0
 63139  1  0  0  0
 63140  1  0  0  0
 63141  1  0  0  0
 64142  1  0  0  0
 65143  1  0  0  0
 68 75  1  0  0  0
 71 72  1  0  0  0
 71 74  2  0  0  0
 71144  1  0  0  0
 72 73  2  0  0  0
 72 78  1  0  0  0
 73 79  1  0  0  0
 73 84  1  0  0  0
 74 80  1  0  0  0
 74 84  1  0  0  0
 75 76  2  0  0  0
 75145  1  0  0  0
 76 77  1  0  0  0
 76 83  1  0  0  0
 77 80  1  0  0  0
 77 82  2  0  0  0
 78 79  1  0  0  0
 78146  1  0  0  0
 78147  1  0  0  0
 79 81  1  0  0  0
 79148  1  0  0  0
 80149  1  0  0  0
 81150  1  0  0  0
 83151  1  0  0  0
M  ISO  4   1 100  68 101  75 101  81 100
M  END
> <chiral flag>
0

> <version>
0

> <s_m_source_file>
/data/baiqing/PycharmProjects/Reinvent-master-3.2/result/LINK_invent/BTK/process_docking_weight1_custom_product_contain_oxygen_bond_distance_aromatic_linkinvent_7_9_3/rearranged_h_0153.sdf

> <i_m_source_file_index>
92

> <r_mmod_Potential_Energy-OPLS-2005>
279.849639892578

> <r_mmod_Stretch_Energy-OPLS-2005>
55.8585014343262

> <r_mmod_Bend_Energy-OPLS-2005>
468.92138671875

> <r_mmod_Torsional_Energy-OPLS-2005>
249.861450195312

> <r_mmod_Improper_Torsional_Energy-OPLS-2005>
36.1009864807129

> <r_mmod_Van_der_Waal_Energy-OPLS-2005>
133.776290893555

> <r_mmod_Electrostatic_Energy-OPLS-2005>
-461.495056152344

> <r_mmod_Solvation_Energy-OPLS-2005>
-220.970687866211

> <b_mmod_Minimization_Converged-OPLS-2005>
0

> <r_mmod_RMS_Derivative-OPLS-2005>
0.171243786811829

$$$$
92
                    3D
 Structure written by MMmdl.
154163  0  0  1  0            999 V2000
  -30.4812  -14.9942   20.4222 C   0  0  0  0  0  0
  -30.4414  -12.6189   19.4972 C   0  0  0  0  0  0
  -29.5205  -12.5333   18.2566 C   0  0  0  0  0  0
  -28.0555  -12.3055   18.6762 C   0  0  0  0  0  0
  -27.6236  -13.2414   19.8344 C   0  0  2  0  0  0
  -28.6629  -13.2723   20.9723 C   0  0  0  0  0  0
  -25.2439  -13.8197   20.5682 C   0  0  0  0  0  0
  -24.1762  -13.0429   20.9223 C   0  0  0  0  0  0
  -24.6373  -11.6912   20.8768 C   0  0  0  0  0  0
  -23.9064  -10.4288   21.0423 C   0  0  0  0  0  0
  -24.3614   -9.4196   21.9195 C   0  0  0  0  0  0
  -23.6292   -8.2239   22.0759 C   0  0  0  0  0  0
  -22.4272   -8.0282   21.3550 C   0  0  0  0  0  0
  -21.9905   -9.0252   20.4642 C   0  0  0  0  0  0
  -22.7243  -10.2134   20.3060 C   0  0  0  0  0  0
  -21.6851   -6.0732   22.5281 C   0  0  0  0  0  0
  -21.4012   -6.5636   23.8215 C   0  0  0  0  0  0
  -21.3658   -5.6790   24.9176 C   0  0  0  0  0  0
  -21.6051   -4.3051   24.7230 C   0  0  0  0  0  0
  -21.8816   -3.8144   23.4348 C   0  0  0  0  0  0
  -21.9190   -4.6960   22.3404 C   0  0  0  0  0  0
  -22.7789  -13.5213   21.1888 C   0  0  0  0  0  0
  -22.1662   -4.2145   21.0980 F   0  0  0  0  0  0
  -21.5626   -3.4536   25.7743 F   0  0  0  0  0  0
  -29.9271  -13.7132   20.3702 N   0  0  0  0  0  0
  -26.2843  -12.9410   20.3207 N   0  0  0  0  0  0
  -25.9299  -11.6553   20.5729 N   0  0  0  0  0  0
  -22.0428  -12.8210   22.0436 N   0  0  0  0  0  0
  -25.4101  -15.1929   20.4083 N   0  0  0  0  0  0
  -31.6947  -15.0849   20.1964 O   0  0  0  0  0  0
  -21.6640   -6.8881   21.4244 O   0  0  0  0  0  0
  -22.3485  -14.5533   20.6742 O   0  0  0  0  0  0
  -24.6487  -31.8378   23.1785 C   0  0  0  0  0  0
  -25.9243  -32.4645   23.8215 C   0  0  1  0  0  0
  -27.2215  -27.0863   20.1657 C   0  0  0  0  0  0
  -25.5984  -33.8456   24.2146 N   0  0  0  0  0  0
  -23.4550  -30.4516   21.5258 C   0  0  2  0  0  0
  -24.9032  -28.8557   20.1196 C   0  0  0  0  0  0
  -22.7600  -29.4520   22.4840 C   0  0  0  0  0  0
  -18.0323  -28.1390   22.8442 C   0  0  0  0  0  0
  -24.1507  -36.7227   23.2643 C   0  0  0  0  0  0
  -26.0132  -30.6932   21.3847 C   0  0  0  0  0  0
  -26.0823  -29.2973   20.7329 C   0  0  0  0  0  0
  -27.2442  -28.4311   20.7290 C   0  0  0  0  0  0
  -26.0122  -26.7436   19.5277 C   0  0  0  0  0  0
  -24.8819  -27.5936   19.5034 C   0  0  0  0  0  0
  -23.6837  -29.7660   20.1513 C   0  0  0  0  0  0
  -25.4132  -36.2997   24.0325 C   0  0  1  0  0  0
  -20.5934  -28.3727   23.1212 C   0  0  2  0  0  0
  -20.6819  -26.9426   22.5398 C   0  0  0  0  0  0
  -19.5806  -26.6373   21.5196 C   0  0  0  0  0  0
  -18.1976  -26.7920   22.1600 C   0  0  0  0  0  0
  -19.1579  -28.8878   23.2811 C   0  0  0  0  0  0
  -18.9500  -30.1462   23.8844 C   0  0  0  0  0  0
  -17.6499  -30.6584   24.0546 C   0  0  0  0  0  0
  -25.9094  -34.9382   23.5038 C   0  0  0  0  0  0
  -16.5390  -29.9072   23.6338 C   0  0  0  0  0  0
  -16.7312  -28.6502   23.0334 C   0  0  0  0  0  0
  -26.4545  -31.6528   25.0673 C   0  0  0  0  0  0
  -25.3716  -31.3749   26.1359 C   0  0  0  0  0  0
  -27.0431  -30.2931   24.6281 C   0  0  0  0  0  0
  -27.6062  -32.4308   25.7453 C   0  0  0  0  0  0
  -27.5580  -37.1763   24.8470 C   0  0  0  0  0  0
  -21.4288  -29.3043   22.3578 N   0  0  0  0  0  0
  -26.4289  -37.3715   23.9417 N   0  0  0  0  0  0
  -24.7256  -31.0188   22.0842 N   0  0  0  0  0  0
  -23.4206  -28.8087   23.3025 O   0  0  0  0  0  0
  -28.3094  -26.1304   20.1176 O   0  0  0  0  0  0
  -26.5666  -34.8894   22.4609 O   0  0  0  0  0  0
  -23.5603  -32.1283   23.6998 O   0  0  0  0  0  0
  -30.6310  -19.8272   21.0507 C   0  0  0  0  0  0
  -30.7909  -18.3623   21.0509 C   0  0  0  0  0  0
  -29.4851  -20.4098   20.5050 C   0  0  0  0  0  0
  -29.7673  -17.5884   20.5329 C   0  0  0  0  0  0
  -28.0367  -23.1321   20.1077 C   0  0  0  0  0  0
  -29.9063  -24.3594   20.8743 C   0  0  0  0  0  0
  -29.3045  -22.0640   20.2288 C   0  0  1  0  0  0
  -28.3883  -24.6617   20.7034 C   0  0  2  0  0  0
  -27.7437  -24.8128   22.0931 C   0  0  0  0  0  0
  -29.6242  -16.1428   20.4748 N   0  0  0  0  0  0
  -30.1481  -22.8949   21.1173 N   0  3  0  0  0  0
  -28.5563  -18.8991   20.0135 S   0  0  0  0  0  0
  -31.4717  -12.7995   19.1873 H   0  0  0  0  0  0
  -30.4545  -11.6700   20.0362 H   0  0  0  0  0  0
  -29.8492  -11.7307   17.5949 H   0  0  0  0  0  0
  -29.5952  -13.4563   17.6803 H   0  0  0  0  0  0
  -27.9628  -11.2659   18.9922 H   0  0  0  0  0  0
  -27.3897  -12.4225   17.8204 H   0  0  0  0  0  0
  -27.5822  -14.2402   19.4005 H   0  0  0  0  0  0
  -28.7635  -12.2913   21.4396 H   0  0  0  0  0  0
  -28.3541  -13.9594   21.7622 H   0  0  0  0  0  0
  -25.2750   -9.5680   22.4776 H   0  0  0  0  0  0
  -23.9995   -7.4628   22.7481 H   0  0  0  0  0  0
  -21.0837   -8.8774   19.8951 H   0  0  0  0  0  0
  -22.3696  -10.9674   19.6176 H   0  0  0  0  0  0
  -21.2006   -7.6142   23.9718 H   0  0  0  0  0  0
  -21.1484   -6.0518   25.9079 H   0  0  0  0  0  0
  -22.0596   -2.7606   23.2851 H   0  0  0  0  0  0
  -22.4046  -11.9863   22.4810 H   0  0  0  0  0  0
  -21.1058  -13.1259   22.2669 H   0  0  0  0  0  0
  -24.6314  -15.8358   20.5001 H   0  0  0  0  0  0
  -26.2397  -15.6316   20.0327 H   0  0  0  0  0  0
  -26.7295  -32.5215   23.0919 H   0  0  0  0  0  0
  -25.0144  -33.9547   25.0308 H   0  0  0  0  0  0
  -22.7619  -31.2787   21.3598 H   0  0  0  0  0  0
  -23.3782  -35.9547   23.3282 H   0  0  0  0  0  0
  -24.3604  -36.8881   22.2061 H   0  0  0  0  0  0
  -23.7257  -37.6413   23.6699 H   0  0  0  0  0  0
  -26.1773  -31.4426   20.6083 H   0  0  0  0  0  0
  -26.8810  -30.7423   22.0316 H   0  0  0  0  0  0
  -28.1529  -28.7714   21.2062 H   0  0  0  0  0  0
  -25.9344  -25.7780   19.0476 H   0  0  0  0  0  0
  -23.9814  -27.2502   19.0125 H   0  0  0  0  0  0
  -23.8271  -30.5320   19.3884 H   0  0  0  0  0  0
  -22.7984  -29.2079   19.8415 H   0  0  0  0  0  0
  -25.1318  -36.1810   25.0820 H   0  0  0  0  0  0
  -21.0015  -28.3334   24.1338 H   0  0  0  0  0  0
  -20.5750  -26.2329   23.3619 H   0  0  0  0  0  0
  -21.6682  -26.7447   22.1176 H   0  0  0  0  0  0
  -19.6992  -25.6273   21.1248 H   0  0  0  0  0  0
  -19.6769  -27.3167   20.6705 H   0  0  0  0  0  0
  -17.4251  -26.6659   21.3989 H   0  0  0  0  0  0
  -18.0373  -26.0070   22.9007 H   0  0  0  0  0  0
  -19.7990  -30.7270   24.2214 H   0  0  0  0  0  0
  -17.5067  -31.6265   24.5146 H   0  0  0  0  0  0
  -15.5394  -30.2956   23.7697 H   0  0  0  0  0  0
  -15.8707  -28.0813   22.7056 H   0  0  0  0  0  0
  -24.5880  -30.7120   25.7670 H   0  0  0  0  0  0
  -24.8918  -32.2949   26.4719 H   0  0  0  0  0  0
  -25.7966  -30.8949   27.0186 H   0  0  0  0  0  0
  -26.3061  -29.6604   24.1313 H   0  0  0  0  0  0
  -27.4085  -29.7272   25.4860 H   0  0  0  0  0  0
  -27.8947  -30.4180   23.9583 H   0  0  0  0  0  0
  -27.2661  -33.3652   26.1929 H   0  0  0  0  0  0
  -28.3901  -32.6794   25.0288 H   0  0  0  0  0  0
  -28.0690  -31.8496   26.5438 H   0  0  0  0  0  0
  -28.2554  -38.0089   24.7505 H   0  0  0  0  0  0
  -28.1109  -36.2608   24.6300 H   0  0  0  0  0  0
  -27.2298  -37.1397   25.8872 H   0  0  0  0  0  0
  -20.9539  -29.8700   21.6678 H   0  0  0  0  0  0
  -26.0154  -38.2787   24.1420 H   0  0  0  0  0  0
  -31.4466  -20.4168   21.4422 H   0  0  0  0  0  0
  -31.6897  -17.9250   21.4627 H   0  0  0  0  0  0
  -27.1820  -22.7336   20.6568 H   0  0  0  0  0  0
  -27.7091  -23.1940   19.0705 H   0  0  0  0  0  0
  -30.3642  -24.9660   21.6558 H   0  0  0  0  0  0
  -30.4147  -24.6199   19.9434 H   0  0  0  0  0  0
  -29.7821  -22.1830   19.2560 H   0  0  0  0  0  0
  -27.8656  -23.9199   22.7053 H   0  0  0  0  0  0
  -26.6744  -25.0010   22.0058 H   0  0  0  0  0  0
  -28.1787  -25.6497   22.6412 H   0  0  0  0  0  0
  -28.6583  -15.8519   20.4566 H   0  0  0  0  0  0
  -29.9054  -22.6783   22.0711 H   0  0  0  0  0  0
  -31.1213  -22.6738   20.9869 H   0  0  0  0  0  0
  1 25  1  0  0  0
  1 30  2  0  0  0
  1 80  1  0  0  0
  2  3  1  0  0  0
  2 25  1  0  0  0
  2 83  1  0  0  0
  2 84  1  0  0  0
  3  4  1  0  0  0
  3 85  1  0  0  0
  3 86  1  0  0  0
  4  5  1  0  0  0
  4 87  1  0  0  0
  4 88  1  0  0  0
  5  6  1  0  0  0
  5 26  1  0  0  0
  5 89  1  0  0  0
  6 25  1  0  0  0
  6 90  1  0  0  0
  6 91  1  0  0  0
  7  8  2  0  0  0
  7 26  1  0  0  0
  7 29  1  0  0  0
  8  9  1  0  0  0
  8 22  1  0  0  0
  9 10  1  0  0  0
  9 27  2  0  0  0
 10 11  2  0  0  0
 10 15  1  0  0  0
 11 12  1  0  0  0
 11 92  1  0  0  0
 12 13  2  0  0  0
 12 93  1  0  0  0
 13 14  1  0  0  0
 13 31  1  0  0  0
 14 15  2  0  0  0
 14 94  1  0  0  0
 15 95  1  0  0  0
 16 17  2  0  0  0
 16 21  1  0  0  0
 16 31  1  0  0  0
 17 18  1  0  0  0
 17 96  1  0  0  0
 18 19  2  0  0  0
 18 97  1  0  0  0
 19 20  1  0  0  0
 19 24  1  0  0  0
 20 21  2  0  0  0
 20 98  1  0  0  0
 21 23  1  0  0  0
 22 28  1  0  0  0
 22 32  2  0  0  0
 26 27  1  0  0  0
 28 99  1  0  0  0
 28100  1  0  0  0
 29101  1  0  0  0
 29102  1  0  0  0
 33 34  1  0  0  0
 33 66  1  0  0  0
 33 70  2  0  0  0
 34 36  1  0  0  0
 34 59  1  0  0  0
 34103  1  0  0  0
 35 44  2  0  0  0
 35 45  1  0  0  0
 35 68  1  0  0  0
 36 56  1  0  0  0
 36104  1  0  0  0
 37 39  1  0  0  0
 37 47  1  0  0  0
 37 66  1  0  0  0
 37105  1  0  0  0
 38 43  2  0  0  0
 38 46  1  0  0  0
 38 47  1  0  0  0
 39 64  1  0  0  0
 39 67  2  0  0  0
 40 52  1  0  0  0
 40 53  2  0  0  0
 40 58  1  0  0  0
 41106  1  0  0  0
 41107  1  0  0  0
 41108  1  0  0  0
 41 48  1  0  0  0
 42 43  1  0  0  0
 42 66  1  0  0  0
 42109  1  0  0  0
 42110  1  0  0  0
 43 44  1  0  0  0
 44111  1  0  0  0
 45 46  2  0  0  0
 45112  1  0  0  0
 46113  1  0  0  0
 47114  1  0  0  0
 47115  1  0  0  0
 48 56  1  0  0  0
 48 65  1  0  0  0
 48116  1  0  0  0
 49 50  1  0  0  0
 49 53  1  0  0  0
 49 64  1  0  0  0
 49117  1  0  0  0
 50 51  1  0  0  0
 50118  1  0  0  0
 50119  1  0  0  0
 51 52  1  0  0  0
 51120  1  0  0  0
 51121  1  0  0  0
 52122  1  0  0  0
 52123  1  0  0  0
 53 54  1  0  0  0
 54 55  2  0  0  0
 54124  1  0  0  0
 55 57  1  0  0  0
 55125  1  0  0  0
 56 69  2  0  0  0
 57 58  2  0  0  0
 57126  1  0  0  0
 58127  1  0  0  0
 59 60  1  0  0  0
 59 61  1  0  0  0
 59 62  1  0  0  0
 60128  1  0  0  0
 60129  1  0  0  0
 60130  1  0  0  0
 61131  1  0  0  0
 61132  1  0  0  0
 61133  1  0  0  0
 62134  1  0  0  0
 62135  1  0  0  0
 62136  1  0  0  0
 63 65  1  0  0  0
 63137  1  0  0  0
 63138  1  0  0  0
 63139  1  0  0  0
 64140  1  0  0  0
 65141  1  0  0  0
 68 78  1  0  0  0
 71 72  1  0  0  0
 71 73  2  0  0  0
 71142  1  0  0  0
 72 74  2  0  0  0
 72143  1  0  0  0
 73 82  1  0  0  0
 73 77  1  0  0  0
 74 80  1  0  0  0
 74 82  1  0  0  0
 75 77  1  0  0  0
 75 78  1  0  0  0
 75144  1  0  0  0
 75145  1  0  0  0
 76 78  1  0  0  0
 76 81  1  0  0  0
 76146  1  0  0  0
 76147  1  0  0  0
 77 81  1  0  0  0
 77148  1  0  0  0
 78 79  1  0  0  0
 79149  1  0  0  0
 79150  1  0  0  0
 79151  1  0  0  0
 80152  1  0  0  0
 81153  1  0  0  0
 81154  1  0  0  0
M  CHG  1  81   1
M  ISO  4   1 100  68 101  78 101  80 100
M  END
> <chiral flag>
0

> <version>
0

> <s_m_source_file>
/data/baiqing/PycharmProjects/Reinvent-master-3.2/result/LINK_invent/BTK/process_docking_weight1_custom_product_contain_oxygen_bond_distance_aromatic_linkinvent_7_9_3/rearranged_h_0153.sdf

> <i_m_source_file_index>
93

> <r_mmod_Potential_Energy-OPLS-2005>
509.414916992188

> <r_mmod_Stretch_Energy-OPLS-2005>
277.263916015625

> <r_mmod_Bend_Energy-OPLS-2005>
384.846740722656

> <r_mmod_Torsional_Energy-OPLS-2005>
289.801055908203

> <r_mmod_Improper_Torsional_Energy-OPLS-2005>
7.51133441925049

> <r_mmod_Van_der_Waal_Energy-OPLS-2005>
103.50804901123

> <r_mmod_Electrostatic_Energy-OPLS-2005>
-319.819549560547

> <r_mmod_Solvation_Energy-OPLS-2005>
-459.384582519531

> <b_mmod_Minimization_Converged-OPLS-2005>
0

> <r_mmod_RMS_Derivative-OPLS-2005>
2.57333731651306

$$$$
93
                    3D
 Structure written by MMmdl.
153161  0  0  1  0            999 V2000
  -30.6468  -14.7295   20.4731 C   0  0  0  0  0  0
  -30.4210  -12.4521   19.4679 C   0  0  0  0  0  0
  -29.5015  -12.5046   18.2298 C   0  0  0  0  0  0
  -28.0280  -12.3336   18.6442 C   0  0  0  0  0  0
  -27.6374  -13.2360   19.8452 C   0  0  2  0  0  0
  -28.6829  -13.1827   20.9810 C   0  0  0  0  0  0
  -25.2493  -13.8196   20.5692 C   0  0  0  0  0  0
  -24.1804  -13.0440   20.9248 C   0  0  0  0  0  0
  -24.6388  -11.6914   20.8767 C   0  0  0  0  0  0
  -23.9071  -10.4288   21.0413 C   0  0  0  0  0  0
  -24.3619   -9.4202   21.9194 C   0  0  0  0  0  0
  -23.6294   -8.2239   22.0751 C   0  0  0  0  0  0
  -22.4282   -8.0281   21.3535 C   0  0  0  0  0  0
  -21.9918   -9.0257   20.4640 C   0  0  0  0  0  0
  -22.7243  -10.2138   20.3057 C   0  0  0  0  0  0
  -21.6857   -6.0737   22.5274 C   0  0  0  0  0  0
  -21.4012   -6.5638   23.8209 C   0  0  0  0  0  0
  -21.3655   -5.6787   24.9166 C   0  0  0  0  0  0
  -21.6043   -4.3053   24.7219 C   0  0  0  0  0  0
  -21.8824   -3.8147   23.4344 C   0  0  0  0  0  0
  -21.9190   -4.6960   22.3395 C   0  0  0  0  0  0
  -22.7823  -13.5219   21.1886 C   0  0  0  0  0  0
  -22.1668   -4.2139   21.0975 F   0  0  0  0  0  0
  -21.5619   -3.4540   25.7742 F   0  0  0  0  0  0
  -29.9805  -13.5265   20.3891 N   0  0  0  0  0  0
  -26.2906  -12.9411   20.3250 N   0  0  0  0  0  0
  -25.9319  -11.6551   20.5758 N   0  0  0  0  0  0
  -22.0460  -12.8200   22.0426 N   0  0  0  0  0  0
  -25.4153  -15.1911   20.4020 N   0  0  0  0  0  0
  -31.8488  -14.7440   20.1912 O   0  0  0  0  0  0
  -21.6647   -6.8881   21.4237 O   0  0  0  0  0  0
  -22.3506  -14.5510   20.6708 O   0  0  0  0  0  0
  -24.6286  -31.8546   23.1976 C   0  0  0  0  0  0
  -25.9111  -32.4754   23.8321 C   0  0  1  0  0  0
  -27.2169  -27.2781   20.1440 C   0  0  0  0  0  0
  -25.5916  -33.8551   24.2250 N   0  0  0  0  0  0
  -23.4243  -30.4767   21.5399 C   0  0  2  0  0  0
  -24.8717  -28.9181   20.1134 C   0  0  0  0  0  0
  -22.7483  -29.4587   22.4903 C   0  0  0  0  0  0
  -18.0284  -28.1387   22.8466 C   0  0  0  0  0  0
  -24.1483  -36.7281   23.2643 C   0  0  0  0  0  0
  -25.9659  -30.7789   21.3684 C   0  0  0  0  0  0
  -26.0409  -29.3987   20.7176 C   0  0  0  0  0  0
  -27.2196  -28.5925   20.7147 C   0  0  0  0  0  0
  -26.0303  -26.8489   19.5192 C   0  0  0  0  0  0
  -24.8700  -27.6515   19.5022 C   0  0  0  0  0  0
  -23.6425  -29.8065   20.1572 C   0  0  0  0  0  0
  -25.4117  -36.3067   24.0333 C   0  0  1  0  0  0
  -20.5880  -28.3674   23.1280 C   0  0  2  0  0  0
  -20.6761  -26.9389   22.5415 C   0  0  0  0  0  0
  -19.5743  -26.6377   21.5212 C   0  0  0  0  0  0
  -18.1926  -26.7929   22.1618 C   0  0  0  0  0  0
  -19.1539  -28.8851   23.2864 C   0  0  0  0  0  0
  -18.9465  -30.1450   23.8887 C   0  0  0  0  0  0
  -17.6469  -30.6583   24.0560 C   0  0  0  0  0  0
  -25.9056  -34.9441   23.5102 C   0  0  0  0  0  0
  -16.5354  -29.9083   23.6334 C   0  0  0  0  0  0
  -16.7274  -28.6504   23.0344 C   0  0  0  0  0  0
  -26.4495  -31.6583   25.0702 C   0  0  0  0  0  0
  -25.3729  -31.3730   26.1431 C   0  0  0  0  0  0
  -27.0346  -30.3017   24.6156 C   0  0  0  0  0  0
  -27.6043  -32.4328   25.7476 C   0  0  0  0  0  0
  -27.5577  -37.1780   24.8467 C   0  0  0  0  0  0
  -21.4189  -29.3031   22.3672 N   0  0  0  0  0  0
  -26.4278  -37.3780   23.9429 N   0  0  0  0  0  0
  -24.6924  -31.0542   22.0931 N   0  0  0  0  0  0
  -23.4203  -28.8123   23.2979 O   0  0  0  0  0  0
  -28.3343  -26.4264   20.1359 O   0  0  0  0  0  0
  -26.5631  -34.8916   22.4668 O   0  0  0  0  0  0
  -23.5444  -32.1358   23.7297 O   0  0  0  0  0  0
  -27.9468  -20.2813   20.2525 C   0  0  0  0  0  0
  -28.2277  -18.8461   20.3182 C   0  0  0  0  0  0
  -29.5380  -18.5051   20.6244 C   0  0  0  0  0  0
  -29.0031  -21.1195   20.5550 C   0  0  0  0  0  0
  -30.4056  -17.2124   20.7242 C   0  0  0  0  0  0
  -27.4341  -25.1107   22.0772 C   0  0  0  0  0  0
  -28.2740  -23.6648   20.0938 C   0  0  0  0  0  0
  -28.3518  -25.1015   20.8421 C   0  0  1  0  0  0
  -27.1841  -17.9364   20.0772 N   0  0  0  0  0  0
  -29.1267  -22.5614   20.6863 N   0  0  0  0  0  0
  -29.9198  -15.9088   20.6393 N   0  0  0  0  0  0
  -31.6149  -17.4106   20.8992 O   0  0  0  0  0  0
  -30.3935  -20.0601   20.8853 S   0  0  0  0  0  0
  -31.4614  -12.5600   19.1577 H   0  0  0  0  0  0
  -30.3593  -11.4790   19.9576 H   0  0  0  0  0  0
  -29.7805  -11.7286   17.5153 H   0  0  0  0  0  0
  -29.6301  -13.4582   17.7152 H   0  0  0  0  0  0
  -27.8781  -11.2853   18.9045 H   0  0  0  0  0  0
  -27.3710  -12.5303   17.7963 H   0  0  0  0  0  0
  -27.6279  -14.2566   19.4613 H   0  0  0  0  0  0
  -28.7204  -12.1893   21.4314 H   0  0  0  0  0  0
  -28.4219  -13.8777   21.7815 H   0  0  0  0  0  0
  -25.2757   -9.5677   22.4779 H   0  0  0  0  0  0
  -23.9991   -7.4631   22.7479 H   0  0  0  0  0  0
  -21.0846   -8.8776   19.8957 H   0  0  0  0  0  0
  -22.3697  -10.9678   19.6174 H   0  0  0  0  0  0
  -21.2021   -7.6151   23.9699 H   0  0  0  0  0  0
  -21.1468   -6.0528   25.9062 H   0  0  0  0  0  0
  -22.0610   -2.7610   23.2848 H   0  0  0  0  0  0
  -22.4079  -11.9868   22.4812 H   0  0  0  0  0  0
  -21.1061  -13.1197   22.2597 H   0  0  0  0  0  0
  -24.6270  -15.8227   20.4798 H   0  0  0  0  0  0
  -26.1961  -15.6010   19.9032 H   0  0  0  0  0  0
  -26.7161  -32.5427   23.1051 H   0  0  0  0  0  0
  -25.0045  -33.9675   25.0384 H   0  0  0  0  0  0
  -22.7196  -31.2982   21.3932 H   0  0  0  0  0  0
  -23.3752  -35.9603   23.3309 H   0  0  0  0  0  0
  -24.3565  -36.8911   22.2055 H   0  0  0  0  0  0
  -23.7227  -37.6472   23.6676 H   0  0  0  0  0  0
  -26.0949  -31.5398   20.5970 H   0  0  0  0  0  0
  -26.8465  -30.8347   21.9976 H   0  0  0  0  0  0
  -28.1232  -28.9595   21.1798 H   0  0  0  0  0  0
  -26.0011  -25.8747   19.0519 H   0  0  0  0  0  0
  -23.9744  -27.2807   19.0233 H   0  0  0  0  0  0
  -23.7686  -30.5823   19.4009 H   0  0  0  0  0  0
  -22.7618  -29.2411   19.8484 H   0  0  0  0  0  0
  -25.1286  -36.1909   25.0823 H   0  0  0  0  0  0
  -20.9974  -28.3249   24.1405 H   0  0  0  0  0  0
  -20.5669  -26.2267   23.3610 H   0  0  0  0  0  0
  -21.6630  -26.7414   22.1212 H   0  0  0  0  0  0
  -19.6907  -25.6292   21.1237 H   0  0  0  0  0  0
  -19.6708  -27.3186   20.6744 H   0  0  0  0  0  0
  -17.4196  -26.6672   21.4018 H   0  0  0  0  0  0
  -18.0313  -26.0080   22.9026 H   0  0  0  0  0  0
  -19.7950  -30.7249   24.2259 H   0  0  0  0  0  0
  -17.5035  -31.6272   24.5138 H   0  0  0  0  0  0
  -15.5357  -30.2987   23.7664 H   0  0  0  0  0  0
  -15.8674  -28.0834   22.7054 H   0  0  0  0  0  0
  -24.5925  -30.7043   25.7780 H   0  0  0  0  0  0
  -24.8881  -32.2886   26.4819 H   0  0  0  0  0  0
  -25.8052  -30.8954   27.0235 H   0  0  0  0  0  0
  -26.2910  -29.6745   24.1218 H   0  0  0  0  0  0
  -27.4097  -29.7291   25.4647 H   0  0  0  0  0  0
  -27.8754  -30.4319   23.9344 H   0  0  0  0  0  0
  -27.2652  -33.3658   26.2006 H   0  0  0  0  0  0
  -28.3874  -32.6846   25.0307 H   0  0  0  0  0  0
  -28.0690  -31.8485   26.5432 H   0  0  0  0  0  0
  -28.2569  -38.0096   24.7535 H   0  0  0  0  0  0
  -28.1088  -36.2622   24.6258 H   0  0  0  0  0  0
  -27.2292  -37.1393   25.8864 H   0  0  0  0  0  0
  -20.9367  -29.8777   21.6909 H   0  0  0  0  0  0
  -26.0159  -38.2840   24.1482 H   0  0  0  0  0  0
  -26.9583  -20.6474   20.0147 H   0  0  0  0  0  0
  -27.6118  -24.2336   22.7007 H   0  0  0  0  0  0
  -26.3825  -25.0962   21.7914 H   0  0  0  0  0  0
  -27.6033  -25.9921   22.6948 H   0  0  0  0  0  0
  -28.5944  -23.8063   19.0616 H   0  0  0  0  0  0
  -27.2353  -23.3369   20.0326 H   0  0  0  0  0  0
  -29.3640  -25.1250   21.2481 H   0  0  0  0  0  0
  -26.2912  -18.3692   19.8620 H   0  0  0  0  0  0
  -27.0418  -17.2597   20.8193 H   0  0  0  0  0  0
  -30.0298  -22.8942   21.0193 H   0  0  0  0  0  0
  -28.9183  -15.8209   20.6344 H   0  0  0  0  0  0
  1 25  1  0  0  0
  1 30  2  0  0  0
  1 81  1  0  0  0
  2  3  1  0  0  0
  2 25  1  0  0  0
  2 84  1  0  0  0
  2 85  1  0  0  0
  3  4  1  0  0  0
  3 86  1  0  0  0
  3 87  1  0  0  0
  4  5  1  0  0  0
  4 88  1  0  0  0
  4 89  1  0  0  0
  5  6  1  0  0  0
  5 26  1  0  0  0
  5 90  1  0  0  0
  6 25  1  0  0  0
  6 91  1  0  0  0
  6 92  1  0  0  0
  7  8  2  0  0  0
  7 26  1  0  0  0
  7 29  1  0  0  0
  8  9  1  0  0  0
  8 22  1  0  0  0
  9 10  1  0  0  0
  9 27  2  0  0  0
 10 11  2  0  0  0
 10 15  1  0  0  0
 11 12  1  0  0  0
 11 93  1  0  0  0
 12 13  2  0  0  0
 12 94  1  0  0  0
 13 14  1  0  0  0
 13 31  1  0  0  0
 14 15  2  0  0  0
 14 95  1  0  0  0
 15 96  1  0  0  0
 16 17  2  0  0  0
 16 21  1  0  0  0
 16 31  1  0  0  0
 17 18  1  0  0  0
 17 97  1  0  0  0
 18 19  2  0  0  0
 18 98  1  0  0  0
 19 20  1  0  0  0
 19 24  1  0  0  0
 20 21  2  0  0  0
 20 99  1  0  0  0
 21 23  1  0  0  0
 22 28  1  0  0  0
 22 32  2  0  0  0
 26 27  1  0  0  0
 28100  1  0  0  0
 28101  1  0  0  0
 29102  1  0  0  0
 29103  1  0  0  0
 33 34  1  0  0  0
 33 66  1  0  0  0
 33 70  2  0  0  0
 34 36  1  0  0  0
 34 59  1  0  0  0
 34104  1  0  0  0
 35 44  2  0  0  0
 35 45  1  0  0  0
 35 68  1  0  0  0
 36 56  1  0  0  0
 36105  1  0  0  0
 37 39  1  0  0  0
 37 47  1  0  0  0
 37 66  1  0  0  0
 37106  1  0  0  0
 38 43  2  0  0  0
 38 46  1  0  0  0
 38 47  1  0  0  0
 39 64  1  0  0  0
 39 67  2  0  0  0
 40 52  1  0  0  0
 40 53  2  0  0  0
 40 58  1  0  0  0
 41107  1  0  0  0
 41108  1  0  0  0
 41109  1  0  0  0
 41 48  1  0  0  0
 42 43  1  0  0  0
 42 66  1  0  0  0
 42110  1  0  0  0
 42111  1  0  0  0
 43 44  1  0  0  0
 44112  1  0  0  0
 45 46  2  0  0  0
 45113  1  0  0  0
 46114  1  0  0  0
 47115  1  0  0  0
 47116  1  0  0  0
 48 56  1  0  0  0
 48 65  1  0  0  0
 48117  1  0  0  0
 49 50  1  0  0  0
 49 53  1  0  0  0
 49 64  1  0  0  0
 49118  1  0  0  0
 50 51  1  0  0  0
 50119  1  0  0  0
 50120  1  0  0  0
 51 52  1  0  0  0
 51121  1  0  0  0
 51122  1  0  0  0
 52123  1  0  0  0
 52124  1  0  0  0
 53 54  1  0  0  0
 54 55  2  0  0  0
 54125  1  0  0  0
 55 57  1  0  0  0
 55126  1  0  0  0
 56 69  2  0  0  0
 57 58  2  0  0  0
 57127  1  0  0  0
 58128  1  0  0  0
 59 60  1  0  0  0
 59 61  1  0  0  0
 59 62  1  0  0  0
 60129  1  0  0  0
 60130  1  0  0  0
 60131  1  0  0  0
 61132  1  0  0  0
 61133  1  0  0  0
 61134  1  0  0  0
 62135  1  0  0  0
 62136  1  0  0  0
 62137  1  0  0  0
 63 65  1  0  0  0
 63138  1  0  0  0
 63139  1  0  0  0
 63140  1  0  0  0
 64141  1  0  0  0
 65142  1  0  0  0
 68 78  1  0  0  0
 71 72  1  0  0  0
 71 74  2  0  0  0
 71143  1  0  0  0
 72 73  2  0  0  0
 72 79  1  0  0  0
 73 75  1  0  0  0
 73 83  1  0  0  0
 74 80  1  0  0  0
 74 83  1  0  0  0
 75 81  1  0  0  0
 75 82  2  0  0  0
 76144  1  0  0  0
 76145  1  0  0  0
 76146  1  0  0  0
 76 78  1  0  0  0
 77 78  1  0  0  0
 77 80  1  0  0  0
 77147  1  0  0  0
 77148  1  0  0  0
 78149  1  0  0  0
 79150  1  0  0  0
 79151  1  0  0  0
 80152  1  0  0  0
 81153  1  0  0  0
M  ISO  4   1 100  68 101  78 101  81 100
M  END
> <chiral flag>
0

> <version>
0

> <s_m_source_file>
/data/baiqing/PycharmProjects/Reinvent-master-3.2/result/LINK_invent/BTK/process_docking_weight1_custom_product_contain_oxygen_bond_distance_aromatic_linkinvent_7_9_3/rearranged_h_0153.sdf

> <i_m_source_file_index>
94

> <r_mmod_Potential_Energy-OPLS-2005>
182.831573486328

> <r_mmod_Stretch_Energy-OPLS-2005>
110.350227355957

> <r_mmod_Bend_Energy-OPLS-2005>
186.586120605469

> <r_mmod_Torsional_Energy-OPLS-2005>
259.179229736328

> <r_mmod_Improper_Torsional_Energy-OPLS-2005>
12.5042390823364

> <r_mmod_Van_der_Waal_Energy-OPLS-2005>
120.401489257812

> <r_mmod_Electrostatic_Energy-OPLS-2005>
-344.661529541016

> <r_mmod_Solvation_Energy-OPLS-2005>
-236.86735534668

> <b_mmod_Minimization_Converged-OPLS-2005>
0

> <r_mmod_RMS_Derivative-OPLS-2005>
2.16087412834167

$$$$
94
                    3D
 Structure written by MMmdl.
156164  0  0  1  0            999 V2000
  -30.6096  -14.7670   20.4534 C   0  0  0  0  0  0
  -30.4385  -12.4688   19.4779 C   0  0  0  0  0  0
  -29.5135  -12.5188   18.2403 C   0  0  0  0  0  0
  -28.0405  -12.3406   18.6494 C   0  0  0  0  0  0
  -27.6470  -13.2346   19.8543 C   0  0  2  0  0  0
  -28.6919  -13.1705   20.9918 C   0  0  0  0  0  0
  -25.2548  -13.8222   20.5700 C   0  0  0  0  0  0
  -24.1842  -13.0457   20.9200 C   0  0  0  0  0  0
  -24.6424  -11.6930   20.8743 C   0  0  0  0  0  0
  -23.9081  -10.4296   21.0417 C   0  0  0  0  0  0
  -24.3637   -9.4213   21.9194 C   0  0  0  0  0  0
  -23.6319   -8.2255   22.0759 C   0  0  0  0  0  0
  -22.4285   -8.0296   21.3564 C   0  0  0  0  0  0
  -21.9925   -9.0255   20.4648 C   0  0  0  0  0  0
  -22.7256  -10.2133   20.3064 C   0  0  0  0  0  0
  -21.6839   -6.0731   22.5291 C   0  0  0  0  0  0
  -21.4000   -6.5638   23.8216 C   0  0  0  0  0  0
  -21.3674   -5.6805   24.9189 C   0  0  0  0  0  0
  -21.6051   -4.3065   24.7233 C   0  0  0  0  0  0
  -21.8825   -3.8148   23.4358 C   0  0  0  0  0  0
  -21.9197   -4.6967   22.3414 C   0  0  0  0  0  0
  -22.7851  -13.5233   21.1878 C   0  0  0  0  0  0
  -22.1671   -4.2146   21.0991 F   0  0  0  0  0  0
  -21.5640   -3.4550   25.7743 F   0  0  0  0  0  0
  -29.9942  -13.5309   20.4133 N   0  0  0  0  0  0
  -26.2973  -12.9434   20.3282 N   0  0  0  0  0  0
  -25.9350  -11.6572   20.5733 N   0  0  0  0  0  0
  -22.0486  -12.8196   22.0407 N   0  0  0  0  0  0
  -25.4275  -15.1958   20.4154 N   0  0  0  0  0  0
  -31.7892  -14.8649   20.0968 O   0  0  0  0  0  0
  -21.6663   -6.8886   21.4249 O   0  0  0  0  0  0
  -22.3518  -14.5547   20.6747 O   0  0  0  0  0  0
  -24.6347  -31.8550   23.1986 C   0  0  0  0  0  0
  -25.9166  -32.4748   23.8331 C   0  0  1  0  0  0
  -27.2065  -27.2239   20.1204 C   0  0  0  0  0  0
  -25.5969  -33.8556   24.2252 N   0  0  0  0  0  0
  -23.4305  -30.4819   21.5450 C   0  0  2  0  0  0
  -24.8749  -28.9356   20.1054 C   0  0  0  0  0  0
  -22.7514  -29.4611   22.4901 C   0  0  0  0  0  0
  -18.0292  -28.1384   22.8468 C   0  0  0  0  0  0
  -24.1503  -36.7281   23.2632 C   0  0  0  0  0  0
  -25.9817  -30.7531   21.3882 C   0  0  0  0  0  0
  -26.0491  -29.3764   20.7254 C   0  0  0  0  0  0
  -27.2129  -28.5335   20.7275 C   0  0  0  0  0  0
  -26.0156  -26.8967   19.4264 C   0  0  0  0  0  0
  -24.8655  -27.7032   19.4438 C   0  0  0  0  0  0
  -23.6480  -29.8263   20.1581 C   0  0  0  0  0  0
  -25.4130  -36.3074   24.0319 C   0  0  1  0  0  0
  -20.5902  -28.3717   23.1233 C   0  0  2  0  0  0
  -20.6788  -26.9432   22.5384 C   0  0  0  0  0  0
  -19.5758  -26.6383   21.5195 C   0  0  0  0  0  0
  -18.1936  -26.7926   22.1611 C   0  0  0  0  0  0
  -19.1546  -28.8865   23.2845 C   0  0  0  0  0  0
  -18.9475  -30.1461   23.8873 C   0  0  0  0  0  0
  -17.6476  -30.6590   24.0552 C   0  0  0  0  0  0
  -25.9081  -34.9445   23.5087 C   0  0  0  0  0  0
  -16.5363  -29.9084   23.6334 C   0  0  0  0  0  0
  -16.7277  -28.6497   23.0354 C   0  0  0  0  0  0
  -26.4524  -31.6576   25.0735 C   0  0  0  0  0  0
  -25.3729  -31.3728   26.1443 C   0  0  0  0  0  0
  -27.0355  -30.2969   24.6260 C   0  0  0  0  0  0
  -27.6079  -32.4308   25.7520 C   0  0  0  0  0  0
  -27.5586  -37.1792   24.8459 C   0  0  0  0  0  0
  -21.4222  -29.3060   22.3625 N   0  0  0  0  0  0
  -26.4294  -37.3775   23.9410 N   0  0  0  0  0  0
  -24.7018  -31.0505   22.0976 N   0  0  0  0  0  0
  -23.4209  -28.8141   23.2991 O   0  0  0  0  0  0
  -28.2825  -26.2842   20.2413 O   0  0  0  0  0  0
  -26.5658  -34.8920   22.4656 O   0  0  0  0  0  0
  -23.5493  -32.1396   23.7257 O   0  0  0  0  0  0
  -29.4234  -18.4211   20.9859 C   0  0  0  0  0  0
  -29.7886  -19.7280   20.3960 C   0  0  0  0  0  0
  -30.0089  -17.2615   20.4254 C   0  0  0  0  0  0
  -30.6328  -19.5340   19.3246 C   0  0  0  0  0  0
  -29.4148  -21.1326   20.9388 C   0  0  0  0  0  0
  -28.3815  -24.7221   18.3739 C   0  0  0  0  0  0
  -29.1771  -23.8091   20.6446 C   0  0  0  0  0  0
  -28.1468  -24.8251   19.8933 C   0  0  1  0  0  0
  -31.2495  -20.4705   18.4987 N   0  0  0  0  0  0
  -29.8468  -15.8933   20.7537 N   0  0  0  0  0  0
  -29.2379  -22.3144   20.2106 N   0  0  0  0  0  0
  -29.3088  -21.2381   22.2706 N   0  3  0  0  0  0
  -26.8822  -24.2951   20.2389 O   0  0  0  0  0  0
  -30.9862  -17.8205   19.0702 S   0  0  0  0  0  0
  -31.4760  -12.5954   19.1649 H   0  0  0  0  0  0
  -30.3905  -11.4900   19.9583 H   0  0  0  0  0  0
  -29.7876  -11.7450   17.5239 H   0  0  0  0  0  0
  -29.6383  -13.4723   17.7253 H   0  0  0  0  0  0
  -27.8954  -11.2909   18.9024 H   0  0  0  0  0  0
  -27.3838  -12.5398   17.8012 H   0  0  0  0  0  0
  -27.6396  -14.2566   19.4760 H   0  0  0  0  0  0
  -28.7324  -12.1718   21.4319 H   0  0  0  0  0  0
  -28.4190  -13.8458   21.8052 H   0  0  0  0  0  0
  -25.2770   -9.5672   22.4768 H   0  0  0  0  0  0
  -24.0022   -7.4632   22.7469 H   0  0  0  0  0  0
  -21.0858   -8.8777   19.8946 H   0  0  0  0  0  0
  -22.3727  -10.9683   19.6183 H   0  0  0  0  0  0
  -21.1973   -7.6149   23.9700 H   0  0  0  0  0  0
  -21.1498   -6.0546   25.9091 H   0  0  0  0  0  0
  -22.0587   -2.7604   23.2854 H   0  0  0  0  0  0
  -22.4099  -11.9873   22.4815 H   0  0  0  0  0  0
  -21.1104  -13.1207   22.2614 H   0  0  0  0  0  0
  -24.6670  -15.8551   20.5360 H   0  0  0  0  0  0
  -26.2786  -15.6299   20.0774 H   0  0  0  0  0  0
  -26.7221  -32.5380   23.1055 H   0  0  0  0  0  0
  -25.0101  -33.9699   25.0389 H   0  0  0  0  0  0
  -22.7262  -31.3043   21.4025 H   0  0  0  0  0  0
  -23.3776  -35.9599   23.3282 H   0  0  0  0  0  0
  -24.3581  -36.8926   22.2046 H   0  0  0  0  0  0
  -23.7235  -37.6467   23.6669 H   0  0  0  0  0  0
  -26.1323  -31.5110   20.6184 H   0  0  0  0  0  0
  -26.8537  -30.7920   22.0268 H   0  0  0  0  0  0
  -28.1017  -28.8683   21.2429 H   0  0  0  0  0  0
  -25.9106  -25.9877   18.8622 H   0  0  0  0  0  0
  -23.9739  -27.3675   18.9321 H   0  0  0  0  0  0
  -23.7703  -30.6076   19.4055 H   0  0  0  0  0  0
  -22.7629  -29.2662   19.8524 H   0  0  0  0  0  0
  -25.1299  -36.1923   25.0805 H   0  0  0  0  0  0
  -20.9984  -28.3306   24.1359 H   0  0  0  0  0  0
  -20.5660  -26.2348   23.3608 H   0  0  0  0  0  0
  -21.6663  -26.7419   22.1200 H   0  0  0  0  0  0
  -19.6930  -25.6281   21.1252 H   0  0  0  0  0  0
  -19.6700  -27.3175   20.6706 H   0  0  0  0  0  0
  -17.4206  -26.6651   21.4020 H   0  0  0  0  0  0
  -18.0344  -26.0075   22.9006 H   0  0  0  0  0  0
  -19.7951  -30.7272   24.2255 H   0  0  0  0  0  0
  -17.5028  -31.6273   24.5150 H   0  0  0  0  0  0
  -15.5359  -30.2979   23.7670 H   0  0  0  0  0  0
  -15.8679  -28.0805   22.7093 H   0  0  0  0  0  0
  -24.5952  -30.7022   25.7764 H   0  0  0  0  0  0
  -24.8872  -32.2888   26.4801 H   0  0  0  0  0  0
  -25.8047  -30.8961   27.0251 H   0  0  0  0  0  0
  -26.2931  -29.6716   24.1278 H   0  0  0  0  0  0
  -27.3974  -29.7241   25.4806 H   0  0  0  0  0  0
  -27.8856  -30.4192   23.9546 H   0  0  0  0  0  0
  -27.2699  -33.3619   26.2074 H   0  0  0  0  0  0
  -28.3922  -32.6835   25.0375 H   0  0  0  0  0  0
  -28.0717  -31.8439   26.5460 H   0  0  0  0  0  0
  -28.2585  -38.0108   24.7538 H   0  0  0  0  0  0
  -28.1109  -36.2634   24.6259 H   0  0  0  0  0  0
  -27.2306  -37.1414   25.8863 H   0  0  0  0  0  0
  -20.9421  -29.8803   21.6840 H   0  0  0  0  0  0
  -26.0182  -38.2847   24.1411 H   0  0  0  0  0  0
  -28.7522  -18.3844   21.8305 H   0  0  0  0  0  0
  -28.1873  -23.7119   18.0153 H   0  0  0  0  0  0
  -29.4212  -24.9654   18.1523 H   0  0  0  0  0  0
  -27.7565  -25.4152   17.8131 H   0  0  0  0  0  0
  -28.9651  -23.8663   21.7123 H   0  0  0  0  0  0
  -30.1813  -24.2127   20.5219 H   0  0  0  0  0  0
  -31.6433  -21.3090   18.9140 H   0  0  0  0  0  0
  -31.8776  -20.1176   17.7824 H   0  0  0  0  0  0
  -28.9635  -15.6662   21.1866 H   0  0  0  0  0  0
  -29.3036  -22.1875   19.2107 H   0  0  0  0  0  0
  -29.4928  -20.4358   22.8522 H   0  0  0  0  0  0
  -29.0867  -22.1039   22.7309 H   0  0  0  0  0  0
  -26.2858  -24.4670   19.5211 H   0  0  0  0  0  0
  1 25  1  0  0  0
  1 30  2  0  0  0
  1 80  1  0  0  0
  2  3  1  0  0  0
  2 25  1  0  0  0
  2 85  1  0  0  0
  2 86  1  0  0  0
  3  4  1  0  0  0
  3 87  1  0  0  0
  3 88  1  0  0  0
  4  5  1  0  0  0
  4 89  1  0  0  0
  4 90  1  0  0  0
  5  6  1  0  0  0
  5 26  1  0  0  0
  5 91  1  0  0  0
  6 25  1  0  0  0
  6 92  1  0  0  0
  6 93  1  0  0  0
  7  8  2  0  0  0
  7 26  1  0  0  0
  7 29  1  0  0  0
  8  9  1  0  0  0
  8 22  1  0  0  0
  9 10  1  0  0  0
  9 27  2  0  0  0
 10 11  2  0  0  0
 10 15  1  0  0  0
 11 12  1  0  0  0
 11 94  1  0  0  0
 12 13  2  0  0  0
 12 95  1  0  0  0
 13 14  1  0  0  0
 13 31  1  0  0  0
 14 15  2  0  0  0
 14 96  1  0  0  0
 15 97  1  0  0  0
 16 17  2  0  0  0
 16 21  1  0  0  0
 16 31  1  0  0  0
 17 18  1  0  0  0
 17 98  1  0  0  0
 18 19  2  0  0  0
 18 99  1  0  0  0
 19 20  1  0  0  0
 19 24  1  0  0  0
 20 21  2  0  0  0
 20100  1  0  0  0
 21 23  1  0  0  0
 22 28  1  0  0  0
 22 32  2  0  0  0
 26 27  1  0  0  0
 28101  1  0  0  0
 28102  1  0  0  0
 29103  1  0  0  0
 29104  1  0  0  0
 33 34  1  0  0  0
 33 66  1  0  0  0
 33 70  2  0  0  0
 34 36  1  0  0  0
 34 59  1  0  0  0
 34105  1  0  0  0
 35 44  2  0  0  0
 35 45  1  0  0  0
 35 68  1  0  0  0
 36 56  1  0  0  0
 36106  1  0  0  0
 37 39  1  0  0  0
 37 47  1  0  0  0
 37 66  1  0  0  0
 37107  1  0  0  0
 38 43  2  0  0  0
 38 46  1  0  0  0
 38 47  1  0  0  0
 39 64  1  0  0  0
 39 67  2  0  0  0
 40 52  1  0  0  0
 40 53  2  0  0  0
 40 58  1  0  0  0
 41108  1  0  0  0
 41109  1  0  0  0
 41110  1  0  0  0
 41 48  1  0  0  0
 42 43  1  0  0  0
 42 66  1  0  0  0
 42111  1  0  0  0
 42112  1  0  0  0
 43 44  1  0  0  0
 44113  1  0  0  0
 45 46  2  0  0  0
 45114  1  0  0  0
 46115  1  0  0  0
 47116  1  0  0  0
 47117  1  0  0  0
 48 56  1  0  0  0
 48 65  1  0  0  0
 48118  1  0  0  0
 49 50  1  0  0  0
 49 53  1  0  0  0
 49 64  1  0  0  0
 49119  1  0  0  0
 50 51  1  0  0  0
 50120  1  0  0  0
 50121  1  0  0  0
 51 52  1  0  0  0
 51122  1  0  0  0
 51123  1  0  0  0
 52124  1  0  0  0
 52125  1  0  0  0
 53 54  1  0  0  0
 54 55  2  0  0  0
 54126  1  0  0  0
 55 57  1  0  0  0
 55127  1  0  0  0
 56 69  2  0  0  0
 57 58  2  0  0  0
 57128  1  0  0  0
 58129  1  0  0  0
 59 60  1  0  0  0
 59 61  1  0  0  0
 59 62  1  0  0  0
 60130  1  0  0  0
 60131  1  0  0  0
 60132  1  0  0  0
 61133  1  0  0  0
 61134  1  0  0  0
 61135  1  0  0  0
 62136  1  0  0  0
 62137  1  0  0  0
 62138  1  0  0  0
 63 65  1  0  0  0
 63139  1  0  0  0
 63140  1  0  0  0
 63141  1  0  0  0
 64142  1  0  0  0
 65143  1  0  0  0
 68 78  1  0  0  0
 71 72  1  0  0  0
 71 73  2  0  0  0
 71144  1  0  0  0
 72 74  2  0  0  0
 72 75  1  0  0  0
 73 80  1  0  0  0
 73 84  1  0  0  0
 74 79  1  0  0  0
 74 84  1  0  0  0
 75 81  1  0  0  0
 75 82  2  0  0  0
 76145  1  0  0  0
 76146  1  0  0  0
 76147  1  0  0  0
 76 78  1  0  0  0
 77 78  1  0  0  0
 77 81  1  0  0  0
 77148  1  0  0  0
 77149  1  0  0  0
 78 83  1  0  0  0
 79150  1  0  0  0
 79151  1  0  0  0
 80152  1  0  0  0
 81153  1  0  0  0
 82154  1  0  0  0
 82155  1  0  0  0
 83156  1  0  0  0
M  CHG  1  82   1
M  ISO  4   1 100  68 101  78 101  80 100
M  END
> <chiral flag>
0

> <version>
0

> <s_m_source_file>
/data/baiqing/PycharmProjects/Reinvent-master-3.2/result/LINK_invent/BTK/process_docking_weight1_custom_product_contain_oxygen_bond_distance_aromatic_linkinvent_7_9_3/rearranged_h_0153.sdf

> <i_m_source_file_index>
95

> <r_mmod_Potential_Energy-OPLS-2005>
51.4731101989746

> <r_mmod_Stretch_Energy-OPLS-2005>
144.306762695312

> <r_mmod_Bend_Energy-OPLS-2005>
179.450088500977

> <r_mmod_Torsional_Energy-OPLS-2005>
234.219314575195

> <r_mmod_Improper_Torsional_Energy-OPLS-2005>
8.61289501190186

> <r_mmod_Van_der_Waal_Energy-OPLS-2005>
128.460891723633

> <r_mmod_Electrostatic_Energy-OPLS-2005>
-276.48828125

> <r_mmod_Solvation_Energy-OPLS-2005>
-471.431091308594

> <b_mmod_Minimization_Converged-OPLS-2005>
0

> <r_mmod_RMS_Derivative-OPLS-2005>
3.58678984642029

$$$$
