0
                    3D
 Structure written by MMmdl.
165174  0  0  1  0            999 V2000
  -30.4896  -14.8948   20.4673 C   0  0  0  0  0  0
  -30.4536  -12.5555   19.4915 C   0  0  0  0  0  0
  -29.5256  -12.5374   18.2518 C   0  0  0  0  0  0
  -28.0546  -12.3253   18.6617 C   0  0  0  0  0  0
  -27.6407  -13.2279   19.8511 C   0  0  2  0  0  0
  -28.6796  -13.1815   20.9918 C   0  0  0  0  0  0
  -25.2556  -13.8183   20.5629 C   0  0  0  0  0  0
  -24.1848  -13.0475   20.9250 C   0  0  0  0  0  0
  -24.6392  -11.6931   20.8782 C   0  0  0  0  0  0
  -23.9060  -10.4311   21.0432 C   0  0  0  0  0  0
  -24.3612   -9.4215   21.9202 C   0  0  0  0  0  0
  -23.6286   -8.2250   22.0759 C   0  0  0  0  0  0
  -22.4270   -8.0287   21.3548 C   0  0  0  0  0  0
  -21.9905   -9.0269   20.4662 C   0  0  0  0  0  0
  -22.7232  -10.2156   20.3079 C   0  0  0  0  0  0
  -21.6853   -6.0734   22.5275 C   0  0  0  0  0  0
  -21.4021   -6.5636   23.8209 C   0  0  0  0  0  0
  -21.3665   -5.6788   24.9169 C   0  0  0  0  0  0
  -21.6044   -4.3050   24.7218 C   0  0  0  0  0  0
  -21.8819   -3.8146   23.4339 C   0  0  0  0  0  0
  -21.9193   -4.6964   22.3398 C   0  0  0  0  0  0
  -22.7885  -13.5295   21.1872 C   0  0  0  0  0  0
  -22.1655   -4.2148   21.0973 F   0  0  0  0  0  0
  -21.5628   -3.4536   25.7733 F   0  0  0  0  0  0
  -29.9639  -13.6097   20.4196 N   0  0  0  0  0  0
  -26.2935  -12.9349   20.3243 N   0  0  0  0  0  0
  -25.9315  -11.6518   20.5759 N   0  0  0  0  0  0
  -22.0478  -12.8324   22.0413 N   0  0  0  0  0  0
  -25.4355  -15.1897   20.3802 N   0  0  0  0  0  0
  -31.6651  -15.0628   20.1178 O   0  0  0  0  0  0
  -21.6639   -6.8878   21.4233 O   0  0  0  0  0  0
  -22.3667  -14.5627   20.6703 O   0  0  0  0  0  0
  -24.6421  -31.8464   23.1900 C   0  0  0  0  0  0
  -25.9208  -32.4704   23.8281 C   0  0  1  0  0  0
  -27.2145  -27.1523   20.1547 C   0  0  0  0  0  0
  -25.5969  -33.8512   24.2211 N   0  0  0  0  0  0
  -23.4437  -30.4673   21.5347 C   0  0  2  0  0  0
  -24.8936  -28.8982   20.1117 C   0  0  0  0  0  0
  -22.7554  -29.4568   22.4859 C   0  0  0  0  0  0
  -18.0307  -28.1382   22.8474 C   0  0  0  0  0  0
  -24.1497  -36.7257   23.2640 C   0  0  0  0  0  0
  -25.9990  -30.7242   21.3889 C   0  0  0  0  0  0
  -26.0695  -29.3372   20.7323 C   0  0  0  0  0  0
  -27.2318  -28.4804   20.7377 C   0  0  0  0  0  0
  -26.0172  -26.8189   19.4825 C   0  0  0  0  0  0
  -24.8798  -27.6525   19.4694 C   0  0  0  0  0  0
  -23.6698  -29.7980   20.1537 C   0  0  0  0  0  0
  -25.4124  -36.3037   24.0320 C   0  0  1  0  0  0
  -20.5919  -28.3719   23.1229 C   0  0  2  0  0  0
  -20.6791  -26.9420   22.5401 C   0  0  0  0  0  0
  -19.5771  -26.6375   21.5203 C   0  0  0  0  0  0
  -18.1948  -26.7923   22.1610 C   0  0  0  0  0  0
  -19.1562  -28.8866   23.2846 C   0  0  0  0  0  0
  -18.9478  -30.1457   23.8875 C   0  0  0  0  0  0
  -17.6476  -30.6582   24.0552 C   0  0  0  0  0  0
  -25.9070  -34.9411   23.5069 C   0  0  0  0  0  0
  -16.5368  -29.9071   23.6333 C   0  0  0  0  0  0
  -16.7291  -28.6488   23.0359 C   0  0  0  0  0  0
  -26.4536  -31.6554   25.0710 C   0  0  0  0  0  0
  -25.3731  -31.3742   26.1410 C   0  0  0  0  0  0
  -27.0400  -30.2951   24.6281 C   0  0  0  0  0  0
  -27.6072  -32.4309   25.7490 C   0  0  0  0  0  0
  -27.5578  -37.1785   24.8463 C   0  0  0  0  0  0
  -21.4248  -29.3052   22.3603 N   0  0  0  0  0  0
  -26.4292  -37.3743   23.9405 N   0  0  0  0  0  0
  -24.7142  -31.0338   22.0925 N   0  0  0  0  0  0
  -23.4204  -28.8105   23.2999 O   0  0  0  0  0  0
  -28.2728  -26.1768   20.1999 O   0  0  0  0  0  0
  -26.5640  -34.8904   22.4638 O   0  0  0  0  0  0
  -23.5547  -32.1339   23.7133 O   0  0  0  0  0  0
  -29.9127  -19.8478   19.8624 C   0  0  0  0  0  0
  -30.1703  -18.4066   19.9072 C   0  0  0  0  0  0
  -28.3212  -19.5899   21.5712 C   0  0  0  0  0  0
  -28.5459  -18.1589   21.6258 C   0  0  0  0  0  0
  -28.9437  -20.5206   20.6856 C   0  0  0  0  0  0
  -29.4915  -17.4722   20.7736 C   0  0  0  0  0  0
  -24.0426  -17.7631   22.3390 C   0  0  0  0  0  0
  -24.1844  -16.7808   23.5005 C   0  0  0  0  0  0
  -25.4683  -18.2657   22.1288 C   0  0  0  0  0  0
  -25.6506  -16.3130   23.4609 C   0  0  0  0  0  0
  -27.7661  -17.4044   22.7176 C   0  0  0  0  0  0
  -28.9672  -23.3284   20.2297 C   0  0  0  0  0  0
  -27.9681  -24.6691   20.4216 C   0  0  0  0  0  0
  -29.5986  -15.9430   20.7918 N   0  0  0  0  0  0
  -28.4934  -21.9365   20.7272 N   0  0  0  0  0  0
  -26.3384  -17.1035   22.4091 N   0  3  0  0  0  0
  -31.4852  -12.7374   19.1846 H   0  0  0  0  0  0
  -30.4570  -11.5838   19.9883 H   0  0  0  0  0  0
  -29.8367  -11.7567   17.5568 H   0  0  0  0  0  0
  -29.6194  -13.4817   17.7121 H   0  0  0  0  0  0
  -27.9352  -11.2771   18.9379 H   0  0  0  0  0  0
  -27.3958  -12.4917   17.8085 H   0  0  0  0  0  0
  -27.6290  -14.2443   19.4573 H   0  0  0  0  0  0
  -28.7561  -12.1766   21.4087 H   0  0  0  0  0  0
  -28.3788  -13.8251   21.8198 H   0  0  0  0  0  0
  -25.2757   -9.5681   22.4779 H   0  0  0  0  0  0
  -24.0001   -7.4635   22.7470 H   0  0  0  0  0  0
  -21.0839   -8.8795   19.8962 H   0  0  0  0  0  0
  -22.3692  -10.9697   19.6195 H   0  0  0  0  0  0
  -21.2013   -7.6147   23.9717 H   0  0  0  0  0  0
  -21.1485   -6.0513   25.9074 H   0  0  0  0  0  0
  -22.0593   -2.7606   23.2836 H   0  0  0  0  0  0
  -22.4028  -11.9964   22.4804 H   0  0  0  0  0  0
  -21.1107  -13.1389   22.2585 H   0  0  0  0  0  0
  -24.5316  -15.6162   20.1989 H   0  0  0  0  0  0
  -26.0534  -15.3673   19.5958 H   0  0  0  0  0  0
  -26.7266  -32.5322   23.1001 H   0  0  0  0  0  0
  -25.0133  -33.9624   25.0372 H   0  0  0  0  0  0
  -22.7458  -31.2929   21.3811 H   0  0  0  0  0  0
  -23.3763  -35.9586   23.3294 H   0  0  0  0  0  0
  -24.3584  -36.8893   22.2057 H   0  0  0  0  0  0
  -23.7252  -37.6453   23.6674 H   0  0  0  0  0  0
  -26.1547  -31.4784   20.6167 H   0  0  0  0  0  0
  -26.8695  -30.7731   22.0309 H   0  0  0  0  0  0
  -28.1269  -28.8110   21.2459 H   0  0  0  0  0  0
  -25.9299  -25.8821   18.9556 H   0  0  0  0  0  0
  -23.9871  -27.3175   18.9595 H   0  0  0  0  0  0
  -23.8040  -30.5719   19.3971 H   0  0  0  0  0  0
  -22.7859  -29.2378   19.8445 H   0  0  0  0  0  0
  -25.1310  -36.1867   25.0811 H   0  0  0  0  0  0
  -21.0010  -28.3308   24.1349 H   0  0  0  0  0  0
  -20.5674  -26.2331   23.3618 H   0  0  0  0  0  0
  -21.6660  -26.7416   22.1211 H   0  0  0  0  0  0
  -19.6932  -25.6278   21.1252 H   0  0  0  0  0  0
  -19.6706  -27.3168   20.6720 H   0  0  0  0  0  0
  -17.4217  -26.6670   21.4008 H   0  0  0  0  0  0
  -18.0342  -26.0061   22.9004 H   0  0  0  0  0  0
  -19.7953  -30.7276   24.2234 H   0  0  0  0  0  0
  -17.5031  -31.6261   24.5150 H   0  0  0  0  0  0
  -15.5368  -30.2965   23.7664 H   0  0  0  0  0  0
  -15.8692  -28.0793   22.7094 H   0  0  0  0  0  0
  -24.5920  -30.7071   25.7741 H   0  0  0  0  0  0
  -24.8912  -32.2928   26.4771 H   0  0  0  0  0  0
  -25.8033  -30.8966   27.0225 H   0  0  0  0  0  0
  -26.3016  -29.6661   24.1298 H   0  0  0  0  0  0
  -27.4028  -29.7253   25.4846 H   0  0  0  0  0  0
  -27.8916  -30.4178   23.9586 H   0  0  0  0  0  0
  -27.2671  -33.3625   26.2021 H   0  0  0  0  0  0
  -28.3910  -32.6842   25.0338 H   0  0  0  0  0  0
  -28.0710  -31.8465   26.5446 H   0  0  0  0  0  0
  -28.2592  -38.0085   24.7506 H   0  0  0  0  0  0
  -28.1080  -36.2616   24.6292 H   0  0  0  0  0  0
  -27.2298  -37.1437   25.8867 H   0  0  0  0  0  0
  -20.9445  -29.8773   21.6796 H   0  0  0  0  0  0
  -26.0164  -38.2815   24.1397 H   0  0  0  0  0  0
  -30.4695  -20.4350   19.1460 H   0  0  0  0  0  0
  -30.9004  -18.0103   19.2165 H   0  0  0  0  0  0
  -27.6100  -20.0036   22.2699 H   0  0  0  0  0  0
  -23.3387  -18.5698   22.5481 H   0  0  0  0  0  0
  -23.6937  -17.2430   21.4460 H   0  0  0  0  0  0
  -23.4808  -15.9509   23.4208 H   0  0  0  0  0  0
  -23.9851  -17.2898   24.4450 H   0  0  0  0  0  0
  -25.6659  -19.0600   22.8503 H   0  0  0  0  0  0
  -25.6247  -18.6670   21.1268 H   0  0  0  0  0  0
  -25.7248  -15.2488   23.2348 H   0  0  0  0  0  0
  -26.1076  -16.4683   24.4395 H   0  0  0  0  0  0
  -27.8085  -17.9973   23.6331 H   0  0  0  0  0  0
  -28.2762  -16.4738   22.9665 H   0  0  0  0  0  0
  -29.9092  -23.5402   20.7372 H   0  0  0  0  0  0
  -29.2192  -23.2374   19.1726 H   0  0  0  0  0  0
  -27.6235  -24.6315   21.4554 H   0  0  0  0  0  0
  -27.0860  -24.4136   19.8413 H   0  0  0  0  0  0
  -28.7465  -15.5064   21.1006 H   0  0  0  0  0  0
  -27.6804  -22.0502   21.3272 H   0  0  0  0  0  0
  -26.2905  -16.5146   21.5816 H   0  0  0  0  0  0
  1 25  1  0  0  0
  1 30  2  0  0  0
  1 84  1  0  0  0
  2  3  1  0  0  0
  2 25  1  0  0  0
  2 87  1  0  0  0
  2 88  1  0  0  0
  3  4  1  0  0  0
  3 89  1  0  0  0
  3 90  1  0  0  0
  4  5  1  0  0  0
  4 91  1  0  0  0
  4 92  1  0  0  0
  5  6  1  0  0  0
  5 26  1  0  0  0
  5 93  1  0  0  0
  6 25  1  0  0  0
  6 94  1  0  0  0
  6 95  1  0  0  0
  7  8  2  0  0  0
  7 26  1  0  0  0
  7 29  1  0  0  0
  8  9  1  0  0  0
  8 22  1  0  0  0
  9 10  1  0  0  0
  9 27  2  0  0  0
 10 11  2  0  0  0
 10 15  1  0  0  0
 11 12  1  0  0  0
 11 96  1  0  0  0
 12 13  2  0  0  0
 12 97  1  0  0  0
 13 14  1  0  0  0
 13 31  1  0  0  0
 14 15  2  0  0  0
 14 98  1  0  0  0
 15 99  1  0  0  0
 16 17  2  0  0  0
 16 21  1  0  0  0
 16 31  1  0  0  0
 17 18  1  0  0  0
 17100  1  0  0  0
 18 19  2  0  0  0
 18101  1  0  0  0
 19 20  1  0  0  0
 19 24  1  0  0  0
 20 21  2  0  0  0
 20102  1  0  0  0
 21 23  1  0  0  0
 22 28  1  0  0  0
 22 32  2  0  0  0
 26 27  1  0  0  0
 28103  1  0  0  0
 28104  1  0  0  0
 29105  1  0  0  0
 29106  1  0  0  0
 33 34  1  0  0  0
 33 66  1  0  0  0
 33 70  2  0  0  0
 34 36  1  0  0  0
 34 59  1  0  0  0
 34107  1  0  0  0
 35 44  2  0  0  0
 35 45  1  0  0  0
 35 68  1  0  0  0
 36 56  1  0  0  0
 36108  1  0  0  0
 37 39  1  0  0  0
 37 47  1  0  0  0
 37 66  1  0  0  0
 37109  1  0  0  0
 38 43  2  0  0  0
 38 46  1  0  0  0
 38 47  1  0  0  0
 39 64  1  0  0  0
 39 67  2  0  0  0
 40 52  1  0  0  0
 40 53  2  0  0  0
 40 58  1  0  0  0
 41110  1  0  0  0
 41111  1  0  0  0
 41112  1  0  0  0
 41 48  1  0  0  0
 42 43  1  0  0  0
 42 66  1  0  0  0
 42113  1  0  0  0
 42114  1  0  0  0
 43 44  1  0  0  0
 44115  1  0  0  0
 45 46  2  0  0  0
 45116  1  0  0  0
 46117  1  0  0  0
 47118  1  0  0  0
 47119  1  0  0  0
 48 56  1  0  0  0
 48 65  1  0  0  0
 48120  1  0  0  0
 49 50  1  0  0  0
 49 53  1  0  0  0
 49 64  1  0  0  0
 49121  1  0  0  0
 50 51  1  0  0  0
 50122  1  0  0  0
 50123  1  0  0  0
 51 52  1  0  0  0
 51124  1  0  0  0
 51125  1  0  0  0
 52126  1  0  0  0
 52127  1  0  0  0
 53 54  1  0  0  0
 54 55  2  0  0  0
 54128  1  0  0  0
 55 57  1  0  0  0
 55129  1  0  0  0
 56 69  2  0  0  0
 57 58  2  0  0  0
 57130  1  0  0  0
 58131  1  0  0  0
 59 60  1  0  0  0
 59 61  1  0  0  0
 59 62  1  0  0  0
 60132  1  0  0  0
 60133  1  0  0  0
 60134  1  0  0  0
 61135  1  0  0  0
 61136  1  0  0  0
 61137  1  0  0  0
 62138  1  0  0  0
 62139  1  0  0  0
 62140  1  0  0  0
 63 65  1  0  0  0
 63141  1  0  0  0
 63142  1  0  0  0
 63143  1  0  0  0
 64144  1  0  0  0
 65145  1  0  0  0
 68 83  1  0  0  0
 71 72  2  0  0  0
 71 75  1  0  0  0
 71146  1  0  0  0
 72 76  1  0  0  0
 72147  1  0  0  0
 73 74  1  0  0  0
 73 75  2  0  0  0
 73148  1  0  0  0
 74 76  2  0  0  0
 74 81  1  0  0  0
 75 85  1  0  0  0
 76 84  1  0  0  0
 77 78  1  0  0  0
 77 79  1  0  0  0
 77149  1  0  0  0
 77150  1  0  0  0
 78 80  1  0  0  0
 78151  1  0  0  0
 78152  1  0  0  0
 79 86  1  0  0  0
 79153  1  0  0  0
 79154  1  0  0  0
 80 86  1  0  0  0
 80155  1  0  0  0
 80156  1  0  0  0
 81157  1  0  0  0
 81158  1  0  0  0
 81 86  1  0  0  0
 82 83  1  0  0  0
 82 85  1  0  0  0
 82159  1  0  0  0
 82160  1  0  0  0
 83161  1  0  0  0
 83162  1  0  0  0
 84163  1  0  0  0
 85164  1  0  0  0
 86165  1  0  0  0
M  CHG  1  86   1
M  ISO  4   1 100  68 101  83 101  84 100
M  END
> <chiral flag>
0

> <version>
0

> <s_m_source_file>
/data/baiqing/PycharmProjects/Reinvent-master-3.2/result/LINK_invent/BTK/process_docking_weight1_custom_product_contain_oxygen_bond_distance_aromatic_linkinvent_7_9_3/rearranged_h_0006.sdf

> <i_m_source_file_index>
1

> <r_mmod_Potential_Energy-OPLS-2005>
339.517364501953

> <r_mmod_Stretch_Energy-OPLS-2005>
212.830017089844

> <r_mmod_Bend_Energy-OPLS-2005>
307.576019287109

> <r_mmod_Torsional_Energy-OPLS-2005>
286.343292236328

> <r_mmod_Improper_Torsional_Energy-OPLS-2005>
9.85055828094482

> <r_mmod_Van_der_Waal_Energy-OPLS-2005>
122.140182495117

> <r_mmod_Electrostatic_Energy-OPLS-2005>
-300.821166992188

> <r_mmod_Solvation_Energy-OPLS-2005>
-466.652740478516

> <b_mmod_Minimization_Converged-OPLS-2005>
0

> <r_mmod_RMS_Derivative-OPLS-2005>
1.38619387149811

$$$$
1
                    3D
 Structure written by MMmdl.
165174  0  0  1  0            999 V2000
  -30.7343  -14.4154   20.5792 C   0  0  0  0  0  0
  -30.4109  -12.2730   19.4191 C   0  0  0  0  0  0
  -29.4898  -12.5005   18.2043 C   0  0  0  0  0  0
  -28.0106  -12.3704   18.6155 C   0  0  0  0  0  0
  -27.6628  -13.2060   19.8771 C   0  0  2  0  0  0
  -28.7021  -12.9754   20.9980 C   0  0  0  0  0  0
  -25.2591  -13.8165   20.5683 C   0  0  0  0  0  0
  -24.1838  -13.0443   20.9172 C   0  0  0  0  0  0
  -24.6388  -11.6908   20.8731 C   0  0  0  0  0  0
  -23.9056  -10.4294   21.0403 C   0  0  0  0  0  0
  -24.3611   -9.4210   21.9180 C   0  0  0  0  0  0
  -23.6290   -8.2244   22.0751 C   0  0  0  0  0  0
  -22.4273   -8.0280   21.3544 C   0  0  0  0  0  0
  -21.9906   -9.0253   20.4646 C   0  0  0  0  0  0
  -22.7230  -10.2133   20.3051 C   0  0  0  0  0  0
  -21.6852   -6.0735   22.5279 C   0  0  0  0  0  0
  -21.4012   -6.5638   23.8212 C   0  0  0  0  0  0
  -21.3657   -5.6789   24.9175 C   0  0  0  0  0  0
  -21.6044   -4.3052   24.7224 C   0  0  0  0  0  0
  -21.8819   -3.8146   23.4345 C   0  0  0  0  0  0
  -21.9193   -4.6963   22.3402 C   0  0  0  0  0  0
  -22.7862  -13.5243   21.1840 C   0  0  0  0  0  0
  -22.1663   -4.2150   21.0979 F   0  0  0  0  0  0
  -21.5628   -3.4533   25.7736 F   0  0  0  0  0  0
  -30.0396  -13.2554   20.4485 N   0  0  0  0  0  0
  -26.3026  -12.9335   20.3375 N   0  0  0  0  0  0
  -25.9315  -11.6493   20.5768 N   0  0  0  0  0  0
  -22.0500  -12.8234   22.0394 N   0  0  0  0  0  0
  -25.4325  -15.1884   20.4107 N   0  0  0  0  0  0
  -31.8602  -14.5623   20.0987 O   0  0  0  0  0  0
  -21.6638   -6.8878   21.4240 O   0  0  0  0  0  0
  -22.3551  -14.5554   20.6694 O   0  0  0  0  0  0
  -24.6076  -31.8714   23.2125 C   0  0  0  0  0  0
  -25.8991  -32.4843   23.8412 C   0  0  1  0  0  0
  -27.2550  -27.4820   20.1036 C   0  0  0  0  0  0
  -25.5867  -33.8640   24.2347 N   0  0  0  0  0  0
  -23.3940  -30.4925   21.5507 C   0  0  2  0  0  0
  -24.8457  -28.9616   20.1168 C   0  0  0  0  0  0
  -22.7375  -29.4669   22.5012 C   0  0  0  0  0  0
  -18.0263  -28.1374   22.8493 C   0  0  0  0  0  0
  -24.1482  -36.7329   23.2642 C   0  0  0  0  0  0
  -25.9134  -30.8564   21.3541 C   0  0  0  0  0  0
  -25.9969  -29.4904   20.7112 C   0  0  0  0  0  0
  -27.2012  -28.7618   20.7062 C   0  0  0  0  0  0
  -26.0896  -26.9636   19.5021 C   0  0  0  0  0  0
  -24.8843  -27.6935   19.5093 C   0  0  0  0  0  0
  -23.6014  -29.8186   20.1661 C   0  0  0  0  0  0
  -25.4099  -36.3127   24.0347 C   0  0  1  0  0  0
  -20.5848  -28.3649   23.1340 C   0  0  2  0  0  0
  -20.6749  -26.9391   22.5431 C   0  0  0  0  0  0
  -19.5740  -26.6386   21.5213 C   0  0  0  0  0  0
  -18.1912  -26.7927   22.1611 C   0  0  0  0  0  0
  -19.1511  -28.8827   23.2916 C   0  0  0  0  0  0
  -18.9444  -30.1435   23.8923 C   0  0  0  0  0  0
  -17.6448  -30.6582   24.0568 C   0  0  0  0  0  0
  -25.9019  -34.9489   23.5145 C   0  0  0  0  0  0
  -16.5338  -29.9089   23.6321 C   0  0  0  0  0  0
  -16.7254  -28.6504   23.0343 C   0  0  0  0  0  0
  -26.4453  -31.6604   25.0711 C   0  0  0  0  0  0
  -25.3747  -31.3692   26.1483 C   0  0  0  0  0  0
  -27.0275  -30.3058   24.6030 C   0  0  0  0  0  0
  -27.6043  -32.4315   25.7459 C   0  0  0  0  0  0
  -27.5582  -37.1814   24.8462 C   0  0  0  0  0  0
  -21.4110  -29.3021   22.3749 N   0  0  0  0  0  0
  -26.4292  -37.3803   23.9410 N   0  0  0  0  0  0
  -24.6563  -31.0866   22.0992 N   0  0  0  0  0  0
  -23.4175  -28.8221   23.3039 O   0  0  0  0  0  0
  -28.3877  -26.6992   20.0633 O   0  0  0  0  0  0
  -26.5583  -34.8933   22.4707 O   0  0  0  0  0  0
  -23.5285  -32.1432   23.7560 O   0  0  0  0  0  0
  -31.4834  -18.8069   20.2587 C   0  0  0  0  0  0
  -29.7071  -19.0760   21.8857 C   0  0  0  0  0  0
  -31.3013  -17.4150   20.2862 C   0  0  0  0  0  0
  -29.5294  -17.6759   21.9218 C   0  0  0  0  0  0
  -30.6873  -19.6613   21.0505 C   0  0  0  0  0  0
  -30.3257  -16.8239   21.1262 C   0  0  0  0  0  0
  -31.2335  -23.1583   19.9447 C   0  0  0  0  0  0
  -31.6673  -21.6913   19.9461 C   0  0  0  0  0  0
  -30.0227  -22.0251   21.6613 C   0  0  0  0  0  0
  -30.6719  -23.3907   21.3572 C   0  0  2  0  0  0
  -29.1564  -24.6659   22.8358 C   0  0  0  0  0  0
  -30.4133  -25.8390   21.0410 C   0  0  0  0  0  0
  -29.4546  -27.0362   20.9477 C   0  0  0  0  0  0
  -30.8863  -21.0558   21.0011 N   0  0  0  0  0  0
  -30.0734  -15.4181   21.1866 N   0  0  0  0  0  0
  -29.7598  -24.5670   21.4797 N   0  3  1  0  0  0
  -31.4580  -12.3459   19.1191 H   0  0  0  0  0  0
  -30.2872  -11.2614   19.8088 H   0  0  0  0  0  0
  -29.7223  -11.7837   17.4158 H   0  0  0  0  0  0
  -29.6702  -13.4903   17.7817 H   0  0  0  0  0  0
  -27.8129  -11.3149   18.8056 H   0  0  0  0  0  0
  -27.3622  -12.6546   17.7861 H   0  0  0  0  0  0
  -27.7124  -14.2558   19.5867 H   0  0  0  0  0  0
  -28.6635  -11.9407   21.3421 H   0  0  0  0  0  0
  -28.4691  -13.5797   21.8756 H   0  0  0  0  0  0
  -25.2760   -9.5685   22.4749 H   0  0  0  0  0  0
  -24.0002   -7.4634   22.7467 H   0  0  0  0  0  0
  -21.0837   -8.8767   19.8953 H   0  0  0  0  0  0
  -22.3688  -10.9668   19.6155 H   0  0  0  0  0  0
  -21.2000   -7.6146   23.9716 H   0  0  0  0  0  0
  -21.1478   -6.0519   25.9079 H   0  0  0  0  0  0
  -22.0599   -2.7608   23.2842 H   0  0  0  0  0  0
  -22.4107  -11.9887   22.4774 H   0  0  0  0  0  0
  -21.1120  -13.1267   22.2602 H   0  0  0  0  0  0
  -24.6682  -15.8462   20.5196 H   0  0  0  0  0  0
  -26.2908  -15.6263   20.0997 H   0  0  0  0  0  0
  -26.7068  -32.5594   23.1196 H   0  0  0  0  0  0
  -25.0020  -33.9809   25.0493 H   0  0  0  0  0  0
  -22.6799  -31.3066   21.4109 H   0  0  0  0  0  0
  -23.3737  -35.9671   23.3319 H   0  0  0  0  0  0
  -24.3579  -36.8924   22.2054 H   0  0  0  0  0  0
  -23.7244  -37.6545   23.6640 H   0  0  0  0  0  0
  -26.0085  -31.6197   20.5805 H   0  0  0  0  0  0
  -26.8066  -30.9230   21.9630 H   0  0  0  0  0  0
  -28.0742  -29.2074   21.1603 H   0  0  0  0  0  0
  -26.1162  -25.9898   19.0333 H   0  0  0  0  0  0
  -23.9998  -27.2777   19.0464 H   0  0  0  0  0  0
  -23.7002  -30.5899   19.4014 H   0  0  0  0  0  0
  -22.7293  -29.2291   19.8770 H   0  0  0  0  0  0
  -25.1273  -36.2001   25.0840 H   0  0  0  0  0  0
  -20.9942  -28.3213   24.1459 H   0  0  0  0  0  0
  -20.5639  -26.2258   23.3613 H   0  0  0  0  0  0
  -21.6625  -26.7435   22.1237 H   0  0  0  0  0  0
  -19.6902  -25.6303   21.1227 H   0  0  0  0  0  0
  -19.6693  -27.3207   20.6755 H   0  0  0  0  0  0
  -17.4195  -26.6700   21.3996 H   0  0  0  0  0  0
  -18.0293  -26.0055   22.8988 H   0  0  0  0  0  0
  -19.7921  -30.7238   24.2310 H   0  0  0  0  0  0
  -17.5007  -31.6264   24.5169 H   0  0  0  0  0  0
  -15.5341  -30.3001   23.7631 H   0  0  0  0  0  0
  -15.8654  -28.0835   22.7040 H   0  0  0  0  0  0
  -24.5922  -30.7026   25.7839 H   0  0  0  0  0  0
  -24.8930  -32.2839   26.4947 H   0  0  0  0  0  0
  -25.8131  -30.8868   27.0228 H   0  0  0  0  0  0
  -26.2790  -29.6826   24.1121 H   0  0  0  0  0  0
  -27.4111  -29.7284   25.4452 H   0  0  0  0  0  0
  -27.8595  -30.4405   23.9114 H   0  0  0  0  0  0
  -27.2665  -33.3589   26.2098 H   0  0  0  0  0  0
  -28.3812  -32.6922   25.0259 H   0  0  0  0  0  0
  -28.0761  -31.8407   26.5321 H   0  0  0  0  0  0
  -28.2613  -38.0098   24.7493 H   0  0  0  0  0  0
  -28.1061  -36.2631   24.6293 H   0  0  0  0  0  0
  -27.2307  -37.1481   25.8867 H   0  0  0  0  0  0
  -20.9260  -29.8743   21.6980 H   0  0  0  0  0  0
  -26.0190  -38.2888   24.1400 H   0  0  0  0  0  0
  -32.2527  -19.1972   19.6094 H   0  0  0  0  0  0
  -29.0740  -19.6869   22.5120 H   0  0  0  0  0  0
  -31.9340  -16.8376   19.6319 H   0  0  0  0  0  0
  -28.7681  -17.2635   22.5688 H   0  0  0  0  0  0
  -30.4526  -23.3037   19.1969 H   0  0  0  0  0  0
  -32.0640  -23.8194   19.6954 H   0  0  0  0  0  0
  -32.7298  -21.6040   20.1809 H   0  0  0  0  0  0
  -31.4965  -21.2390   18.9675 H   0  0  0  0  0  0
  -29.0167  -21.9579   21.2432 H   0  0  0  0  0  0
  -29.9655  -21.8405   22.7353 H   0  0  0  0  0  0
  -31.5126  -23.5303   22.0403 H   0  0  0  0  0  0
  -28.6644  -23.7397   23.1310 H   0  0  0  0  0  0
  -28.3846  -25.4327   22.8847 H   0  0  0  0  0  0
  -29.9125  -24.8959   23.5874 H   0  0  0  0  0  0
  -31.2361  -26.0809   21.7152 H   0  0  0  0  0  0
  -30.8532  -25.7177   20.0525 H   0  0  0  0  0  0
  -29.9894  -27.9033   20.5576 H   0  0  0  0  0  0
  -29.0931  -27.3073   21.9401 H   0  0  0  0  0  0
  -29.2130  -15.1412   21.6338 H   0  0  0  0  0  0
  -28.9926  -24.4075   20.8409 H   0  0  0  0  0  0
  1 25  1  0  0  0
  1 30  2  0  0  0
  1 85  1  0  0  0
  2  3  1  0  0  0
  2 25  1  0  0  0
  2 87  1  0  0  0
  2 88  1  0  0  0
  3  4  1  0  0  0
  3 89  1  0  0  0
  3 90  1  0  0  0
  4  5  1  0  0  0
  4 91  1  0  0  0
  4 92  1  0  0  0
  5  6  1  0  0  0
  5 26  1  0  0  0
  5 93  1  0  0  0
  6 25  1  0  0  0
  6 94  1  0  0  0
  6 95  1  0  0  0
  7  8  2  0  0  0
  7 26  1  0  0  0
  7 29  1  0  0  0
  8  9  1  0  0  0
  8 22  1  0  0  0
  9 10  1  0  0  0
  9 27  2  0  0  0
 10 11  2  0  0  0
 10 15  1  0  0  0
 11 12  1  0  0  0
 11 96  1  0  0  0
 12 13  2  0  0  0
 12 97  1  0  0  0
 13 14  1  0  0  0
 13 31  1  0  0  0
 14 15  2  0  0  0
 14 98  1  0  0  0
 15 99  1  0  0  0
 16 17  2  0  0  0
 16 21  1  0  0  0
 16 31  1  0  0  0
 17 18  1  0  0  0
 17100  1  0  0  0
 18 19  2  0  0  0
 18101  1  0  0  0
 19 20  1  0  0  0
 19 24  1  0  0  0
 20 21  2  0  0  0
 20102  1  0  0  0
 21 23  1  0  0  0
 22 28  1  0  0  0
 22 32  2  0  0  0
 26 27  1  0  0  0
 28103  1  0  0  0
 28104  1  0  0  0
 29105  1  0  0  0
 29106  1  0  0  0
 33 34  1  0  0  0
 33 66  1  0  0  0
 33 70  2  0  0  0
 34 36  1  0  0  0
 34 59  1  0  0  0
 34107  1  0  0  0
 35 44  2  0  0  0
 35 45  1  0  0  0
 35 68  1  0  0  0
 36 56  1  0  0  0
 36108  1  0  0  0
 37 39  1  0  0  0
 37 47  1  0  0  0
 37 66  1  0  0  0
 37109  1  0  0  0
 38 43  2  0  0  0
 38 46  1  0  0  0
 38 47  1  0  0  0
 39 64  1  0  0  0
 39 67  2  0  0  0
 40 52  1  0  0  0
 40 53  2  0  0  0
 40 58  1  0  0  0
 41110  1  0  0  0
 41111  1  0  0  0
 41112  1  0  0  0
 41 48  1  0  0  0
 42 43  1  0  0  0
 42 66  1  0  0  0
 42113  1  0  0  0
 42114  1  0  0  0
 43 44  1  0  0  0
 44115  1  0  0  0
 45 46  2  0  0  0
 45116  1  0  0  0
 46117  1  0  0  0
 47118  1  0  0  0
 47119  1  0  0  0
 48 56  1  0  0  0
 48 65  1  0  0  0
 48120  1  0  0  0
 49 50  1  0  0  0
 49 53  1  0  0  0
 49 64  1  0  0  0
 49121  1  0  0  0
 50 51  1  0  0  0
 50122  1  0  0  0
 50123  1  0  0  0
 51 52  1  0  0  0
 51124  1  0  0  0
 51125  1  0  0  0
 52126  1  0  0  0
 52127  1  0  0  0
 53 54  1  0  0  0
 54 55  2  0  0  0
 54128  1  0  0  0
 55 57  1  0  0  0
 55129  1  0  0  0
 56 69  2  0  0  0
 57 58  2  0  0  0
 57130  1  0  0  0
 58131  1  0  0  0
 59 60  1  0  0  0
 59 61  1  0  0  0
 59 62  1  0  0  0
 60132  1  0  0  0
 60133  1  0  0  0
 60134  1  0  0  0
 61135  1  0  0  0
 61136  1  0  0  0
 61137  1  0  0  0
 62138  1  0  0  0
 62139  1  0  0  0
 62140  1  0  0  0
 63 65  1  0  0  0
 63141  1  0  0  0
 63142  1  0  0  0
 63143  1  0  0  0
 64144  1  0  0  0
 65145  1  0  0  0
 68 83  1  0  0  0
 71 73  2  0  0  0
 71 75  1  0  0  0
 71146  1  0  0  0
 72 74  1  0  0  0
 72 75  2  0  0  0
 72147  1  0  0  0
 73 76  1  0  0  0
 73148  1  0  0  0
 74 76  2  0  0  0
 74149  1  0  0  0
 75 84  1  0  0  0
 76 85  1  0  0  0
 77 78  1  0  0  0
 77150  1  0  0  0
 77151  1  0  0  0
 77 80  1  0  0  0
 78 84  1  0  0  0
 78152  1  0  0  0
 78153  1  0  0  0
 79 80  1  0  0  0
 79 84  1  0  0  0
 79154  1  0  0  0
 79155  1  0  0  0
 80 86  1  0  0  0
 80156  1  0  0  0
 81157  1  0  0  0
 81158  1  0  0  0
 81159  1  0  0  0
 81 86  1  0  0  0
 82 83  1  0  0  0
 82 86  1  0  0  0
 82160  1  0  0  0
 82161  1  0  0  0
 83162  1  0  0  0
 83163  1  0  0  0
 85164  1  0  0  0
 86165  1  0  0  0
M  CHG  1  86   1
M  ISO  4   1 100  68 101  83 101  85 100
M  END
> <chiral flag>
0

> <version>
0

> <s_m_source_file>
/data/baiqing/PycharmProjects/Reinvent-master-3.2/result/LINK_invent/BTK/process_docking_weight1_custom_product_contain_oxygen_bond_distance_aromatic_linkinvent_7_9_3/rearranged_h_0006.sdf

> <i_m_source_file_index>
2

> <r_mmod_Potential_Energy-OPLS-2005>
-84.633903503418

> <r_mmod_Stretch_Energy-OPLS-2005>
35.2573432922363

> <r_mmod_Bend_Energy-OPLS-2005>
148.325180053711

> <r_mmod_Torsional_Energy-OPLS-2005>
266.842651367188

> <r_mmod_Improper_Torsional_Energy-OPLS-2005>
3.79966688156128

> <r_mmod_Van_der_Waal_Energy-OPLS-2005>
173.74382019043

> <r_mmod_Electrostatic_Energy-OPLS-2005>
-293.655609130859

> <r_mmod_Solvation_Energy-OPLS-2005>
-428.142822265625

> <b_mmod_Minimization_Converged-OPLS-2005>
0

> <r_mmod_RMS_Derivative-OPLS-2005>
0.366994619369507

$$$$
2
                    3D
 Structure written by MMmdl.
178188  0  0  1  0            999 V2000
  -30.6914  -14.5504   20.4077 C   0  0  0  0  0  0
  -30.4117  -12.3140   19.4495 C   0  0  0  0  0  0
  -29.4975  -12.4529   18.2167 C   0  0  0  0  0  0
  -28.0186  -12.3200   18.6362 C   0  0  0  0  0  0
  -27.6426  -13.2202   19.8445 C   0  0  2  0  0  0
  -28.6901  -13.1267   20.9747 C   0  0  0  0  0  0
  -25.2535  -13.8199   20.5704 C   0  0  0  0  0  0
  -24.1824  -13.0444   20.9214 C   0  0  0  0  0  0
  -24.6396  -11.6922   20.8755 C   0  0  0  0  0  0
  -23.9066  -10.4294   21.0410 C   0  0  0  0  0  0
  -24.3622   -9.4206   21.9171 C   0  0  0  0  0  0
  -23.6299   -8.2240   22.0739 C   0  0  0  0  0  0
  -22.4272   -8.0283   21.3542 C   0  0  0  0  0  0
  -21.9918   -9.0250   20.4633 C   0  0  0  0  0  0
  -22.7248  -10.2130   20.3048 C   0  0  0  0  0  0
  -21.6857   -6.0744   22.5275 C   0  0  0  0  0  0
  -21.4018   -6.5644   23.8209 C   0  0  0  0  0  0
  -21.3660   -5.6790   24.9166 C   0  0  0  0  0  0
  -21.6050   -4.3051   24.7210 C   0  0  0  0  0  0
  -21.8820   -3.8149   23.4325 C   0  0  0  0  0  0
  -21.9195   -4.6975   22.3392 C   0  0  0  0  0  0
  -22.7840  -13.5195   21.1888 C   0  0  0  0  0  0
  -22.1660   -4.2169   21.0969 F   0  0  0  0  0  0
  -21.5629   -3.4532   25.7721 F   0  0  0  0  0  0
  -30.0092  -13.3770   20.3815 N   0  0  0  0  0  0
  -26.2943  -12.9377   20.3281 N   0  0  0  0  0  0
  -25.9321  -11.6531   20.5776 N   0  0  0  0  0  0
  -22.0486  -12.8155   22.0416 N   0  0  0  0  0  0
  -25.4245  -15.1914   20.4123 N   0  0  0  0  0  0
  -31.9169  -14.5840   20.3244 O   0  0  0  0  0  0
  -21.6633   -6.8882   21.4241 O   0  0  0  0  0  0
  -22.3521  -14.5506   20.6745 O   0  0  0  0  0  0
  -24.6184  -31.8688   23.2117 C   0  0  0  0  0  0
  -25.9075  -32.4833   23.8407 C   0  0  1  0  0  0
  -27.2222  -27.4021   20.0846 C   0  0  0  0  0  0
  -25.5943  -33.8631   24.2362 N   0  0  0  0  0  0
  -23.4068  -30.4925   21.5540 C   0  0  2  0  0  0
  -24.8470  -28.9534   20.1193 C   0  0  0  0  0  0
  -22.7415  -29.4671   22.4999 C   0  0  0  0  0  0
  -18.0271  -28.1398   22.8486 C   0  0  0  0  0  0
  -24.1485  -36.7301   23.2622 C   0  0  0  0  0  0
  -25.9407  -30.8197   21.3696 C   0  0  0  0  0  0
  -26.0114  -29.4515   20.7142 C   0  0  0  0  0  0
  -27.2003  -28.6830   20.6926 C   0  0  0  0  0  0
  -26.0311  -26.9201   19.4971 C   0  0  0  0  0  0
  -24.8515  -27.6869   19.5108 C   0  0  0  0  0  0
  -23.6151  -29.8275   20.1683 C   0  0  0  0  0  0
  -25.4113  -36.3133   24.0341 C   0  0  1  0  0  0
  -20.5859  -28.3704   23.1318 C   0  0  2  0  0  0
  -20.6766  -26.9442   22.5420 C   0  0  0  0  0  0
  -19.5747  -26.6420   21.5215 C   0  0  0  0  0  0
  -18.1918  -26.7957   22.1605 C   0  0  0  0  0  0
  -19.1521  -28.8865   23.2903 C   0  0  0  0  0  0
  -18.9455  -30.1449   23.8948 C   0  0  0  0  0  0
  -17.6458  -30.6588   24.0590 C   0  0  0  0  0  0
  -25.9047  -34.9487   23.5150 C   0  0  0  0  0  0
  -16.5343  -29.9099   23.6341 C   0  0  0  0  0  0
  -16.7261  -28.6514   23.0373 C   0  0  0  0  0  0
  -26.4507  -31.6582   25.0707 C   0  0  0  0  0  0
  -25.3784  -31.3709   26.1470 C   0  0  0  0  0  0
  -27.0314  -30.3011   24.6075 C   0  0  0  0  0  0
  -27.6088  -32.4280   25.7471 C   0  0  0  0  0  0
  -27.5612  -37.1821   24.8456 C   0  0  0  0  0  0
  -21.4155  -29.3081   22.3725 N   0  0  0  0  0  0
  -26.4313  -37.3811   23.9406 N   0  0  0  0  0  0
  -24.6744  -31.0752   22.1023 N   0  0  0  0  0  0
  -23.4177  -28.8206   23.3061 O   0  0  0  0  0  0
  -28.3995  -26.6714   20.0995 O   0  0  0  0  0  0
  -26.5588  -34.8942   22.4696 O   0  0  0  0  0  0
  -23.5376  -32.1458   23.7494 O   0  0  0  0  0  0
  -28.0398  -19.0108   17.5151 C   0  0  0  0  0  0
  -27.8069  -20.1818   18.2435 C   0  0  0  0  0  0
  -28.8401  -17.9877   18.0471 C   0  0  0  0  0  0
  -29.3394  -18.0685   19.3800 C   0  0  0  0  0  0
  -28.9468  -19.2029   20.1814 C   0  0  0  0  0  0
  -28.2887  -20.3243   19.5609 C   0  0  0  0  0  0
  -29.3220  -16.9231   17.0765 C   0  0  0  0  0  0
  -30.6906  -17.3242   16.5033 C   0  0  0  0  0  0
  -31.6246  -17.9218   17.5737 C   0  0  0  0  0  0
  -28.4460  -20.3901   23.7241 C   0  0  0  0  0  0
  -29.9744  -20.3512   23.6744 C   0  0  0  0  0  0
  -27.9747  -19.4711   22.5870 C   0  0  0  0  0  0
  -30.3059  -20.1656   22.1925 C   0  0  0  0  0  0
  -31.6757  -17.0418   18.8353 C   0  0  0  0  0  0
  -29.2136  -19.2056   21.7010 C   0  0  0  0  0  0
  -30.4416  -17.0419   19.8212 C   0  0  2  0  0  0
  -28.1061  -24.1400   20.2158 C   0  0  0  0  0  0
  -28.3278  -22.8123   19.4287 C   0  0  0  0  0  0
  -28.4995  -25.4114   19.3987 C   0  0  0  0  0  0
  -28.1087  -21.5739   20.2072 N   0  0  0  0  0  0
  -29.9530  -15.6730   20.1827 N   0  0  0  0  0  0
  -31.4609  -12.3883   19.1584 H   0  0  0  0  0  0
  -30.2931  -11.3344   19.9162 H   0  0  0  0  0  0
  -29.7510  -11.6915   17.4769 H   0  0  0  0  0  0
  -29.6648  -13.4182   17.7359 H   0  0  0  0  0  0
  -27.8459  -11.2744   18.8943 H   0  0  0  0  0  0
  -27.3655  -12.5288   17.7896 H   0  0  0  0  0  0
  -27.6433  -14.2433   19.4707 H   0  0  0  0  0  0
  -28.6673  -12.1445   21.4491 H   0  0  0  0  0  0
  -28.4741  -13.8567   21.7578 H   0  0  0  0  0  0
  -25.2771   -9.5665   22.4754 H   0  0  0  0  0  0
  -24.0020   -7.4607   22.7441 H   0  0  0  0  0  0
  -21.0860   -8.8763   19.8912 H   0  0  0  0  0  0
  -22.3720  -10.9669   19.6157 H   0  0  0  0  0  0
  -21.2016   -7.6150   23.9727 H   0  0  0  0  0  0
  -21.1489   -6.0509   25.9076 H   0  0  0  0  0  0
  -22.0613   -2.7615   23.2819 H   0  0  0  0  0  0
  -22.4087  -11.9776   22.4733 H   0  0  0  0  0  0
  -21.1104  -13.1182   22.2634 H   0  0  0  0  0  0
  -24.6562  -15.8449   20.5177 H   0  0  0  0  0  0
  -26.2685  -15.6333   20.0717 H   0  0  0  0  0  0
  -26.7131  -32.5551   23.1154 H   0  0  0  0  0  0
  -25.0174  -33.9769   25.0571 H   0  0  0  0  0  0
  -22.6969  -31.3113   21.4168 H   0  0  0  0  0  0
  -23.3791  -35.9588   23.3255 H   0  0  0  0  0  0
  -24.3591  -36.8929   22.2042 H   0  0  0  0  0  0
  -23.7171  -37.6471   23.6637 H   0  0  0  0  0  0
  -26.0580  -31.5832   20.5996 H   0  0  0  0  0  0
  -26.8280  -30.8722   21.9876 H   0  0  0  0  0  0
  -28.1030  -29.0669   21.1469 H   0  0  0  0  0  0
  -25.9799  -25.9474   19.0310 H   0  0  0  0  0  0
  -23.9514  -27.2975   19.0554 H   0  0  0  0  0  0
  -23.7355  -30.6068   19.4156 H   0  0  0  0  0  0
  -22.7343  -29.2606   19.8625 H   0  0  0  0  0  0
  -25.1270  -36.2031   25.0835 H   0  0  0  0  0  0
  -20.9940  -28.3307   24.1437 H   0  0  0  0  0  0
  -20.5706  -26.2317   23.3607 H   0  0  0  0  0  0
  -21.6642  -26.7517   22.1200 H   0  0  0  0  0  0
  -19.6932  -25.6357   21.1191 H   0  0  0  0  0  0
  -19.6680  -27.3282   20.6782 H   0  0  0  0  0  0
  -17.4193  -26.6740   21.3990 H   0  0  0  0  0  0
  -18.0308  -26.0072   22.8970 H   0  0  0  0  0  0
  -19.7928  -30.7251   24.2352 H   0  0  0  0  0  0
  -17.5012  -31.6267   24.5200 H   0  0  0  0  0  0
  -15.5349  -30.3025   23.7641 H   0  0  0  0  0  0
  -15.8647  -28.0833   22.7103 H   0  0  0  0  0  0
  -24.5904  -30.7109   25.7837 H   0  0  0  0  0  0
  -24.9056  -32.2885   26.4977 H   0  0  0  0  0  0
  -25.8140  -30.8824   27.0192 H   0  0  0  0  0  0
  -26.2856  -29.6792   24.1112 H   0  0  0  0  0  0
  -27.4069  -29.7216   25.4523 H   0  0  0  0  0  0
  -27.8705  -30.4310   23.9229 H   0  0  0  0  0  0
  -27.2725  -33.3597   26.2039 H   0  0  0  0  0  0
  -28.3916  -32.6804   25.0300 H   0  0  0  0  0  0
  -28.0734  -31.8395   26.5392 H   0  0  0  0  0  0
  -28.2608  -38.0147   24.7564 H   0  0  0  0  0  0
  -28.1128  -36.2685   24.6196 H   0  0  0  0  0  0
  -27.2331  -37.1372   25.8856 H   0  0  0  0  0  0
  -20.9330  -29.8767   21.6904 H   0  0  0  0  0  0
  -26.0218  -38.2886   24.1425 H   0  0  0  0  0  0
  -27.6880  -18.9522   16.4928 H   0  0  0  0  0  0
  -27.2511  -20.9698   17.7570 H   0  0  0  0  0  0
  -28.6069  -16.7852   16.2626 H   0  0  0  0  0  0
  -29.3799  -15.9544   17.5723 H   0  0  0  0  0  0
  -30.5542  -18.0723   15.7195 H   0  0  0  0  0  0
  -31.1526  -16.4654   16.0174 H   0  0  0  0  0  0
  -31.3371  -18.9449   17.8230 H   0  0  0  0  0  0
  -32.6246  -18.0044   17.1489 H   0  0  0  0  0  0
  -28.0943  -21.4062   23.5370 H   0  0  0  0  0  0
  -28.0557  -20.0866   24.6967 H   0  0  0  0  0  0
  -30.3305  -19.4860   24.2345 H   0  0  0  0  0  0
  -30.4345  -21.2369   24.1131 H   0  0  0  0  0  0
  -27.1529  -19.9406   22.0475 H   0  0  0  0  0  0
  -27.5825  -18.5313   22.9799 H   0  0  0  0  0  0
  -31.3132  -19.7817   22.0309 H   0  0  0  0  0  0
  -30.2477  -21.1287   21.6873 H   0  0  0  0  0  0
  -32.5549  -17.3414   19.4097 H   0  0  0  0  0  0
  -31.9097  -16.0476   18.4647 H   0  0  0  0  0  0
  -29.5077  -18.2070   22.0138 H   0  0  0  0  0  0
  -30.8859  -17.4046   20.7445 H   0  0  0  0  0  0
  -28.6935  -24.1243   21.1329 H   0  0  0  0  0  0
  -27.0632  -24.2085   20.5222 H   0  0  0  0  0  0
  -29.3440  -22.7907   19.0313 H   0  0  0  0  0  0
  -27.6639  -22.8413   18.5643 H   0  0  0  0  0  0
  -27.9848  -25.4413   18.4380 H   0  0  0  0  0  0
  -29.5515  -25.3159   19.1347 H   0  0  0  0  0  0
  -28.4913  -21.5966   21.1488 H   0  0  0  0  0  0
  -28.9542  -15.5480   20.1757 H   0  0  0  0  0  0
  1 25  1  0  0  0
  1 30  2  0  0  0
  1 91  1  0  0  0
  2  3  1  0  0  0
  2 25  1  0  0  0
  2 92  1  0  0  0
  2 93  1  0  0  0
  3  4  1  0  0  0
  3 94  1  0  0  0
  3 95  1  0  0  0
  4  5  1  0  0  0
  4 96  1  0  0  0
  4 97  1  0  0  0
  5  6  1  0  0  0
  5 26  1  0  0  0
  5 98  1  0  0  0
  6 25  1  0  0  0
  6 99  1  0  0  0
  6100  1  0  0  0
  7  8  2  0  0  0
  7 26  1  0  0  0
  7 29  1  0  0  0
  8  9  1  0  0  0
  8 22  1  0  0  0
  9 10  1  0  0  0
  9 27  2  0  0  0
 10 11  2  0  0  0
 10 15  1  0  0  0
 11 12  1  0  0  0
 11101  1  0  0  0
 12 13  2  0  0  0
 12102  1  0  0  0
 13 14  1  0  0  0
 13 31  1  0  0  0
 14 15  2  0  0  0
 14103  1  0  0  0
 15104  1  0  0  0
 16 17  2  0  0  0
 16 21  1  0  0  0
 16 31  1  0  0  0
 17 18  1  0  0  0
 17105  1  0  0  0
 18 19  2  0  0  0
 18106  1  0  0  0
 19 20  1  0  0  0
 19 24  1  0  0  0
 20 21  2  0  0  0
 20107  1  0  0  0
 21 23  1  0  0  0
 22 28  1  0  0  0
 22 32  2  0  0  0
 26 27  1  0  0  0
 28108  1  0  0  0
 28109  1  0  0  0
 29110  1  0  0  0
 29111  1  0  0  0
 33 34  1  0  0  0
 33 66  1  0  0  0
 33 70  2  0  0  0
 34 36  1  0  0  0
 34 59  1  0  0  0
 34112  1  0  0  0
 35 44  2  0  0  0
 35 45  1  0  0  0
 35 68  1  0  0  0
 36 56  1  0  0  0
 36113  1  0  0  0
 37 39  1  0  0  0
 37 47  1  0  0  0
 37 66  1  0  0  0
 37114  1  0  0  0
 38 43  2  0  0  0
 38 46  1  0  0  0
 38 47  1  0  0  0
 39 64  1  0  0  0
 39 67  2  0  0  0
 40 52  1  0  0  0
 40 53  2  0  0  0
 40 58  1  0  0  0
 41115  1  0  0  0
 41116  1  0  0  0
 41117  1  0  0  0
 41 48  1  0  0  0
 42 43  1  0  0  0
 42 66  1  0  0  0
 42118  1  0  0  0
 42119  1  0  0  0
 43 44  1  0  0  0
 44120  1  0  0  0
 45 46  2  0  0  0
 45121  1  0  0  0
 46122  1  0  0  0
 47123  1  0  0  0
 47124  1  0  0  0
 48 56  1  0  0  0
 48 65  1  0  0  0
 48125  1  0  0  0
 49 50  1  0  0  0
 49 53  1  0  0  0
 49 64  1  0  0  0
 49126  1  0  0  0
 50 51  1  0  0  0
 50127  1  0  0  0
 50128  1  0  0  0
 51 52  1  0  0  0
 51129  1  0  0  0
 51130  1  0  0  0
 52131  1  0  0  0
 52132  1  0  0  0
 53 54  1  0  0  0
 54 55  2  0  0  0
 54133  1  0  0  0
 55 57  1  0  0  0
 55134  1  0  0  0
 56 69  2  0  0  0
 57 58  2  0  0  0
 57135  1  0  0  0
 58136  1  0  0  0
 59 60  1  0  0  0
 59 61  1  0  0  0
 59 62  1  0  0  0
 60137  1  0  0  0
 60138  1  0  0  0
 60139  1  0  0  0
 61140  1  0  0  0
 61141  1  0  0  0
 61142  1  0  0  0
 62143  1  0  0  0
 62144  1  0  0  0
 62145  1  0  0  0
 63 65  1  0  0  0
 63146  1  0  0  0
 63147  1  0  0  0
 63148  1  0  0  0
 64149  1  0  0  0
 65150  1  0  0  0
 68 89  1  0  0  0
 71 72  2  0  0  0
 71 73  1  0  0  0
 71151  1  0  0  0
 72 76  1  0  0  0
 72152  1  0  0  0
 73 74  2  0  0  0
 73 77  1  0  0  0
 74 75  1  0  0  0
 74 86  1  0  0  0
 75 76  2  0  0  0
 75 85  1  0  0  0
 76 90  1  0  0  0
 77 78  1  0  0  0
 77153  1  0  0  0
 77154  1  0  0  0
 78 79  1  0  0  0
 78155  1  0  0  0
 78156  1  0  0  0
 79 84  1  0  0  0
 79157  1  0  0  0
 79158  1  0  0  0
 80 81  1  0  0  0
 80 82  1  0  0  0
 80159  1  0  0  0
 80160  1  0  0  0
 81 83  1  0  0  0
 81161  1  0  0  0
 81162  1  0  0  0
 82 85  1  0  0  0
 82163  1  0  0  0
 82164  1  0  0  0
 83 85  1  0  0  0
 83165  1  0  0  0
 83166  1  0  0  0
 84 86  1  0  0  0
 84167  1  0  0  0
 84168  1  0  0  0
 85169  1  0  0  0
 86 91  1  0  0  0
 86170  1  0  0  0
 87 88  1  0  0  0
 87 89  1  0  0  0
 87171  1  0  0  0
 87172  1  0  0  0
 88 90  1  0  0  0
 88173  1  0  0  0
 88174  1  0  0  0
 89175  1  0  0  0
 89176  1  0  0  0
 90177  1  0  0  0
 91178  1  0  0  0
M  ISO  4   1 100  68 101  89 101  91 100
M  END
> <chiral flag>
0

> <version>
0

> <s_m_source_file>
/data/baiqing/PycharmProjects/Reinvent-master-3.2/result/LINK_invent/BTK/process_docking_weight1_custom_product_contain_oxygen_bond_distance_aromatic_linkinvent_7_9_3/rearranged_h_0006.sdf

> <i_m_source_file_index>
3

> <r_mmod_Potential_Energy-OPLS-2005>
137.194000244141

> <r_mmod_Stretch_Energy-OPLS-2005>
60.0822067260742

> <r_mmod_Bend_Energy-OPLS-2005>
154.854782104492

> <r_mmod_Torsional_Energy-OPLS-2005>
309.633483886719

> <r_mmod_Improper_Torsional_Energy-OPLS-2005>
14.3796443939209

> <r_mmod_Van_der_Waal_Energy-OPLS-2005>
166.904159545898

> <r_mmod_Electrostatic_Energy-OPLS-2005>
-411.456939697266

> <r_mmod_Solvation_Energy-OPLS-2005>
-197.216873168945

> <b_mmod_Minimization_Converged-OPLS-2005>
0

> <r_mmod_RMS_Derivative-OPLS-2005>
3.70147490501404

$$$$
3
                    3D
 Structure written by MMmdl.
169178  0  0  1  0            999 V2000
  -30.7702  -14.3540   20.6677 C   0  0  0  0  0  0
  -30.4121  -12.2758   19.3967 C   0  0  0  0  0  0
  -29.4840  -12.5164   18.1923 C   0  0  0  0  0  0
  -28.0079  -12.3782   18.6089 C   0  0  0  0  0  0
  -27.6653  -13.2023   19.8783 C   0  0  2  0  0  0
  -28.7017  -12.9444   20.9938 C   0  0  0  0  0  0
  -25.2598  -13.8156   20.5670 C   0  0  0  0  0  0
  -24.1839  -13.0445   20.9164 C   0  0  0  0  0  0
  -24.6385  -11.6907   20.8713 C   0  0  0  0  0  0
  -23.9048  -10.4296   21.0390 C   0  0  0  0  0  0
  -24.3602   -9.4215   21.9176 C   0  0  0  0  0  0
  -23.6284   -8.2246   22.0750 C   0  0  0  0  0  0
  -22.4265   -8.0275   21.3542 C   0  0  0  0  0  0
  -21.9897   -9.0248   20.4645 C   0  0  0  0  0  0
  -22.7218  -10.2129   20.3046 C   0  0  0  0  0  0
  -21.6853   -6.0729   22.5281 C   0  0  0  0  0  0
  -21.4013   -6.5637   23.8212 C   0  0  0  0  0  0
  -21.3659   -5.6788   24.9176 C   0  0  0  0  0  0
  -21.6041   -4.3051   24.7226 C   0  0  0  0  0  0
  -21.8820   -3.8143   23.4350 C   0  0  0  0  0  0
  -21.9197   -4.6959   22.3405 C   0  0  0  0  0  0
  -22.7862  -13.5241   21.1835 C   0  0  0  0  0  0
  -22.1663   -4.2145   21.0980 F   0  0  0  0  0  0
  -21.5630   -3.4536   25.7740 F   0  0  0  0  0  0
  -30.0441  -13.2281   20.4545 N   0  0  0  0  0  0
  -26.3038  -12.9324   20.3366 N   0  0  0  0  0  0
  -25.9309  -11.6485   20.5745 N   0  0  0  0  0  0
  -22.0503  -12.8239   22.0389 N   0  0  0  0  0  0
  -25.4339  -15.1871   20.4090 N   0  0  0  0  0  0
  -31.8280  -14.5905   20.0788 O   0  0  0  0  0  0
  -21.6635   -6.8868   21.4237 O   0  0  0  0  0  0
  -22.3555  -14.5558   20.6692 O   0  0  0  0  0  0
  -24.6095  -31.8721   23.2169 C   0  0  0  0  0  0
  -25.9012  -32.4837   23.8427 C   0  0  1  0  0  0
  -27.2211  -27.4562   20.0676 C   0  0  0  0  0  0
  -25.5883  -33.8634   24.2346 N   0  0  0  0  0  0
  -23.3937  -30.4983   21.5600 C   0  0  2  0  0  0
  -24.8323  -28.9730   20.1186 C   0  0  0  0  0  0
  -22.7390  -29.4647   22.5032 C   0  0  0  0  0  0
  -18.0258  -28.1389   22.8493 C   0  0  0  0  0  0
  -24.1490  -36.7314   23.2645 C   0  0  0  0  0  0
  -25.9229  -30.8373   21.3720 C   0  0  0  0  0  0
  -25.9929  -29.4748   20.7176 C   0  0  0  0  0  0
  -27.1851  -28.7194   20.7006 C   0  0  0  0  0  0
  -26.0326  -26.9696   19.4666 C   0  0  0  0  0  0
  -24.8443  -27.7155   19.4986 C   0  0  0  0  0  0
  -23.5981  -29.8412   20.1706 C   0  0  0  0  0  0
  -25.4110  -36.3107   24.0341 C   0  0  1  0  0  0
  -20.5842  -28.3635   23.1362 C   0  0  2  0  0  0
  -20.6740  -26.9383   22.5431 C   0  0  0  0  0  0
  -19.5719  -26.6394   21.5221 C   0  0  0  0  0  0
  -18.1903  -26.7938   22.1637 C   0  0  0  0  0  0
  -19.1511  -28.8834   23.2924 C   0  0  0  0  0  0
  -18.9437  -30.1454   23.8912 C   0  0  0  0  0  0
  -17.6438  -30.6589   24.0566 C   0  0  0  0  0  0
  -25.9037  -34.9480   23.5141 C   0  0  0  0  0  0
  -16.5327  -29.9090   23.6341 C   0  0  0  0  0  0
  -16.7248  -28.6524   23.0332 C   0  0  0  0  0  0
  -26.4455  -31.6612   25.0748 C   0  0  0  0  0  0
  -25.3746  -31.3686   26.1512 C   0  0  0  0  0  0
  -27.0275  -30.3062   24.6101 C   0  0  0  0  0  0
  -27.6046  -32.4327   25.7495 C   0  0  0  0  0  0
  -27.5578  -37.1800   24.8464 C   0  0  0  0  0  0
  -21.4122  -29.3008   22.3783 N   0  0  0  0  0  0
  -26.4291  -37.3788   23.9416 N   0  0  0  0  0  0
  -24.6597  -31.0850   22.1065 N   0  0  0  0  0  0
  -23.4196  -28.8172   23.3032 O   0  0  0  0  0  0
  -28.4211  -26.7717   20.0474 O   0  0  0  0  0  0
  -26.5614  -34.8919   22.4710 O   0  0  0  0  0  0
  -23.5300  -32.1449   23.7597 O   0  0  0  0  0  0
  -32.0690  -18.5128   18.9021 C   0  0  0  0  0  0
  -32.0528  -17.6807   20.0426 C   0  0  0  0  0  0
  -29.6566  -18.1199   20.3974 C   0  0  0  0  0  0
  -30.8642  -19.1341   18.5415 C   0  0  0  0  0  0
  -29.7039  -18.9613   19.2735 C   0  0  0  0  0  0
  -30.8553  -17.4706   20.7778 C   0  0  0  0  0  0
  -30.6175  -20.0759   17.4266 C   0  0  0  0  0  0
  -29.2485  -22.9813   17.6277 C   0  0  0  0  0  0
  -29.0191  -26.6410   17.0824 C   0  0  0  0  0  0
  -28.6249  -19.8196   18.6667 C   0  0  0  0  0  0
  -27.4178  -24.1705   16.4974 C   0  0  0  0  0  0
  -30.8503  -16.4874   21.9375 C   0  0  0  0  0  0
  -28.7813  -21.6837   16.9322 C   0  0  0  0  0  0
  -28.4714  -25.4732   19.4490 C   0  0  0  0  0  0
  -29.0590  -25.4048   18.0089 C   0  0  1  0  0  0
  -29.3420  -20.4924   17.5653 N   0  0  0  0  0  0
  -29.9865  -26.7549   16.1776 N   0  0  0  0  0  0
  -30.2613  -15.2054   21.5653 N   0  0  0  0  0  0
  -28.6210  -24.1481   17.3501 N   0  0  0  0  0  0
  -31.4537  -20.4386   16.5939 O   0  0  0  0  0  0
  -30.1843  -22.9269   18.4325 O   0  0  0  0  0  0
  -28.1129  -27.4681   17.1218 O   0  0  0  0  0  0
  -31.4558  -12.3668   19.0907 H   0  0  0  0  0  0
  -30.3029  -11.2545   19.7649 H   0  0  0  0  0  0
  -29.7140  -11.8104   17.3928 H   0  0  0  0  0  0
  -29.6611  -13.5118   17.7821 H   0  0  0  0  0  0
  -27.8119  -11.3207   18.7907 H   0  0  0  0  0  0
  -27.3559  -12.6687   17.7847 H   0  0  0  0  0  0
  -27.7241  -14.2563   19.6048 H   0  0  0  0  0  0
  -28.6593  -11.9015   21.3123 H   0  0  0  0  0  0
  -28.4551  -13.5244   21.8834 H   0  0  0  0  0  0
  -25.2752   -9.5700   22.4748 H   0  0  0  0  0  0
  -24.0003   -7.4637   22.7471 H   0  0  0  0  0  0
  -21.0831   -8.8759   19.8953 H   0  0  0  0  0  0
  -22.3675  -10.9660   19.6151 H   0  0  0  0  0  0
  -21.1998   -7.6146   23.9714 H   0  0  0  0  0  0
  -21.1479   -6.0519   25.9077 H   0  0  0  0  0  0
  -22.0599   -2.7607   23.2849 H   0  0  0  0  0  0
  -22.4107  -11.9894   22.4776 H   0  0  0  0  0  0
  -21.1122  -13.1274   22.2592 H   0  0  0  0  0  0
  -24.6723  -15.8472   20.5203 H   0  0  0  0  0  0
  -26.2951  -15.6236   20.1055 H   0  0  0  0  0  0
  -26.7079  -32.5545   23.1183 H   0  0  0  0  0  0
  -24.9959  -33.9808   25.0433 H   0  0  0  0  0  0
  -22.6784  -31.3128   21.4319 H   0  0  0  0  0  0
  -23.3739  -35.9657   23.3309 H   0  0  0  0  0  0
  -24.3591  -36.8931   22.2063 H   0  0  0  0  0  0
  -23.7256  -37.6526   23.6658 H   0  0  0  0  0  0
  -26.0437  -31.6072   20.6081 H   0  0  0  0  0  0
  -26.8080  -30.8803   21.9943 H   0  0  0  0  0  0
  -28.0812  -29.1088   21.1635 H   0  0  0  0  0  0
  -25.9835  -26.0352   18.9323 H   0  0  0  0  0  0
  -23.9528  -27.3245   19.0280 H   0  0  0  0  0  0
  -23.7095  -30.6220   19.4179 H   0  0  0  0  0  0
  -22.7194  -29.2672   19.8717 H   0  0  0  0  0  0
  -25.1290  -36.1961   25.0828 H   0  0  0  0  0  0
  -20.9916  -28.3167   24.1489 H   0  0  0  0  0  0
  -20.5645  -26.2230   23.3595 H   0  0  0  0  0  0
  -21.6611  -26.7440   22.1214 H   0  0  0  0  0  0
  -19.6867  -25.6318   21.1224 H   0  0  0  0  0  0
  -19.6666  -27.3229   20.6773 H   0  0  0  0  0  0
  -17.4168  -26.6674   21.4049 H   0  0  0  0  0  0
  -18.0306  -26.0100   22.9056 H   0  0  0  0  0  0
  -19.7911  -30.7280   24.2266 H   0  0  0  0  0  0
  -17.4993  -31.6270   24.5174 H   0  0  0  0  0  0
  -15.5326  -30.2981   23.7698 H   0  0  0  0  0  0
  -15.8649  -28.0870   22.7002 H   0  0  0  0  0  0
  -24.5898  -30.7069   25.7832 H   0  0  0  0  0  0
  -24.8962  -32.2831   26.5035 H   0  0  0  0  0  0
  -25.8117  -30.8785   27.0224 H   0  0  0  0  0  0
  -26.2793  -29.6838   24.1180 H   0  0  0  0  0  0
  -27.4079  -29.7291   25.4539 H   0  0  0  0  0  0
  -27.8627  -30.4401   23.9222 H   0  0  0  0  0  0
  -27.2670  -33.3602   26.2133 H   0  0  0  0  0  0
  -28.3808  -32.6928   25.0286 H   0  0  0  0  0  0
  -28.0768  -31.8418   26.5355 H   0  0  0  0  0  0
  -28.2581  -38.0107   24.7521 H   0  0  0  0  0  0
  -28.1079  -36.2639   24.6262 H   0  0  0  0  0  0
  -27.2311  -37.1438   25.8871 H   0  0  0  0  0  0
  -20.9267  -29.8752   21.7032 H   0  0  0  0  0  0
  -26.0170  -38.2861   24.1417 H   0  0  0  0  0  0
  -32.9721  -18.6689   18.3290 H   0  0  0  0  0  0
  -32.9609  -17.1722   20.3358 H   0  0  0  0  0  0
  -28.7379  -17.9734   20.9502 H   0  0  0  0  0  0
  -28.2402  -20.5337   19.3959 H   0  0  0  0  0  0
  -27.8016  -19.2114   18.2907 H   0  0  0  0  0  0
  -26.6266  -23.5603   16.9342 H   0  0  0  0  0  0
  -27.6382  -23.7879   15.5002 H   0  0  0  0  0  0
  -26.9811  -25.1588   16.3680 H   0  0  0  0  0  0
  -30.2843  -16.9113   22.7678 H   0  0  0  0  0  0
  -31.8656  -16.3314   22.3069 H   0  0  0  0  0  0
  -29.0805  -21.7185   15.8839 H   0  0  0  0  0  0
  -27.6963  -21.5927   16.9491 H   0  0  0  0  0  0
  -29.1415  -24.9025   20.0922 H   0  0  0  0  0  0
  -27.5466  -24.9065   19.5381 H   0  0  0  0  0  0
  -30.1349  -25.3353   18.1854 H   0  0  0  0  0  0
  -30.7234  -26.0651   16.1220 H   0  0  0  0  0  0
  -29.9948  -27.5362   15.5369 H   0  0  0  0  0  0
  -29.3955  -14.9445   22.0113 H   0  0  0  0  0  0
  1 25  1  0  0  0
  1 30  2  0  0  0
  1 88  1  0  0  0
  2  3  1  0  0  0
  2 25  1  0  0  0
  2 93  1  0  0  0
  2 94  1  0  0  0
  3  4  1  0  0  0
  3 95  1  0  0  0
  3 96  1  0  0  0
  4  5  1  0  0  0
  4 97  1  0  0  0
  4 98  1  0  0  0
  5  6  1  0  0  0
  5 26  1  0  0  0
  5 99  1  0  0  0
  6 25  1  0  0  0
  6100  1  0  0  0
  6101  1  0  0  0
  7  8  2  0  0  0
  7 26  1  0  0  0
  7 29  1  0  0  0
  8  9  1  0  0  0
  8 22  1  0  0  0
  9 10  1  0  0  0
  9 27  2  0  0  0
 10 11  2  0  0  0
 10 15  1  0  0  0
 11 12  1  0  0  0
 11102  1  0  0  0
 12 13  2  0  0  0
 12103  1  0  0  0
 13 14  1  0  0  0
 13 31  1  0  0  0
 14 15  2  0  0  0
 14104  1  0  0  0
 15105  1  0  0  0
 16 17  2  0  0  0
 16 21  1  0  0  0
 16 31  1  0  0  0
 17 18  1  0  0  0
 17106  1  0  0  0
 18 19  2  0  0  0
 18107  1  0  0  0
 19 20  1  0  0  0
 19 24  1  0  0  0
 20 21  2  0  0  0
 20108  1  0  0  0
 21 23  1  0  0  0
 22 28  1  0  0  0
 22 32  2  0  0  0
 26 27  1  0  0  0
 28109  1  0  0  0
 28110  1  0  0  0
 29111  1  0  0  0
 29112  1  0  0  0
 33 34  1  0  0  0
 33 66  1  0  0  0
 33 70  2  0  0  0
 34 36  1  0  0  0
 34 59  1  0  0  0
 34113  1  0  0  0
 35 44  2  0  0  0
 35 45  1  0  0  0
 35 68  1  0  0  0
 36 56  1  0  0  0
 36114  1  0  0  0
 37 39  1  0  0  0
 37 47  1  0  0  0
 37 66  1  0  0  0
 37115  1  0  0  0
 38 43  2  0  0  0
 38 46  1  0  0  0
 38 47  1  0  0  0
 39 64  1  0  0  0
 39 67  2  0  0  0
 40 52  1  0  0  0
 40 53  2  0  0  0
 40 58  1  0  0  0
 41116  1  0  0  0
 41117  1  0  0  0
 41118  1  0  0  0
 41 48  1  0  0  0
 42 43  1  0  0  0
 42 66  1  0  0  0
 42119  1  0  0  0
 42120  1  0  0  0
 43 44  1  0  0  0
 44121  1  0  0  0
 45 46  2  0  0  0
 45122  1  0  0  0
 46123  1  0  0  0
 47124  1  0  0  0
 47125  1  0  0  0
 48 56  1  0  0  0
 48 65  1  0  0  0
 48126  1  0  0  0
 49 50  1  0  0  0
 49 53  1  0  0  0
 49 64  1  0  0  0
 49127  1  0  0  0
 50 51  1  0  0  0
 50128  1  0  0  0
 50129  1  0  0  0
 51 52  1  0  0  0
 51130  1  0  0  0
 51131  1  0  0  0
 52132  1  0  0  0
 52133  1  0  0  0
 53 54  1  0  0  0
 54 55  2  0  0  0
 54134  1  0  0  0
 55 57  1  0  0  0
 55135  1  0  0  0
 56 69  2  0  0  0
 57 58  2  0  0  0
 57136  1  0  0  0
 58137  1  0  0  0
 59 60  1  0  0  0
 59 61  1  0  0  0
 59 62  1  0  0  0
 60138  1  0  0  0
 60139  1  0  0  0
 60140  1  0  0  0
 61141  1  0  0  0
 61142  1  0  0  0
 61143  1  0  0  0
 62144  1  0  0  0
 62145  1  0  0  0
 62146  1  0  0  0
 63 65  1  0  0  0
 63147  1  0  0  0
 63148  1  0  0  0
 63149  1  0  0  0
 64150  1  0  0  0
 65151  1  0  0  0
 68 84  1  0  0  0
 71 72  2  0  0  0
 71 74  1  0  0  0
 71152  1  0  0  0
 72 76  1  0  0  0
 72153  1  0  0  0
 73 75  1  0  0  0
 73 76  2  0  0  0
 73154  1  0  0  0
 74 75  2  0  0  0
 74 77  1  0  0  0
 75 80  1  0  0  0
 76 82  1  0  0  0
 77 86  1  0  0  0
 77 90  2  0  0  0
 78 83  1  0  0  0
 78 89  1  0  0  0
 78 91  2  0  0  0
 79 85  1  0  0  0
 79 87  1  0  0  0
 79 92  2  0  0  0
 80 86  1  0  0  0
 80155  1  0  0  0
 80156  1  0  0  0
 81 89  1  0  0  0
 81157  1  0  0  0
 81158  1  0  0  0
 81159  1  0  0  0
 82 88  1  0  0  0
 82160  1  0  0  0
 82161  1  0  0  0
 83 86  1  0  0  0
 83162  1  0  0  0
 83163  1  0  0  0
 84164  1  0  0  0
 84165  1  0  0  0
 84 85  1  0  0  0
 85 89  1  0  0  0
 85166  1  0  0  0
 87167  1  0  0  0
 87168  1  0  0  0
 88169  1  0  0  0
M  ISO  4   1 100  68 101  84 101  88 100
M  END
> <chiral flag>
0

> <version>
0

> <s_m_source_file>
/data/baiqing/PycharmProjects/Reinvent-master-3.2/result/LINK_invent/BTK/process_docking_weight1_custom_product_contain_oxygen_bond_distance_aromatic_linkinvent_7_9_3/rearranged_h_0006.sdf

> <i_m_source_file_index>
4

> <r_mmod_Potential_Energy-OPLS-2005>
-234.759368896484

> <r_mmod_Stretch_Energy-OPLS-2005>
39.5210037231445

> <r_mmod_Bend_Energy-OPLS-2005>
181.050598144531

> <r_mmod_Torsional_Energy-OPLS-2005>
224.226760864258

> <r_mmod_Improper_Torsional_Energy-OPLS-2005>
2.9342246055603

> <r_mmod_Van_der_Waal_Energy-OPLS-2005>
176.766510009766

> <r_mmod_Electrostatic_Energy-OPLS-2005>
-564.869018554688

> <r_mmod_Solvation_Energy-OPLS-2005>
-303.235870361328

> <b_mmod_Minimization_Converged-OPLS-2005>
0

> <r_mmod_RMS_Derivative-OPLS-2005>
1.51470184326172

$$$$
4
                    3D
 Structure written by MMmdl.
154162  0  0  1  0            999 V2000
  -30.5888  -14.7925   20.4444 C   0  0  0  0  0  0
  -30.4192  -12.4824   19.4814 C   0  0  0  0  0  0
  -29.5181  -12.5904   18.2317 C   0  0  0  0  0  0
  -28.0380  -12.3915   18.6191 C   0  0  0  0  0  0
  -27.6394  -13.2500   19.8528 C   0  0  2  0  0  0
  -28.6831  -13.1745   20.9929 C   0  0  0  0  0  0
  -25.2481  -13.8228   20.5668 C   0  0  0  0  0  0
  -24.1804  -13.0456   20.9219 C   0  0  0  0  0  0
  -24.6388  -11.6935   20.8660 C   0  0  0  0  0  0
  -23.9030  -10.4299   21.0289 C   0  0  0  0  0  0
  -24.3605   -9.4258   21.9110 C   0  0  0  0  0  0
  -23.6335   -8.2282   22.0739 C   0  0  0  0  0  0
  -22.4311   -8.0265   21.3546 C   0  0  0  0  0  0
  -21.9889   -9.0187   20.4596 C   0  0  0  0  0  0
  -22.7176  -10.2087   20.2964 C   0  0  0  0  0  0
  -21.6867   -6.0690   22.5297 C   0  0  0  0  0  0
  -21.4029   -6.5613   23.8228 C   0  0  0  0  0  0
  -21.3702   -5.6778   24.9189 C   0  0  0  0  0  0
  -21.6035   -4.3041   24.7232 C   0  0  0  0  0  0
  -21.8818   -3.8113   23.4358 C   0  0  0  0  0  0
  -21.9193   -4.6912   22.3397 C   0  0  0  0  0  0
  -22.7811  -13.5195   21.1904 C   0  0  0  0  0  0
  -22.1647   -4.2089   21.0979 F   0  0  0  0  0  0
  -21.5649   -3.4540   25.7762 F   0  0  0  0  0  0
  -29.9906  -13.5408   20.4304 N   0  0  0  0  0  0
  -26.2908  -12.9472   20.3186 N   0  0  0  0  0  0
  -25.9332  -11.6583   20.5624 N   0  0  0  0  0  0
  -22.0444  -12.8164   22.0430 N   0  0  0  0  0  0
  -25.4165  -15.1973   20.4224 N   0  0  0  0  0  0
  -31.7445  -14.9077   20.0369 O   0  0  0  0  0  0
  -21.6700   -6.8834   21.4269 O   0  0  0  0  0  0
  -22.3469  -14.5471   20.6688 O   0  0  0  0  0  0
  -24.6411  -31.8522   23.2031 C   0  0  0  0  0  0
  -25.9197  -32.4739   23.8388 C   0  0  1  0  0  0
  -27.2089  -27.2147   20.1092 C   0  0  0  0  0  0
  -25.6012  -33.8571   24.2274 N   0  0  0  0  0  0
  -23.4373  -30.4772   21.5507 C   0  0  2  0  0  0
  -24.8756  -28.9075   20.1195 C   0  0  0  0  0  0
  -22.7532  -29.4598   22.4955 C   0  0  0  0  0  0
  -18.0302  -28.1370   22.8497 C   0  0  0  0  0  0
  -24.1461  -36.7235   23.2654 C   0  0  0  0  0  0
  -25.9932  -30.7319   21.4049 C   0  0  0  0  0  0
  -26.0597  -29.3621   20.7241 C   0  0  0  0  0  0
  -27.2294  -28.5332   20.6950 C   0  0  0  0  0  0
  -26.0039  -26.8326   19.4819 C   0  0  0  0  0  0
  -24.8541  -27.6483   19.4991 C   0  0  0  0  0  0
  -23.6578  -29.8183   20.1694 C   0  0  0  0  0  0
  -25.4114  -36.3051   24.0309 C   0  0  1  0  0  0
  -20.5915  -28.3703   23.1257 C   0  0  2  0  0  0
  -20.6776  -26.9410   22.5402 C   0  0  0  0  0  0
  -19.5723  -26.6336   21.5225 C   0  0  0  0  0  0
  -18.1913  -26.7914   22.1637 C   0  0  0  0  0  0
  -19.1547  -28.8855   23.2865 C   0  0  0  0  0  0
  -18.9486  -30.1489   23.8828 C   0  0  0  0  0  0
  -17.6467  -30.6590   24.0564 C   0  0  0  0  0  0
  -25.9091  -34.9429   23.5074 C   0  0  0  0  0  0
  -16.5375  -29.9064   23.6372 C   0  0  0  0  0  0
  -16.7272  -28.6493   23.0377 C   0  0  0  0  0  0
  -26.4489  -31.6681   25.0888 C   0  0  0  0  0  0
  -25.3657  -31.3933   26.1585 C   0  0  0  0  0  0
  -27.0411  -30.3072   24.6610 C   0  0  0  0  0  0
  -27.5968  -32.4551   25.7641 C   0  0  0  0  0  0
  -27.5577  -37.1776   24.8462 C   0  0  0  0  0  0
  -21.4236  -29.3052   22.3655 N   0  0  0  0  0  0
  -26.4264  -37.3787   23.9445 N   0  0  0  0  0  0
  -24.7099  -31.0406   22.1070 N   0  0  0  0  0  0
  -23.4170  -28.8142   23.3099 O   0  0  0  0  0  0
  -28.2954  -26.2985   20.1022 O   0  0  0  0  0  0
  -26.5641  -34.8891   22.4640 O   0  0  0  0  0  0
  -23.5550  -32.1407   23.7255 O   0  0  0  0  0  0
  -31.3421  -20.9505   21.1670 C   0  0  0  0  0  0
  -32.5862  -20.4919   21.6304 C   0  0  0  0  0  0
  -31.8781  -18.2052   21.2100 C   0  0  0  0  0  0
  -30.6046  -18.6093   20.7367 C   0  0  0  0  0  0
  -30.3231  -20.0739   20.6937 C   0  0  0  0  0  0
  -32.8560  -19.1175   21.6373 C   0  0  0  0  0  0
  -29.7060  -17.3877   20.2408 C   0  0  0  0  0  0
  -28.8259  -23.5282   19.8678 C   0  0  0  0  0  0
  -28.0640  -24.8426   20.4813 C   0  0  0  0  0  0
  -28.6988  -22.0925   20.6477 C   0  0  0  0  0  0
  -29.8046  -15.9077   20.7331 N   0  0  0  0  0  0
  -29.1769  -20.7372   20.1677 O   0  0  0  0  0  0
  -34.4000  -18.5483   22.1564 Cl  0  0  0  0  0  0
  -31.4751  -12.5711   19.2112 H   0  0  0  0  0  0
  -30.3064  -11.4943   19.9301 H   0  0  0  0  0  0
  -29.8101  -11.8555   17.4813 H   0  0  0  0  0  0
  -29.6490  -13.5727   17.7710 H   0  0  0  0  0  0
  -27.8791  -11.3312   18.8137 H   0  0  0  0  0  0
  -27.3994  -12.6463   17.7688 H   0  0  0  0  0  0
  -27.6231  -14.2797   19.5048 H   0  0  0  0  0  0
  -28.7207  -12.1691   21.4151 H   0  0  0  0  0  0
  -28.4100  -13.8386   21.8200 H   0  0  0  0  0  0
  -25.2713   -9.5783   22.4716 H   0  0  0  0  0  0
  -24.0018   -7.4679   22.7468 H   0  0  0  0  0  0
  -21.0819   -8.8616   19.8917 H   0  0  0  0  0  0
  -22.3541  -10.9594   19.6074 H   0  0  0  0  0  0
  -21.2055   -7.6134   23.9691 H   0  0  0  0  0  0
  -21.1550   -6.0533   25.9081 H   0  0  0  0  0  0
  -22.0561   -2.7559   23.2890 H   0  0  0  0  0  0
  -22.4062  -11.9871   22.4885 H   0  0  0  0  0  0
  -21.1007  -13.1094   22.2518 H   0  0  0  0  0  0
  -24.6598  -15.8527   20.5890 H   0  0  0  0  0  0
  -26.2748  -15.6436   20.1251 H   0  0  0  0  0  0
  -26.7281  -32.5281   23.1110 H   0  0  0  0  0  0
  -25.0199  -33.9750   25.0442 H   0  0  0  0  0  0
  -22.7407  -31.3071   21.4119 H   0  0  0  0  0  0
  -23.3774  -35.9513   23.3283 H   0  0  0  0  0  0
  -24.3535  -36.8912   22.2080 H   0  0  0  0  0  0
  -23.7132  -37.6376   23.6731 H   0  0  0  0  0  0
  -26.1868  -31.5018   20.6586 H   0  0  0  0  0  0
  -26.8498  -30.7425   22.0673 H   0  0  0  0  0  0
  -28.1422  -28.8827   21.1542 H   0  0  0  0  0  0
  -25.9392  -25.8792   18.9745 H   0  0  0  0  0  0
  -23.9442  -27.2887   19.0355 H   0  0  0  0  0  0
  -23.8152  -30.6086   19.4362 H   0  0  0  0  0  0
  -22.7649  -29.2864   19.8396 H   0  0  0  0  0  0
  -25.1277  -36.1876   25.0794 H   0  0  0  0  0  0
  -21.0023  -28.3263   24.1371 H   0  0  0  0  0  0
  -20.5683  -26.2323   23.3621 H   0  0  0  0  0  0
  -21.6632  -26.7385   22.1193 H   0  0  0  0  0  0
  -19.6888  -25.6220   21.1310 H   0  0  0  0  0  0
  -19.6668  -27.3109   20.6734 H   0  0  0  0  0  0
  -17.4208  -26.6725   21.4030 H   0  0  0  0  0  0
  -18.0276  -26.0026   22.8998 H   0  0  0  0  0  0
  -19.7963  -30.7354   24.2118 H   0  0  0  0  0  0
  -17.5027  -31.6248   24.5188 H   0  0  0  0  0  0
  -15.5390  -30.2936   23.7728 H   0  0  0  0  0  0
  -15.8679  -28.0786   22.7117 H   0  0  0  0  0  0
  -24.5714  -30.7407   25.7941 H   0  0  0  0  0  0
  -24.8959  -32.3162   26.5032 H   0  0  0  0  0  0
  -25.7870  -30.9065   27.0391 H   0  0  0  0  0  0
  -26.3129  -29.6788   24.1484 H   0  0  0  0  0  0
  -27.3824  -29.7405   25.5292 H   0  0  0  0  0  0
  -27.9085  -30.4284   24.0107 H   0  0  0  0  0  0
  -27.2458  -33.3853   26.2136 H   0  0  0  0  0  0
  -28.3754  -32.7223   25.0481 H   0  0  0  0  0  0
  -28.0685  -31.8821   26.5629 H   0  0  0  0  0  0
  -28.2556  -38.0125   24.7583 H   0  0  0  0  0  0
  -28.1085  -36.2646   24.6142 H   0  0  0  0  0  0
  -27.2304  -37.1255   25.8868 H   0  0  0  0  0  0
  -20.9472  -29.8765   21.6817 H   0  0  0  0  0  0
  -26.0101  -38.2827   24.1528 H   0  0  0  0  0  0
  -31.2121  -22.0219   21.1420 H   0  0  0  0  0  0
  -33.3463  -21.1941   21.9534 H   0  0  0  0  0  0
  -32.1378  -17.1576   21.2213 H   0  0  0  0  0  0
  -29.7578  -17.3996   19.1527 H   0  0  0  0  0  0
  -28.6812  -17.6936   20.4656 H   0  0  0  0  0  0
  -29.8855  -23.7511   19.7674 H   0  0  0  0  0  0
  -28.4680  -23.3813   18.8444 H   0  0  0  0  0  0
  -28.3126  -24.8297   21.5400 H   0  0  0  0  0  0
  -26.9987  -24.6164   20.4677 H   0  0  0  0  0  0
  -27.6256  -21.9292   20.7476 H   0  0  0  0  0  0
  -29.0415  -22.2246   21.6758 H   0  0  0  0  0  0
  -28.9348  -15.6178   21.1536 H   0  0  0  0  0  0
  1 25  1  0  0  0
  1 30  2  0  0  0
  1 81  1  0  0  0
  2  3  1  0  0  0
  2 25  1  0  0  0
  2 84  1  0  0  0
  2 85  1  0  0  0
  3  4  1  0  0  0
  3 86  1  0  0  0
  3 87  1  0  0  0
  4  5  1  0  0  0
  4 88  1  0  0  0
  4 89  1  0  0  0
  5  6  1  0  0  0
  5 26  1  0  0  0
  5 90  1  0  0  0
  6 25  1  0  0  0
  6 91  1  0  0  0
  6 92  1  0  0  0
  7  8  2  0  0  0
  7 26  1  0  0  0
  7 29  1  0  0  0
  8  9  1  0  0  0
  8 22  1  0  0  0
  9 10  1  0  0  0
  9 27  2  0  0  0
 10 11  2  0  0  0
 10 15  1  0  0  0
 11 12  1  0  0  0
 11 93  1  0  0  0
 12 13  2  0  0  0
 12 94  1  0  0  0
 13 14  1  0  0  0
 13 31  1  0  0  0
 14 15  2  0  0  0
 14 95  1  0  0  0
 15 96  1  0  0  0
 16 17  2  0  0  0
 16 21  1  0  0  0
 16 31  1  0  0  0
 17 18  1  0  0  0
 17 97  1  0  0  0
 18 19  2  0  0  0
 18 98  1  0  0  0
 19 20  1  0  0  0
 19 24  1  0  0  0
 20 21  2  0  0  0
 20 99  1  0  0  0
 21 23  1  0  0  0
 22 28  1  0  0  0
 22 32  2  0  0  0
 26 27  1  0  0  0
 28100  1  0  0  0
 28101  1  0  0  0
 29102  1  0  0  0
 29103  1  0  0  0
 33 34  1  0  0  0
 33 66  1  0  0  0
 33 70  2  0  0  0
 34 36  1  0  0  0
 34 59  1  0  0  0
 34104  1  0  0  0
 35 44  2  0  0  0
 35 45  1  0  0  0
 35 68  1  0  0  0
 36 56  1  0  0  0
 36105  1  0  0  0
 37 39  1  0  0  0
 37 47  1  0  0  0
 37 66  1  0  0  0
 37106  1  0  0  0
 38 43  2  0  0  0
 38 46  1  0  0  0
 38 47  1  0  0  0
 39 64  1  0  0  0
 39 67  2  0  0  0
 40 52  1  0  0  0
 40 53  2  0  0  0
 40 58  1  0  0  0
 41107  1  0  0  0
 41108  1  0  0  0
 41109  1  0  0  0
 41 48  1  0  0  0
 42 43  1  0  0  0
 42 66  1  0  0  0
 42110  1  0  0  0
 42111  1  0  0  0
 43 44  1  0  0  0
 44112  1  0  0  0
 45 46  2  0  0  0
 45113  1  0  0  0
 46114  1  0  0  0
 47115  1  0  0  0
 47116  1  0  0  0
 48 56  1  0  0  0
 48 65  1  0  0  0
 48117  1  0  0  0
 49 50  1  0  0  0
 49 53  1  0  0  0
 49 64  1  0  0  0
 49118  1  0  0  0
 50 51  1  0  0  0
 50119  1  0  0  0
 50120  1  0  0  0
 51 52  1  0  0  0
 51121  1  0  0  0
 51122  1  0  0  0
 52123  1  0  0  0
 52124  1  0  0  0
 53 54  1  0  0  0
 54 55  2  0  0  0
 54125  1  0  0  0
 55 57  1  0  0  0
 55126  1  0  0  0
 56 69  2  0  0  0
 57 58  2  0  0  0
 57127  1  0  0  0
 58128  1  0  0  0
 59 60  1  0  0  0
 59 61  1  0  0  0
 59 62  1  0  0  0
 60129  1  0  0  0
 60130  1  0  0  0
 60131  1  0  0  0
 61132  1  0  0  0
 61133  1  0  0  0
 61134  1  0  0  0
 62135  1  0  0  0
 62136  1  0  0  0
 62137  1  0  0  0
 63 65  1  0  0  0
 63138  1  0  0  0
 63139  1  0  0  0
 63140  1  0  0  0
 64141  1  0  0  0
 65142  1  0  0  0
 68 79  1  0  0  0
 71 72  2  0  0  0
 71 75  1  0  0  0
 71143  1  0  0  0
 72 76  1  0  0  0
 72144  1  0  0  0
 73 74  1  0  0  0
 73 76  2  0  0  0
 73145  1  0  0  0
 74 75  2  0  0  0
 74 77  1  0  0  0
 75 82  1  0  0  0
 76 83  1  0  0  0
 77 81  1  0  0  0
 77146  1  0  0  0
 77147  1  0  0  0
 78 79  1  0  0  0
 78 80  1  0  0  0
 78148  1  0  0  0
 78149  1  0  0  0
 79150  1  0  0  0
 79151  1  0  0  0
 80 82  1  0  0  0
 80152  1  0  0  0
 80153  1  0  0  0
 81154  1  0  0  0
M  ISO  4   1 100  68 101  79 101  81 100
M  END
> <chiral flag>
0

> <version>
0

> <s_m_source_file>
/data/baiqing/PycharmProjects/Reinvent-master-3.2/result/LINK_invent/BTK/process_docking_weight1_custom_product_contain_oxygen_bond_distance_aromatic_linkinvent_7_9_3/rearranged_h_0006.sdf

> <i_m_source_file_index>
5

> <r_mmod_Potential_Energy-OPLS-2005>
249.333908081055

> <r_mmod_Stretch_Energy-OPLS-2005>
167.982116699219

> <r_mmod_Bend_Energy-OPLS-2005>
240.336242675781

> <r_mmod_Torsional_Energy-OPLS-2005>
225.345794677734

> <r_mmod_Improper_Torsional_Energy-OPLS-2005>
5.82840967178345

> <r_mmod_Van_der_Waal_Energy-OPLS-2005>
134.782989501953

> <r_mmod_Electrostatic_Energy-OPLS-2005>
-412.238861083984

> <r_mmod_Solvation_Energy-OPLS-2005>
-222.256851196289

> <b_mmod_Minimization_Converged-OPLS-2005>
0

> <r_mmod_RMS_Derivative-OPLS-2005>
7.46692514419556

$$$$
5
                    3D
 Structure written by MMmdl.
193204  0  0  1  0            999 V2000
  -30.6663  -14.8433   20.4190 C   0  0  0  0  0  0
  -30.4160  -12.5309   19.4702 C   0  0  0  0  0  0
  -29.4914  -12.4793   18.2367 C   0  0  0  0  0  0
  -28.0267  -12.3046   18.6673 C   0  0  0  0  0  0
  -27.6255  -13.2482   19.8319 C   0  0  2  0  0  0
  -28.6804  -13.2785   20.9564 C   0  0  0  0  0  0
  -25.2458  -13.8243   20.5738 C   0  0  0  0  0  0
  -24.1767  -13.0462   20.9234 C   0  0  0  0  0  0
  -24.6384  -11.6949   20.8781 C   0  0  0  0  0  0
  -23.9074  -10.4307   21.0418 C   0  0  0  0  0  0
  -24.3626   -9.4214   21.9188 C   0  0  0  0  0  0
  -23.6300   -8.2249   22.0756 C   0  0  0  0  0  0
  -22.4285   -8.0285   21.3544 C   0  0  0  0  0  0
  -21.9923   -9.0259   20.4647 C   0  0  0  0  0  0
  -22.7251  -10.2139   20.3059 C   0  0  0  0  0  0
  -21.6856   -6.0738   22.5277 C   0  0  0  0  0  0
  -21.4016   -6.5641   23.8211 C   0  0  0  0  0  0
  -21.3658   -5.6792   24.9171 C   0  0  0  0  0  0
  -21.6044   -4.3055   24.7220 C   0  0  0  0  0  0
  -21.8818   -3.8147   23.4341 C   0  0  0  0  0  0
  -21.9192   -4.6966   22.3398 C   0  0  0  0  0  0
  -22.7782  -13.5223   21.1869 C   0  0  0  0  0  0
  -22.1662   -4.2153   21.0975 F   0  0  0  0  0  0
  -21.5626   -3.4537   25.7730 F   0  0  0  0  0  0
  -29.9504  -13.6563   20.3265 N   0  0  0  0  0  0
  -26.2881  -12.9480   20.3298 N   0  0  0  0  0  0
  -25.9319  -11.6607   20.5801 N   0  0  0  0  0  0
  -22.0435  -12.8209   22.0425 N   0  0  0  0  0  0
  -25.4147  -15.1968   20.4159 N   0  0  0  0  0  0
  -31.8878  -14.7484   20.2718 O   0  0  0  0  0  0
  -21.6643   -6.8885   21.4241 O   0  0  0  0  0  0
  -22.3461  -14.5521   20.6707 O   0  0  0  0  0  0
  -24.6395  -31.8498   23.1959 C   0  0  0  0  0  0
  -25.9197  -32.4725   23.8316 C   0  0  1  0  0  0
  -27.2031  -27.1913   20.1313 C   0  0  0  0  0  0
  -25.5974  -33.8530   24.2232 N   0  0  0  0  0  0
  -23.4381  -30.4752   21.5412 C   0  0  2  0  0  0
  -24.8833  -28.9200   20.1064 C   0  0  0  0  0  0
  -22.7542  -29.4586   22.4890 C   0  0  0  0  0  0
  -18.0303  -28.1392   22.8490 C   0  0  0  0  0  0
  -24.1490  -36.7260   23.2642 C   0  0  0  0  0  0
  -25.9925  -30.7401   21.3888 C   0  0  0  0  0  0
  -26.0607  -29.3598   20.7246 C   0  0  0  0  0  0
  -27.2239  -28.5096   20.7253 C   0  0  0  0  0  0
  -26.0011  -26.8513   19.4664 C   0  0  0  0  0  0
  -24.8631  -27.6770   19.4637 C   0  0  0  0  0  0
  -23.6588  -29.8148   20.1566 C   0  0  0  0  0  0
  -25.4124  -36.3049   24.0320 C   0  0  1  0  0  0
  -20.5913  -28.3710   23.1249 C   0  0  2  0  0  0
  -20.6787  -26.9418   22.5400 C   0  0  0  0  0  0
  -19.5756  -26.6380   21.5214 C   0  0  0  0  0  0
  -18.1939  -26.7936   22.1626 C   0  0  0  0  0  0
  -19.1558  -28.8869   23.2862 C   0  0  0  0  0  0
  -18.9476  -30.1473   23.8875 C   0  0  0  0  0  0
  -17.6471  -30.6590   24.0559 C   0  0  0  0  0  0
  -25.9073  -34.9422   23.5077 C   0  0  0  0  0  0
  -16.5362  -29.9079   23.6344 C   0  0  0  0  0  0
  -16.7286  -28.6497   23.0364 C   0  0  0  0  0  0
  -26.4534  -31.6578   25.0735 C   0  0  0  0  0  0
  -25.3735  -31.3747   26.1438 C   0  0  0  0  0  0
  -27.0402  -30.2986   24.6287 C   0  0  0  0  0  0
  -27.6069  -32.4341   25.7511 C   0  0  0  0  0  0
  -27.5576  -37.1789   24.8467 C   0  0  0  0  0  0
  -21.4238  -29.3051   22.3628 N   0  0  0  0  0  0
  -26.4289  -37.3758   23.9411 N   0  0  0  0  0  0
  -24.7095  -31.0407   22.0972 N   0  0  0  0  0  0
  -23.4211  -28.8116   23.3003 O   0  0  0  0  0  0
  -28.2450  -26.2111   20.2092 O   0  0  0  0  0  0
  -26.5624  -34.8907   22.4636 O   0  0  0  0  0  0
  -23.5529  -32.1349   23.7220 O   0  0  0  0  0  0
  -28.9379  -19.6253   20.1185 C   0  0  0  0  0  0
  -29.4367  -18.5518   20.9927 C   0  0  0  0  0  0
  -29.8904  -19.2659   22.0905 C   0  0  0  0  0  0
  -29.0031  -20.8958   20.7287 C   0  0  0  0  0  0
  -29.4654  -16.9516   21.0452 C   0  0  0  0  0  0
  -28.8332  -23.4768   20.3681 C   0  0  0  0  0  0
  -30.4904  -24.5787   29.7728 C   0  0  0  0  0  0
  -30.5259  -23.0453   29.8634 C   0  0  0  0  0  0
  -29.3664  -25.0522   28.8382 C   0  0  0  0  0  0
  -31.9697  -19.1590   23.7098 C   0  0  0  0  0  0
  -31.7050  -17.7456   23.2626 C   0  0  0  0  0  0
  -31.0073  -16.2363   17.6908 C   0  0  0  0  0  0
  -29.8750  -17.2225   17.8407 C   0  0  0  0  0  0
  -30.6419  -22.4048   28.4700 C   0  0  0  0  0  0
  -29.4841  -24.4114   27.4442 C   0  0  0  0  0  0
  -30.5646  -18.7418   23.3335 C   0  0  0  0  0  0
  -30.7174  -16.8550   19.0460 C   0  0  0  0  0  0
  -29.5070  -22.8658   27.5286 C   0  0  0  0  0  0
  -27.0781  -21.9380   19.6717 C   0  0  0  0  0  0
  -27.8585  -24.7390   20.0036 C   0  0  0  0  0  0
  -28.5127  -21.4571   24.0825 C   0  0  0  0  0  0
  -29.6906  -21.5865   23.0982 C   0  0  0  0  0  0
  -28.5362  -22.4643   25.2489 C   0  0  0  0  0  0
  -29.5581  -20.6405   21.9879 N   0  0  0  0  0  0
  -28.3973  -22.1229   20.2953 N   0  0  0  0  0  0
  -30.1026  -16.1145   20.1271 N   0  0  0  0  0  0
  -29.6478  -22.2222   26.2000 N   0  3  0  0  0  0
  -28.9200  -16.4432   22.0285 O   0  0  0  0  0  0
  -30.0004  -23.7482   20.6637 O   0  0  0  0  0  0
  -31.4502  -12.6445   19.1413 H   0  0  0  0  0  0
  -30.3848  -11.5886   20.0197 H   0  0  0  0  0  0
  -29.7869  -11.6635   17.5761 H   0  0  0  0  0  0
  -29.5821  -13.3906   17.6500 H   0  0  0  0  0  0
  -27.9024  -11.2655   18.9748 H   0  0  0  0  0  0
  -27.3604  -12.4488   17.8160 H   0  0  0  0  0  0
  -27.5910  -14.2497   19.4007 H   0  0  0  0  0  0
  -28.7591  -12.3084   21.4493 H   0  0  0  0  0  0
  -28.3981  -13.9925   21.7286 H   0  0  0  0  0  0
  -25.2769   -9.5688   22.4768 H   0  0  0  0  0  0
  -24.0008   -7.4637   22.7476 H   0  0  0  0  0  0
  -21.0855   -8.8775   19.8950 H   0  0  0  0  0  0
  -22.3710  -10.9676   19.6166 H   0  0  0  0  0  0
  -21.2013   -7.6150   23.9717 H   0  0  0  0  0  0
  -21.1480   -6.0520   25.9075 H   0  0  0  0  0  0
  -22.0601   -2.7611   23.2833 H   0  0  0  0  0  0
  -22.4054  -11.9873   22.4813 H   0  0  0  0  0  0
  -21.1046  -13.1224   22.2628 H   0  0  0  0  0  0
  -24.6547  -15.8560   20.5418 H   0  0  0  0  0  0
  -26.2800  -15.6377   20.1327 H   0  0  0  0  0  0
  -26.7259  -32.5341   23.1043 H   0  0  0  0  0  0
  -25.0161  -33.9659   25.0407 H   0  0  0  0  0  0
  -22.7389  -31.3012   21.3951 H   0  0  0  0  0  0
  -23.3762  -35.9582   23.3298 H   0  0  0  0  0  0
  -24.3583  -36.8887   22.2058 H   0  0  0  0  0  0
  -23.7227  -37.6450   23.6674 H   0  0  0  0  0  0
  -26.1472  -31.5017   20.6234 H   0  0  0  0  0  0
  -26.8646  -30.7824   22.0297 H   0  0  0  0  0  0
  -28.1189  -28.8374   21.2351 H   0  0  0  0  0  0
  -25.8886  -25.9090   18.9538 H   0  0  0  0  0  0
  -23.9655  -27.3385   18.9646 H   0  0  0  0  0  0
  -23.7857  -30.5930   19.4027 H   0  0  0  0  0  0
  -22.7747  -29.2526   19.8502 H   0  0  0  0  0  0
  -25.1309  -36.1884   25.0809 H   0  0  0  0  0  0
  -21.0011  -28.3283   24.1368 H   0  0  0  0  0  0
  -20.5697  -26.2312   23.3608 H   0  0  0  0  0  0
  -21.6648  -26.7436   22.1182 H   0  0  0  0  0  0
  -19.6908  -25.6285   21.1254 H   0  0  0  0  0  0
  -19.6693  -27.3180   20.6738 H   0  0  0  0  0  0
  -17.4209  -26.6700   21.4026 H   0  0  0  0  0  0
  -18.0326  -26.0078   22.9017 H   0  0  0  0  0  0
  -19.7949  -30.7305   24.2220 H   0  0  0  0  0  0
  -17.5020  -31.6273   24.5154 H   0  0  0  0  0  0
  -15.5360  -30.2967   23.7685 H   0  0  0  0  0  0
  -15.8687  -28.0807   22.7092 H   0  0  0  0  0  0
  -24.5923  -30.7082   25.7765 H   0  0  0  0  0  0
  -24.8913  -32.2918   26.4828 H   0  0  0  0  0  0
  -25.8035  -30.8946   27.0237 H   0  0  0  0  0  0
  -26.3015  -29.6708   24.1288 H   0  0  0  0  0  0
  -27.4028  -29.7282   25.4851 H   0  0  0  0  0  0
  -27.8918  -30.4242   23.9597 H   0  0  0  0  0  0
  -27.2673  -33.3668   26.2024 H   0  0  0  0  0  0
  -28.3909  -32.6854   25.0358 H   0  0  0  0  0  0
  -28.0703  -31.8505   26.5474 H   0  0  0  0  0  0
  -28.2586  -38.0094   24.7525 H   0  0  0  0  0  0
  -28.1075  -36.2623   24.6284 H   0  0  0  0  0  0
  -27.2292  -37.1421   25.8868 H   0  0  0  0  0  0
  -20.9426  -29.8771   21.6827 H   0  0  0  0  0  0
  -26.0156  -38.2823   24.1420 H   0  0  0  0  0  0
  -28.4784  -19.4560   19.1554 H   0  0  0  0  0  0
  -31.4510  -24.9489   29.4105 H   0  0  0  0  0  0
  -30.3537  -25.0066   30.7672 H   0  0  0  0  0  0
  -29.6231  -22.6847   30.3591 H   0  0  0  0  0  0
  -31.3635  -22.7300   30.4874 H   0  0  0  0  0  0
  -29.3904  -26.1393   28.7514 H   0  0  0  0  0  0
  -28.3981  -24.8032   29.2755 H   0  0  0  0  0  0
  -32.5097  -19.8053   23.0207 H   0  0  0  0  0  0
  -32.1809  -19.3219   24.7645 H   0  0  0  0  0  0
  -31.7344  -16.9643   24.0198 H   0  0  0  0  0  0
  -32.0927  -17.4614   22.2865 H   0  0  0  0  0  0
  -31.8997  -16.5761   17.1681 H   0  0  0  0  0  0
  -30.7480  -15.1978   17.5187 H   0  0  0  0  0  0
  -28.8608  -16.8315   17.7847 H   0  0  0  0  0  0
  -30.0125  -18.2157   17.4172 H   0  0  0  0  0  0
  -30.6302  -21.3189   28.5725 H   0  0  0  0  0  0
  -31.6113  -22.6612   28.0396 H   0  0  0  0  0  0
  -30.3899  -24.7737   26.9559 H   0  0  0  0  0  0
  -28.6473  -24.7536   26.8349 H   0  0  0  0  0  0
  -29.8464  -18.5918   24.1373 H   0  0  0  0  0  0
  -31.4624  -17.5882   19.3559 H   0  0  0  0  0  0
  -28.5607  -22.5294   27.9579 H   0  0  0  0  0  0
  -26.7284  -20.9061   19.6985 H   0  0  0  0  0  0
  -27.0969  -22.2401   18.6235 H   0  0  0  0  0  0
  -26.3032  -22.5059   20.1856 H   0  0  0  0  0  0
  -26.9420  -24.5788   20.5713 H   0  0  0  0  0  0
  -27.6143  -24.6138   18.9485 H   0  0  0  0  0  0
  -28.4509  -20.4422   24.4741 H   0  0  0  0  0  0
  -27.5875  -21.6088   23.5247 H   0  0  0  0  0  0
  -30.6406  -21.4209   23.6012 H   0  0  0  0  0  0
  -29.7468  -22.6056   22.7407 H   0  0  0  0  0  0
  -27.5895  -22.3837   25.7855 H   0  0  0  0  0  0
  -28.5867  -23.4833   24.8630 H   0  0  0  0  0  0
  -29.7011  -21.2294   26.3650 H   0  0  0  0  0  0
  -30.5197  -22.5120   25.7863 H   0  0  0  0  0  0
  1 25  1  0  0  0
  1 30  2  0  0  0
  1 96  1  0  0  0
  2  3  1  0  0  0
  2 25  1  0  0  0
  2100  1  0  0  0
  2101  1  0  0  0
  3  4  1  0  0  0
  3102  1  0  0  0
  3103  1  0  0  0
  4  5  1  0  0  0
  4104  1  0  0  0
  4105  1  0  0  0
  5  6  1  0  0  0
  5 26  1  0  0  0
  5106  1  0  0  0
  6 25  1  0  0  0
  6107  1  0  0  0
  6108  1  0  0  0
  7  8  2  0  0  0
  7 26  1  0  0  0
  7 29  1  0  0  0
  8  9  1  0  0  0
  8 22  1  0  0  0
  9 10  1  0  0  0
  9 27  2  0  0  0
 10 11  2  0  0  0
 10 15  1  0  0  0
 11 12  1  0  0  0
 11109  1  0  0  0
 12 13  2  0  0  0
 12110  1  0  0  0
 13 14  1  0  0  0
 13 31  1  0  0  0
 14 15  2  0  0  0
 14111  1  0  0  0
 15112  1  0  0  0
 16 17  2  0  0  0
 16 21  1  0  0  0
 16 31  1  0  0  0
 17 18  1  0  0  0
 17113  1  0  0  0
 18 19  2  0  0  0
 18114  1  0  0  0
 19 20  1  0  0  0
 19 24  1  0  0  0
 20 21  2  0  0  0
 20115  1  0  0  0
 21 23  1  0  0  0
 22 28  1  0  0  0
 22 32  2  0  0  0
 26 27  1  0  0  0
 28116  1  0  0  0
 28117  1  0  0  0
 29118  1  0  0  0
 29119  1  0  0  0
 33 34  1  0  0  0
 33 66  1  0  0  0
 33 70  2  0  0  0
 34 36  1  0  0  0
 34 59  1  0  0  0
 34120  1  0  0  0
 35 44  2  0  0  0
 35 45  1  0  0  0
 35 68  1  0  0  0
 36 56  1  0  0  0
 36121  1  0  0  0
 37 39  1  0  0  0
 37 47  1  0  0  0
 37 66  1  0  0  0
 37122  1  0  0  0
 38 43  2  0  0  0
 38 46  1  0  0  0
 38 47  1  0  0  0
 39 64  1  0  0  0
 39 67  2  0  0  0
 40 52  1  0  0  0
 40 53  2  0  0  0
 40 58  1  0  0  0
 41123  1  0  0  0
 41124  1  0  0  0
 41125  1  0  0  0
 41 48  1  0  0  0
 42 43  1  0  0  0
 42 66  1  0  0  0
 42126  1  0  0  0
 42127  1  0  0  0
 43 44  1  0  0  0
 44128  1  0  0  0
 45 46  2  0  0  0
 45129  1  0  0  0
 46130  1  0  0  0
 47131  1  0  0  0
 47132  1  0  0  0
 48 56  1  0  0  0
 48 65  1  0  0  0
 48133  1  0  0  0
 49 50  1  0  0  0
 49 53  1  0  0  0
 49 64  1  0  0  0
 49134  1  0  0  0
 50 51  1  0  0  0
 50135  1  0  0  0
 50136  1  0  0  0
 51 52  1  0  0  0
 51137  1  0  0  0
 51138  1  0  0  0
 52139  1  0  0  0
 52140  1  0  0  0
 53 54  1  0  0  0
 54 55  2  0  0  0
 54141  1  0  0  0
 55 57  1  0  0  0
 55142  1  0  0  0
 56 69  2  0  0  0
 57 58  2  0  0  0
 57143  1  0  0  0
 58144  1  0  0  0
 59 60  1  0  0  0
 59 61  1  0  0  0
 59 62  1  0  0  0
 60145  1  0  0  0
 60146  1  0  0  0
 60147  1  0  0  0
 61148  1  0  0  0
 61149  1  0  0  0
 61150  1  0  0  0
 62151  1  0  0  0
 62152  1  0  0  0
 62153  1  0  0  0
 63 65  1  0  0  0
 63154  1  0  0  0
 63155  1  0  0  0
 63156  1  0  0  0
 64157  1  0  0  0
 65158  1  0  0  0
 68 90  1  0  0  0
 71 72  1  0  0  0
 71 74  2  0  0  0
 71159  1  0  0  0
 72 73  2  0  0  0
 72 75  1  0  0  0
 73 94  1  0  0  0
 73 86  1  0  0  0
 74 94  1  0  0  0
 74 95  1  0  0  0
 75 96  1  0  0  0
 75 98  2  0  0  0
 76 90  1  0  0  0
 76 95  1  0  0  0
 76 99  2  0  0  0
 77 78  1  0  0  0
 77 79  1  0  0  0
 77160  1  0  0  0
 77161  1  0  0  0
 78 84  1  0  0  0
 78162  1  0  0  0
 78163  1  0  0  0
 79 85  1  0  0  0
 79164  1  0  0  0
 79165  1  0  0  0
 80 81  1  0  0  0
 80 86  1  0  0  0
 80166  1  0  0  0
 80167  1  0  0  0
 81 86  1  0  0  0
 81168  1  0  0  0
 81169  1  0  0  0
 82 83  1  0  0  0
 82 87  1  0  0  0
 82170  1  0  0  0
 82171  1  0  0  0
 83 87  1  0  0  0
 83172  1  0  0  0
 83173  1  0  0  0
 84 88  1  0  0  0
 84174  1  0  0  0
 84175  1  0  0  0
 85 88  1  0  0  0
 85176  1  0  0  0
 85177  1  0  0  0
 86178  1  0  0  0
 87 96  1  0  0  0
 87179  1  0  0  0
 88 97  1  0  0  0
 88180  1  0  0  0
 89 95  1  0  0  0
 89181  1  0  0  0
 89182  1  0  0  0
 89183  1  0  0  0
 90184  1  0  0  0
 90185  1  0  0  0
 91 92  1  0  0  0
 91 93  1  0  0  0
 91186  1  0  0  0
 91187  1  0  0  0
 92 94  1  0  0  0
 92188  1  0  0  0
 92189  1  0  0  0
 93 97  1  0  0  0
 93190  1  0  0  0
 93191  1  0  0  0
 97192  1  0  0  0
 97193  1  0  0  0
M  CHG  1  97   1
M  ISO  4   1 100  68 101  90 101  96 100
M  END
> <chiral flag>
0

> <version>
0

> <s_m_source_file>
/data/baiqing/PycharmProjects/Reinvent-master-3.2/result/LINK_invent/BTK/process_docking_weight1_custom_product_contain_oxygen_bond_distance_aromatic_linkinvent_7_9_3/rearranged_h_0006.sdf

> <i_m_source_file_index>
6

> <r_mmod_Potential_Energy-OPLS-2005>
601.309509277344

> <r_mmod_Stretch_Energy-OPLS-2005>
188.854919433594

> <r_mmod_Bend_Energy-OPLS-2005>
247.523880004883

> <r_mmod_Torsional_Energy-OPLS-2005>
516.016662597656

> <r_mmod_Improper_Torsional_Energy-OPLS-2005>
24.308256149292

> <r_mmod_Van_der_Waal_Energy-OPLS-2005>
132.262969970703

> <r_mmod_Electrostatic_Energy-OPLS-2005>
-194.564025878906

> <r_mmod_Solvation_Energy-OPLS-2005>
-461.198303222656

> <b_mmod_Minimization_Converged-OPLS-2005>
0

> <r_mmod_RMS_Derivative-OPLS-2005>
0.897583723068237

$$$$
6
                    3D
 Structure written by MMmdl.
191200  0  0  1  0            999 V2000
  -30.7612  -14.4112   20.6320 C   0  0  0  0  0  0
  -30.4061  -12.2947   19.4106 C   0  0  0  0  0  0
  -29.4802  -12.5227   18.2003 C   0  0  0  0  0  0
  -28.0056  -12.3624   18.6125 C   0  0  0  0  0  0
  -27.6589  -13.1919   19.8735 C   0  0  2  0  0  0
  -28.7038  -12.9533   20.9939 C   0  0  0  0  0  0
  -25.2581  -13.8102   20.5678 C   0  0  0  0  0  0
  -24.1820  -13.0403   20.9213 C   0  0  0  0  0  0
  -24.6362  -11.6861   20.8779 C   0  0  0  0  0  0
  -23.9043  -10.4257   21.0465 C   0  0  0  0  0  0
  -24.3586   -9.4166   21.9246 C   0  0  0  0  0  0
  -23.6269   -8.2187   22.0774 C   0  0  0  0  0  0
  -22.4253   -8.0242   21.3552 C   0  0  0  0  0  0
  -21.9894   -9.0226   20.4673 C   0  0  0  0  0  0
  -22.7226  -10.2109   20.3103 C   0  0  0  0  0  0
  -21.6830   -6.0700   22.5281 C   0  0  0  0  0  0
  -21.4003   -6.5612   23.8214 C   0  0  0  0  0  0
  -21.3683   -5.6775   24.9186 C   0  0  0  0  0  0
  -21.6061   -4.3036   24.7245 C   0  0  0  0  0  0
  -21.8813   -3.8113   23.4366 C   0  0  0  0  0  0
  -21.9184   -4.6927   22.3413 C   0  0  0  0  0  0
  -22.7846  -13.5232   21.1869 C   0  0  0  0  0  0
  -22.1654   -4.2109   21.0990 F   0  0  0  0  0  0
  -21.5659   -3.4530   25.7768 F   0  0  0  0  0  0
  -30.0369  -13.2683   20.4554 N   0  0  0  0  0  0
  -26.3000  -12.9250   20.3359 N   0  0  0  0  0  0
  -25.9285  -11.6422   20.5791 N   0  0  0  0  0  0
  -22.0452  -12.8256   22.0423 N   0  0  0  0  0  0
  -25.4264  -15.1814   20.4034 N   0  0  0  0  0  0
  -31.8317  -14.5848   20.0400 O   0  0  0  0  0  0
  -21.6618   -6.8835   21.4234 O   0  0  0  0  0  0
  -22.3579  -14.5569   20.6740 O   0  0  0  0  0  0
  -24.6060  -31.8724   23.2165 C   0  0  0  0  0  0
  -25.8965  -32.4847   23.8471 C   0  0  1  0  0  0
  -27.2526  -27.4857   20.0966 C   0  0  0  0  0  0
  -25.5839  -33.8645   24.2383 N   0  0  0  0  0  0
  -23.3934  -30.4937   21.5528 C   0  0  2  0  0  0
  -24.8446  -28.9666   20.1174 C   0  0  0  0  0  0
  -22.7371  -29.4656   22.5016 C   0  0  0  0  0  0
  -18.0232  -28.1343   22.8487 C   0  0  0  0  0  0
  -24.1491  -36.7356   23.2649 C   0  0  0  0  0  0
  -25.9156  -30.8560   21.3617 C   0  0  0  0  0  0
  -25.9983  -29.4935   20.7109 C   0  0  0  0  0  0
  -27.2036  -28.7641   20.7020 C   0  0  0  0  0  0
  -26.0845  -26.9678   19.5027 C   0  0  0  0  0  0
  -24.8797  -27.6975   19.5119 C   0  0  0  0  0  0
  -23.6018  -29.8241   20.1679 C   0  0  0  0  0  0
  -25.4098  -36.3145   24.0363 C   0  0  1  0  0  0
  -20.5821  -28.3621   23.1342 C   0  0  2  0  0  0
  -20.6719  -26.9365   22.5425 C   0  0  0  0  0  0
  -19.5703  -26.6351   21.5216 C   0  0  0  0  0  0
  -18.1878  -26.7882   22.1612 C   0  0  0  0  0  0
  -19.1482  -28.8801   23.2902 C   0  0  0  0  0  0
  -18.9409  -30.1404   23.8916 C   0  0  0  0  0  0
  -17.6413  -30.6564   24.0537 C   0  0  0  0  0  0
  -25.9024  -34.9494   23.5183 C   0  0  0  0  0  0
  -16.5305  -29.9060   23.6311 C   0  0  0  0  0  0
  -16.7220  -28.6466   23.0353 C   0  0  0  0  0  0
  -26.4400  -31.6600   25.0779 C   0  0  0  0  0  0
  -25.3687  -31.3655   26.1546 C   0  0  0  0  0  0
  -27.0210  -30.3049   24.6124 C   0  0  0  0  0  0
  -27.6028  -32.4281   25.7507 C   0  0  0  0  0  0
  -27.5583  -37.1834   24.8453 C   0  0  0  0  0  0
  -21.4101  -29.3005   22.3767 N   0  0  0  0  0  0
  -26.4283  -37.3825   23.9421 N   0  0  0  0  0  0
  -24.6559  -31.0883   22.1027 N   0  0  0  0  0  0
  -23.4168  -28.8212   23.3050 O   0  0  0  0  0  0
  -28.3807  -26.6998   20.0385 O   0  0  0  0  0  0
  -26.5614  -34.8931   22.4760 O   0  0  0  0  0  0
  -23.5265  -32.1441   23.7576 O   0  0  0  0  0  0
  -29.5020  -22.4083   21.9180 C   0  0  0  0  0  0
  -29.7087  -21.0506   21.6207 C   0  0  0  0  0  0
  -31.0310  -23.0296   20.1396 C   0  0  0  0  0  0
  -31.2296  -21.6687   19.8197 C   0  0  0  0  0  0
  -30.1759  -23.4108   21.1962 C   0  0  0  0  0  0
  -30.5954  -20.6576   20.5902 C   0  0  0  0  0  0
  -31.7627  -17.3492   21.5503 C   0  0  0  0  0  0
  -31.3960  -16.0604   22.3276 C   0  0  0  0  0  0
  -29.1423  -16.0929   21.5146 C   0  0  0  0  0  0
  -30.5280  -18.2199   21.2518 C   0  0  2  0  0  0
  -29.3735  -17.3688   20.6805 C   0  0  1  0  0  0
  -41.8257  -21.0560   16.2264 C   0  0  0  0  0  0
  -32.1540  -21.3452   18.6503 C   0  0  0  0  0  0
  -35.9512  -20.8106   18.5851 C   0  0  0  0  0  0
  -37.0061  -20.6379   17.4772 C   0  0  0  0  0  0
  -30.4796  -25.8808   20.8224 C   0  0  0  0  0  0
  -40.8214  -21.0241   17.3897 C   0  0  0  0  0  0
  -34.5128  -20.8847   18.0417 C   0  0  0  0  0  0
  -38.4461  -20.6786   18.0241 C   0  0  0  0  0  0
  -29.4971  -27.0583   20.8450 C   0  0  0  0  0  0
  -30.3738  -15.2858   21.6012 N   0  0  0  0  0  0
  -30.8787  -19.3038   20.3305 N   0  0  0  0  0  0
  -29.9575  -24.7410   21.5731 N   0  0  0  0  0  0
  -33.5284  -21.1054   19.1221 N   0  3  0  0  0  0
  -39.4549  -20.6751   16.9426 N   0  3  0  0  0  0
  -29.6454  -17.0275   19.4176 F   0  0  0  0  0  0
  -31.4499  -12.3722   19.1023 H   0  0  0  0  0  0
  -30.2953  -11.2786   19.7928 H   0  0  0  0  0  0
  -29.7213  -11.8212   17.4016 H   0  0  0  0  0  0
  -29.6421  -13.5210   17.7915 H   0  0  0  0  0  0
  -27.8203  -11.3038   18.8005 H   0  0  0  0  0  0
  -27.3493  -12.6431   17.7863 H   0  0  0  0  0  0
  -27.7018  -14.2322   19.5552 H   0  0  0  0  0  0
  -28.6849  -11.9077   21.3052 H   0  0  0  0  0  0
  -28.4676  -13.5134   21.8969 H   0  0  0  0  0  0
  -25.2707   -9.5627   22.4851 H   0  0  0  0  0  0
  -23.9975   -7.4557   22.7458 H   0  0  0  0  0  0
  -21.0832   -8.8760   19.8967 H   0  0  0  0  0  0
  -22.3703  -10.9661   19.6212 H   0  0  0  0  0  0
  -21.1981   -7.6118   23.9710 H   0  0  0  0  0  0
  -21.1539   -6.0511   25.9097 H   0  0  0  0  0  0
  -22.0582   -2.7572   23.2879 H   0  0  0  0  0  0
  -22.3998  -11.9877   22.4789 H   0  0  0  0  0  0
  -21.1128  -13.1377   22.2683 H   0  0  0  0  0  0
  -24.6481  -15.8250   20.4973 H   0  0  0  0  0  0
  -26.2676  -15.6217   20.0561 H   0  0  0  0  0  0
  -26.7062  -32.5583   23.1279 H   0  0  0  0  0  0
  -24.9892  -33.9822   25.0452 H   0  0  0  0  0  0
  -22.6784  -31.3067   21.4163 H   0  0  0  0  0  0
  -23.3739  -35.9701   23.3296 H   0  0  0  0  0  0
  -24.3612  -36.8974   22.2071 H   0  0  0  0  0  0
  -23.7255  -37.6570   23.6654 H   0  0  0  0  0  0
  -26.0268  -31.6260   20.5959 H   0  0  0  0  0  0
  -26.8028  -30.9095   21.9800 H   0  0  0  0  0  0
  -28.0827  -29.2024   21.1523 H   0  0  0  0  0  0
  -26.1106  -25.9930   19.0355 H   0  0  0  0  0  0
  -23.9913  -27.2802   19.0577 H   0  0  0  0  0  0
  -23.7054  -30.5976   19.4077 H   0  0  0  0  0  0
  -22.7291  -29.2387   19.8737 H   0  0  0  0  0  0
  -25.1263  -36.2034   25.0854 H   0  0  0  0  0  0
  -20.9895  -28.3178   24.1465 H   0  0  0  0  0  0
  -20.5628  -26.2230   23.3601 H   0  0  0  0  0  0
  -21.6596  -26.7422   22.1226 H   0  0  0  0  0  0
  -19.6873  -25.6274   21.1224 H   0  0  0  0  0  0
  -19.6637  -27.3175   20.6761 H   0  0  0  0  0  0
  -17.4164  -26.6637   21.3994 H   0  0  0  0  0  0
  -18.0253  -26.0009   22.8989 H   0  0  0  0  0  0
  -19.7889  -30.7189   24.2323 H   0  0  0  0  0  0
  -17.4974  -31.6254   24.5107 H   0  0  0  0  0  0
  -15.5310  -30.2960   23.7635 H   0  0  0  0  0  0
  -15.8603  -28.0784   22.7085 H   0  0  0  0  0  0
  -24.5854  -30.7015   25.7862 H   0  0  0  0  0  0
  -24.8859  -32.2769   26.5089 H   0  0  0  0  0  0
  -25.8047  -30.8749   27.0262 H   0  0  0  0  0  0
  -26.2746  -29.6872   24.1113 H   0  0  0  0  0  0
  -27.3902  -29.7233   25.4585 H   0  0  0  0  0  0
  -27.8630  -30.4376   23.9326 H   0  0  0  0  0  0
  -27.2710  -33.3571   26.2165 H   0  0  0  0  0  0
  -28.3781  -32.6850   25.0274 H   0  0  0  0  0  0
  -28.0771  -31.8345   26.5339 H   0  0  0  0  0  0
  -28.2596  -38.0138   24.7528 H   0  0  0  0  0  0
  -28.1079  -36.2677   24.6213 H   0  0  0  0  0  0
  -27.2328  -37.1436   25.8861 H   0  0  0  0  0  0
  -20.9269  -29.8689   21.6950 H   0  0  0  0  0  0
  -26.0181  -38.2916   24.1375 H   0  0  0  0  0  0
  -28.8225  -22.6704   22.7160 H   0  0  0  0  0  0
  -29.1548  -20.3339   22.2056 H   0  0  0  0  0  0
  -31.5599  -23.7695   19.5586 H   0  0  0  0  0  0
  -32.2573  -17.0834   20.6147 H   0  0  0  0  0  0
  -32.4913  -17.9275   22.1210 H   0  0  0  0  0  0
  -31.0257  -16.3125   23.3217 H   0  0  0  0  0  0
  -32.2913  -15.4569   22.4908 H   0  0  0  0  0  0
  -28.3018  -15.5541   21.0995 H   0  0  0  0  0  0
  -28.8296  -16.3682   22.5224 H   0  0  0  0  0  0
  -30.2077  -18.6036   22.2173 H   0  0  0  0  0  0
  -28.4543  -17.9569   20.6449 H   0  0  0  0  0  0
  -42.8082  -21.3756   16.5762 H   0  0  0  0  0  0
  -41.5159  -21.7536   15.4478 H   0  0  0  0  0  0
  -41.9475  -20.0729   15.7709 H   0  0  0  0  0  0
  -32.1498  -22.1818   17.9485 H   0  0  0  0  0  0
  -31.7846  -20.4849   18.0903 H   0  0  0  0  0  0
  -36.1681  -21.7235   19.1409 H   0  0  0  0  0  0
  -36.0350  -19.9907   19.3003 H   0  0  0  0  0  0
  -36.8745  -21.4318   16.7396 H   0  0  0  0  0  0
  -36.8349  -19.6977   16.9503 H   0  0  0  0  0  0
  -31.4242  -26.1881   21.2747 H   0  0  0  0  0  0
  -30.6883  -25.6342   19.7832 H   0  0  0  0  0  0
  -40.8032  -22.0036   17.8694 H   0  0  0  0  0  0
  -41.1549  -20.3131   18.1465 H   0  0  0  0  0  0
  -34.2636  -19.9665   17.5078 H   0  0  0  0  0  0
  -34.4403  -21.6981   17.3178 H   0  0  0  0  0  0
  -38.6218  -19.8288   18.6857 H   0  0  0  0  0  0
  -38.5718  -21.5783   18.6277 H   0  0  0  0  0  0
  -29.9768  -27.9461   20.4296 H   0  0  0  0  0  0
  -29.1982  -27.2817   21.8708 H   0  0  0  0  0  0
  -30.9228  -19.0066   19.3602 H   0  0  0  0  0  0
  -29.2679  -24.9404   22.2929 H   0  0  0  0  0  0
  -33.5051  -20.3053   19.7343 H   0  0  0  0  0  0
  -33.8081  -21.9055   19.6652 H   0  0  0  0  0  0
  -39.4707  -19.7658   16.5085 H   0  0  0  0  0  0
  -39.1730  -21.3456   16.2466 H   0  0  0  0  0  0
  1 25  1  0  0  0
  1 30  2  0  0  0
  1 91  1  0  0  0
  2  3  1  0  0  0
  2 25  1  0  0  0
  2 97  1  0  0  0
  2 98  1  0  0  0
  3  4  1  0  0  0
  3 99  1  0  0  0
  3100  1  0  0  0
  4  5  1  0  0  0
  4101  1  0  0  0
  4102  1  0  0  0
  5  6  1  0  0  0
  5 26  1  0  0  0
  5103  1  0  0  0
  6 25  1  0  0  0
  6104  1  0  0  0
  6105  1  0  0  0
  7  8  2  0  0  0
  7 26  1  0  0  0
  7 29  1  0  0  0
  8  9  1  0  0  0
  8 22  1  0  0  0
  9 10  1  0  0  0
  9 27  2  0  0  0
 10 11  2  0  0  0
 10 15  1  0  0  0
 11 12  1  0  0  0
 11106  1  0  0  0
 12 13  2  0  0  0
 12107  1  0  0  0
 13 14  1  0  0  0
 13 31  1  0  0  0
 14 15  2  0  0  0
 14108  1  0  0  0
 15109  1  0  0  0
 16 17  2  0  0  0
 16 21  1  0  0  0
 16 31  1  0  0  0
 17 18  1  0  0  0
 17110  1  0  0  0
 18 19  2  0  0  0
 18111  1  0  0  0
 19 20  1  0  0  0
 19 24  1  0  0  0
 20 21  2  0  0  0
 20112  1  0  0  0
 21 23  1  0  0  0
 22 28  1  0  0  0
 22 32  2  0  0  0
 26 27  1  0  0  0
 28113  1  0  0  0
 28114  1  0  0  0
 29115  1  0  0  0
 29116  1  0  0  0
 33 34  1  0  0  0
 33 66  1  0  0  0
 33 70  2  0  0  0
 34 36  1  0  0  0
 34 59  1  0  0  0
 34117  1  0  0  0
 35 44  2  0  0  0
 35 45  1  0  0  0
 35 68  1  0  0  0
 36 56  1  0  0  0
 36118  1  0  0  0
 37 39  1  0  0  0
 37 47  1  0  0  0
 37 66  1  0  0  0
 37119  1  0  0  0
 38 43  2  0  0  0
 38 46  1  0  0  0
 38 47  1  0  0  0
 39 64  1  0  0  0
 39 67  2  0  0  0
 40 52  1  0  0  0
 40 53  2  0  0  0
 40 58  1  0  0  0
 41120  1  0  0  0
 41121  1  0  0  0
 41122  1  0  0  0
 41 48  1  0  0  0
 42 43  1  0  0  0
 42 66  1  0  0  0
 42123  1  0  0  0
 42124  1  0  0  0
 43 44  1  0  0  0
 44125  1  0  0  0
 45 46  2  0  0  0
 45126  1  0  0  0
 46127  1  0  0  0
 47128  1  0  0  0
 47129  1  0  0  0
 48 56  1  0  0  0
 48 65  1  0  0  0
 48130  1  0  0  0
 49 50  1  0  0  0
 49 53  1  0  0  0
 49 64  1  0  0  0
 49131  1  0  0  0
 50 51  1  0  0  0
 50132  1  0  0  0
 50133  1  0  0  0
 51 52  1  0  0  0
 51134  1  0  0  0
 51135  1  0  0  0
 52136  1  0  0  0
 52137  1  0  0  0
 53 54  1  0  0  0
 54 55  2  0  0  0
 54138  1  0  0  0
 55 57  1  0  0  0
 55139  1  0  0  0
 56 69  2  0  0  0
 57 58  2  0  0  0
 57140  1  0  0  0
 58141  1  0  0  0
 59 60  1  0  0  0
 59 61  1  0  0  0
 59 62  1  0  0  0
 60142  1  0  0  0
 60143  1  0  0  0
 60144  1  0  0  0
 61145  1  0  0  0
 61146  1  0  0  0
 61147  1  0  0  0
 62148  1  0  0  0
 62149  1  0  0  0
 62150  1  0  0  0
 63 65  1  0  0  0
 63151  1  0  0  0
 63152  1  0  0  0
 63153  1  0  0  0
 64154  1  0  0  0
 65155  1  0  0  0
 68 90  1  0  0  0
 71 72  2  0  0  0
 71 75  1  0  0  0
 71156  1  0  0  0
 72 76  1  0  0  0
 72157  1  0  0  0
 73 74  1  0  0  0
 73 75  2  0  0  0
 73158  1  0  0  0
 74 76  2  0  0  0
 74 83  1  0  0  0
 75 93  1  0  0  0
 76 92  1  0  0  0
 77 78  1  0  0  0
 77 80  1  0  0  0
 77159  1  0  0  0
 77160  1  0  0  0
 78 91  1  0  0  0
 78161  1  0  0  0
 78162  1  0  0  0
 79 81  1  0  0  0
 79 91  1  0  0  0
 79163  1  0  0  0
 79164  1  0  0  0
 80 81  1  0  0  0
 80 92  1  0  0  0
 80165  1  0  0  0
 81 96  1  0  0  0
 81166  1  0  0  0
 82 87  1  0  0  0
 82167  1  0  0  0
 82168  1  0  0  0
 82169  1  0  0  0
 83 94  1  0  0  0
 83170  1  0  0  0
 83171  1  0  0  0
 84 85  1  0  0  0
 84 88  1  0  0  0
 84172  1  0  0  0
 84173  1  0  0  0
 85 89  1  0  0  0
 85174  1  0  0  0
 85175  1  0  0  0
 86 90  1  0  0  0
 86 93  1  0  0  0
 86176  1  0  0  0
 86177  1  0  0  0
 87 95  1  0  0  0
 87178  1  0  0  0
 87179  1  0  0  0
 88 94  1  0  0  0
 88180  1  0  0  0
 88181  1  0  0  0
 89 95  1  0  0  0
 89182  1  0  0  0
 89183  1  0  0  0
 90184  1  0  0  0
 90185  1  0  0  0
 92186  1  0  0  0
 93187  1  0  0  0
 94188  1  0  0  0
 94189  1  0  0  0
 95190  1  0  0  0
 95191  1  0  0  0
M  CHG  2  94   1  95   1
M  ISO  4   1 100  68 101  90 101  91 100
M  END
> <chiral flag>
0

> <version>
0

> <s_m_source_file>
/data/baiqing/PycharmProjects/Reinvent-master-3.2/result/LINK_invent/BTK/process_docking_weight1_custom_product_contain_oxygen_bond_distance_aromatic_linkinvent_7_9_3/rearranged_h_0006.sdf

> <i_m_source_file_index>
7

> <r_mmod_Potential_Energy-OPLS-2005>
-288.272430419922

> <r_mmod_Stretch_Energy-OPLS-2005>
38.8651428222656

> <r_mmod_Bend_Energy-OPLS-2005>
136.621231079102

> <r_mmod_Torsional_Energy-OPLS-2005>
290.847320556641

> <r_mmod_Improper_Torsional_Energy-OPLS-2005>
8.86272239685059

> <r_mmod_Van_der_Waal_Energy-OPLS-2005>
172.69499206543

> <r_mmod_Electrostatic_Energy-OPLS-2005>
-21.3616008758545

> <r_mmod_Solvation_Energy-OPLS-2005>
-922.678039550781

> <b_mmod_Minimization_Converged-OPLS-2005>
0

> <r_mmod_RMS_Derivative-OPLS-2005>
3.00287747383118

$$$$
7
                    3D
 Structure written by MMmdl.
165174  0  0  1  0            999 V2000
  -31.4509  -14.7915   20.9241 C   0  0  0  0  0  0
  -30.6713  -12.7875   19.2608 C   0  0  0  0  0  0
  -29.3635  -12.6129   18.1506 C   0  0  0  0  0  0
  -27.6874  -13.0045   18.3665 C   0  0  0  0  0  0
  -27.1831  -13.9157   19.8568 C   0  0  2  0  0  0
  -29.4690  -14.1033   21.2479 C   0  0  0  0  0  0
  -24.8956  -13.9785   20.6039 C   0  0  0  0  0  0
  -23.9510  -13.0819   20.9422 C   0  0  0  0  0  0
  -24.4932  -11.7676   20.8059 C   0  0  0  0  0  0
  -23.8594  -10.4557   20.9971 C   0  0  0  0  0  0
  -24.3493   -9.4652   21.8830 C   0  0  0  0  0  0
  -23.6381   -8.2533   22.0595 C   0  0  0  0  0  0
  -22.4331   -8.0281   21.3495 C   0  0  0  0  0  0
  -21.9737   -9.0055   20.4525 C   0  0  0  0  0  0
  -22.6798  -10.2028   20.2746 C   0  0  0  0  0  0
  -21.6973   -6.0725   22.5309 C   0  0  0  0  0  0
  -21.4117   -6.5645   23.8231 C   0  0  0  0  0  0
  -21.3706   -5.6791   24.9185 C   0  0  0  0  0  0
  -21.6046   -4.3045   24.7235 C   0  0  0  0  0  0
  -21.8810   -3.8125   23.4362 C   0  0  0  0  0  0
  -21.9234   -4.6942   22.3425 C   0  0  0  0  0  0
  -22.5707  -13.4901   21.2520 C   0  0  0  0  0  0
  -22.1682   -4.2128   21.1001 F   0  0  0  0  0  0
  -21.5610   -3.4535   25.7754 F   0  0  0  0  0  0
  -30.6880  -13.6958   20.5928 N   0  0  0  0  0  0
  -25.9320  -13.2373   20.2003 N   0  0  0  0  0  0
  -25.7084  -11.8702   20.3082 N   0  0  0  0  0  0
  -21.9077  -12.7548   22.1265 N   0  0  0  0  0  0
  -24.9616  -15.3691   20.5868 N   0  0  0  0  0  0
  -32.3250  -15.0333   20.1145 O   0  0  0  0  0  0
  -21.6793   -6.8821   21.4248 O   0  0  0  0  0  0
  -22.1085  -14.5127   20.7481 O   0  0  0  0  0  0
  -24.6885  -31.7982   23.1524 C   0  0  0  0  0  0
  -25.9455  -32.4457   23.8059 C   0  0  1  0  0  0
  -27.0933  -26.6337   20.1729 C   0  0  0  0  0  0
  -25.6025  -33.8289   24.1940 N   0  0  0  0  0  0
  -23.5049  -30.4123   21.5138 C   0  0  2  0  0  0
  -24.9298  -28.7527   20.1080 C   0  0  0  0  0  0
  -22.7757  -29.4324   22.4726 C   0  0  0  0  0  0
  -18.0338  -28.1421   22.8464 C   0  0  0  0  0  0
  -24.1496  -36.7147   23.2648 C   0  0  0  0  0  0
  -26.0899  -30.5026   21.4226 C   0  0  0  0  0  0
  -26.1281  -29.0673   20.7595 C   0  0  0  0  0  0
  -27.2087  -28.0324   20.7581 C   0  0  0  0  0  0
  -25.8799  -26.5501   19.4642 C   0  0  0  0  0  0
  -24.8482  -27.5252   19.4366 C   0  0  0  0  0  0
  -23.7484  -29.7293   20.1413 C   0  0  0  0  0  0
  -25.4150  -36.2894   24.0278 C   0  0  1  0  0  0
  -20.5971  -28.3776   23.1157 C   0  0  2  0  0  0
  -20.6809  -26.9440   22.5406 C   0  0  0  0  0  0
  -19.5781  -26.6369   21.5225 C   0  0  0  0  0  0
  -18.1962  -26.7952   22.1626 C   0  0  0  0  0  0
  -19.1603  -28.8923   23.2792 C   0  0  0  0  0  0
  -18.9506  -30.1510   23.8829 C   0  0  0  0  0  0
  -17.6494  -30.6604   24.0551 C   0  0  0  0  0  0
  -25.9142  -34.9284   23.4946 C   0  0  0  0  0  0
  -16.5384  -29.9083   23.6350 C   0  0  0  0  0  0
  -16.7317  -28.6507   23.0367 C   0  0  0  0  0  0
  -26.4602  -31.6513   25.0702 C   0  0  0  0  0  0
  -25.3645  -31.3853   26.1303 C   0  0  0  0  0  0
  -27.0527  -30.2844   24.6633 C   0  0  0  0  0  0
  -27.6049  -32.4377   25.7520 C   0  0  0  0  0  0
  -27.5573  -37.1726   24.8454 C   0  0  0  0  0  0
  -21.4406  -29.3034   22.3487 N   0  0  0  0  0  0
  -26.4267  -37.3667   23.9415 N   0  0  0  0  0  0
  -24.7873  -30.9381   22.0812 N   0  0  0  0  0  0
  -23.4210  -28.7900   23.3046 O   0  0  0  0  0  0
  -27.9575  -25.3419   20.1679 O   0  0  0  0  0  0
  -26.5774  -34.8862   22.4559 O   0  0  0  0  0  0
  -23.5909  -32.1096   23.6468 O   0  0  0  0  0  0
  -27.9974  -15.1899   23.7411 C   0  0  0  0  0  0
  -29.3683  -15.6287   23.9092 C   0  0  0  0  0  0
  -29.1297  -16.9084   22.0153 C   0  0  0  0  0  0
  -27.5171  -14.9239   22.4040 C   0  0  0  0  0  0
  -28.0408  -16.1416   21.4731 C   0  0  0  0  0  0
  -30.0513  -16.2031   22.7908 C   0  0  0  0  0  0
  -28.4867  -12.3080   20.5463 C   0  0  0  0  0  0
  -29.0299  -14.9310   19.2272 C   0  0  0  0  0  0
  -27.5549  -13.0602   22.1717 C   0  0  1  0  0  0
  -28.0443  -12.2643   23.4131 C   0  0  0  0  0  0
  -27.9182  -19.8812   20.1778 C   0  0  0  0  0  0
  -28.2116  -21.7922   19.8097 C   0  0  0  0  0  0
  -28.4288  -18.0982   19.5442 C   0  0  0  0  0  0
  -27.5662  -23.6034   20.2208 C   0  0  0  0  0  0
  -28.3565  -16.3902   20.0041 N   0  0  0  0  0  0
  -31.2810  -15.6226   22.0934 N   0  0  0  0  0  0
  -31.5165  -13.1190   18.6562 H   0  0  0  0  0  0
  -30.9918  -11.7910   19.5650 H   0  0  0  0  0  0
  -29.3927  -11.5789   17.8028 H   0  0  0  0  0  0
  -29.6674  -13.1606   17.2579 H   0  0  0  0  0  0
  -27.1101  -12.0887   18.2366 H   0  0  0  0  0  0
  -27.3465  -13.5628   17.4931 H   0  0  0  0  0  0
  -26.7936  -14.8004   19.3537 H   0  0  0  0  0  0
  -29.5649  -14.0452   22.3061 H   0  0  0  0  0  0
  -29.9037  -13.2648   21.8330 H   0  0  0  0  0  0
  -25.2613   -9.6448   22.4352 H   0  0  0  0  0  0
  -24.0259   -7.5055   22.7361 H   0  0  0  0  0  0
  -21.0669   -8.8339   19.8904 H   0  0  0  0  0  0
  -22.2981  -10.9434   19.5865 H   0  0  0  0  0  0
  -21.2157   -7.6163   23.9721 H   0  0  0  0  0  0
  -21.1536   -6.0534   25.9091 H   0  0  0  0  0  0
  -22.0536   -2.7578   23.2857 H   0  0  0  0  0  0
  -22.3254  -11.9341   22.5397 H   0  0  0  0  0  0
  -20.9687  -13.0151   22.3916 H   0  0  0  0  0  0
  -24.1737  -15.9570   20.8338 H   0  0  0  0  0  0
  -25.7861  -15.8903   20.3086 H   0  0  0  0  0  0
  -26.7522  -32.4880   23.0750 H   0  0  0  0  0  0
  -25.0097  -33.9332   25.0044 H   0  0  0  0  0  0
  -22.8324  -31.2546   21.3379 H   0  0  0  0  0  0
  -23.3797  -35.9434   23.3228 H   0  0  0  0  0  0
  -24.3571  -36.8899   22.2078 H   0  0  0  0  0  0
  -23.7208  -37.6280   23.6785 H   0  0  0  0  0  0
  -26.3078  -31.2269   20.6365 H   0  0  0  0  0  0
  -26.9400  -30.5563   22.0906 H   0  0  0  0  0  0
  -28.1172  -28.2656   21.2951 H   0  0  0  0  0  0
  -25.6770  -25.6269   18.9403 H   0  0  0  0  0  0
  -23.9420  -27.2872   18.8964 H   0  0  0  0  0  0
  -23.9405  -30.4975   19.3921 H   0  0  0  0  0  0
  -22.8427  -29.2206   19.8081 H   0  0  0  0  0  0
  -25.1357  -36.1652   25.0767 H   0  0  0  0  0  0
  -21.0054  -28.3394   24.1284 H   0  0  0  0  0  0
  -20.5695  -26.2393   23.3665 H   0  0  0  0  0  0
  -21.6669  -26.7402   22.1208 H   0  0  0  0  0  0
  -19.6934  -25.6260   21.1305 H   0  0  0  0  0  0
  -19.6723  -27.3141   20.6726 H   0  0  0  0  0  0
  -17.4236  -26.6705   21.4023 H   0  0  0  0  0  0
  -18.0337  -26.0109   22.9034 H   0  0  0  0  0  0
  -19.7976  -30.7351   24.2167 H   0  0  0  0  0  0
  -17.5038  -31.6279   24.5164 H   0  0  0  0  0  0
  -15.5380  -30.2959   23.7714 H   0  0  0  0  0  0
  -15.8719  -28.0801   22.7120 H   0  0  0  0  0  0
  -24.5861  -30.7172   25.7599 H   0  0  0  0  0  0
  -24.8795  -32.3081   26.4497 H   0  0  0  0  0  0
  -25.7797  -30.9164   27.0235 H   0  0  0  0  0  0
  -26.3233  -29.6449   24.1651 H   0  0  0  0  0  0
  -27.3956  -29.7314   25.5388 H   0  0  0  0  0  0
  -27.9225  -30.3961   24.0157 H   0  0  0  0  0  0
  -27.2597  -33.3761   26.1875 H   0  0  0  0  0  0
  -28.3973  -32.6808   25.0426 H   0  0  0  0  0  0
  -28.0592  -31.8652   26.5619 H   0  0  0  0  0  0
  -28.2520  -38.0090   24.7568 H   0  0  0  0  0  0
  -28.1142  -36.2618   24.6201 H   0  0  0  0  0  0
  -27.2297  -37.1261   25.8854 H   0  0  0  0  0  0
  -20.9700  -29.8710   21.6577 H   0  0  0  0  0  0
  -26.0091  -38.2704   24.1468 H   0  0  0  0  0  0
  -27.6302  -14.5801   24.5523 H   0  0  0  0  0  0
  -29.9224  -15.2254   24.7457 H   0  0  0  0  0  0
  -29.6767  -17.6192   21.4217 H   0  0  0  0  0  0
  -29.2953  -11.6581   20.8983 H   0  0  0  0  0  0
  -27.9901  -11.4642   20.0704 H   0  0  0  0  0  0
  -30.0448  -15.1592   18.9032 H   0  0  0  0  0  0
  -28.6220  -15.0668   18.2228 H   0  0  0  0  0  0
  -26.5329  -12.7503   22.3513 H   0  0  0  0  0  0
  -29.0476  -12.5226   23.7481 H   0  0  0  0  0  0
  -28.0479  -11.1963   23.1939 H   0  0  0  0  0  0
  -27.3772  -12.3995   24.2661 H   0  0  0  0  0  0
  -26.8292  -19.8142   20.1777 H   0  0  0  0  0  0
  -28.1692  -19.8225   21.2371 H   0  0  0  0  0  0
  -28.1858  -21.8072   18.7197 H   0  0  0  0  0  0
  -29.2744  -21.8878   20.0288 H   0  0  0  0  0  0
  -29.4914  -18.2213   19.3284 H   0  0  0  0  0  0
  -27.9884  -18.0680   18.5467 H   0  0  0  0  0  0
  -27.3547  -23.5117   21.2862 H   0  0  0  0  0  0
  -26.5725  -23.5999   19.7739 H   0  0  0  0  0  0
  -32.0887  -16.2207   22.1957 H   0  0  0  0  0  0
  1 25  1  0  0  0
  1 30  2  0  0  0
  1 86  1  0  0  0
  2  3  1  0  0  0
  2 25  1  0  0  0
  2 87  1  0  0  0
  2 88  1  0  0  0
  3  4  1  0  0  0
  3 89  1  0  0  0
  3 90  1  0  0  0
  4  5  1  0  0  0
  4 91  1  0  0  0
  4 92  1  0  0  0
  5  6  1  0  0  0
  5 26  1  0  0  0
  5 93  1  0  0  0
  6 25  1  0  0  0
  6 94  1  0  0  0
  6 95  1  0  0  0
  7  8  2  0  0  0
  7 26  1  0  0  0
  7 29  1  0  0  0
  8  9  1  0  0  0
  8 22  1  0  0  0
  9 10  1  0  0  0
  9 27  2  0  0  0
 10 11  2  0  0  0
 10 15  1  0  0  0
 11 12  1  0  0  0
 11 96  1  0  0  0
 12 13  2  0  0  0
 12 97  1  0  0  0
 13 14  1  0  0  0
 13 31  1  0  0  0
 14 15  2  0  0  0
 14 98  1  0  0  0
 15 99  1  0  0  0
 16 17  2  0  0  0
 16 21  1  0  0  0
 16 31  1  0  0  0
 17 18  1  0  0  0
 17100  1  0  0  0
 18 19  2  0  0  0
 18101  1  0  0  0
 19 20  1  0  0  0
 19 24  1  0  0  0
 20 21  2  0  0  0
 20102  1  0  0  0
 21 23  1  0  0  0
 22 28  1  0  0  0
 22 32  2  0  0  0
 26 27  1  0  0  0
 28103  1  0  0  0
 28104  1  0  0  0
 29105  1  0  0  0
 29106  1  0  0  0
 33 34  1  0  0  0
 33 66  1  0  0  0
 33 70  2  0  0  0
 34 36  1  0  0  0
 34 59  1  0  0  0
 34107  1  0  0  0
 35 44  2  0  0  0
 35 45  1  0  0  0
 35 68  1  0  0  0
 36 56  1  0  0  0
 36108  1  0  0  0
 37 39  1  0  0  0
 37 47  1  0  0  0
 37 66  1  0  0  0
 37109  1  0  0  0
 38 43  2  0  0  0
 38 46  1  0  0  0
 38 47  1  0  0  0
 39 64  1  0  0  0
 39 67  2  0  0  0
 40 52  1  0  0  0
 40 53  2  0  0  0
 40 58  1  0  0  0
 41110  1  0  0  0
 41111  1  0  0  0
 41112  1  0  0  0
 41 48  1  0  0  0
 42 43  1  0  0  0
 42 66  1  0  0  0
 42113  1  0  0  0
 42114  1  0  0  0
 43 44  1  0  0  0
 44115  1  0  0  0
 45 46  2  0  0  0
 45116  1  0  0  0
 46117  1  0  0  0
 47118  1  0  0  0
 47119  1  0  0  0
 48 56  1  0  0  0
 48 65  1  0  0  0
 48120  1  0  0  0
 49 50  1  0  0  0
 49 53  1  0  0  0
 49 64  1  0  0  0
 49121  1  0  0  0
 50 51  1  0  0  0
 50122  1  0  0  0
 50123  1  0  0  0
 51 52  1  0  0  0
 51124  1  0  0  0
 51125  1  0  0  0
 52126  1  0  0  0
 52127  1  0  0  0
 53 54  1  0  0  0
 54 55  2  0  0  0
 54128  1  0  0  0
 55 57  1  0  0  0
 55129  1  0  0  0
 56 69  2  0  0  0
 57 58  2  0  0  0
 57130  1  0  0  0
 58131  1  0  0  0
 59 60  1  0  0  0
 59 61  1  0  0  0
 59 62  1  0  0  0
 60132  1  0  0  0
 60133  1  0  0  0
 60134  1  0  0  0
 61135  1  0  0  0
 61136  1  0  0  0
 61137  1  0  0  0
 62138  1  0  0  0
 62139  1  0  0  0
 62140  1  0  0  0
 63 65  1  0  0  0
 63141  1  0  0  0
 63142  1  0  0  0
 63143  1  0  0  0
 64144  1  0  0  0
 65145  1  0  0  0
 68 84  1  0  0  0
 71 72  2  0  0  0
 71 74  1  0  0  0
 71146  1  0  0  0
 72 76  1  0  0  0
 72147  1  0  0  0
 73 75  1  0  0  0
 73 76  2  0  0  0
 73148  1  0  0  0
 74 75  2  0  0  0
 74 79  1  0  0  0
 75 85  1  0  0  0
 76 86  1  0  0  0
 77 78  1  0  0  0
 77 79  1  0  0  0
 77149  1  0  0  0
 77150  1  0  0  0
 78 85  1  0  0  0
 78151  1  0  0  0
 78152  1  0  0  0
 79 80  1  0  0  0
 79153  1  0  0  0
 80154  1  0  0  0
 80155  1  0  0  0
 80156  1  0  0  0
 81 82  1  0  0  0
 81 83  1  0  0  0
 81157  1  0  0  0
 81158  1  0  0  0
 82 84  1  0  0  0
 82159  1  0  0  0
 82160  1  0  0  0
 83 85  1  0  0  0
 83161  1  0  0  0
 83162  1  0  0  0
 84163  1  0  0  0
 84164  1  0  0  0
 86165  1  0  0  0
M  ISO  4   1 100  68 101  84 101  86 100
M  END
> <chiral flag>
0

> <version>
0

> <s_m_source_file>
/data/baiqing/PycharmProjects/Reinvent-master-3.2/result/LINK_invent/BTK/process_docking_weight1_custom_product_contain_oxygen_bond_distance_aromatic_linkinvent_7_9_3/rearranged_h_0006.sdf

> <i_m_source_file_index>
8

> <r_mmod_Potential_Energy-OPLS-2005>
10966.9736328125

> <r_mmod_Stretch_Energy-OPLS-2005>
6076.5517578125

> <r_mmod_Bend_Energy-OPLS-2005>
1260.72973632812

> <r_mmod_Torsional_Energy-OPLS-2005>
623.398864746094

> <r_mmod_Improper_Torsional_Energy-OPLS-2005>
57.1758689880371

> <r_mmod_Van_der_Waal_Energy-OPLS-2005>
2434.90454101562

> <r_mmod_Electrostatic_Energy-OPLS-2005>
-386.13232421875

> <r_mmod_Solvation_Energy-OPLS-2005>
-195.796920776367

> <b_mmod_Minimization_Converged-OPLS-2005>
0

> <r_mmod_RMS_Derivative-OPLS-2005>
2.92159414291382

$$$$
8
                    3D
 Structure written by MMmdl.
164173  0  0  1  0            999 V2000
  -30.3986  -15.4292   20.3141 C   0  0  0  0  0  0
  -30.4433  -12.9222   19.5228 C   0  0  0  0  0  0
  -29.5528  -12.5320   18.3139 C   0  0  0  0  0  0
  -28.1223  -12.1927   18.7680 C   0  0  0  0  0  0
  -27.5987  -13.2148   19.7936 C   0  0  2  0  0  0
  -28.6247  -13.5561   20.9064 C   0  0  0  0  0  0
  -25.2436  -13.8046   20.5764 C   0  0  0  0  0  0
  -24.1738  -13.0335   20.9281 C   0  0  0  0  0  0
  -24.6329  -11.6814   20.8807 C   0  0  0  0  0  0
  -23.9014  -10.4226   21.0444 C   0  0  0  0  0  0
  -24.3586   -9.4148   21.9209 C   0  0  0  0  0  0
  -23.6269   -8.2183   22.0759 C   0  0  0  0  0  0
  -22.4253   -8.0242   21.3540 C   0  0  0  0  0  0
  -21.9881   -9.0212   20.4642 C   0  0  0  0  0  0
  -22.7204  -10.2089   20.3067 C   0  0  0  0  0  0
  -21.6835   -6.0718   22.5283 C   0  0  0  0  0  0
  -21.4003   -6.5630   23.8216 C   0  0  0  0  0  0
  -21.3657   -5.6785   24.9180 C   0  0  0  0  0  0
  -21.6044   -4.3050   24.7230 C   0  0  0  0  0  0
  -21.8821   -3.8137   23.4353 C   0  0  0  0  0  0
  -21.9188   -4.6951   22.3407 C   0  0  0  0  0  0
  -22.7776  -13.5165   21.1912 C   0  0  0  0  0  0
  -22.1661   -4.2136   21.0984 F   0  0  0  0  0  0
  -21.5628   -3.4538   25.7744 F   0  0  0  0  0  0
  -29.8317  -14.1036   20.2531 N   0  0  0  0  0  0
  -26.2778  -12.9185   20.3185 N   0  0  0  0  0  0
  -25.9237  -11.6371   20.5747 N   0  0  0  0  0  0
  -22.0402  -12.8181   22.0462 N   0  0  0  0  0  0
  -25.4093  -15.1777   20.4226 N   0  0  0  0  0  0
  -31.6357  -15.3709   20.2428 O   0  0  0  0  0  0
  -21.6615   -6.8848   21.4238 O   0  0  0  0  0  0
  -22.3498  -14.5483   20.6736 O   0  0  0  0  0  0
  -24.6660  -31.8187   23.1670 C   0  0  0  0  0  0
  -25.9326  -32.4562   23.8149 C   0  0  1  0  0  0
  -27.2345  -26.8935   20.1956 C   0  0  0  0  0  0
  -25.5976  -33.8376   24.2049 N   0  0  0  0  0  0
  -23.4835  -30.4273   21.5166 C   0  0  2  0  0  0
  -24.9409  -28.8037   20.1160 C   0  0  0  0  0  0
  -22.7683  -29.4411   22.4773 C   0  0  0  0  0  0
  -18.0325  -28.1416   22.8465 C   0  0  0  0  0  0
  -24.1496  -36.7185   23.2651 C   0  0  0  0  0  0
  -26.0543  -30.6150   21.4030 C   0  0  0  0  0  0
  -26.1248  -29.2005   20.7498 C   0  0  0  0  0  0
  -27.2632  -28.2691   20.7600 C   0  0  0  0  0  0
  -26.0176  -26.6543   19.5153 C   0  0  0  0  0  0
  -24.9142  -27.5514   19.4788 C   0  0  0  0  0  0
  -23.7276  -29.7367   20.1454 C   0  0  0  0  0  0
  -25.4142  -36.2948   24.0298 C   0  0  1  0  0  0
  -20.5953  -28.3760   23.1184 C   0  0  2  0  0  0
  -20.6799  -26.9437   22.5407 C   0  0  0  0  0  0
  -19.5776  -26.6379   21.5218 C   0  0  0  0  0  0
  -18.1956  -26.7948   22.1621 C   0  0  0  0  0  0
  -19.1587  -28.8912   23.2812 C   0  0  0  0  0  0
  -18.9496  -30.1503   23.8843 C   0  0  0  0  0  0
  -17.6485  -30.6603   24.0558 C   0  0  0  0  0  0
  -25.9108  -34.9333   23.5000 C   0  0  0  0  0  0
  -16.5377  -29.9087   23.6348 C   0  0  0  0  0  0
  -16.7305  -28.6513   23.0360 C   0  0  0  0  0  0
  -26.4566  -31.6522   25.0691 C   0  0  0  0  0  0
  -25.3679  -31.3772   26.1335 C   0  0  0  0  0  0
  -27.0473  -30.2888   24.6453 C   0  0  0  0  0  0
  -27.6059  -32.4333   25.7485 C   0  0  0  0  0  0
  -27.5571  -37.1749   24.8467 C   0  0  0  0  0  0
  -21.4349  -29.3037   22.3522 N   0  0  0  0  0  0
  -26.4280  -37.3691   23.9408 N   0  0  0  0  0  0
  -24.7560  -30.9816   22.0823 N   0  0  0  0  0  0
  -23.4210  -28.7991   23.3037 O   0  0  0  0  0  0
  -28.2516  -25.7874   20.2717 O   0  0  0  0  0  0
  -26.5732  -34.8876   22.4604 O   0  0  0  0  0  0
  -23.5717  -32.1170   23.6742 O   0  0  0  0  0  0
  -31.9280  -19.1168   18.6086 C   0  0  0  0  0  0
  -31.2045  -20.3854   20.5473 C   0  0  0  0  0  0
  -30.7696  -18.3051   18.6639 C   0  0  0  0  0  0
  -30.0955  -18.3078   19.9153 C   0  0  0  0  0  0
  -29.9227  -19.8062   20.4208 C   0  0  0  0  0  0
  -32.2214  -20.0261   19.6430 C   0  0  0  0  0  0
  -29.0888  -16.5615   17.8725 C   0  0  0  0  0  0
  -28.5157  -16.6720   19.2994 C   0  0  0  0  0  0
  -30.1853  -17.5857   17.4440 C   0  0  2  0  0  0
  -31.5334  -17.7316   15.3582 C   0  0  0  0  0  0
  -32.2087  -16.0964   17.0847 C   0  0  0  0  0  0
  -29.1352  -22.6630   20.3887 C   0  0  0  0  0  0
  -28.0541  -24.1293   20.1687 C   0  0  0  0  0  0
  -29.6581  -16.7676   20.1960 N   0  0  0  0  0  0
  -28.9243  -21.0051   20.3007 N   0  0  0  0  0  0
  -31.0982  -16.8839   16.4941 N   0  3  0  0  0  0
  -28.6881  -15.6754   17.1181 O   0  0  0  0  0  0
  -33.7144  -20.8914   19.6353 Cl  0  0  0  0  0  0
  -31.4453  -13.1593   19.1625 H   0  0  0  0  0  0
  -30.5731  -12.0745   20.1981 H   0  0  0  0  0  0
  -29.9867  -11.6785   17.7914 H   0  0  0  0  0  0
  -29.5343  -13.3447   17.5906 H   0  0  0  0  0  0
  -28.1440  -11.2018   19.2237 H   0  0  0  0  0  0
  -27.4524  -12.1209   17.9101 H   0  0  0  0  0  0
  -27.4336  -14.0545   19.1362 H   0  0  0  0  0  0
  -28.8522  -12.6838   21.5212 H   0  0  0  0  0  0
  -28.2116  -14.3071   21.5817 H   0  0  0  0  0  0
  -25.2731   -9.5627   22.4785 H   0  0  0  0  0  0
  -23.9977   -7.4568   22.7475 H   0  0  0  0  0  0
  -21.0812   -8.8735   19.8948 H   0  0  0  0  0  0
  -22.3676  -10.9638   19.6182 H   0  0  0  0  0  0
  -21.1993   -7.6137   23.9719 H   0  0  0  0  0  0
  -21.1483   -6.0514   25.9083 H   0  0  0  0  0  0
  -22.0603   -2.7599   23.2858 H   0  0  0  0  0  0
  -22.4009  -11.9850   22.4870 H   0  0  0  0  0  0
  -21.1017  -13.1213   22.2651 H   0  0  0  0  0  0
  -24.6410  -15.8262   20.5594 H   0  0  0  0  0  0
  -26.2634  -15.6325   20.1378 H   0  0  0  0  0  0
  -26.7393  -32.5090   23.0857 H   0  0  0  0  0  0
  -25.0048  -33.9447   25.0149 H   0  0  0  0  0  0
  -22.7989  -31.2599   21.3411 H   0  0  0  0  0  0
  -23.3776  -35.9496   23.3278 H   0  0  0  0  0  0
  -24.3570  -36.8867   22.2072 H   0  0  0  0  0  0
  -23.7232  -37.6353   23.6732 H   0  0  0  0  0  0
  -26.2403  -31.3544   20.6232 H   0  0  0  0  0  0
  -26.9114  -30.6722   22.0620 H   0  0  0  0  0  0
  -28.1593  -28.5753   21.2812 H   0  0  0  0  0  0
  -25.8878  -25.6988   19.0282 H   0  0  0  0  0  0
  -24.0139  -27.2401   18.9665 H   0  0  0  0  0  0
  -23.8882  -30.5034   19.3865 H   0  0  0  0  0  0
  -22.8369  -29.1935   19.8258 H   0  0  0  0  0  0
  -25.1344  -36.1736   25.0787 H   0  0  0  0  0  0
  -21.0036  -28.3370   24.1311 H   0  0  0  0  0  0
  -20.5675  -26.2376   23.3652 H   0  0  0  0  0  0
  -21.6660  -26.7409   22.1216 H   0  0  0  0  0  0
  -19.6927  -25.6276   21.1286 H   0  0  0  0  0  0
  -19.6718  -27.3160   20.6727 H   0  0  0  0  0  0
  -17.4224  -26.6697   21.4025 H   0  0  0  0  0  0
  -18.0346  -26.0107   22.9034 H   0  0  0  0  0  0
  -19.7970  -30.7342   24.2177 H   0  0  0  0  0  0
  -17.5036  -31.6277   24.5173 H   0  0  0  0  0  0
  -15.5375  -30.2970   23.7707 H   0  0  0  0  0  0
  -15.8709  -28.0819   22.7092 H   0  0  0  0  0  0
  -24.5889  -30.7097   25.7626 H   0  0  0  0  0  0
  -24.8835  -32.2968   26.4627 H   0  0  0  0  0  0
  -25.7896  -30.9017   27.0200 H   0  0  0  0  0  0
  -26.3150  -29.6547   24.1443 H   0  0  0  0  0  0
  -27.3977  -29.7269   25.5122 H   0  0  0  0  0  0
  -27.9102  -30.4065   23.9896 H   0  0  0  0  0  0
  -27.2646  -33.3691   26.1922 H   0  0  0  0  0  0
  -28.3939  -32.6798   25.0355 H   0  0  0  0  0  0
  -28.0655  -31.8550   26.5511 H   0  0  0  0  0  0
  -28.2567  -38.0066   24.7523 H   0  0  0  0  0  0
  -28.1090  -36.2592   24.6290 H   0  0  0  0  0  0
  -27.2286  -37.1381   25.8870 H   0  0  0  0  0  0
  -20.9609  -29.8708   21.6633 H   0  0  0  0  0  0
  -26.0124  -38.2745   24.1420 H   0  0  0  0  0  0
  -32.6033  -19.0764   17.7691 H   0  0  0  0  0  0
  -31.3573  -21.2976   21.1042 H   0  0  0  0  0  0
  -27.8417  -15.8951   19.5930 H   0  0  0  0  0  0
  -27.8956  -17.5697   19.3424 H   0  0  0  0  0  0
  -29.6532  -18.3368   16.8595 H   0  0  0  0  0  0
  -30.6781  -18.1806   14.8529 H   0  0  0  0  0  0
  -32.0654  -17.1380   14.6148 H   0  0  0  0  0  0
  -32.1955  -18.5352   15.6744 H   0  0  0  0  0  0
  -31.8237  -15.2790   17.6907 H   0  0  0  0  0  0
  -32.8745  -16.7023   17.6972 H   0  0  0  0  0  0
  -32.8158  -15.6385   16.3033 H   0  0  0  0  0  0
  -29.5710  -22.8100   21.3773 H   0  0  0  0  0  0
  -29.9664  -22.8469   19.7066 H   0  0  0  0  0  0
  -27.2165  -23.9485   20.8421 H   0  0  0  0  0  0
  -27.6231  -23.9965   19.1765 H   0  0  0  0  0  0
  -27.9802  -20.7390   20.0283 H   0  0  0  0  0  0
  -30.4798  -16.1981   16.0771 H   0  0  0  0  0  0
  1 25  1  0  0  0
  1 30  2  0  0  0
  1 84  1  0  0  0
  2  3  1  0  0  0
  2 25  1  0  0  0
  2 89  1  0  0  0
  2 90  1  0  0  0
  3  4  1  0  0  0
  3 91  1  0  0  0
  3 92  1  0  0  0
  4  5  1  0  0  0
  4 93  1  0  0  0
  4 94  1  0  0  0
  5  6  1  0  0  0
  5 26  1  0  0  0
  5 95  1  0  0  0
  6 25  1  0  0  0
  6 96  1  0  0  0
  6 97  1  0  0  0
  7  8  2  0  0  0
  7 26  1  0  0  0
  7 29  1  0  0  0
  8  9  1  0  0  0
  8 22  1  0  0  0
  9 10  1  0  0  0
  9 27  2  0  0  0
 10 11  2  0  0  0
 10 15  1  0  0  0
 11 12  1  0  0  0
 11 98  1  0  0  0
 12 13  2  0  0  0
 12 99  1  0  0  0
 13 14  1  0  0  0
 13 31  1  0  0  0
 14 15  2  0  0  0
 14100  1  0  0  0
 15101  1  0  0  0
 16 17  2  0  0  0
 16 21  1  0  0  0
 16 31  1  0  0  0
 17 18  1  0  0  0
 17102  1  0  0  0
 18 19  2  0  0  0
 18103  1  0  0  0
 19 20  1  0  0  0
 19 24  1  0  0  0
 20 21  2  0  0  0
 20104  1  0  0  0
 21 23  1  0  0  0
 22 28  1  0  0  0
 22 32  2  0  0  0
 26 27  1  0  0  0
 28105  1  0  0  0
 28106  1  0  0  0
 29107  1  0  0  0
 29108  1  0  0  0
 33 34  1  0  0  0
 33 66  1  0  0  0
 33 70  2  0  0  0
 34 36  1  0  0  0
 34 59  1  0  0  0
 34109  1  0  0  0
 35 44  2  0  0  0
 35 45  1  0  0  0
 35 68  1  0  0  0
 36 56  1  0  0  0
 36110  1  0  0  0
 37 39  1  0  0  0
 37 47  1  0  0  0
 37 66  1  0  0  0
 37111  1  0  0  0
 38 43  2  0  0  0
 38 46  1  0  0  0
 38 47  1  0  0  0
 39 64  1  0  0  0
 39 67  2  0  0  0
 40 52  1  0  0  0
 40 53  2  0  0  0
 40 58  1  0  0  0
 41112  1  0  0  0
 41113  1  0  0  0
 41114  1  0  0  0
 41 48  1  0  0  0
 42 43  1  0  0  0
 42 66  1  0  0  0
 42115  1  0  0  0
 42116  1  0  0  0
 43 44  1  0  0  0
 44117  1  0  0  0
 45 46  2  0  0  0
 45118  1  0  0  0
 46119  1  0  0  0
 47120  1  0  0  0
 47121  1  0  0  0
 48 56  1  0  0  0
 48 65  1  0  0  0
 48122  1  0  0  0
 49 50  1  0  0  0
 49 53  1  0  0  0
 49 64  1  0  0  0
 49123  1  0  0  0
 50 51  1  0  0  0
 50124  1  0  0  0
 50125  1  0  0  0
 51 52  1  0  0  0
 51126  1  0  0  0
 51127  1  0  0  0
 52128  1  0  0  0
 52129  1  0  0  0
 53 54  1  0  0  0
 54 55  2  0  0  0
 54130  1  0  0  0
 55 57  1  0  0  0
 55131  1  0  0  0
 56 69  2  0  0  0
 57 58  2  0  0  0
 57132  1  0  0  0
 58133  1  0  0  0
 59 60  1  0  0  0
 59 61  1  0  0  0
 59 62  1  0  0  0
 60134  1  0  0  0
 60135  1  0  0  0
 60136  1  0  0  0
 61137  1  0  0  0
 61138  1  0  0  0
 61139  1  0  0  0
 62140  1  0  0  0
 62141  1  0  0  0
 62142  1  0  0  0
 63 65  1  0  0  0
 63143  1  0  0  0
 63144  1  0  0  0
 63145  1  0  0  0
 64146  1  0  0  0
 65147  1  0  0  0
 68 83  1  0  0  0
 71 73  2  0  0  0
 71 76  1  0  0  0
 71148  1  0  0  0
 72 75  1  0  0  0
 72 76  2  0  0  0
 72149  1  0  0  0
 73 74  1  0  0  0
 73 79  1  0  0  0
 74 75  2  0  0  0
 74 84  1  0  0  0
 75 85  1  0  0  0
 76 88  1  0  0  0
 77 78  1  0  0  0
 77 87  2  0  0  0
 77 79  1  0  0  0
 78 84  1  0  0  0
 78150  1  0  0  0
 78151  1  0  0  0
 79 86  1  0  0  0
 79152  1  0  0  0
 80153  1  0  0  0
 80154  1  0  0  0
 80155  1  0  0  0
 80 86  1  0  0  0
 81 86  1  0  0  0
 81156  1  0  0  0
 81157  1  0  0  0
 81158  1  0  0  0
 82 83  1  0  0  0
 82 85  1  0  0  0
 82159  1  0  0  0
 82160  1  0  0  0
 83161  1  0  0  0
 83162  1  0  0  0
 85163  1  0  0  0
 86164  1  0  0  0
M  CHG  1  86   1
M  ISO  4   1 100  68 101  83 101  84 100
M  END
> <chiral flag>
0

> <version>
0

> <s_m_source_file>
/data/baiqing/PycharmProjects/Reinvent-master-3.2/result/LINK_invent/BTK/process_docking_weight1_custom_product_contain_oxygen_bond_distance_aromatic_linkinvent_7_9_3/rearranged_h_0006.sdf

> <i_m_source_file_index>
9

> <r_mmod_Potential_Energy-OPLS-2005>
1784.01062011719

> <r_mmod_Stretch_Energy-OPLS-2005>
705.393127441406

> <r_mmod_Bend_Energy-OPLS-2005>
591.455932617188

> <r_mmod_Torsional_Energy-OPLS-2005>
551.804321289062

> <r_mmod_Improper_Torsional_Energy-OPLS-2005>
23.4496402740479

> <r_mmod_Van_der_Waal_Energy-OPLS-2005>
150.969085693359

> <r_mmod_Electrostatic_Energy-OPLS-2005>
-371.427825927734

> <r_mmod_Solvation_Energy-OPLS-2005>
-462.068786621094

> <b_mmod_Minimization_Converged-OPLS-2005>
0

> <r_mmod_RMS_Derivative-OPLS-2005>
1.0592874288559

$$$$
9
                    3D
 Structure written by MMmdl.
154162  0  0  1  0            999 V2000
  -30.4361  -15.1902   20.3758 C   0  0  0  0  0  0
  -30.4530  -12.7535   19.5184 C   0  0  0  0  0  0
  -29.5352  -12.5642   18.2832 C   0  0  0  0  0  0
  -28.0783  -12.3052   18.7087 C   0  0  0  0  0  0
  -27.6219  -13.2669   19.8331 C   0  0  2  0  0  0
  -28.6607  -13.3828   20.9691 C   0  0  0  0  0  0
  -25.2433  -13.8250   20.5750 C   0  0  0  0  0  0
  -24.1766  -13.0447   20.9256 C   0  0  0  0  0  0
  -24.6413  -11.6941   20.8774 C   0  0  0  0  0  0
  -23.9103  -10.4297   21.0415 C   0  0  0  0  0  0
  -24.3635   -9.4208   21.9196 C   0  0  0  0  0  0
  -23.6295   -8.2251   22.0763 C   0  0  0  0  0  0
  -22.4280   -8.0290   21.3549 C   0  0  0  0  0  0
  -21.9924   -9.0273   20.4655 C   0  0  0  0  0  0
  -22.7272  -10.2146   20.3065 C   0  0  0  0  0  0
  -21.6848   -6.0738   22.5282 C   0  0  0  0  0  0
  -21.4015   -6.5641   23.8214 C   0  0  0  0  0  0
  -21.3656   -5.6795   24.9177 C   0  0  0  0  0  0
  -21.6040   -4.3056   24.7227 C   0  0  0  0  0  0
  -21.8818   -3.8149   23.4350 C   0  0  0  0  0  0
  -21.9193   -4.6965   22.3405 C   0  0  0  0  0  0
  -22.7780  -13.5203   21.1900 C   0  0  0  0  0  0
  -22.1659   -4.2152   21.0982 F   0  0  0  0  0  0
  -21.5622   -3.4538   25.7739 F   0  0  0  0  0  0
  -29.9078  -13.8753   20.3611 N   0  0  0  0  0  0
  -26.2860  -12.9509   20.3245 N   0  0  0  0  0  0
  -25.9349  -11.6627   20.5747 N   0  0  0  0  0  0
  -22.0423  -12.8185   22.0445 N   0  0  0  0  0  0
  -25.4085  -15.1984   20.4188 N   0  0  0  0  0  0
  -31.6400  -15.2538   20.0889 O   0  0  0  0  0  0
  -21.6638   -6.8887   21.4245 O   0  0  0  0  0  0
  -22.3461  -14.5499   20.6734 O   0  0  0  0  0  0
  -24.6604  -31.8270   23.1725 C   0  0  0  0  0  0
  -25.9302  -32.4607   23.8179 C   0  0  1  0  0  0
  -27.2313  -26.9816   20.1744 C   0  0  0  0  0  0
  -25.5977  -33.8418   24.2085 N   0  0  0  0  0  0
  -23.4736  -30.4395   21.5200 C   0  0  2  0  0  0
  -24.9273  -28.8316   20.1123 C   0  0  0  0  0  0
  -22.7650  -29.4472   22.4785 C   0  0  0  0  0  0
  -18.0329  -28.1399   22.8452 C   0  0  0  0  0  0
  -24.1500  -36.7209   23.2643 C   0  0  0  0  0  0
  -26.0388  -30.6516   21.3939 C   0  0  0  0  0  0
  -26.1100  -29.2464   20.7373 C   0  0  0  0  0  0
  -27.2595  -28.3427   20.7410 C   0  0  0  0  0  0
  -26.0184  -26.7034   19.5051 C   0  0  0  0  0  0
  -24.9027  -27.5801   19.4764 C   0  0  0  0  0  0
  -23.7104  -29.7531   20.1469 C   0  0  0  0  0  0
  -25.4139  -36.2968   24.0302 C   0  0  1  0  0  0
  -20.5949  -28.3745   23.1168 C   0  0  2  0  0  0
  -20.6801  -26.9427   22.5386 C   0  0  0  0  0  0
  -19.5776  -26.6365   21.5192 C   0  0  0  0  0  0
  -18.1959  -26.7932   22.1605 C   0  0  0  0  0  0
  -19.1591  -28.8891   23.2796 C   0  0  0  0  0  0
  -18.9504  -30.1476   23.8835 C   0  0  0  0  0  0
  -17.6499  -30.6584   24.0550 C   0  0  0  0  0  0
  -25.9101  -34.9355   23.5010 C   0  0  0  0  0  0
  -16.5384  -29.9076   23.6338 C   0  0  0  0  0  0
  -16.7315  -28.6497   23.0355 C   0  0  0  0  0  0
  -26.4571  -31.6548   25.0701 C   0  0  0  0  0  0
  -25.3703  -31.3768   26.1355 C   0  0  0  0  0  0
  -27.0459  -30.2917   24.6417 C   0  0  0  0  0  0
  -27.6067  -32.4369   25.7496 C   0  0  0  0  0  0
  -27.5569  -37.1758   24.8462 C   0  0  0  0  0  0
  -21.4326  -29.3042   22.3521 N   0  0  0  0  0  0
  -26.4279  -37.3707   23.9414 N   0  0  0  0  0  0
  -24.7450  -31.0000   22.0820 N   0  0  0  0  0  0
  -23.4210  -28.8027   23.3011 O   0  0  0  0  0  0
  -28.2614  -25.9200   20.2518 O   0  0  0  0  0  0
  -26.5704  -34.8892   22.4602 O   0  0  0  0  0  0
  -23.5686  -32.1207   23.6857 O   0  0  0  0  0  0
  -29.9928  -20.3825   19.4962 C   0  0  0  0  0  0
  -30.1997  -18.9113   19.5553 C   0  0  0  0  0  0
  -29.1193  -21.2100   20.3248 C   0  0  0  0  0  0
  -29.5533  -17.9804   20.4638 C   0  0  0  0  0  0
  -28.4893  -20.2838   21.2500 C   0  0  0  0  0  0
  -28.6607  -18.7987   21.2779 C   0  0  0  0  0  0
  -27.9113  -21.8200   24.3980 C   0  0  0  0  0  0
  -29.1463  -22.9471   20.4135 C   0  0  0  0  0  0
  -27.9706  -20.5504   23.5462 C   0  0  0  0  0  0
  -28.0530  -24.3080   20.1020 C   0  0  0  0  0  0
  -29.5991  -16.3770   20.5775 N   0  0  0  0  0  0
  -27.6999  -20.8996   22.1929 O   0  0  0  0  0  0
  -27.9079  -18.1045   22.1665 F   0  0  0  0  0  0
  -31.4681  -12.9653   19.1809 H   0  0  0  0  0  0
  -30.5249  -11.8326   20.0993 H   0  0  0  0  0  0
  -29.8970  -11.7432   17.6624 H   0  0  0  0  0  0
  -29.5782  -13.4605   17.6623 H   0  0  0  0  0  0
  -28.0141  -11.2741   19.0605 H   0  0  0  0  0  0
  -27.4115  -12.3767   17.8491 H   0  0  0  0  0  0
  -27.5558  -14.2485   19.3621 H   0  0  0  0  0  0
  -28.8074  -12.4242   21.4675 H   0  0  0  0  0  0
  -28.3168  -14.0794   21.7347 H   0  0  0  0  0  0
  -25.2775   -9.5669   22.4778 H   0  0  0  0  0  0
  -23.9992   -7.4635   22.7480 H   0  0  0  0  0  0
  -21.0850   -8.8807   19.8958 H   0  0  0  0  0  0
  -22.3741  -10.9687   19.6171 H   0  0  0  0  0  0
  -21.2014   -7.6148   23.9717 H   0  0  0  0  0  0
  -21.1473   -6.0524   25.9077 H   0  0  0  0  0  0
  -22.0601   -2.7610   23.2853 H   0  0  0  0  0  0
  -22.4033  -11.9852   22.4843 H   0  0  0  0  0  0
  -21.1048  -13.1228   22.2653 H   0  0  0  0  0  0
  -24.6454  -15.8524   20.5546 H   0  0  0  0  0  0
  -26.2445  -15.6383   20.0584 H   0  0  0  0  0  0
  -26.7369  -32.5172   23.0894 H   0  0  0  0  0  0
  -25.0094  -33.9499   25.0213 H   0  0  0  0  0  0
  -22.7861  -31.2704   21.3484 H   0  0  0  0  0  0
  -23.3779  -35.9518   23.3278 H   0  0  0  0  0  0
  -24.3567  -36.8892   22.2059 H   0  0  0  0  0  0
  -23.7251  -37.6385   23.6729 H   0  0  0  0  0  0
  -26.2176  -31.3992   20.6194 H   0  0  0  0  0  0
  -26.8984  -30.7023   22.0504 H   0  0  0  0  0  0
  -28.1617  -28.6614   21.2452 H   0  0  0  0  0  0
  -25.9027  -25.7461   19.0181 H   0  0  0  0  0  0
  -24.0009  -27.2598   18.9722 H   0  0  0  0  0  0
  -23.8594  -30.5178   19.3834 H   0  0  0  0  0  0
  -22.8221  -29.2002   19.8355 H   0  0  0  0  0  0
  -25.1338  -36.1753   25.0794 H   0  0  0  0  0  0
  -21.0052  -28.3373   24.1286 H   0  0  0  0  0  0
  -20.5676  -26.2376   23.3636 H   0  0  0  0  0  0
  -21.6671  -26.7398   22.1201 H   0  0  0  0  0  0
  -19.6944  -25.6256   21.1274 H   0  0  0  0  0  0
  -19.6724  -27.3135   20.6682 H   0  0  0  0  0  0
  -17.4230  -26.6671   21.4011 H   0  0  0  0  0  0
  -18.0359  -26.0075   22.9005 H   0  0  0  0  0  0
  -19.7981  -30.7287   24.2207 H   0  0  0  0  0  0
  -17.5055  -31.6274   24.5141 H   0  0  0  0  0  0
  -15.5386  -30.2952   23.7693 H   0  0  0  0  0  0
  -15.8716  -28.0791   22.7100 H   0  0  0  0  0  0
  -24.5907  -30.7107   25.7640 H   0  0  0  0  0  0
  -24.8869  -32.2951   26.4686 H   0  0  0  0  0  0
  -25.7936  -30.8980   27.0191 H   0  0  0  0  0  0
  -26.3095  -29.6607   24.1429 H   0  0  0  0  0  0
  -27.3981  -29.7284   25.5066 H   0  0  0  0  0  0
  -27.9055  -30.4095   23.9822 H   0  0  0  0  0  0
  -27.2639  -33.3730   26.1919 H   0  0  0  0  0  0
  -28.3947  -32.6847   25.0372 H   0  0  0  0  0  0
  -28.0663  -31.8607   26.5533 H   0  0  0  0  0  0
  -28.2559  -38.0075   24.7516 H   0  0  0  0  0  0
  -28.1096  -36.2605   24.6291 H   0  0  0  0  0  0
  -27.2282  -37.1390   25.8860 H   0  0  0  0  0  0
  -20.9582  -29.8725   21.6637 H   0  0  0  0  0  0
  -26.0128  -38.2764   24.1435 H   0  0  0  0  0  0
  -30.5968  -20.9135   18.7727 H   0  0  0  0  0  0
  -30.8922  -18.4899   18.8412 H   0  0  0  0  0  0
  -28.1180  -21.5925   25.4445 H   0  0  0  0  0  0
  -26.9275  -22.2846   24.3462 H   0  0  0  0  0  0
  -28.6475  -22.5522   24.0655 H   0  0  0  0  0  0
  -30.0372  -23.1979   19.8372 H   0  0  0  0  0  0
  -29.4599  -23.1072   21.4452 H   0  0  0  0  0  0
  -27.2320  -19.8281   23.8952 H   0  0  0  0  0  0
  -28.9556  -20.0947   23.6639 H   0  0  0  0  0  0
  -27.1580  -24.0964   20.6884 H   0  0  0  0  0  0
  -27.7421  -24.1808   19.0649 H   0  0  0  0  0  0
  -28.7203  -16.0525   20.9515 H   0  0  0  0  0  0
  1 25  1  0  0  0
  1 30  2  0  0  0
  1 81  1  0  0  0
  2  3  1  0  0  0
  2 25  1  0  0  0
  2 84  1  0  0  0
  2 85  1  0  0  0
  3  4  1  0  0  0
  3 86  1  0  0  0
  3 87  1  0  0  0
  4  5  1  0  0  0
  4 88  1  0  0  0
  4 89  1  0  0  0
  5  6  1  0  0  0
  5 26  1  0  0  0
  5 90  1  0  0  0
  6 25  1  0  0  0
  6 91  1  0  0  0
  6 92  1  0  0  0
  7  8  2  0  0  0
  7 26  1  0  0  0
  7 29  1  0  0  0
  8  9  1  0  0  0
  8 22  1  0  0  0
  9 10  1  0  0  0
  9 27  2  0  0  0
 10 11  2  0  0  0
 10 15  1  0  0  0
 11 12  1  0  0  0
 11 93  1  0  0  0
 12 13  2  0  0  0
 12 94  1  0  0  0
 13 14  1  0  0  0
 13 31  1  0  0  0
 14 15  2  0  0  0
 14 95  1  0  0  0
 15 96  1  0  0  0
 16 17  2  0  0  0
 16 21  1  0  0  0
 16 31  1  0  0  0
 17 18  1  0  0  0
 17 97  1  0  0  0
 18 19  2  0  0  0
 18 98  1  0  0  0
 19 20  1  0  0  0
 19 24  1  0  0  0
 20 21  2  0  0  0
 20 99  1  0  0  0
 21 23  1  0  0  0
 22 28  1  0  0  0
 22 32  2  0  0  0
 26 27  1  0  0  0
 28100  1  0  0  0
 28101  1  0  0  0
 29102  1  0  0  0
 29103  1  0  0  0
 33 34  1  0  0  0
 33 66  1  0  0  0
 33 70  2  0  0  0
 34 36  1  0  0  0
 34 59  1  0  0  0
 34104  1  0  0  0
 35 44  2  0  0  0
 35 45  1  0  0  0
 35 68  1  0  0  0
 36 56  1  0  0  0
 36105  1  0  0  0
 37 39  1  0  0  0
 37 47  1  0  0  0
 37 66  1  0  0  0
 37106  1  0  0  0
 38 43  2  0  0  0
 38 46  1  0  0  0
 38 47  1  0  0  0
 39 64  1  0  0  0
 39 67  2  0  0  0
 40 52  1  0  0  0
 40 53  2  0  0  0
 40 58  1  0  0  0
 41107  1  0  0  0
 41108  1  0  0  0
 41109  1  0  0  0
 41 48  1  0  0  0
 42 43  1  0  0  0
 42 66  1  0  0  0
 42110  1  0  0  0
 42111  1  0  0  0
 43 44  1  0  0  0
 44112  1  0  0  0
 45 46  2  0  0  0
 45113  1  0  0  0
 46114  1  0  0  0
 47115  1  0  0  0
 47116  1  0  0  0
 48 56  1  0  0  0
 48 65  1  0  0  0
 48117  1  0  0  0
 49 50  1  0  0  0
 49 53  1  0  0  0
 49 64  1  0  0  0
 49118  1  0  0  0
 50 51  1  0  0  0
 50119  1  0  0  0
 50120  1  0  0  0
 51 52  1  0  0  0
 51121  1  0  0  0
 51122  1  0  0  0
 52123  1  0  0  0
 52124  1  0  0  0
 53 54  1  0  0  0
 54 55  2  0  0  0
 54125  1  0  0  0
 55 57  1  0  0  0
 55126  1  0  0  0
 56 69  2  0  0  0
 57 58  2  0  0  0
 57127  1  0  0  0
 58128  1  0  0  0
 59 60  1  0  0  0
 59 61  1  0  0  0
 59 62  1  0  0  0
 60129  1  0  0  0
 60130  1  0  0  0
 60131  1  0  0  0
 61132  1  0  0  0
 61133  1  0  0  0
 61134  1  0  0  0
 62135  1  0  0  0
 62136  1  0  0  0
 62137  1  0  0  0
 63 65  1  0  0  0
 63138  1  0  0  0
 63139  1  0  0  0
 63140  1  0  0  0
 64141  1  0  0  0
 65142  1  0  0  0
 68 80  1  0  0  0
 71 72  2  0  0  0
 71 73  1  0  0  0
 71143  1  0  0  0
 72 74  1  0  0  0
 72144  1  0  0  0
 73 75  2  0  0  0
 73 78  1  0  0  0
 74 76  2  0  0  0
 74 81  1  0  0  0
 75 76  1  0  0  0
 75 82  1  0  0  0
 76 83  1  0  0  0
 77 79  1  0  0  0
 77145  1  0  0  0
 77146  1  0  0  0
 77147  1  0  0  0
 78 80  1  0  0  0
 78148  1  0  0  0
 78149  1  0  0  0
 79 82  1  0  0  0
 79150  1  0  0  0
 79151  1  0  0  0
 80152  1  0  0  0
 80153  1  0  0  0
 81154  1  0  0  0
M  ISO  4   1 100  68 101  80 101  81 100
M  END
> <chiral flag>
0

> <version>
0

> <s_m_source_file>
/data/baiqing/PycharmProjects/Reinvent-master-3.2/result/LINK_invent/BTK/process_docking_weight1_custom_product_contain_oxygen_bond_distance_aromatic_linkinvent_7_9_3/rearranged_h_0006.sdf

> <i_m_source_file_index>
10

> <r_mmod_Potential_Energy-OPLS-2005>
1042.9716796875

> <r_mmod_Stretch_Energy-OPLS-2005>
456.930725097656

> <r_mmod_Bend_Energy-OPLS-2005>
406.283630371094

> <r_mmod_Torsional_Energy-OPLS-2005>
244.943023681641

> <r_mmod_Improper_Torsional_Energy-OPLS-2005>
5.71584415435791

> <r_mmod_Van_der_Waal_Energy-OPLS-2005>
127.600547790527

> <r_mmod_Electrostatic_Energy-OPLS-2005>
-374.081359863281

> <r_mmod_Solvation_Energy-OPLS-2005>
-206.215576171875

> <b_mmod_Minimization_Converged-OPLS-2005>
0

> <r_mmod_RMS_Derivative-OPLS-2005>
2.024080991745

$$$$
10
                    3D
 Structure written by MMmdl.
159167  0  0  1  0            999 V2000
  -30.6975  -14.5670   20.5618 C   0  0  0  0  0  0
  -30.4147  -12.3652   19.4461 C   0  0  0  0  0  0
  -29.5124  -12.5389   18.2072 C   0  0  0  0  0  0
  -28.0284  -12.3807   18.6068 C   0  0  0  0  0  0
  -27.6523  -13.2331   19.8553 C   0  0  2  0  0  0
  -28.6955  -13.0762   20.9901 C   0  0  0  0  0  0
  -25.2513  -13.8202   20.5627 C   0  0  0  0  0  0
  -24.1825  -13.0469   20.9170 C   0  0  0  0  0  0
  -24.6398  -11.6942   20.8698 C   0  0  0  0  0  0
  -23.9065  -10.4328   21.0360 C   0  0  0  0  0  0
  -24.3620   -9.4235   21.9133 C   0  0  0  0  0  0
  -23.6288   -8.2272   22.0718 C   0  0  0  0  0  0
  -22.4261   -8.0293   21.3525 C   0  0  0  0  0  0
  -21.9884   -9.0287   20.4637 C   0  0  0  0  0  0
  -22.7207  -10.2174   20.3037 C   0  0  0  0  0  0
  -21.6871   -6.0743   22.5293 C   0  0  0  0  0  0
  -21.4041   -6.5639   23.8245 C   0  0  0  0  0  0
  -21.3642   -5.6775   24.9192 C   0  0  0  0  0  0
  -21.6019   -4.3040   24.7203 C   0  0  0  0  0  0
  -21.8812   -3.8142   23.4326 C   0  0  0  0  0  0
  -21.9198   -4.6973   22.3392 C   0  0  0  0  0  0
  -22.7820  -13.5295   21.1781 C   0  0  0  0  0  0
  -22.1660   -4.2191   21.0957 F   0  0  0  0  0  0
  -21.5586   -3.4483   25.7689 F   0  0  0  0  0  0
  -30.0180  -13.3879   20.4344 N   0  0  0  0  0  0
  -26.2996  -12.9432   20.3249 N   0  0  0  0  0  0
  -25.9347  -11.6590   20.5683 N   0  0  0  0  0  0
  -22.0349  -12.8491   22.0356 N   0  0  0  0  0  0
  -25.4023  -15.1938   20.3937 N   0  0  0  0  0  0
  -31.8192  -14.7179   20.0724 O   0  0  0  0  0  0
  -21.6621   -6.8901   21.4253 O   0  0  0  0  0  0
  -22.3597  -14.5581   20.6478 O   0  0  0  0  0  0
  -24.6219  -31.8585   23.1985 C   0  0  0  0  0  0
  -25.9087  -32.4750   23.8268 C   0  0  1  0  0  0
  -27.1829  -27.2957   20.1298 C   0  0  0  0  0  0
  -25.5929  -33.8573   24.2120 N   0  0  0  0  0  0
  -23.4215  -30.4780   21.5415 C   0  0  2  0  0  0
  -24.8651  -28.9497   20.0961 C   0  0  0  0  0  0
  -22.7455  -29.4558   22.4871 C   0  0  0  0  0  0
  -18.0222  -28.1405   22.8404 C   0  0  0  0  0  0
  -24.1551  -36.7245   23.2635 C   0  0  0  0  0  0
  -25.9711  -30.7639   21.4102 C   0  0  0  0  0  0
  -26.0270  -29.4069   20.7248 C   0  0  0  0  0  0
  -27.1920  -28.5865   20.7327 C   0  0  0  0  0  0
  -26.0082  -26.8979   19.4531 C   0  0  0  0  0  0
  -24.8615  -27.7099   19.4394 C   0  0  0  0  0  0
  -23.6355  -29.8244   20.1524 C   0  0  0  0  0  0
  -25.4200  -36.3031   24.0256 C   0  0  1  0  0  0
  -20.5825  -28.3699   23.1202 C   0  0  2  0  0  0
  -20.6724  -26.9415   22.5367 C   0  0  0  0  0  0
  -19.5713  -26.6360   21.5167 C   0  0  0  0  0  0
  -18.1877  -26.7918   22.1580 C   0  0  0  0  0  0
  -19.1485  -28.8870   23.2775 C   0  0  0  0  0  0
  -18.9450  -30.1459   23.8817 C   0  0  0  0  0  0
  -17.6471  -30.6619   24.0532 C   0  0  0  0  0  0
  -25.9128  -34.9428   23.4975 C   0  0  0  0  0  0
  -16.5331  -29.9120   23.6360 C   0  0  0  0  0  0
  -16.7216  -28.6534   23.0349 C   0  0  0  0  0  0
  -26.4454  -31.6654   25.0708 C   0  0  0  0  0  0
  -25.3605  -31.3946   26.1366 C   0  0  0  0  0  0
  -27.0247  -30.2955   24.6451 C   0  0  0  0  0  0
  -27.5946  -32.4532   25.7447 C   0  0  0  0  0  0
  -27.5600  -37.1768   24.8392 C   0  0  0  0  0  0
  -21.4161  -29.3004   22.3586 N   0  0  0  0  0  0
  -26.4332  -37.3753   23.9333 N   0  0  0  0  0  0
  -24.6858  -31.0541   22.1000 N   0  0  0  0  0  0
  -23.4147  -28.8089   23.2974 O   0  0  0  0  0  0
  -28.2948  -26.4574   20.2116 O   0  0  0  0  0  0
  -26.5700  -34.8909   22.4548 O   0  0  0  0  0  0
  -23.5376  -32.1441   23.7267 O   0  0  0  0  0  0
  -29.2653  -19.2708   23.4654 C   0  0  0  0  0  0
  -29.2998  -18.0167   22.8272 C   0  0  0  0  0  0
  -28.9531  -20.4372   22.7412 C   0  0  0  0  0  0
  -28.9772  -17.8823   21.4661 C   0  0  0  0  0  0
  -28.6228  -20.3658   21.3676 C   0  0  0  0  0  0
  -28.5866  -19.0679   20.7486 C   0  0  0  0  0  0
  -26.1012  -22.3932   20.2417 C   0  0  0  0  0  0
  -29.0083  -16.4443   20.8683 C   0  0  0  0  0  0
  -28.4752  -21.7018   20.5813 C   0  0  0  0  0  0
  -27.6713  -24.1046   21.2282 C   0  0  0  0  0  0
  -28.1786  -24.9939   20.0210 C   0  0  0  0  0  0
  -30.1559  -15.5786   21.2844 N   0  0  0  0  0  0
  -27.3622  -22.6276   20.9952 N   0  3  1  0  0  0
  -28.2026  -18.9649   19.4540 F   0  0  0  0  0  0
  -31.4745  -12.4047   19.1809 H   0  0  0  0  0  0
  -30.2654  -11.3719   19.8672 H   0  0  0  0  0  0
  -29.7808  -11.8040   17.4463 H   0  0  0  0  0  0
  -29.6846  -13.5139   17.7521 H   0  0  0  0  0  0
  -27.8548  -11.3249   18.8073 H   0  0  0  0  0  0
  -27.3868  -12.6305   17.7592 H   0  0  0  0  0  0
  -27.6669  -14.2709   19.5244 H   0  0  0  0  0  0
  -28.6953  -12.0541   21.3657 H   0  0  0  0  0  0
  -28.4596  -13.7069   21.8481 H   0  0  0  0  0  0
  -25.2764   -9.5764   22.4710 H   0  0  0  0  0  0
  -24.0015   -7.4692   22.7442 H   0  0  0  0  0  0
  -21.0775   -8.8800   19.9016 H   0  0  0  0  0  0
  -22.3610  -10.9696   19.6150 H   0  0  0  0  0  0
  -21.2088   -7.6157   23.9802 H   0  0  0  0  0  0
  -21.1437   -6.0456   25.9121 H   0  0  0  0  0  0
  -22.0606   -2.7609   23.2773 H   0  0  0  0  0  0
  -22.3910  -12.0377   22.5234 H   0  0  0  0  0  0
  -21.0924  -13.1634   22.2252 H   0  0  0  0  0  0
  -24.5899  -15.7962   20.4502 H   0  0  0  0  0  0
  -26.2142  -15.6503   20.0009 H   0  0  0  0  0  0
  -26.7119  -32.5357   23.0971 H   0  0  0  0  0  0
  -24.9963  -33.9760   25.0170 H   0  0  0  0  0  0
  -22.7160  -31.2963   21.3975 H   0  0  0  0  0  0
  -23.3852  -35.9541   23.3306 H   0  0  0  0  0  0
  -24.3591  -36.8904   22.2040 H   0  0  0  0  0  0
  -23.7351  -37.6437   23.6727 H   0  0  0  0  0  0
  -26.1843  -31.5577   20.6920 H   0  0  0  0  0  0
  -26.8114  -30.7378   22.0936 H   0  0  0  0  0  0
  -28.0839  -28.9075   21.2498 H   0  0  0  0  0  0
  -25.9362  -25.9645   18.9175 H   0  0  0  0  0  0
  -23.9787  -27.3823   18.9100 H   0  0  0  0  0  0
  -23.7384  -30.5973   19.3895 H   0  0  0  0  0  0
  -22.7637  -29.2336   19.8672 H   0  0  0  0  0  0
  -25.1471  -36.1796   25.0764 H   0  0  0  0  0  0
  -20.9865  -28.3320   24.1345 H   0  0  0  0  0  0
  -20.5594  -26.2334   23.3582 H   0  0  0  0  0  0
  -21.6598  -26.7409   22.1191 H   0  0  0  0  0  0
  -19.6901  -25.6257   21.1236 H   0  0  0  0  0  0
  -19.6703  -27.3122   20.6660 H   0  0  0  0  0  0
  -17.4130  -26.6529   21.4009 H   0  0  0  0  0  0
  -18.0344  -26.0106   22.9042 H   0  0  0  0  0  0
  -19.7961  -30.7210   24.2181 H   0  0  0  0  0  0
  -17.5090  -31.6305   24.5130 H   0  0  0  0  0  0
  -15.5359  -30.3040   23.7802 H   0  0  0  0  0  0
  -15.8560  -28.0887   22.7158 H   0  0  0  0  0  0
  -24.5721  -30.7407   25.7615 H   0  0  0  0  0  0
  -24.8901  -32.3212   26.4678 H   0  0  0  0  0  0
  -25.7799  -30.9098   27.0186 H   0  0  0  0  0  0
  -26.2871  -29.6797   24.1290 H   0  0  0  0  0  0
  -27.3434  -29.7203   25.5155 H   0  0  0  0  0  0
  -27.9004  -30.3943   24.0034 H   0  0  0  0  0  0
  -27.2353  -33.3703   26.2141 H   0  0  0  0  0  0
  -28.3613  -32.7414   25.0238 H   0  0  0  0  0  0
  -28.0830  -31.8709   26.5264 H   0  0  0  0  0  0
  -28.2583  -38.0096   24.7490 H   0  0  0  0  0  0
  -28.1136  -36.2620   24.6208 H   0  0  0  0  0  0
  -27.2246  -37.1376   25.8769 H   0  0  0  0  0  0
  -20.9369  -29.8737   21.6791 H   0  0  0  0  0  0
  -26.0169  -38.2769   24.1505 H   0  0  0  0  0  0
  -29.5208  -19.3381   24.5128 H   0  0  0  0  0  0
  -29.5632  -17.1371   23.3952 H   0  0  0  0  0  0
  -29.0096  -21.3912   23.2469 H   0  0  0  0  0  0
  -25.7838  -21.3519   20.3208 H   0  0  0  0  0  0
  -26.1955  -22.6245   19.1789 H   0  0  0  0  0  0
  -25.2897  -22.9990   20.6474 H   0  0  0  0  0  0
  -28.9356  -16.4623   19.7810 H   0  0  0  0  0  0
  -28.0968  -15.9701   21.2288 H   0  0  0  0  0  0
  -28.3984  -21.4946   19.5143 H   0  0  0  0  0  0
  -29.4199  -22.2313   20.6993 H   0  0  0  0  0  0
  -26.7597  -24.5541   21.6256 H   0  0  0  0  0  0
  -28.3915  -24.1657   22.0460 H   0  0  0  0  0  0
  -27.6383  -24.7416   19.1109 H   0  0  0  0  0  0
  -29.1937  -24.6606   19.8077 H   0  0  0  0  0  0
  -30.8985  -16.1514   21.6689 H   0  0  0  0  0  0
  -27.1448  -22.2938   21.9228 H   0  0  0  0  0  0
  1 25  1  0  0  0
  1 30  2  0  0  0
  1 82  1  0  0  0
  2  3  1  0  0  0
  2 25  1  0  0  0
  2 85  1  0  0  0
  2 86  1  0  0  0
  3  4  1  0  0  0
  3 87  1  0  0  0
  3 88  1  0  0  0
  4  5  1  0  0  0
  4 89  1  0  0  0
  4 90  1  0  0  0
  5  6  1  0  0  0
  5 26  1  0  0  0
  5 91  1  0  0  0
  6 25  1  0  0  0
  6 92  1  0  0  0
  6 93  1  0  0  0
  7  8  2  0  0  0
  7 26  1  0  0  0
  7 29  1  0  0  0
  8  9  1  0  0  0
  8 22  1  0  0  0
  9 10  1  0  0  0
  9 27  2  0  0  0
 10 11  2  0  0  0
 10 15  1  0  0  0
 11 12  1  0  0  0
 11 94  1  0  0  0
 12 13  2  0  0  0
 12 95  1  0  0  0
 13 14  1  0  0  0
 13 31  1  0  0  0
 14 15  2  0  0  0
 14 96  1  0  0  0
 15 97  1  0  0  0
 16 17  2  0  0  0
 16 21  1  0  0  0
 16 31  1  0  0  0
 17 18  1  0  0  0
 17 98  1  0  0  0
 18 19  2  0  0  0
 18 99  1  0  0  0
 19 20  1  0  0  0
 19 24  1  0  0  0
 20 21  2  0  0  0
 20100  1  0  0  0
 21 23  1  0  0  0
 22 28  1  0  0  0
 22 32  2  0  0  0
 26 27  1  0  0  0
 28101  1  0  0  0
 28102  1  0  0  0
 29103  1  0  0  0
 29104  1  0  0  0
 33 34  1  0  0  0
 33 66  1  0  0  0
 33 70  2  0  0  0
 34 36  1  0  0  0
 34 59  1  0  0  0
 34105  1  0  0  0
 35 44  2  0  0  0
 35 45  1  0  0  0
 35 68  1  0  0  0
 36 56  1  0  0  0
 36106  1  0  0  0
 37 39  1  0  0  0
 37 47  1  0  0  0
 37 66  1  0  0  0
 37107  1  0  0  0
 38 43  2  0  0  0
 38 46  1  0  0  0
 38 47  1  0  0  0
 39 64  1  0  0  0
 39 67  2  0  0  0
 40 52  1  0  0  0
 40 53  2  0  0  0
 40 58  1  0  0  0
 41108  1  0  0  0
 41109  1  0  0  0
 41110  1  0  0  0
 41 48  1  0  0  0
 42 43  1  0  0  0
 42 66  1  0  0  0
 42111  1  0  0  0
 42112  1  0  0  0
 43 44  1  0  0  0
 44113  1  0  0  0
 45 46  2  0  0  0
 45114  1  0  0  0
 46115  1  0  0  0
 47116  1  0  0  0
 47117  1  0  0  0
 48 56  1  0  0  0
 48 65  1  0  0  0
 48118  1  0  0  0
 49 50  1  0  0  0
 49 53  1  0  0  0
 49 64  1  0  0  0
 49119  1  0  0  0
 50 51  1  0  0  0
 50120  1  0  0  0
 50121  1  0  0  0
 51 52  1  0  0  0
 51122  1  0  0  0
 51123  1  0  0  0
 52124  1  0  0  0
 52125  1  0  0  0
 53 54  1  0  0  0
 54 55  2  0  0  0
 54126  1  0  0  0
 55 57  1  0  0  0
 55127  1  0  0  0
 56 69  2  0  0  0
 57 58  2  0  0  0
 57128  1  0  0  0
 58129  1  0  0  0
 59 60  1  0  0  0
 59 61  1  0  0  0
 59 62  1  0  0  0
 60130  1  0  0  0
 60131  1  0  0  0
 60132  1  0  0  0
 61133  1  0  0  0
 61134  1  0  0  0
 61135  1  0  0  0
 62136  1  0  0  0
 62137  1  0  0  0
 62138  1  0  0  0
 63 65  1  0  0  0
 63139  1  0  0  0
 63140  1  0  0  0
 63141  1  0  0  0
 64142  1  0  0  0
 65143  1  0  0  0
 68 81  1  0  0  0
 71 72  2  0  0  0
 71 73  1  0  0  0
 71144  1  0  0  0
 72 74  1  0  0  0
 72145  1  0  0  0
 73 75  2  0  0  0
 73146  1  0  0  0
 74 76  2  0  0  0
 74 78  1  0  0  0
 75 76  1  0  0  0
 75 79  1  0  0  0
 76 84  1  0  0  0
 77147  1  0  0  0
 77148  1  0  0  0
 77149  1  0  0  0
 77 83  1  0  0  0
 78 82  1  0  0  0
 78150  1  0  0  0
 78151  1  0  0  0
 79 83  1  0  0  0
 79152  1  0  0  0
 79153  1  0  0  0
 80 81  1  0  0  0
 80 83  1  0  0  0
 80154  1  0  0  0
 80155  1  0  0  0
 81156  1  0  0  0
 81157  1  0  0  0
 82158  1  0  0  0
 83159  1  0  0  0
M  CHG  1  83   1
M  ISO  4   1 100  68 101  81 101  82 100
M  END
> <chiral flag>
0

> <version>
0

> <s_m_source_file>
/data/baiqing/PycharmProjects/Reinvent-master-3.2/result/LINK_invent/BTK/process_docking_weight1_custom_product_contain_oxygen_bond_distance_aromatic_linkinvent_7_9_3/rearranged_h_0006.sdf

> <i_m_source_file_index>
11

> <r_mmod_Potential_Energy-OPLS-2005>
-58.1965560913086

> <r_mmod_Stretch_Energy-OPLS-2005>
68.337287902832

> <r_mmod_Bend_Energy-OPLS-2005>
147.425247192383

> <r_mmod_Torsional_Energy-OPLS-2005>
259.111236572266

> <r_mmod_Improper_Torsional_Energy-OPLS-2005>
7.39043188095093

> <r_mmod_Van_der_Waal_Energy-OPLS-2005>
134.497940063477

> <r_mmod_Electrostatic_Energy-OPLS-2005>
-291.137634277344

> <r_mmod_Solvation_Energy-OPLS-2005>
-431.116668701172

> <b_mmod_Minimization_Converged-OPLS-2005>
0

> <r_mmod_RMS_Derivative-OPLS-2005>
8.7300910949707

$$$$
11
                    3D
 Structure written by MMmdl.
169178  0  0  1  0            999 V2000
  -30.6708  -14.5787   20.4881 C   0  0  0  0  0  0
  -30.4228  -12.3529   19.4525 C   0  0  0  0  0  0
  -29.5017  -12.5026   18.2227 C   0  0  0  0  0  0
  -28.0239  -12.3519   18.6323 C   0  0  0  0  0  0
  -27.6536  -13.2198   19.8648 C   0  0  2  0  0  0
  -28.6983  -13.0793   20.9971 C   0  0  0  0  0  0
  -25.2555  -13.8188   20.5688 C   0  0  0  0  0  0
  -24.1832  -13.0452   20.9191 C   0  0  0  0  0  0
  -24.6405  -11.6919   20.8751 C   0  0  0  0  0  0
  -23.9075  -10.4298   21.0408 C   0  0  0  0  0  0
  -24.3625   -9.4212   21.9185 C   0  0  0  0  0  0
  -23.6300   -8.2249   22.0759 C   0  0  0  0  0  0
  -22.4282   -8.0285   21.3548 C   0  0  0  0  0  0
  -21.9915   -9.0260   20.4651 C   0  0  0  0  0  0
  -22.7246  -10.2138   20.3058 C   0  0  0  0  0  0
  -21.6850   -6.0741   22.5281 C   0  0  0  0  0  0
  -21.4012   -6.5644   23.8213 C   0  0  0  0  0  0
  -21.3657   -5.6795   24.9174 C   0  0  0  0  0  0
  -21.6045   -4.3057   24.7226 C   0  0  0  0  0  0
  -21.8816   -3.8151   23.4344 C   0  0  0  0  0  0
  -21.9193   -4.6970   22.3402 C   0  0  0  0  0  0
  -22.7848  -13.5233   21.1843 C   0  0  0  0  0  0
  -22.1660   -4.2157   21.0978 F   0  0  0  0  0  0
  -21.5630   -3.4540   25.7735 F   0  0  0  0  0  0
  -30.0199  -13.3796   20.4312 N   0  0  0  0  0  0
  -26.2997  -12.9381   20.3342 N   0  0  0  0  0  0
  -25.9337  -11.6529   20.5779 N   0  0  0  0  0  0
  -22.0484  -12.8231   22.0394 N   0  0  0  0  0  0
  -25.4244  -15.1914   20.4065 N   0  0  0  0  0  0
  -31.8388  -14.6967   20.1108 O   0  0  0  0  0  0
  -21.6641   -6.8888   21.4243 O   0  0  0  0  0  0
  -22.3530  -14.5533   20.6670 O   0  0  0  0  0  0
  -24.6192  -31.8637   23.2083 C   0  0  0  0  0  0
  -25.9057  -32.4804   23.8396 C   0  0  1  0  0  0
  -27.2231  -27.3828   20.1031 C   0  0  0  0  0  0
  -25.5919  -33.8609   24.2337 N   0  0  0  0  0  0
  -23.4130  -30.4871   21.5464 C   0  0  2  0  0  0
  -24.8639  -28.9572   20.1040 C   0  0  0  0  0  0
  -22.7452  -29.4617   22.4922 C   0  0  0  0  0  0
  -18.0274  -28.1387   22.8474 C   0  0  0  0  0  0
  -24.1477  -36.7298   23.2643 C   0  0  0  0  0  0
  -25.9472  -30.8124   21.3731 C   0  0  0  0  0  0
  -26.0264  -29.4450   20.7166 C   0  0  0  0  0  0
  -27.2099  -28.6601   20.7252 C   0  0  0  0  0  0
  -26.0558  -26.9467   19.4397 C   0  0  0  0  0  0
  -24.8754  -27.7094   19.4606 C   0  0  0  0  0  0
  -23.6277  -29.8272   20.1585 C   0  0  0  0  0  0
  -25.4105  -36.3108   24.0340 C   0  0  1  0  0  0
  -20.5878  -28.3670   23.1289 C   0  0  2  0  0  0
  -20.6770  -26.9395   22.5411 C   0  0  0  0  0  0
  -19.5755  -26.6385   21.5206 C   0  0  0  0  0  0
  -18.1922  -26.7936   22.1607 C   0  0  0  0  0  0
  -19.1530  -28.8843   23.2873 C   0  0  0  0  0  0
  -18.9469  -30.1445   23.8891 C   0  0  0  0  0  0
  -17.6475  -30.6595   24.0552 C   0  0  0  0  0  0
  -25.9039  -34.9471   23.5137 C   0  0  0  0  0  0
  -16.5357  -29.9099   23.6329 C   0  0  0  0  0  0
  -16.7261  -28.6512   23.0346 C   0  0  0  0  0  0
  -26.4478  -31.6605   25.0743 C   0  0  0  0  0  0
  -25.3727  -31.3723   26.1477 C   0  0  0  0  0  0
  -27.0327  -30.3046   24.6150 C   0  0  0  0  0  0
  -27.6049  -32.4332   25.7511 C   0  0  0  0  0  0
  -27.5574  -37.1799   24.8474 C   0  0  0  0  0  0
  -21.4170  -29.3034   22.3688 N   0  0  0  0  0  0
  -26.4290  -37.3794   23.9414 N   0  0  0  0  0  0
  -24.6782  -31.0686   22.1010 N   0  0  0  0  0  0
  -23.4204  -28.8125   23.2954 O   0  0  0  0  0  0
  -28.2846  -26.4983   20.1950 O   0  0  0  0  0  0
  -26.5589  -34.8926   22.4690 O   0  0  0  0  0  0
  -23.5364  -32.1406   23.7424 O   0  0  0  0  0  0
  -29.4791  -18.3832   22.1585 C   0  0  0  0  0  0
  -29.1310  -19.6087   22.7667 C   0  0  0  0  0  0
  -29.5252  -19.5225   20.0101 C   0  0  0  0  0  0
  -29.6934  -18.3202   20.7676 C   0  0  0  0  0  0
  -29.1644  -20.7737   20.6044 C   0  0  0  0  0  0
  -28.9874  -20.7895   22.0065 C   0  0  0  0  0  0
  -27.8082  -24.1583   20.6945 C   0  0  0  0  0  0
  -24.8311  -21.2803   23.3419 C   0  0  0  0  0  0
  -25.4004  -22.4022   24.2218 C   0  0  0  0  0  0
  -25.2233  -21.6451   21.9030 C   0  0  0  0  0  0
  -25.9180  -23.4578   23.2405 C   0  0  0  0  0  0
  -30.1826  -17.0144   20.0842 C   0  0  0  0  0  0
  -28.9813  -22.0372   19.7039 C   0  0  0  0  0  0
  -26.4442  -23.5067   20.7784 C   0  0  0  0  0  0
  -27.8809  -25.4745   21.0701 N   0  0  0  0  0  0
  -29.9053  -15.6838   20.7035 N   0  0  0  0  0  0
  -28.8860  -23.4391   20.2572 N   0  3  0  0  0  0
  -26.2483  -22.7059   22.0128 N   0  3  0  0  0  0
  -28.6595  -21.9372   22.6424 F   0  0  0  0  0  0
  -31.4691  -12.4447   19.1547 H   0  0  0  0  0  0
  -30.3255  -11.3590   19.8911 H   0  0  0  0  0  0
  -29.7589  -11.7614   17.4654 H   0  0  0  0  0  0
  -29.6551  -13.4791   17.7602 H   0  0  0  0  0  0
  -27.8481  -11.2986   18.8538 H   0  0  0  0  0  0
  -27.3734  -12.5971   17.7921 H   0  0  0  0  0  0
  -27.6712  -14.2553   19.5235 H   0  0  0  0  0  0
  -28.6937  -12.0678   21.4047 H   0  0  0  0  0  0
  -28.4626  -13.7418   21.8317 H   0  0  0  0  0  0
  -25.2772   -9.5684   22.4757 H   0  0  0  0  0  0
  -24.0007   -7.4639   22.7474 H   0  0  0  0  0  0
  -21.0849   -8.8777   19.8957 H   0  0  0  0  0  0
  -22.3706  -10.9675   19.6167 H   0  0  0  0  0  0
  -21.1997   -7.6150   23.9720 H   0  0  0  0  0  0
  -21.1482   -6.0522   25.9077 H   0  0  0  0  0  0
  -22.0598   -2.7615   23.2840 H   0  0  0  0  0  0
  -22.4092  -11.9900   22.4805 H   0  0  0  0  0  0
  -21.1093  -13.1248   22.2574 H   0  0  0  0  0  0
  -24.6496  -15.8396   20.4980 H   0  0  0  0  0  0
  -26.2672  -15.6305   20.0602 H   0  0  0  0  0  0
  -26.7119  -32.5519   23.1153 H   0  0  0  0  0  0
  -25.0117  -33.9774   25.0515 H   0  0  0  0  0  0
  -22.7048  -31.3061   21.4063 H   0  0  0  0  0  0
  -23.3742  -35.9628   23.3325 H   0  0  0  0  0  0
  -24.3567  -36.8894   22.2054 H   0  0  0  0  0  0
  -23.7222  -37.6508   23.6644 H   0  0  0  0  0  0
  -26.0710  -31.5754   20.6038 H   0  0  0  0  0  0
  -26.8304  -30.8673   21.9955 H   0  0  0  0  0  0
  -28.0970  -29.0116   21.2343 H   0  0  0  0  0  0
  -26.0441  -25.9933   18.9309 H   0  0  0  0  0  0
  -23.9861  -27.3360   18.9712 H   0  0  0  0  0  0
  -23.7435  -30.6069   19.4048 H   0  0  0  0  0  0
  -22.7510  -29.2511   19.8560 H   0  0  0  0  0  0
  -25.1266  -36.1986   25.0830 H   0  0  0  0  0  0
  -20.9952  -28.3247   24.1417 H   0  0  0  0  0  0
  -20.5668  -26.2266   23.3598 H   0  0  0  0  0  0
  -21.6632  -26.7439   22.1198 H   0  0  0  0  0  0
  -19.6912  -25.6298   21.1235 H   0  0  0  0  0  0
  -19.6713  -27.3185   20.6734 H   0  0  0  0  0  0
  -17.4189  -26.6663   21.4010 H   0  0  0  0  0  0
  -18.0317  -26.0096   22.9020 H   0  0  0  0  0  0
  -19.7948  -30.7235   24.2269 H   0  0  0  0  0  0
  -17.5047  -31.6279   24.5145 H   0  0  0  0  0  0
  -15.5359  -30.3000   23.7677 H   0  0  0  0  0  0
  -15.8657  -28.0839   22.7062 H   0  0  0  0  0  0
  -24.5957  -30.6996   25.7837 H   0  0  0  0  0  0
  -24.8832  -32.2858   26.4861 H   0  0  0  0  0  0
  -25.8062  -30.8982   27.0287 H   0  0  0  0  0  0
  -26.2883  -29.6783   24.1219 H   0  0  0  0  0  0
  -27.4113  -29.7324   25.4633 H   0  0  0  0  0  0
  -27.8712  -30.4375   23.9307 H   0  0  0  0  0  0
  -27.2700  -33.3674   26.2038 H   0  0  0  0  0  0
  -28.3889  -32.6817   25.0343 H   0  0  0  0  0  0
  -28.0676  -31.8479   26.5468 H   0  0  0  0  0  0
  -28.2593  -38.0096   24.7520 H   0  0  0  0  0  0
  -28.1063  -36.2620   24.6297 H   0  0  0  0  0  0
  -27.2288  -37.1456   25.8879 H   0  0  0  0  0  0
  -20.9320  -29.8814   21.6964 H   0  0  0  0  0  0
  -26.0180  -38.2867   24.1436 H   0  0  0  0  0  0
  -29.6102  -17.5026   22.7719 H   0  0  0  0  0  0
  -28.9829  -19.6506   23.8362 H   0  0  0  0  0  0
  -29.6956  -19.4854   18.9419 H   0  0  0  0  0  0
  -23.7473  -21.1998   23.4395 H   0  0  0  0  0  0
  -25.2567  -20.3182   23.6311 H   0  0  0  0  0  0
  -26.2266  -22.0164   24.8220 H   0  0  0  0  0  0
  -24.6617  -22.8120   24.9119 H   0  0  0  0  0  0
  -24.3464  -22.0355   21.3805 H   0  0  0  0  0  0
  -25.5840  -20.7843   21.3371 H   0  0  0  0  0  0
  -26.7769  -24.0000   23.6375 H   0  0  0  0  0  0
  -25.1268  -24.1823   23.0383 H   0  0  0  0  0  0
  -31.2571  -17.1358   19.9351 H   0  0  0  0  0  0
  -29.7541  -16.9869   19.0811 H   0  0  0  0  0  0
  -29.8450  -22.0472   19.0393 H   0  0  0  0  0  0
  -28.1338  -21.8596   19.0418 H   0  0  0  0  0  0
  -26.3182  -22.8687   19.9043 H   0  0  0  0  0  0
  -25.6547  -24.2564   20.6900 H   0  0  0  0  0  0
  -27.1891  -25.8272   21.7161 H   0  0  0  0  0  0
  -28.9613  -15.5197   21.0177 H   0  0  0  0  0  0
  -29.7596  -23.9471   20.2307 H   0  0  0  0  0  0
  -27.1319  -22.2434   22.2105 H   0  0  0  0  0  0
  1 25  1  0  0  0
  1 30  2  0  0  0
  1 86  1  0  0  0
  2  3  1  0  0  0
  2 25  1  0  0  0
  2 90  1  0  0  0
  2 91  1  0  0  0
  3  4  1  0  0  0
  3 92  1  0  0  0
  3 93  1  0  0  0
  4  5  1  0  0  0
  4 94  1  0  0  0
  4 95  1  0  0  0
  5  6  1  0  0  0
  5 26  1  0  0  0
  5 96  1  0  0  0
  6 25  1  0  0  0
  6 97  1  0  0  0
  6 98  1  0  0  0
  7  8  2  0  0  0
  7 26  1  0  0  0
  7 29  1  0  0  0
  8  9  1  0  0  0
  8 22  1  0  0  0
  9 10  1  0  0  0
  9 27  2  0  0  0
 10 11  2  0  0  0
 10 15  1  0  0  0
 11 12  1  0  0  0
 11 99  1  0  0  0
 12 13  2  0  0  0
 12100  1  0  0  0
 13 14  1  0  0  0
 13 31  1  0  0  0
 14 15  2  0  0  0
 14101  1  0  0  0
 15102  1  0  0  0
 16 17  2  0  0  0
 16 21  1  0  0  0
 16 31  1  0  0  0
 17 18  1  0  0  0
 17103  1  0  0  0
 18 19  2  0  0  0
 18104  1  0  0  0
 19 20  1  0  0  0
 19 24  1  0  0  0
 20 21  2  0  0  0
 20105  1  0  0  0
 21 23  1  0  0  0
 22 28  1  0  0  0
 22 32  2  0  0  0
 26 27  1  0  0  0
 28106  1  0  0  0
 28107  1  0  0  0
 29108  1  0  0  0
 29109  1  0  0  0
 33 34  1  0  0  0
 33 66  1  0  0  0
 33 70  2  0  0  0
 34 36  1  0  0  0
 34 59  1  0  0  0
 34110  1  0  0  0
 35 44  2  0  0  0
 35 45  1  0  0  0
 35 68  1  0  0  0
 36 56  1  0  0  0
 36111  1  0  0  0
 37 39  1  0  0  0
 37 47  1  0  0  0
 37 66  1  0  0  0
 37112  1  0  0  0
 38 43  2  0  0  0
 38 46  1  0  0  0
 38 47  1  0  0  0
 39 64  1  0  0  0
 39 67  2  0  0  0
 40 52  1  0  0  0
 40 53  2  0  0  0
 40 58  1  0  0  0
 41113  1  0  0  0
 41114  1  0  0  0
 41115  1  0  0  0
 41 48  1  0  0  0
 42 43  1  0  0  0
 42 66  1  0  0  0
 42116  1  0  0  0
 42117  1  0  0  0
 43 44  1  0  0  0
 44118  1  0  0  0
 45 46  2  0  0  0
 45119  1  0  0  0
 46120  1  0  0  0
 47121  1  0  0  0
 47122  1  0  0  0
 48 56  1  0  0  0
 48 65  1  0  0  0
 48123  1  0  0  0
 49 50  1  0  0  0
 49 53  1  0  0  0
 49 64  1  0  0  0
 49124  1  0  0  0
 50 51  1  0  0  0
 50125  1  0  0  0
 50126  1  0  0  0
 51 52  1  0  0  0
 51127  1  0  0  0
 51128  1  0  0  0
 52129  1  0  0  0
 52130  1  0  0  0
 53 54  1  0  0  0
 54 55  2  0  0  0
 54131  1  0  0  0
 55 57  1  0  0  0
 55132  1  0  0  0
 56 69  2  0  0  0
 57 58  2  0  0  0
 57133  1  0  0  0
 58134  1  0  0  0
 59 60  1  0  0  0
 59 61  1  0  0  0
 59 62  1  0  0  0
 60135  1  0  0  0
 60136  1  0  0  0
 60137  1  0  0  0
 61138  1  0  0  0
 61139  1  0  0  0
 61140  1  0  0  0
 62141  1  0  0  0
 62142  1  0  0  0
 62143  1  0  0  0
 63 65  1  0  0  0
 63144  1  0  0  0
 63145  1  0  0  0
 63146  1  0  0  0
 64147  1  0  0  0
 65148  1  0  0  0
 68 85  1  0  0  0
 71 72  2  0  0  0
 71 74  1  0  0  0
 71149  1  0  0  0
 72 76  1  0  0  0
 72150  1  0  0  0
 73 74  2  0  0  0
 73 75  1  0  0  0
 73151  1  0  0  0
 74 82  1  0  0  0
 75 76  2  0  0  0
 75 83  1  0  0  0
 76 89  1  0  0  0
 77 84  1  0  0  0
 77 85  1  0  0  0
 77 87  2  0  0  0
 78 79  1  0  0  0
 78 80  1  0  0  0
 78152  1  0  0  0
 78153  1  0  0  0
 79 81  1  0  0  0
 79154  1  0  0  0
 79155  1  0  0  0
 80 88  1  0  0  0
 80156  1  0  0  0
 80157  1  0  0  0
 81 88  1  0  0  0
 81158  1  0  0  0
 81159  1  0  0  0
 82 86  1  0  0  0
 82160  1  0  0  0
 82161  1  0  0  0
 83 87  1  0  0  0
 83162  1  0  0  0
 83163  1  0  0  0
 84164  1  0  0  0
 84165  1  0  0  0
 84 88  1  0  0  0
 85166  1  0  0  0
 86167  1  0  0  0
 87168  1  0  0  0
 88169  1  0  0  0
M  CHG  2  87   1  88   1
M  ISO  4   1 100  68 101  85 101  86 100
M  END
> <chiral flag>
0

> <version>
0

> <s_m_source_file>
/data/baiqing/PycharmProjects/Reinvent-master-3.2/result/LINK_invent/BTK/process_docking_weight1_custom_product_contain_oxygen_bond_distance_aromatic_linkinvent_7_9_3/rearranged_h_0006.sdf

> <i_m_source_file_index>
12

> <r_mmod_Potential_Energy-OPLS-2005>
-251.75016784668

> <r_mmod_Stretch_Energy-OPLS-2005>
57.2866821289062

> <r_mmod_Bend_Energy-OPLS-2005>
145.296310424805

> <r_mmod_Torsional_Energy-OPLS-2005>
327.424102783203

> <r_mmod_Improper_Torsional_Energy-OPLS-2005>
11.3551483154297

> <r_mmod_Van_der_Waal_Energy-OPLS-2005>
132.303009033203

> <r_mmod_Electrostatic_Energy-OPLS-2005>
-7.59911918640137

> <r_mmod_Solvation_Energy-OPLS-2005>
-955.008422851562

> <b_mmod_Minimization_Converged-OPLS-2005>
0

> <r_mmod_RMS_Derivative-OPLS-2005>
1.92111456394196

$$$$
12
                    3D
 Structure written by MMmdl.
152160  0  0  1  0            999 V2000
  -30.6018  -14.6280   20.5004 C   0  0  0  0  0  0
  -30.4413  -12.3824   19.4466 C   0  0  0  0  0  0
  -29.5103  -12.5071   18.2194 C   0  0  0  0  0  0
  -28.0294  -12.3483   18.6265 C   0  0  0  0  0  0
  -27.6523  -13.2114   19.8599 C   0  0  2  0  0  0
  -28.6958  -13.0450   20.9869 C   0  0  0  0  0  0
  -25.2550  -13.8146   20.5651 C   0  0  0  0  0  0
  -24.1813  -13.0427   20.9193 C   0  0  0  0  0  0
  -24.6376  -11.6902   20.8746 C   0  0  0  0  0  0
  -23.9044  -10.4293   21.0414 C   0  0  0  0  0  0
  -24.3596   -9.4209   21.9184 C   0  0  0  0  0  0
  -23.6282   -8.2236   22.0763 C   0  0  0  0  0  0
  -22.4257   -8.0276   21.3548 C   0  0  0  0  0  0
  -21.9887   -9.0249   20.4652 C   0  0  0  0  0  0
  -22.7216  -10.2117   20.3069 C   0  0  0  0  0  0
  -21.6841   -6.0732   22.5271 C   0  0  0  0  0  0
  -21.4012   -6.5635   23.8208 C   0  0  0  0  0  0
  -21.3673   -5.6783   24.9169 C   0  0  0  0  0  0
  -21.6042   -4.3049   24.7218 C   0  0  0  0  0  0
  -21.8822   -3.8145   23.4342 C   0  0  0  0  0  0
  -21.9186   -4.6961   22.3397 C   0  0  0  0  0  0
  -22.7840  -13.5229   21.1842 C   0  0  0  0  0  0
  -22.1657   -4.2162   21.0978 F   0  0  0  0  0  0
  -21.5630   -3.4529   25.7731 F   0  0  0  0  0  0
  -30.0123  -13.3949   20.4296 N   0  0  0  0  0  0
  -26.2967  -12.9325   20.3268 N   0  0  0  0  0  0
  -25.9299  -11.6479   20.5703 N   0  0  0  0  0  0
  -22.0467  -12.8270   22.0418 N   0  0  0  0  0  0
  -25.4226  -15.1871   20.4036 N   0  0  0  0  0  0
  -31.7684  -14.8071   20.1360 O   0  0  0  0  0  0
  -21.6636   -6.8859   21.4230 O   0  0  0  0  0  0
  -22.3526  -14.5523   20.6658 O   0  0  0  0  0  0
  -24.6241  -31.8624   23.2048 C   0  0  0  0  0  0
  -25.9103  -32.4792   23.8371 C   0  0  1  0  0  0
  -27.2218  -27.3337   20.1190 C   0  0  0  0  0  0
  -25.5930  -33.8599   24.2288 N   0  0  0  0  0  0
  -23.4163  -30.4870   21.5457 C   0  0  2  0  0  0
  -24.8638  -28.9482   20.1086 C   0  0  0  0  0  0
  -22.7471  -29.4627   22.4933 C   0  0  0  0  0  0
  -18.0287  -28.1373   22.8480 C   0  0  0  0  0  0
  -24.1487  -36.7308   23.2634 C   0  0  0  0  0  0
  -25.9570  -30.7970   21.3748 C   0  0  0  0  0  0
  -26.0319  -29.4269   20.7163 C   0  0  0  0  0  0
  -27.2141  -28.6309   20.7127 C   0  0  0  0  0  0
  -26.0324  -26.9104   19.4805 C   0  0  0  0  0  0
  -24.8660  -27.6952   19.4816 C   0  0  0  0  0  0
  -23.6312  -29.8250   20.1591 C   0  0  0  0  0  0
  -25.4106  -36.3092   24.0324 C   0  0  1  0  0  0
  -20.5889  -28.3677   23.1275 C   0  0  2  0  0  0
  -20.6780  -26.9401   22.5406 C   0  0  0  0  0  0
  -19.5755  -26.6369   21.5204 C   0  0  0  0  0  0
  -18.1935  -26.7913   22.1618 C   0  0  0  0  0  0
  -19.1547  -28.8841   23.2870 C   0  0  0  0  0  0
  -18.9470  -30.1446   23.8891 C   0  0  0  0  0  0
  -17.6472  -30.6571   24.0559 C   0  0  0  0  0  0
  -25.9045  -34.9461   23.5095 C   0  0  0  0  0  0
  -16.5357  -29.9073   23.6327 C   0  0  0  0  0  0
  -16.7276  -28.6490   23.0339 C   0  0  0  0  0  0
  -26.4488  -31.6602   25.0734 C   0  0  0  0  0  0
  -25.3733  -31.3757   26.1474 C   0  0  0  0  0  0
  -27.0329  -30.3027   24.6180 C   0  0  0  0  0  0
  -27.6038  -32.4343   25.7517 C   0  0  0  0  0  0
  -27.5576  -37.1802   24.8451 C   0  0  0  0  0  0
  -21.4188  -29.3035   22.3684 N   0  0  0  0  0  0
  -26.4286  -37.3792   23.9412 N   0  0  0  0  0  0
  -24.6842  -31.0649   22.0980 N   0  0  0  0  0  0
  -23.4206  -28.8155   23.2995 O   0  0  0  0  0  0
  -28.3360  -26.4825   20.1794 O   0  0  0  0  0  0
  -26.5606  -34.8922   22.4654 O   0  0  0  0  0  0
  -23.5407  -32.1409   23.7380 O   0  0  0  0  0  0
  -28.6422  -17.8780   20.8537 C   0  0  0  0  0  0
  -28.6291  -19.3047   20.7973 C   0  0  0  0  0  0
  -31.0202  -17.8562   20.4855 C   0  0  0  0  0  0
  -29.8317  -17.1112   20.7041 C   0  0  0  0  0  0
  -29.8230  -20.0445   20.6105 C   0  0  0  0  0  0
  -31.0122  -19.2821   20.4485 C   0  0  0  0  0  0
  -29.2099  -23.9861   20.4602 C   0  0  0  0  0  0
  -28.8048  -22.4462   20.3950 C   0  0  0  0  0  0
  -28.0723  -25.0304   20.1140 C   0  0  0  0  0  0
  -29.7491  -15.6566   20.8134 N   0  0  0  0  0  0
  -29.9131  -21.4753   20.6050 N   0  0  0  0  0  0
  -32.1817  -19.9392   20.2553 F   0  0  0  0  0  0
  -31.4847  -12.5116   19.1519 H   0  0  0  0  0  0
  -30.3770  -11.3838   19.8824 H   0  0  0  0  0  0
  -29.7748  -11.7620   17.4683 H   0  0  0  0  0  0
  -29.6548  -13.4802   17.7465 H   0  0  0  0  0  0
  -27.8598  -11.2943   18.8508 H   0  0  0  0  0  0
  -27.3795  -12.5876   17.7844 H   0  0  0  0  0  0
  -27.6760  -14.2485   19.5268 H   0  0  0  0  0  0
  -28.7036  -12.0175   21.3524 H   0  0  0  0  0  0
  -28.4474  -13.6578   21.8542 H   0  0  0  0  0  0
  -25.2750   -9.5689   22.4740 H   0  0  0  0  0  0
  -24.0015   -7.4622   22.7477 H   0  0  0  0  0  0
  -21.0818   -8.8760   19.8956 H   0  0  0  0  0  0
  -22.3685  -10.9653   19.6181 H   0  0  0  0  0  0
  -21.2015   -7.6145   23.9726 H   0  0  0  0  0  0
  -21.1488   -6.0502   25.9066 H   0  0  0  0  0  0
  -22.0594   -2.7614   23.2817 H   0  0  0  0  0  0
  -22.4056  -11.9964   22.4877 H   0  0  0  0  0  0
  -21.1076  -13.1313   22.2570 H   0  0  0  0  0  0
  -24.6406  -15.8272   20.4965 H   0  0  0  0  0  0
  -26.2412  -15.6221   20.0000 H   0  0  0  0  0  0
  -26.7161  -32.5475   23.1116 H   0  0  0  0  0  0
  -25.0114  -33.9739   25.0458 H   0  0  0  0  0  0
  -22.7076  -31.3062   21.4061 H   0  0  0  0  0  0
  -23.3743  -35.9643   23.3296 H   0  0  0  0  0  0
  -24.3581  -36.8939   22.2049 H   0  0  0  0  0  0
  -23.7241  -37.6505   23.6670 H   0  0  0  0  0  0
  -26.0879  -31.5582   20.6049 H   0  0  0  0  0  0
  -26.8367  -30.8475   22.0041 H   0  0  0  0  0  0
  -28.1080  -28.9901   21.2034 H   0  0  0  0  0  0
  -25.9677  -25.9564   18.9812 H   0  0  0  0  0  0
  -23.9732  -27.3225   18.9987 H   0  0  0  0  0  0
  -23.7503  -30.6020   19.4030 H   0  0  0  0  0  0
  -22.7525  -29.2526   19.8559 H   0  0  0  0  0  0
  -25.1284  -36.1951   25.0812 H   0  0  0  0  0  0
  -20.9977  -28.3257   24.1394 H   0  0  0  0  0  0
  -20.5683  -26.2284   23.3605 H   0  0  0  0  0  0
  -21.6650  -26.7440   22.1208 H   0  0  0  0  0  0
  -19.6920  -25.6280   21.1230 H   0  0  0  0  0  0
  -19.6686  -27.3176   20.6733 H   0  0  0  0  0  0
  -17.4205  -26.6658   21.4020 H   0  0  0  0  0  0
  -18.0344  -26.0063   22.9024 H   0  0  0  0  0  0
  -19.7943  -30.7267   24.2255 H   0  0  0  0  0  0
  -17.5021  -31.6248   24.5160 H   0  0  0  0  0  0
  -15.5363  -30.2965   23.7655 H   0  0  0  0  0  0
  -15.8672  -28.0806   22.7047 H   0  0  0  0  0  0
  -24.5868  -30.7145   25.7810 H   0  0  0  0  0  0
  -24.8972  -32.2945   26.4915 H   0  0  0  0  0  0
  -25.8055  -30.8916   27.0238 H   0  0  0  0  0  0
  -26.2896  -29.6792   24.1190 H   0  0  0  0  0  0
  -27.4021  -29.7272   25.4675 H   0  0  0  0  0  0
  -27.8774  -30.4320   23.9407 H   0  0  0  0  0  0
  -27.2615  -33.3620   26.2114 H   0  0  0  0  0  0
  -28.3837  -32.6943   25.0351 H   0  0  0  0  0  0
  -28.0721  -31.8475   26.5423 H   0  0  0  0  0  0
  -28.2580  -38.0117   24.7520 H   0  0  0  0  0  0
  -28.1090  -36.2646   24.6249 H   0  0  0  0  0  0
  -27.2306  -37.1422   25.8858 H   0  0  0  0  0  0
  -20.9364  -29.8796   21.6931 H   0  0  0  0  0  0
  -26.0166  -38.2862   24.1421 H   0  0  0  0  0  0
  -27.7023  -17.3732   21.0245 H   0  0  0  0  0  0
  -27.6878  -19.8196   20.9273 H   0  0  0  0  0  0
  -31.9642  -17.3518   20.3579 H   0  0  0  0  0  0
  -30.0426  -24.1605   19.7784 H   0  0  0  0  0  0
  -29.5919  -24.2139   21.4565 H   0  0  0  0  0  0
  -28.3618  -22.2396   19.4191 H   0  0  0  0  0  0
  -28.0251  -22.2487   21.1314 H   0  0  0  0  0  0
  -27.2313  -24.8141   20.7764 H   0  0  0  0  0  0
  -27.7457  -24.7895   19.1030 H   0  0  0  0  0  0
  -28.8349  -15.3146   21.0642 H   0  0  0  0  0  0
  -30.8602  -21.8344   20.5057 H   0  0  0  0  0  0
  1 25  1  0  0  0
  1 30  2  0  0  0
  1 80  1  0  0  0
  2  3  1  0  0  0
  2 25  1  0  0  0
  2 83  1  0  0  0
  2 84  1  0  0  0
  3  4  1  0  0  0
  3 85  1  0  0  0
  3 86  1  0  0  0
  4  5  1  0  0  0
  4 87  1  0  0  0
  4 88  1  0  0  0
  5  6  1  0  0  0
  5 26  1  0  0  0
  5 89  1  0  0  0
  6 25  1  0  0  0
  6 90  1  0  0  0
  6 91  1  0  0  0
  7  8  2  0  0  0
  7 26  1  0  0  0
  7 29  1  0  0  0
  8  9  1  0  0  0
  8 22  1  0  0  0
  9 10  1  0  0  0
  9 27  2  0  0  0
 10 11  2  0  0  0
 10 15  1  0  0  0
 11 12  1  0  0  0
 11 92  1  0  0  0
 12 13  2  0  0  0
 12 93  1  0  0  0
 13 14  1  0  0  0
 13 31  1  0  0  0
 14 15  2  0  0  0
 14 94  1  0  0  0
 15 95  1  0  0  0
 16 17  2  0  0  0
 16 21  1  0  0  0
 16 31  1  0  0  0
 17 18  1  0  0  0
 17 96  1  0  0  0
 18 19  2  0  0  0
 18 97  1  0  0  0
 19 20  1  0  0  0
 19 24  1  0  0  0
 20 21  2  0  0  0
 20 98  1  0  0  0
 21 23  1  0  0  0
 22 28  1  0  0  0
 22 32  2  0  0  0
 26 27  1  0  0  0
 28 99  1  0  0  0
 28100  1  0  0  0
 29101  1  0  0  0
 29102  1  0  0  0
 33 34  1  0  0  0
 33 66  1  0  0  0
 33 70  2  0  0  0
 34 36  1  0  0  0
 34 59  1  0  0  0
 34103  1  0  0  0
 35 44  2  0  0  0
 35 45  1  0  0  0
 35 68  1  0  0  0
 36 56  1  0  0  0
 36104  1  0  0  0
 37 39  1  0  0  0
 37 47  1  0  0  0
 37 66  1  0  0  0
 37105  1  0  0  0
 38 43  2  0  0  0
 38 46  1  0  0  0
 38 47  1  0  0  0
 39 64  1  0  0  0
 39 67  2  0  0  0
 40 52  1  0  0  0
 40 53  2  0  0  0
 40 58  1  0  0  0
 41106  1  0  0  0
 41107  1  0  0  0
 41108  1  0  0  0
 41 48  1  0  0  0
 42 43  1  0  0  0
 42 66  1  0  0  0
 42109  1  0  0  0
 42110  1  0  0  0
 43 44  1  0  0  0
 44111  1  0  0  0
 45 46  2  0  0  0
 45112  1  0  0  0
 46113  1  0  0  0
 47114  1  0  0  0
 47115  1  0  0  0
 48 56  1  0  0  0
 48 65  1  0  0  0
 48116  1  0  0  0
 49 50  1  0  0  0
 49 53  1  0  0  0
 49 64  1  0  0  0
 49117  1  0  0  0
 50 51  1  0  0  0
 50118  1  0  0  0
 50119  1  0  0  0
 51 52  1  0  0  0
 51120  1  0  0  0
 51121  1  0  0  0
 52122  1  0  0  0
 52123  1  0  0  0
 53 54  1  0  0  0
 54 55  2  0  0  0
 54124  1  0  0  0
 55 57  1  0  0  0
 55125  1  0  0  0
 56 69  2  0  0  0
 57 58  2  0  0  0
 57126  1  0  0  0
 58127  1  0  0  0
 59 60  1  0  0  0
 59 61  1  0  0  0
 59 62  1  0  0  0
 60128  1  0  0  0
 60129  1  0  0  0
 60130  1  0  0  0
 61131  1  0  0  0
 61132  1  0  0  0
 61133  1  0  0  0
 62134  1  0  0  0
 62135  1  0  0  0
 62136  1  0  0  0
 63 65  1  0  0  0
 63137  1  0  0  0
 63138  1  0  0  0
 63139  1  0  0  0
 64140  1  0  0  0
 65141  1  0  0  0
 68 79  1  0  0  0
 71 72  2  0  0  0
 71 74  1  0  0  0
 71142  1  0  0  0
 72 75  1  0  0  0
 72143  1  0  0  0
 73 74  2  0  0  0
 73 76  1  0  0  0
 73144  1  0  0  0
 74 80  1  0  0  0
 75 76  2  0  0  0
 75 81  1  0  0  0
 76 82  1  0  0  0
 77 78  1  0  0  0
 77 79  1  0  0  0
 77145  1  0  0  0
 77146  1  0  0  0
 78 81  1  0  0  0
 78147  1  0  0  0
 78148  1  0  0  0
 79149  1  0  0  0
 79150  1  0  0  0
 80151  1  0  0  0
 81152  1  0  0  0
M  ISO  4   1 100  68 101  79 101  80 100
M  END
> <chiral flag>
0

> <version>
0

> <s_m_source_file>
/data/baiqing/PycharmProjects/Reinvent-master-3.2/result/LINK_invent/BTK/process_docking_weight1_custom_product_contain_oxygen_bond_distance_aromatic_linkinvent_7_9_3/rearranged_h_0006.sdf

> <i_m_source_file_index>
13

> <r_mmod_Potential_Energy-OPLS-2005>
58.7932014465332

> <r_mmod_Stretch_Energy-OPLS-2005>
70.3346176147461

> <r_mmod_Bend_Energy-OPLS-2005>
142.606964111328

> <r_mmod_Torsional_Energy-OPLS-2005>
202.512619018555

> <r_mmod_Improper_Torsional_Energy-OPLS-2005>
5.64249610900879

> <r_mmod_Van_der_Waal_Energy-OPLS-2005>
146.385101318359

> <r_mmod_Electrostatic_Energy-OPLS-2005>
-340.856323242188

> <r_mmod_Solvation_Energy-OPLS-2005>
-213.716110229492

> <b_mmod_Minimization_Converged-OPLS-2005>
0

> <r_mmod_RMS_Derivative-OPLS-2005>
2.849365234375

$$$$
13
                    3D
 Structure written by MMmdl.
184193  0  0  1  0            999 V2000
  -30.6712  -14.4597   20.5321 C   0  0  0  0  0  0
  -30.4314  -12.2803   19.4251 C   0  0  0  0  0  0
  -29.5039  -12.4667   18.2043 C   0  0  0  0  0  0
  -28.0160  -12.3689   18.6061 C   0  0  0  0  0  0
  -27.6630  -13.1991   19.8689 C   0  0  2  0  0  0
  -28.7023  -12.9669   20.9897 C   0  0  0  0  0  0
  -25.2633  -13.8161   20.5693 C   0  0  0  0  0  0
  -24.1876  -13.0462   20.9230 C   0  0  0  0  0  0
  -24.6395  -11.6915   20.8755 C   0  0  0  0  0  0
  -23.9050  -10.4302   21.0415 C   0  0  0  0  0  0
  -24.3609   -9.4211   21.9179 C   0  0  0  0  0  0
  -23.6295   -8.2242   22.0743 C   0  0  0  0  0  0
  -22.4273   -8.0275   21.3539 C   0  0  0  0  0  0
  -21.9910   -9.0249   20.4639 C   0  0  0  0  0  0
  -22.7233  -10.2134   20.3052 C   0  0  0  0  0  0
  -21.6851   -6.0736   22.5280 C   0  0  0  0  0  0
  -21.4014   -6.5637   23.8213 C   0  0  0  0  0  0
  -21.3663   -5.6782   24.9171 C   0  0  0  0  0  0
  -21.6045   -4.3041   24.7215 C   0  0  0  0  0  0
  -21.8824   -3.8140   23.4334 C   0  0  0  0  0  0
  -21.9193   -4.6963   22.3393 C   0  0  0  0  0  0
  -22.7895  -13.5257   21.1893 C   0  0  0  0  0  0
  -22.1667   -4.2155   21.0967 F   0  0  0  0  0  0
  -21.5632   -3.4524   25.7724 F   0  0  0  0  0  0
  -30.0355  -13.2648   20.4393 N   0  0  0  0  0  0
  -26.3025  -12.9296   20.3302 N   0  0  0  0  0  0
  -25.9303  -11.6473   20.5723 N   0  0  0  0  0  0
  -22.0496  -12.8241   22.0413 N   0  0  0  0  0  0
  -25.4452  -15.1876   20.4098 N   0  0  0  0  0  0
  -31.8401  -14.6376   20.1757 O   0  0  0  0  0  0
  -21.6631   -6.8884   21.4245 O   0  0  0  0  0  0
  -22.3608  -14.5570   20.6746 O   0  0  0  0  0  0
  -24.6118  -31.8706   23.2116 C   0  0  0  0  0  0
  -25.9024  -32.4836   23.8420 C   0  0  1  0  0  0
  -27.2453  -27.4671   20.0717 C   0  0  0  0  0  0
  -25.5891  -33.8635   24.2346 N   0  0  0  0  0  0
  -23.3999  -30.4928   21.5510 C   0  0  2  0  0  0
  -24.8483  -28.9605   20.1166 C   0  0  0  0  0  0
  -22.7399  -29.4663   22.4991 C   0  0  0  0  0  0
  -18.0263  -28.1376   22.8484 C   0  0  0  0  0  0
  -24.1479  -36.7315   23.2646 C   0  0  0  0  0  0
  -25.9279  -30.8397   21.3654 C   0  0  0  0  0  0
  -26.0046  -29.4751   20.7145 C   0  0  0  0  0  0
  -27.2029  -28.7288   20.7015 C   0  0  0  0  0  0
  -26.0653  -26.9495   19.4909 C   0  0  0  0  0  0
  -24.8700  -27.6921   19.5102 C   0  0  0  0  0  0
  -23.6090  -29.8244   20.1656 C   0  0  0  0  0  0
  -25.4101  -36.3120   24.0344 C   0  0  1  0  0  0
  -20.5855  -28.3661   23.1321 C   0  0  2  0  0  0
  -20.6750  -26.9396   22.5426 C   0  0  0  0  0  0
  -19.5738  -26.6379   21.5213 C   0  0  0  0  0  0
  -18.1914  -26.7926   22.1614 C   0  0  0  0  0  0
  -19.1515  -28.8830   23.2902 C   0  0  0  0  0  0
  -18.9448  -30.1440   23.8907 C   0  0  0  0  0  0
  -17.6453  -30.6586   24.0559 C   0  0  0  0  0  0
  -25.9030  -34.9485   23.5140 C   0  0  0  0  0  0
  -16.5338  -29.9092   23.6319 C   0  0  0  0  0  0
  -16.7254  -28.6510   23.0332 C   0  0  0  0  0  0
  -26.4455  -31.6609   25.0743 C   0  0  0  0  0  0
  -25.3726  -31.3730   26.1498 C   0  0  0  0  0  0
  -27.0291  -30.3053   24.6126 C   0  0  0  0  0  0
  -27.6043  -32.4321   25.7495 C   0  0  0  0  0  0
  -27.5577  -37.1816   24.8466 C   0  0  0  0  0  0
  -21.4133  -29.3034   22.3732 N   0  0  0  0  0  0
  -26.4293  -37.3799   23.9406 N   0  0  0  0  0  0
  -24.6644  -31.0824   22.1011 N   0  0  0  0  0  0
  -23.4186  -28.8205   23.3023 O   0  0  0  0  0  0
  -28.4232  -26.7564   20.0657 O   0  0  0  0  0  0
  -26.5593  -34.8934   22.4705 O   0  0  0  0  0  0
  -23.5314  -32.1448   23.7522 O   0  0  0  0  0  0
  -30.3873  -18.6755   18.9179 C   0  0  0  0  0  0
  -29.9127  -19.2264   21.2282 C   0  0  0  0  0  0
  -30.2245  -19.6464   19.9207 C   0  0  0  0  0  0
  -30.2599  -17.3025   19.2011 C   0  0  0  0  0  0
  -29.7646  -17.8538   21.5357 C   0  0  0  0  0  0
  -29.9991  -16.8664   20.5345 C   0  0  0  0  0  0
  -28.9288  -21.7356   19.2968 C   0  0  0  0  0  0
  -31.0668  -22.0160   20.5255 C   0  0  0  0  0  0
  -29.0639  -23.1588   18.7224 C   0  0  0  0  0  0
  -31.2024  -23.4417   19.9518 C   0  0  0  0  0  0
  -30.3113  -21.1192   19.5341 C   0  0  1  0  0  0
  -30.3275  -16.3493   18.0185 C   0  0  0  0  0  0
  -25.7462  -15.2192   25.5586 C   0  0  0  0  0  0
  -27.0890  -18.5778   22.7860 C   0  0  0  0  0  0
  -29.3194  -17.4871   22.9518 C   0  0  0  0  0  0
  -26.1019  -15.9430   24.2541 C   0  0  0  0  0  0
  -30.1179  -25.4056   18.9722 C   0  0  0  0  0  0
  -27.4402  -16.7030   24.3533 C   0  0  0  0  0  0
  -28.8504  -26.2648   18.7957 C   0  0  0  0  0  0
  -29.8533  -15.4796   20.8577 N   0  0  0  0  0  0
  -29.8949  -24.0592   19.5788 N   0  3  1  0  0  0
  -27.8411  -17.3275   23.0659 N   0  3  1  0  0  0
  -31.4771  -12.3892   19.1292 H   0  0  0  0  0  0
  -30.3367  -11.2707   19.8280 H   0  0  0  0  0  0
  -29.7310  -11.7134   17.4488 H   0  0  0  0  0  0
  -29.7000  -13.4278   17.7313 H   0  0  0  0  0  0
  -27.7913  -11.3172   18.7832 H   0  0  0  0  0  0
  -27.3830  -12.6761   17.7725 H   0  0  0  0  0  0
  -27.7084  -14.2465   19.5721 H   0  0  0  0  0  0
  -28.6704  -11.9302   21.3281 H   0  0  0  0  0  0
  -28.4721  -13.5660   21.8728 H   0  0  0  0  0  0
  -25.2760   -9.5680   22.4746 H   0  0  0  0  0  0
  -24.0017   -7.4627   22.7447 H   0  0  0  0  0  0
  -21.0840   -8.8771   19.8937 H   0  0  0  0  0  0
  -22.3702  -10.9674   19.6154 H   0  0  0  0  0  0
  -21.2016   -7.6148   23.9721 H   0  0  0  0  0  0
  -21.1478   -6.0507   25.9075 H   0  0  0  0  0  0
  -22.0600   -2.7603   23.2825 H   0  0  0  0  0  0
  -22.4062  -11.9879   22.4789 H   0  0  0  0  0  0
  -21.1107  -13.1274   22.2584 H   0  0  0  0  0  0
  -24.6273  -15.7874   20.3888 H   0  0  0  0  0  0
  -26.1959  -15.5396   19.8298 H   0  0  0  0  0  0
  -26.7099  -32.5555   23.1193 H   0  0  0  0  0  0
  -25.0018  -33.9789   25.0472 H   0  0  0  0  0  0
  -22.6881  -31.3094   21.4120 H   0  0  0  0  0  0
  -23.3747  -35.9643   23.3307 H   0  0  0  0  0  0
  -24.3573  -36.8931   22.2063 H   0  0  0  0  0  0
  -23.7221  -37.6519   23.6653 H   0  0  0  0  0  0
  -26.0402  -31.6064   20.5978 H   0  0  0  0  0  0
  -26.8161  -30.8915   21.9835 H   0  0  0  0  0  0
  -28.0986  -29.1275   21.1578 H   0  0  0  0  0  0
  -26.0508  -25.9700   19.0366 H   0  0  0  0  0  0
  -23.9756  -27.2829   19.0615 H   0  0  0  0  0  0
  -23.7206  -30.6001   19.4074 H   0  0  0  0  0  0
  -22.7343  -29.2441   19.8668 H   0  0  0  0  0  0
  -25.1276  -36.1993   25.0837 H   0  0  0  0  0  0
  -20.9938  -28.3225   24.1446 H   0  0  0  0  0  0
  -20.5639  -26.2274   23.3617 H   0  0  0  0  0  0
  -21.6621  -26.7438   22.1222 H   0  0  0  0  0  0
  -19.6896  -25.6293   21.1234 H   0  0  0  0  0  0
  -19.6680  -27.3193   20.6747 H   0  0  0  0  0  0
  -17.4189  -26.6675   21.4012 H   0  0  0  0  0  0
  -18.0306  -26.0074   22.9011 H   0  0  0  0  0  0
  -19.7927  -30.7244   24.2283 H   0  0  0  0  0  0
  -17.5015  -31.6264   24.5175 H   0  0  0  0  0  0
  -15.5338  -30.2991   23.7662 H   0  0  0  0  0  0
  -15.8656  -28.0850   22.7019 H   0  0  0  0  0  0
  -24.5833  -30.7160   25.7827 H   0  0  0  0  0  0
  -24.8990  -32.2903   26.5014 H   0  0  0  0  0  0
  -25.8059  -30.8821   27.0222 H   0  0  0  0  0  0
  -26.2845  -29.6817   24.1166 H   0  0  0  0  0  0
  -27.4053  -29.7288   25.4590 H   0  0  0  0  0  0
  -27.8678  -30.4381   23.9284 H   0  0  0  0  0  0
  -27.2674  -33.3611   26.2111 H   0  0  0  0  0  0
  -28.3827  -32.6905   25.0300 H   0  0  0  0  0  0
  -28.0742  -31.8425   26.5379 H   0  0  0  0  0  0
  -28.2610  -38.0098   24.7494 H   0  0  0  0  0  0
  -28.1050  -36.2630   24.6297 H   0  0  0  0  0  0
  -27.2297  -37.1479   25.8872 H   0  0  0  0  0  0
  -20.9297  -29.8779   21.6968 H   0  0  0  0  0  0
  -26.0186  -38.2885   24.1384 H   0  0  0  0  0  0
  -30.5814  -18.9928   17.9027 H   0  0  0  0  0  0
  -29.7435  -19.9660   21.9984 H   0  0  0  0  0  0
  -28.3632  -21.1198   18.5954 H   0  0  0  0  0  0
  -28.3531  -21.7510   20.2233 H   0  0  0  0  0  0
  -30.5586  -22.0517   21.4881 H   0  0  0  0  0  0
  -32.0600  -21.6073   20.7137 H   0  0  0  0  0  0
  -28.0610  -23.5650   18.5975 H   0  0  0  0  0  0
  -29.5005  -23.1026   17.7245 H   0  0  0  0  0  0
  -31.8438  -23.4092   19.0697 H   0  0  0  0  0  0
  -31.7105  -24.0757   20.6804 H   0  0  0  0  0  0
  -30.8601  -21.1548   18.5907 H   0  0  0  0  0  0
  -30.2208  -16.8811   17.0723 H   0  0  0  0  0  0
  -29.5129  -15.6293   18.0683 H   0  0  0  0  0  0
  -31.2785  -15.8196   17.9871 H   0  0  0  0  0  0
  -24.8071  -14.6735   25.4590 H   0  0  0  0  0  0
  -25.6352  -15.9232   26.3851 H   0  0  0  0  0  0
  -26.5182  -14.4996   25.8339 H   0  0  0  0  0  0
  -27.2584  -18.9272   21.7673 H   0  0  0  0  0  0
  -27.3791  -19.3750   23.4719 H   0  0  0  0  0  0
  -26.0140  -18.4311   22.8838 H   0  0  0  0  0  0
  -29.6617  -18.2474   23.6551 H   0  0  0  0  0  0
  -29.8306  -16.5717   23.2492 H   0  0  0  0  0  0
  -25.2870  -16.6223   24.0032 H   0  0  0  0  0  0
  -26.1496  -15.2093   23.4473 H   0  0  0  0  0  0
  -30.8281  -25.9692   19.5793 H   0  0  0  0  0  0
  -30.5932  -25.2755   17.9992 H   0  0  0  0  0  0
  -28.2021  -15.9894   24.6697 H   0  0  0  0  0  0
  -27.3973  -17.4620   25.1365 H   0  0  0  0  0  0
  -28.0771  -25.7223   18.2555 H   0  0  0  0  0  0
  -29.0996  -27.1269   18.1752 H   0  0  0  0  0  0
  -28.9533  -15.1806   21.1934 H   0  0  0  0  0  0
  -29.3854  -24.2073   20.4399 H   0  0  0  0  0  0
  -27.5717  -16.6759   22.3464 H   0  0  0  0  0  0
  1 25  1  0  0  0
  1 30  2  0  0  0
  1 90  1  0  0  0
  2  3  1  0  0  0
  2 25  1  0  0  0
  2 93  1  0  0  0
  2 94  1  0  0  0
  3  4  1  0  0  0
  3 95  1  0  0  0
  3 96  1  0  0  0
  4  5  1  0  0  0
  4 97  1  0  0  0
  4 98  1  0  0  0
  5  6  1  0  0  0
  5 26  1  0  0  0
  5 99  1  0  0  0
  6 25  1  0  0  0
  6100  1  0  0  0
  6101  1  0  0  0
  7  8  2  0  0  0
  7 26  1  0  0  0
  7 29  1  0  0  0
  8  9  1  0  0  0
  8 22  1  0  0  0
  9 10  1  0  0  0
  9 27  2  0  0  0
 10 11  2  0  0  0
 10 15  1  0  0  0
 11 12  1  0  0  0
 11102  1  0  0  0
 12 13  2  0  0  0
 12103  1  0  0  0
 13 14  1  0  0  0
 13 31  1  0  0  0
 14 15  2  0  0  0
 14104  1  0  0  0
 15105  1  0  0  0
 16 17  2  0  0  0
 16 21  1  0  0  0
 16 31  1  0  0  0
 17 18  1  0  0  0
 17106  1  0  0  0
 18 19  2  0  0  0
 18107  1  0  0  0
 19 20  1  0  0  0
 19 24  1  0  0  0
 20 21  2  0  0  0
 20108  1  0  0  0
 21 23  1  0  0  0
 22 28  1  0  0  0
 22 32  2  0  0  0
 26 27  1  0  0  0
 28109  1  0  0  0
 28110  1  0  0  0
 29111  1  0  0  0
 29112  1  0  0  0
 33 34  1  0  0  0
 33 66  1  0  0  0
 33 70  2  0  0  0
 34 36  1  0  0  0
 34 59  1  0  0  0
 34113  1  0  0  0
 35 44  2  0  0  0
 35 45  1  0  0  0
 35 68  1  0  0  0
 36 56  1  0  0  0
 36114  1  0  0  0
 37 39  1  0  0  0
 37 47  1  0  0  0
 37 66  1  0  0  0
 37115  1  0  0  0
 38 43  2  0  0  0
 38 46  1  0  0  0
 38 47  1  0  0  0
 39 64  1  0  0  0
 39 67  2  0  0  0
 40 52  1  0  0  0
 40 53  2  0  0  0
 40 58  1  0  0  0
 41116  1  0  0  0
 41117  1  0  0  0
 41118  1  0  0  0
 41 48  1  0  0  0
 42 43  1  0  0  0
 42 66  1  0  0  0
 42119  1  0  0  0
 42120  1  0  0  0
 43 44  1  0  0  0
 44121  1  0  0  0
 45 46  2  0  0  0
 45122  1  0  0  0
 46123  1  0  0  0
 47124  1  0  0  0
 47125  1  0  0  0
 48 56  1  0  0  0
 48 65  1  0  0  0
 48126  1  0  0  0
 49 50  1  0  0  0
 49 53  1  0  0  0
 49 64  1  0  0  0
 49127  1  0  0  0
 50 51  1  0  0  0
 50128  1  0  0  0
 50129  1  0  0  0
 51 52  1  0  0  0
 51130  1  0  0  0
 51131  1  0  0  0
 52132  1  0  0  0
 52133  1  0  0  0
 53 54  1  0  0  0
 54 55  2  0  0  0
 54134  1  0  0  0
 55 57  1  0  0  0
 55135  1  0  0  0
 56 69  2  0  0  0
 57 58  2  0  0  0
 57136  1  0  0  0
 58137  1  0  0  0
 59 60  1  0  0  0
 59 61  1  0  0  0
 59 62  1  0  0  0
 60138  1  0  0  0
 60139  1  0  0  0
 60140  1  0  0  0
 61141  1  0  0  0
 61142  1  0  0  0
 61143  1  0  0  0
 62144  1  0  0  0
 62145  1  0  0  0
 62146  1  0  0  0
 63 65  1  0  0  0
 63147  1  0  0  0
 63148  1  0  0  0
 63149  1  0  0  0
 64150  1  0  0  0
 65151  1  0  0  0
 68 89  1  0  0  0
 71 73  2  0  0  0
 71 74  1  0  0  0
 71152  1  0  0  0
 72 73  1  0  0  0
 72 75  2  0  0  0
 72153  1  0  0  0
 73 81  1  0  0  0
 74 76  2  0  0  0
 74 82  1  0  0  0
 75 76  1  0  0  0
 75 85  1  0  0  0
 76 90  1  0  0  0
 77 79  1  0  0  0
 77 81  1  0  0  0
 77154  1  0  0  0
 77155  1  0  0  0
 78 80  1  0  0  0
 78 81  1  0  0  0
 78156  1  0  0  0
 78157  1  0  0  0
 79 91  1  0  0  0
 79158  1  0  0  0
 79159  1  0  0  0
 80 91  1  0  0  0
 80160  1  0  0  0
 80161  1  0  0  0
 81162  1  0  0  0
 82163  1  0  0  0
 82164  1  0  0  0
 82165  1  0  0  0
 83 86  1  0  0  0
 83166  1  0  0  0
 83167  1  0  0  0
 83168  1  0  0  0
 84169  1  0  0  0
 84170  1  0  0  0
 84171  1  0  0  0
 84 92  1  0  0  0
 85 92  1  0  0  0
 85172  1  0  0  0
 85173  1  0  0  0
 86 88  1  0  0  0
 86174  1  0  0  0
 86175  1  0  0  0
 87 89  1  0  0  0
 87176  1  0  0  0
 87177  1  0  0  0
 87 91  1  0  0  0
 88 92  1  0  0  0
 88178  1  0  0  0
 88179  1  0  0  0
 89180  1  0  0  0
 89181  1  0  0  0
 90182  1  0  0  0
 91183  1  0  0  0
 92184  1  0  0  0
M  CHG  2  91   1  92   1
M  ISO  4   1 100  68 101  89 101  90 100
M  END
> <chiral flag>
0

> <version>
0

> <s_m_source_file>
/data/baiqing/PycharmProjects/Reinvent-master-3.2/result/LINK_invent/BTK/process_docking_weight1_custom_product_contain_oxygen_bond_distance_aromatic_linkinvent_7_9_3/rearranged_h_0006.sdf

> <i_m_source_file_index>
14

> <r_mmod_Potential_Energy-OPLS-2005>
-229.205596923828

> <r_mmod_Stretch_Energy-OPLS-2005>
39.5746765136719

> <r_mmod_Bend_Energy-OPLS-2005>
100.702987670898

> <r_mmod_Torsional_Energy-OPLS-2005>
290.752105712891

> <r_mmod_Improper_Torsional_Energy-OPLS-2005>
8.26278591156006

> <r_mmod_Van_der_Waal_Energy-OPLS-2005>
152.349792480469

> <r_mmod_Electrostatic_Energy-OPLS-2005>
-9.66118144989014

> <r_mmod_Solvation_Energy-OPLS-2005>
-824.692993164062

> <b_mmod_Minimization_Converged-OPLS-2005>
0

> <r_mmod_RMS_Derivative-OPLS-2005>
1.71731984615326

$$$$
15
                    3D
 Structure written by MMmdl.
146154  0  0  1  0            999 V2000
  -30.3860  -15.3800   20.3456 C   0  0  0  0  0  0
  -30.4347  -12.8835   19.5509 C   0  0  0  0  0  0
  -29.5446  -12.6062   18.3101 C   0  0  0  0  0  0
  -28.0979  -12.3058   18.7340 C   0  0  0  0  0  0
  -27.6085  -13.2874   19.8262 C   0  0  2  0  0  0
  -28.6324  -13.5034   20.9635 C   0  0  0  0  0  0
  -25.2366  -13.8267   20.5760 C   0  0  0  0  0  0
  -24.1730  -13.0440   20.9260 C   0  0  0  0  0  0
  -24.6401  -11.6942   20.8758 C   0  0  0  0  0  0
  -23.9100  -10.4295   21.0400 C   0  0  0  0  0  0
  -24.3642   -9.4209   21.9180 C   0  0  0  0  0  0
  -23.6308   -8.2247   22.0753 C   0  0  0  0  0  0
  -22.4288   -8.0286   21.3544 C   0  0  0  0  0  0
  -21.9931   -9.0260   20.4644 C   0  0  0  0  0  0
  -22.7268  -10.2135   20.3051 C   0  0  0  0  0  0
  -21.6858   -6.0739   22.5278 C   0  0  0  0  0  0
  -21.4019   -6.5642   23.8212 C   0  0  0  0  0  0
  -21.3661   -5.6793   24.9174 C   0  0  0  0  0  0
  -21.6044   -4.3056   24.7224 C   0  0  0  0  0  0
  -21.8819   -3.8148   23.4345 C   0  0  0  0  0  0
  -21.9195   -4.6966   22.3402 C   0  0  0  0  0  0
  -22.7745  -13.5183   21.1906 C   0  0  0  0  0  0
  -22.1662   -4.2151   21.0979 F   0  0  0  0  0  0
  -21.5628   -3.4539   25.7737 F   0  0  0  0  0  0
  -29.8563  -14.0430   20.3436 N   0  0  0  0  0  0
  -26.2801  -12.9562   20.3230 N   0  0  0  0  0  0
  -25.9342  -11.6654   20.5714 N   0  0  0  0  0  0
  -22.0410  -12.8161   22.0461 N   0  0  0  0  0  0
  -25.3993  -15.2006   20.4208 N   0  0  0  0  0  0
  -31.5982  -15.3728   20.0741 O   0  0  0  0  0  0
  -21.6647   -6.8885   21.4242 O   0  0  0  0  0  0
  -22.3421  -14.5484   20.6746 O   0  0  0  0  0  0
  -24.6683  -31.8148   23.1634 C   0  0  0  0  0  0
  -25.9336  -32.4540   23.8125 C   0  0  1  0  0  0
  -27.2244  -26.8521   20.1953 C   0  0  0  0  0  0
  -25.5976  -33.8360   24.2023 N   0  0  0  0  0  0
  -23.4874  -30.4214   21.5129 C   0  0  2  0  0  0
  -24.9437  -28.7912   20.1096 C   0  0  0  0  0  0
  -22.7694  -29.4388   22.4751 C   0  0  0  0  0  0
  -18.0325  -28.1413   22.8462 C   0  0  0  0  0  0
  -24.1494  -36.7188   23.2649 C   0  0  0  0  0  0
  -26.0587  -30.5943   21.4076 C   0  0  0  0  0  0
  -26.1242  -29.1752   20.7559 C   0  0  0  0  0  0
  -27.2501  -28.2246   20.7785 C   0  0  0  0  0  0
  -26.0204  -26.6419   19.4835 C   0  0  0  0  0  0
  -24.9213  -27.5475   19.4531 C   0  0  0  0  0  0
  -23.7322  -29.7279   20.1419 C   0  0  0  0  0  0
  -25.4139  -36.2940   24.0292 C   0  0  1  0  0  0
  -20.5952  -28.3760   23.1174 C   0  0  2  0  0  0
  -20.6797  -26.9434   22.5406 C   0  0  0  0  0  0
  -19.5773  -26.6373   21.5215 C   0  0  0  0  0  0
  -18.1955  -26.7944   22.1620 C   0  0  0  0  0  0
  -19.1588  -28.8909   23.2803 C   0  0  0  0  0  0
  -18.9498  -30.1496   23.8842 C   0  0  0  0  0  0
  -17.6490  -30.6600   24.0553 C   0  0  0  0  0  0
  -25.9108  -34.9325   23.4987 C   0  0  0  0  0  0
  -16.5380  -29.9085   23.6345 C   0  0  0  0  0  0
  -16.7307  -28.6507   23.0363 C   0  0  0  0  0  0
  -26.4567  -31.6522   25.0690 C   0  0  0  0  0  0
  -25.3672  -31.3799   26.1332 C   0  0  0  0  0  0
  -27.0481  -30.2877   24.6490 C   0  0  0  0  0  0
  -27.6039  -32.4356   25.7498 C   0  0  0  0  0  0
  -27.5569  -37.1749   24.8465 C   0  0  0  0  0  0
  -21.4356  -29.3032   22.3509 N   0  0  0  0  0  0
  -26.4277  -37.3686   23.9408 N   0  0  0  0  0  0
  -24.7598  -30.9735   22.0810 N   0  0  0  0  0  0
  -23.4207  -28.7975   23.3033 O   0  0  0  0  0  0
  -28.2301  -25.7282   20.3143 O   0  0  0  0  0  0
  -26.5734  -34.8876   22.4593 O   0  0  0  0  0  0
  -23.5738  -32.1157   23.6681 O   0  0  0  0  0  0
  -30.5203  -18.5788   19.0322 C   0  0  0  0  0  0
  -30.6464  -19.8853   18.4821 C   0  0  0  0  0  0
  -29.0296  -19.6085   20.6245 C   0  0  0  0  0  0
  -29.1410  -21.0794   20.0835 C   0  0  0  0  0  0
  -29.7006  -18.2730   20.1397 C   0  0  0  0  0  0
  -30.0056  -21.0621   18.9639 C   0  0  0  0  0  0
  -28.6321  -22.7157   20.6170 C   0  0  0  0  0  0
  -29.6188  -16.6692   20.5320 N   0  0  0  0  0  0
  -27.9865  -24.0613   19.8691 N   0  0  0  0  0  0
  -30.2755  -22.2290   18.3326 F   0  0  0  0  0  0
  -31.4515  -13.0948   19.2179 H   0  0  0  0  0  0
  -30.5185  -11.9906   20.1729 H   0  0  0  0  0  0
  -29.9470  -11.7763   17.7277 H   0  0  0  0  0  0
  -29.5587  -13.4779   17.6541 H   0  0  0  0  0  0
  -28.0714  -11.2863   19.1206 H   0  0  0  0  0  0
  -27.4319  -12.3247   17.8704 H   0  0  0  0  0  0
  -27.5113  -14.2441   19.3114 H   0  0  0  0  0  0
  -28.8207  -12.5812   21.5152 H   0  0  0  0  0  0
  -28.2466  -14.2231   21.6870 H   0  0  0  0  0  0
  -25.2783   -9.5685   22.4760 H   0  0  0  0  0  0
  -24.0013   -7.4640   22.7475 H   0  0  0  0  0  0
  -21.0862   -8.8783   19.8951 H   0  0  0  0  0  0
  -22.3725  -10.9674   19.6162 H   0  0  0  0  0  0
  -21.2013   -7.6150   23.9716 H   0  0  0  0  0  0
  -21.1483   -6.0524   25.9076 H   0  0  0  0  0  0
  -22.0596   -2.7610   23.2844 H   0  0  0  0  0  0
  -22.4051  -11.9835   22.4853 H   0  0  0  0  0  0
  -21.1018  -13.1158   22.2664 H   0  0  0  0  0  0
  -24.6274  -15.8490   20.5321 H   0  0  0  0  0  0
  -26.2388  -15.6424   20.0690 H   0  0  0  0  0  0
  -26.7406  -32.5053   23.0834 H   0  0  0  0  0  0
  -25.0052  -33.9424   25.0126 H   0  0  0  0  0  0
  -22.8045  -31.2547   21.3347 H   0  0  0  0  0  0
  -23.3771  -35.9502   23.3269 H   0  0  0  0  0  0
  -24.3568  -36.8884   22.2072 H   0  0  0  0  0  0
  -23.7238  -37.6354   23.6742 H   0  0  0  0  0  0
  -26.2480  -31.3290   20.6237 H   0  0  0  0  0  0
  -26.9154  -30.6549   22.0667 H   0  0  0  0  0  0
  -28.1383  -28.5138   21.3221 H   0  0  0  0  0  0
  -25.8914  -25.6962   18.9780 H   0  0  0  0  0  0
  -24.0273  -27.2495   18.9225 H   0  0  0  0  0  0
  -23.8923  -30.4928   19.3811 H   0  0  0  0  0  0
  -22.8407  -29.1847   19.8238 H   0  0  0  0  0  0
  -25.1342  -36.1722   25.0783 H   0  0  0  0  0  0
  -21.0038  -28.3376   24.1299 H   0  0  0  0  0  0
  -20.5668  -26.2381   23.3653 H   0  0  0  0  0  0
  -21.6660  -26.7396   22.1219 H   0  0  0  0  0  0
  -19.6932  -25.6269   21.1282 H   0  0  0  0  0  0
  -19.6716  -27.3152   20.6721 H   0  0  0  0  0  0
  -17.4225  -26.6686   21.4023 H   0  0  0  0  0  0
  -18.0348  -26.0100   22.9030 H   0  0  0  0  0  0
  -19.7974  -30.7327   24.2186 H   0  0  0  0  0  0
  -17.5042  -31.6274   24.5167 H   0  0  0  0  0  0
  -15.5378  -30.2970   23.7702 H   0  0  0  0  0  0
  -15.8707  -28.0807   22.7110 H   0  0  0  0  0  0
  -24.5872  -30.7131   25.7640 H   0  0  0  0  0  0
  -24.8844  -32.3009   26.4607 H   0  0  0  0  0  0
  -25.7884  -30.9063   27.0210 H   0  0  0  0  0  0
  -26.3168  -29.6523   24.1484 H   0  0  0  0  0  0
  -27.3964  -29.7280   25.5181 H   0  0  0  0  0  0
  -27.9127  -30.4036   23.9953 H   0  0  0  0  0  0
  -27.2592  -33.3709   26.1918 H   0  0  0  0  0  0
  -28.3930  -32.6834   25.0386 H   0  0  0  0  0  0
  -28.0619  -31.8592   26.5545 H   0  0  0  0  0  0
  -28.2558  -38.0071   24.7518 H   0  0  0  0  0  0
  -28.1092  -36.2596   24.6286 H   0  0  0  0  0  0
  -27.2284  -37.1380   25.8867 H   0  0  0  0  0  0
  -20.9627  -29.8704   21.6610 H   0  0  0  0  0  0
  -26.0116  -38.2739   24.1421 H   0  0  0  0  0  0
  -31.0667  -17.7794   18.5521 H   0  0  0  0  0  0
  -31.2950  -19.9982   17.6257 H   0  0  0  0  0  0
  -28.3937  -19.5028   21.4917 H   0  0  0  0  0  0
  -29.5505  -23.1039   21.0579 H   0  0  0  0  0  0
  -27.9863  -22.5373   21.4770 H   0  0  0  0  0  0
  -28.7290  -16.4479   20.9553 H   0  0  0  0  0  0
  -26.9787  -23.9430   19.9199 H   0  0  0  0  0  0
  1 25  1  0  0  0
  1 30  2  0  0  0
  1 78  1  0  0  0
  2  3  1  0  0  0
  2 25  1  0  0  0
  2 81  1  0  0  0
  2 82  1  0  0  0
  3  4  1  0  0  0
  3 83  1  0  0  0
  3 84  1  0  0  0
  4  5  1  0  0  0
  4 85  1  0  0  0
  4 86  1  0  0  0
  5  6  1  0  0  0
  5 26  1  0  0  0
  5 87  1  0  0  0
  6 25  1  0  0  0
  6 88  1  0  0  0
  6 89  1  0  0  0
  7  8  2  0  0  0
  7 26  1  0  0  0
  7 29  1  0  0  0
  8  9  1  0  0  0
  8 22  1  0  0  0
  9 10  1  0  0  0
  9 27  2  0  0  0
 10 11  2  0  0  0
 10 15  1  0  0  0
 11 12  1  0  0  0
 11 90  1  0  0  0
 12 13  2  0  0  0
 12 91  1  0  0  0
 13 14  1  0  0  0
 13 31  1  0  0  0
 14 15  2  0  0  0
 14 92  1  0  0  0
 15 93  1  0  0  0
 16 17  2  0  0  0
 16 21  1  0  0  0
 16 31  1  0  0  0
 17 18  1  0  0  0
 17 94  1  0  0  0
 18 19  2  0  0  0
 18 95  1  0  0  0
 19 20  1  0  0  0
 19 24  1  0  0  0
 20 21  2  0  0  0
 20 96  1  0  0  0
 21 23  1  0  0  0
 22 28  1  0  0  0
 22 32  2  0  0  0
 26 27  1  0  0  0
 28 97  1  0  0  0
 28 98  1  0  0  0
 29 99  1  0  0  0
 29100  1  0  0  0
 33 34  1  0  0  0
 33 66  1  0  0  0
 33 70  2  0  0  0
 34 36  1  0  0  0
 34 59  1  0  0  0
 34101  1  0  0  0
 35 44  2  0  0  0
 35 45  1  0  0  0
 35 68  1  0  0  0
 36 56  1  0  0  0
 36102  1  0  0  0
 37 39  1  0  0  0
 37 47  1  0  0  0
 37 66  1  0  0  0
 37103  1  0  0  0
 38 43  2  0  0  0
 38 46  1  0  0  0
 38 47  1  0  0  0
 39 64  1  0  0  0
 39 67  2  0  0  0
 40 52  1  0  0  0
 40 53  2  0  0  0
 40 58  1  0  0  0
 41104  1  0  0  0
 41105  1  0  0  0
 41106  1  0  0  0
 41 48  1  0  0  0
 42 43  1  0  0  0
 42 66  1  0  0  0
 42107  1  0  0  0
 42108  1  0  0  0
 43 44  1  0  0  0
 44109  1  0  0  0
 45 46  2  0  0  0
 45110  1  0  0  0
 46111  1  0  0  0
 47112  1  0  0  0
 47113  1  0  0  0
 48 56  1  0  0  0
 48 65  1  0  0  0
 48114  1  0  0  0
 49 50  1  0  0  0
 49 53  1  0  0  0
 49 64  1  0  0  0
 49115  1  0  0  0
 50 51  1  0  0  0
 50116  1  0  0  0
 50117  1  0  0  0
 51 52  1  0  0  0
 51118  1  0  0  0
 51119  1  0  0  0
 52120  1  0  0  0
 52121  1  0  0  0
 53 54  1  0  0  0
 54 55  2  0  0  0
 54122  1  0  0  0
 55 57  1  0  0  0
 55123  1  0  0  0
 56 69  2  0  0  0
 57 58  2  0  0  0
 57124  1  0  0  0
 58125  1  0  0  0
 59 60  1  0  0  0
 59 61  1  0  0  0
 59 62  1  0  0  0
 60126  1  0  0  0
 60127  1  0  0  0
 60128  1  0  0  0
 61129  1  0  0  0
 61130  1  0  0  0
 61131  1  0  0  0
 62132  1  0  0  0
 62133  1  0  0  0
 62134  1  0  0  0
 63 65  1  0  0  0
 63135  1  0  0  0
 63136  1  0  0  0
 63137  1  0  0  0
 64138  1  0  0  0
 65139  1  0  0  0
 68 79  1  0  0  0
 71 72  2  0  0  0
 71 75  1  0  0  0
 71140  1  0  0  0
 72 76  1  0  0  0
 72141  1  0  0  0
 73 74  1  0  0  0
 73 75  2  0  0  0
 73142  1  0  0  0
 74 76  2  0  0  0
 74 77  1  0  0  0
 75 78  1  0  0  0
 76 80  1  0  0  0
 77 79  1  0  0  0
 77143  1  0  0  0
 77144  1  0  0  0
 78145  1  0  0  0
 79146  1  0  0  0
M  ISO  4   1 100  68 101  78 100  79 101
M  END
> <chiral flag>
0

> <version>
0

> <s_m_source_file>
/data/baiqing/PycharmProjects/Reinvent-master-3.2/result/LINK_invent/BTK/process_docking_weight1_custom_product_contain_oxygen_bond_distance_aromatic_linkinvent_7_9_3/rearranged_h_0006.sdf

> <i_m_source_file_index>
15

> <r_mmod_Potential_Energy-OPLS-2005>
1535.18225097656

> <r_mmod_Stretch_Energy-OPLS-2005>
710.676086425781

> <r_mmod_Bend_Energy-OPLS-2005>
474.787719726562

> <r_mmod_Torsional_Energy-OPLS-2005>
227.616653442383

> <r_mmod_Improper_Torsional_Energy-OPLS-2005>
3.57130074501038

> <r_mmod_Van_der_Waal_Energy-OPLS-2005>
124.72469329834

> <r_mmod_Electrostatic_Energy-OPLS-2005>
-360.041229248047

> <r_mmod_Solvation_Energy-OPLS-2005>
-227.246871948242

> <b_mmod_Minimization_Converged-OPLS-2005>
0

> <r_mmod_RMS_Derivative-OPLS-2005>
0.111628688871861

$$$$
16
                    3D
 Structure written by MMmdl.
168177  0  0  1  0            999 V2000
  -28.9835  -16.4983   20.3801 C   0  0  0  0  0  0
  -30.0822  -13.8805   19.6101 C   0  0  0  0  0  0
  -29.4942  -12.9478   18.4678 C   0  0  0  0  0  0
  -28.1771  -12.2983   18.9001 C   0  0  0  0  0  0
  -27.4513  -13.3047   19.7985 C   0  0  2  0  0  0
  -28.2679  -13.8837   20.9574 C   0  0  0  0  0  0
  -25.1621  -13.8127   20.5661 C   0  0  0  0  0  0
  -24.1196  -13.0294   20.9422 C   0  0  0  0  0  0
  -24.5949  -11.6809   20.8867 C   0  0  0  0  0  0
  -23.8801  -10.4193   21.0508 C   0  0  0  0  0  0
  -24.3466   -9.4146   21.9249 C   0  0  0  0  0  0
  -23.6210   -8.2152   22.0773 C   0  0  0  0  0  0
  -22.4200   -8.0183   21.3548 C   0  0  0  0  0  0
  -21.9777   -9.0127   20.4655 C   0  0  0  0  0  0
  -22.7031  -10.2033   20.3100 C   0  0  0  0  0  0
  -21.6819   -6.0679   22.5286 C   0  0  0  0  0  0
  -21.3985   -6.5608   23.8210 C   0  0  0  0  0  0
  -21.3647   -5.6775   24.9184 C   0  0  0  0  0  0
  -21.6045   -4.3038   24.7244 C   0  0  0  0  0  0
  -21.8822   -3.8114   23.4371 C   0  0  0  0  0  0
  -21.9185   -4.6917   22.3420 C   0  0  0  0  0  0
  -22.7305  -13.5108   21.2070 C   0  0  0  0  0  0
  -22.1661   -4.2103   21.0998 F   0  0  0  0  0  0
  -21.5633   -3.4533   25.7765 F   0  0  0  0  0  0
  -29.0614  -14.9300   20.2990 N   0  0  0  0  0  0
  -26.1769  -12.9286   20.2852 N   0  0  0  0  0  0
  -25.8768  -11.6422   20.5542 N   0  0  0  0  0  0
  -21.9963  -12.8142   22.0633 N   0  0  0  0  0  0
  -25.3299  -15.1885   20.3937 N   0  0  0  0  0  0
  -30.2623  -16.5836   20.2139 O   0  0  0  0  0  0
  -21.6592   -6.8780   21.4231 O   0  0  0  0  0  0
  -22.3105  -14.5441   20.6873 O   0  0  0  0  0  0
  -24.6425  -31.7687   23.1387 C   0  0  0  0  0  0
  -25.9043  -32.4743   23.7828 C   0  0  1  0  0  0
  -27.0428  -27.5886   20.6714 C   0  0  0  0  0  0
  -25.5206  -33.8497   24.1417 N   0  0  0  0  0  0
  -23.5416  -29.9267   21.5423 C   0  0  2  0  0  0
  -25.0165  -29.1116   19.7533 C   0  0  0  0  0  0
  -23.4949  -28.3048   22.0760 C   0  0  0  0  0  0
  -18.2656  -27.4070   23.2522 C   0  0  0  0  0  0
  -24.1423  -36.7374   23.2622 C   0  0  0  0  0  0
  -25.8862  -30.9499   21.2141 C   0  0  0  0  0  0
  -26.1014  -29.6848   20.4305 C   0  0  0  0  0  0
  -27.2691  -28.9511   20.6307 C   0  0  0  0  0  0
  -26.1625  -26.9903   19.7284 C   0  0  0  0  0  0
  -25.0992  -27.7899   19.2533 C   0  0  0  0  0  0
  -23.7047  -29.7873   20.0036 C   0  0  0  0  0  0
  -25.4061  -36.3073   24.0224 C   0  0  1  0  0  0
  -21.1258  -27.1793   23.6360 C   0  0  2  0  0  0
  -20.5964  -25.8868   23.0468 C   0  0  0  0  0  0
  -19.4967  -25.8441   21.9292 C   0  0  0  0  0  0
  -18.1754  -26.1015   22.5770 C   0  0  0  0  0  0
  -19.8005  -28.1792   23.5454 C   0  0  0  0  0  0
  -19.6511  -30.1833   23.2119 C   0  0  0  0  0  0
  -18.1752  -30.7918   22.8544 C   0  0  0  0  0  0
  -25.8952  -34.9506   23.4797 C   0  0  0  0  0  0
  -16.9162  -29.8457   22.6849 C   0  0  0  0  0  0
  -16.9463  -28.2753   22.8557 C   0  0  0  0  0  0
  -26.5046  -31.7797   25.0860 C   0  0  0  0  0  0
  -25.4672  -31.4567   26.1909 C   0  0  0  0  0  0
  -27.3406  -30.5383   24.7575 C   0  0  0  0  0  0
  -27.5513  -32.6939   25.7560 C   0  0  0  0  0  0
  -27.5537  -37.1745   24.8440 C   0  0  0  0  0  0
  -22.6575  -27.3913   22.9523 N   0  0  0  0  0  0
  -26.4236  -37.3788   23.9416 N   0  0  0  0  0  0
  -24.6819  -30.8724   22.0715 N   0  0  0  0  0  0
  -24.3745  -27.6274   21.9091 O   0  0  0  0  0  0
  -26.9970  -27.1499   21.9964 O   0  0  0  0  0  0
  -26.5956  -34.9106   22.4657 O   0  0  0  0  0  0
  -23.5881  -32.0477   23.7107 O   0  0  0  0  0  0
  -25.4778  -22.3882   19.8741 C   0  0  0  0  0  0
  -24.6218  -21.7319   21.5228 C   0  0  0  0  0  0
  -24.3222  -23.1223   20.7522 C   0  0  0  0  0  0
  -26.6923  -19.6129   20.5866 C   0  0  0  0  0  0
  -26.4336  -21.0020   19.7908 C   0  0  0  0  0  0
  -25.5375  -20.3283   21.4650 C   0  0  0  0  0  0
  -18.2023  -29.2710   24.6629 C   0  0  0  0  0  0
  -19.2905  -29.5297   25.6224 C   0  0  0  0  0  0
  -22.0837  -26.3107   20.6650 C   0  0  0  0  0  0
  -18.9912  -28.8324   21.6052 C   0  0  0  0  0  0
  -21.0005  -29.6209   25.2665 C   0  0  0  0  0  0
  -21.0468  -28.3263   21.5093 C   0  0  1  0  0  0
  -21.9201  -29.4968   23.6443 C   0  0  2  0  0  0
  -24.8692  -28.2666   24.3570 C   0  0  0  0  0  0
  -26.3628  -28.0668   23.2559 C   0  0  0  0  0  0
  -23.1636  -24.8574   20.9309 N   0  0  0  0  0  0
  -27.6969  -17.7825   20.5486 N   0  0  0  0  0  0
  -23.4941  -29.3292   24.4234 N   0  3  0  0  0  0
  -21.7420  -26.2518   19.4846 O   0  0  0  0  0  0
  -27.2331  -21.0556   18.6970 F   0  0  0  0  0  0
  -25.2028  -19.5254   22.5043 F   0  0  0  0  0  0
  -30.8920  -14.4494   19.1525 H   0  0  0  0  0  0
  -30.5947  -13.2762   20.3617 H   0  0  0  0  0  0
  -30.2197  -12.1933   18.1606 H   0  0  0  0  0  0
  -29.3043  -13.5633   17.5877 H   0  0  0  0  0  0
  -28.3910  -11.3934   19.4705 H   0  0  0  0  0  0
  -27.5730  -12.0002   18.0422 H   0  0  0  0  0  0
  -27.2249  -14.1101   19.0956 H   0  0  0  0  0  0
  -28.8164  -13.1269   21.5205 H   0  0  0  0  0  0
  -27.6345  -14.3857   21.6904 H   0  0  0  0  0  0
  -25.2590   -9.5688   22.4844 H   0  0  0  0  0  0
  -23.9938   -7.4543   22.7486 H   0  0  0  0  0  0
  -21.0710   -8.8607   19.8966 H   0  0  0  0  0  0
  -22.3455  -10.9585   19.6240 H   0  0  0  0  0  0
  -21.1961   -7.6115   23.9696 H   0  0  0  0  0  0
  -21.1470   -6.0515   25.9083 H   0  0  0  0  0  0
  -22.0614   -2.7575   23.2889 H   0  0  0  0  0  0
  -22.3537  -11.9794   22.5032 H   0  0  0  0  0  0
  -21.0603  -13.1230   22.2854 H   0  0  0  0  0  0
  -24.4816  -15.7454   20.4056 H   0  0  0  0  0  0
  -25.9562  -15.4762   19.6535 H   0  0  0  0  0  0
  -26.7211  -32.5747   23.0767 H   0  0  0  0  0  0
  -24.8804  -33.9555   24.9159 H   0  0  0  0  0  0
  -22.6110  -30.4828   21.5468 H   0  0  0  0  0  0
  -23.3683  -35.9707   23.3202 H   0  0  0  0  0  0
  -24.3490  -36.9161   22.2058 H   0  0  0  0  0  0
  -23.7186  -37.6510   23.6789 H   0  0  0  0  0  0
  -25.7724  -31.7796   20.5139 H   0  0  0  0  0  0
  -26.8172  -31.1200   21.7398 H   0  0  0  0  0  0
  -28.0166  -29.3679   21.2918 H   0  0  0  0  0  0
  -26.0413  -25.9168   19.6870 H   0  0  0  0  0  0
  -24.2586  -27.3220   18.7613 H   0  0  0  0  0  0
  -23.6868  -30.7614   19.5135 H   0  0  0  0  0  0
  -22.9247  -29.2033   19.5216 H   0  0  0  0  0  0
  -25.1290  -36.1759   25.0712 H   0  0  0  0  0  0
  -21.3055  -26.9818   24.6951 H   0  0  0  0  0  0
  -20.1386  -25.3733   23.8948 H   0  0  0  0  0  0
  -21.4012  -25.1790   22.8583 H   0  0  0  0  0  0
  -19.4608  -24.8225   21.5483 H   0  0  0  0  0  0
  -19.6094  -26.4311   21.0306 H   0  0  0  0  0  0
  -17.3873  -26.0765   21.8224 H   0  0  0  0  0  0
  -17.9300  -25.3313   23.3095 H   0  0  0  0  0  0
  -20.2988  -31.0368   23.1665 H   0  0  0  0  0  0
  -18.0677  -31.8517   22.6743 H   0  0  0  0  0  0
  -15.9841  -30.3030   22.3902 H   0  0  0  0  0  0
  -16.0428  -27.7444   22.5888 H   0  0  0  0  0  0
  -24.7424  -30.7114   25.9218 H   0  0  0  0  0  0
  -24.9134  -32.3459   26.4916 H   0  0  0  0  0  0
  -25.9603  -31.0734   27.0857 H   0  0  0  0  0  0
  -26.8676  -29.6411   25.0911 H   0  0  0  0  0  0
  -28.2675  -30.4977   25.3335 H   0  0  0  0  0  0
  -27.6931  -30.5276   23.7298 H   0  0  0  0  0  0
  -27.1137  -33.6275   26.1087 H   0  0  0  0  0  0
  -28.3530  -32.9534   25.0631 H   0  0  0  0  0  0
  -28.0014  -32.2349   26.6379 H   0  0  0  0  0  0
  -28.2528  -38.0076   24.7588 H   0  0  0  0  0  0
  -28.1047  -36.2614   24.6132 H   0  0  0  0  0  0
  -27.2269  -37.1247   25.8842 H   0  0  0  0  0  0
  -23.1905  -26.5401   23.0730 H   0  0  0  0  0  0
  -26.0102  -38.2832   24.1521 H   0  0  0  0  0  0
  -25.7385  -23.0270   19.0436 H   0  0  0  0  0  0
  -23.9890  -21.6857   22.3968 H   0  0  0  0  0  0
  -17.1885  -29.2795   25.0521 H   0  0  0  0  0  0
  -19.0256  -29.6917   26.6567 H   0  0  0  0  0  0
  -18.9041  -29.6893   20.9256 H   0  0  0  0  0  0
  -18.4207  -28.1468   20.9690 H   0  0  0  0  0  0
  -21.4423  -28.9051   25.9623 H   0  0  0  0  0  0
  -21.2835  -30.5891   25.6826 H   0  0  0  0  0  0
  -21.2544  -28.9789   20.6741 H   0  0  0  0  0  0
  -22.0447  -30.5245   23.4166 H   0  0  0  0  0  0
  -25.2781  -28.4229   25.3523 H   0  0  0  0  0  0
  -24.5102  -27.2499   24.5194 H   0  0  0  0  0  0
  -27.1445  -27.8414   23.9800 H   0  0  0  0  0  0
  -26.5291  -29.0749   22.9478 H   0  0  0  0  0  0
  -23.0863  -24.8775   19.9215 H   0  0  0  0  0  0
  -26.9550  -17.1510   20.8225 H   0  0  0  0  0  0
  -23.1816  -29.1723   25.3704 H   0  0  0  0  0  0
  -23.8409  -30.2806   24.4440 H   0  0  0  0  0  0
  1 25  1  0  0  0
  1 30  2  0  0  0
  1 87  1  0  0  0
  2  3  1  0  0  0
  2 25  1  0  0  0
  2 92  1  0  0  0
  2 93  1  0  0  0
  3  4  1  0  0  0
  3 94  1  0  0  0
  3 95  1  0  0  0
  4  5  1  0  0  0
  4 96  1  0  0  0
  4 97  1  0  0  0
  5  6  1  0  0  0
  5 26  1  0  0  0
  5 98  1  0  0  0
  6 25  1  0  0  0
  6 99  1  0  0  0
  6100  1  0  0  0
  7  8  2  0  0  0
  7 26  1  0  0  0
  7 29  1  0  0  0
  8  9  1  0  0  0
  8 22  1  0  0  0
  9 10  1  0  0  0
  9 27  2  0  0  0
 10 11  2  0  0  0
 10 15  1  0  0  0
 11 12  1  0  0  0
 11101  1  0  0  0
 12 13  2  0  0  0
 12102  1  0  0  0
 13 14  1  0  0  0
 13 31  1  0  0  0
 14 15  2  0  0  0
 14103  1  0  0  0
 15104  1  0  0  0
 16 17  2  0  0  0
 16 21  1  0  0  0
 16 31  1  0  0  0
 17 18  1  0  0  0
 17105  1  0  0  0
 18 19  2  0  0  0
 18106  1  0  0  0
 19 20  1  0  0  0
 19 24  1  0  0  0
 20 21  2  0  0  0
 20107  1  0  0  0
 21 23  1  0  0  0
 22 28  1  0  0  0
 22 32  2  0  0  0
 26 27  1  0  0  0
 28108  1  0  0  0
 28109  1  0  0  0
 29110  1  0  0  0
 29111  1  0  0  0
 33 34  1  0  0  0
 33 66  1  0  0  0
 33 70  2  0  0  0
 34 36  1  0  0  0
 34 59  1  0  0  0
 34112  1  0  0  0
 35 44  2  0  0  0
 35 45  1  0  0  0
 35 68  1  0  0  0
 36 56  1  0  0  0
 36113  1  0  0  0
 37 39  1  0  0  0
 37 47  1  0  0  0
 37 66  1  0  0  0
 37114  1  0  0  0
 38 43  2  0  0  0
 38 46  1  0  0  0
 38 47  1  0  0  0
 39 64  1  0  0  0
 39 67  2  0  0  0
 40 52  1  0  0  0
 40 53  2  0  0  0
 40 58  1  0  0  0
 41115  1  0  0  0
 41116  1  0  0  0
 41117  1  0  0  0
 41 48  1  0  0  0
 42 43  1  0  0  0
 42 66  1  0  0  0
 42118  1  0  0  0
 42119  1  0  0  0
 43 44  1  0  0  0
 44120  1  0  0  0
 45 46  2  0  0  0
 45121  1  0  0  0
 46122  1  0  0  0
 47123  1  0  0  0
 47124  1  0  0  0
 48 56  1  0  0  0
 48 65  1  0  0  0
 48125  1  0  0  0
 49 50  1  0  0  0
 49 53  1  0  0  0
 49 64  1  0  0  0
 49126  1  0  0  0
 50 51  1  0  0  0
 50127  1  0  0  0
 50128  1  0  0  0
 51 52  1  0  0  0
 51129  1  0  0  0
 51130  1  0  0  0
 52131  1  0  0  0
 52132  1  0  0  0
 53 54  1  0  0  0
 54 55  2  0  0  0
 54133  1  0  0  0
 55 57  1  0  0  0
 55134  1  0  0  0
 56 69  2  0  0  0
 57 58  2  0  0  0
 57135  1  0  0  0
 58136  1  0  0  0
 59 60  1  0  0  0
 59 61  1  0  0  0
 59 62  1  0  0  0
 60137  1  0  0  0
 60138  1  0  0  0
 60139  1  0  0  0
 61140  1  0  0  0
 61141  1  0  0  0
 61142  1  0  0  0
 62143  1  0  0  0
 62144  1  0  0  0
 62145  1  0  0  0
 63 65  1  0  0  0
 63146  1  0  0  0
 63147  1  0  0  0
 63148  1  0  0  0
 64149  1  0  0  0
 65150  1  0  0  0
 68 85  1  0  0  0
 71 73  2  0  0  0
 71 75  1  0  0  0
 71151  1  0  0  0
 72 73  1  0  0  0
 72 76  2  0  0  0
 72152  1  0  0  0
 73 86  1  0  0  0
 74 75  2  0  0  0
 74 76  1  0  0  0
 74 87  1  0  0  0
 75 90  1  0  0  0
 76 91  1  0  0  0
 77 78  2  0  0  0
 77 80  1  0  0  0
 77153  1  0  0  0
 78 81  1  0  0  0
 78154  1  0  0  0
 79 86  1  0  0  0
 79 89  2  0  0  0
 79 82  1  0  0  0
 80 82  1  0  0  0
 80155  1  0  0  0
 80156  1  0  0  0
 81 83  1  0  0  0
 81157  1  0  0  0
 81158  1  0  0  0
 82 83  1  0  0  0
 82159  1  0  0  0
 83 88  1  0  0  0
 83160  1  0  0  0
 84 85  1  0  0  0
 84 88  1  0  0  0
 84161  1  0  0  0
 84162  1  0  0  0
 85163  1  0  0  0
 85164  1  0  0  0
 86165  1  0  0  0
 87166  1  0  0  0
 88167  1  0  0  0
 88168  1  0  0  0
M  CHG  1  88   1
M  ISO  4   1 100  68 101  85 101  87 100
M  END
> <chiral flag>
0

> <version>
0

> <s_m_source_file>
/data/baiqing/PycharmProjects/Reinvent-master-3.2/result/LINK_invent/BTK/process_docking_weight1_custom_product_contain_oxygen_bond_distance_aromatic_linkinvent_7_9_3/rearranged_h_0006.sdf

> <i_m_source_file_index>
16

> <r_mmod_Potential_Energy-OPLS-2005>
23742.08203125

> <r_mmod_Stretch_Energy-OPLS-2005>
12129.701171875

> <r_mmod_Bend_Energy-OPLS-2005>
2513.16625976562

> <r_mmod_Torsional_Energy-OPLS-2005>
555.885864257812

> <r_mmod_Improper_Torsional_Energy-OPLS-2005>
48.1799964904785

> <r_mmod_Van_der_Waal_Energy-OPLS-2005>
3997.51708984375

> <r_mmod_Electrostatic_Energy-OPLS-2005>
-344.105895996094

> <r_mmod_Solvation_Energy-OPLS-2005>
-405.485900878906

> <b_mmod_Minimization_Converged-OPLS-2005>
0

> <r_mmod_RMS_Derivative-OPLS-2005>
4.41013240814209

$$$$
17
                    3D
 Structure written by MMmdl.
156164  0  0  1  0            999 V2000
  -30.7353  -14.5069   20.5670 C   0  0  0  0  0  0
  -30.4129  -12.3360   19.4506 C   0  0  0  0  0  0
  -29.4971  -12.4886   18.2210 C   0  0  0  0  0  0
  -28.0223  -12.3392   18.6359 C   0  0  0  0  0  0
  -27.6484  -13.2198   19.8585 C   0  0  2  0  0  0
  -28.6859  -13.0851   20.9958 C   0  0  0  0  0  0
  -25.2505  -13.8153   20.5629 C   0  0  0  0  0  0
  -24.1809  -13.0433   20.9233 C   0  0  0  0  0  0
  -24.6376  -11.6904   20.8777 C   0  0  0  0  0  0
  -23.9034  -10.4297   21.0430 C   0  0  0  0  0  0
  -24.3587   -9.4218   21.9198 C   0  0  0  0  0  0
  -23.6280   -8.2240   22.0755 C   0  0  0  0  0  0
  -22.4258   -8.0280   21.3552 C   0  0  0  0  0  0
  -21.9883   -9.0247   20.4645 C   0  0  0  0  0  0
  -22.7203  -10.2129   20.3074 C   0  0  0  0  0  0
  -21.6847   -6.0724   22.5287 C   0  0  0  0  0  0
  -21.4012   -6.5633   23.8218 C   0  0  0  0  0  0
  -21.3668   -5.6786   24.9185 C   0  0  0  0  0  0
  -21.6047   -4.3047   24.7232 C   0  0  0  0  0  0
  -21.8823   -3.8138   23.4355 C   0  0  0  0  0  0
  -21.9185   -4.6953   22.3410 C   0  0  0  0  0  0
  -22.7828  -13.5225   21.1882 C   0  0  0  0  0  0
  -22.1653   -4.2147   21.0984 F   0  0  0  0  0  0
  -21.5628   -3.4526   25.7737 F   0  0  0  0  0  0
  -30.0111  -13.3616   20.4306 N   0  0  0  0  0  0
  -26.2946  -12.9364   20.3260 N   0  0  0  0  0  0
  -25.9305  -11.6514   20.5749 N   0  0  0  0  0  0
  -22.0434  -12.8245   22.0436 N   0  0  0  0  0  0
  -25.4107  -15.1859   20.3861 N   0  0  0  0  0  0
  -31.9059  -14.5791   20.1773 O   0  0  0  0  0  0
  -21.6635   -6.8866   21.4245 O   0  0  0  0  0  0
  -22.3538  -14.5533   20.6709 O   0  0  0  0  0  0
  -24.6137  -31.8706   23.2131 C   0  0  0  0  0  0
  -25.9031  -32.4856   23.8432 C   0  0  1  0  0  0
  -27.2257  -27.4344   20.0943 C   0  0  0  0  0  0
  -25.5901  -33.8651   24.2367 N   0  0  0  0  0  0
  -23.4002  -30.4939   21.5539 C   0  0  2  0  0  0
  -24.8404  -28.9586   20.1166 C   0  0  0  0  0  0
  -22.7402  -29.4669   22.5016 C   0  0  0  0  0  0
  -18.0288  -28.1413   22.8468 C   0  0  0  0  0  0
  -24.1485  -36.7323   23.2623 C   0  0  0  0  0  0
  -25.9273  -30.8359   21.3619 C   0  0  0  0  0  0
  -25.9999  -29.4692   20.7124 C   0  0  0  0  0  0
  -27.1941  -28.7149   20.6941 C   0  0  0  0  0  0
  -26.0432  -26.9347   19.4998 C   0  0  0  0  0  0
  -24.8555  -27.6898   19.5115 C   0  0  0  0  0  0
  -23.6059  -29.8297   20.1658 C   0  0  0  0  0  0
  -25.4103  -36.3138   24.0334 C   0  0  1  0  0  0
  -20.5866  -28.3681   23.1318 C   0  0  2  0  0  0
  -20.6766  -26.9419   22.5408 C   0  0  0  0  0  0
  -19.5765  -26.6391   21.5199 C   0  0  0  0  0  0
  -18.1942  -26.7955   22.1606 C   0  0  0  0  0  0
  -19.1533  -28.8859   23.2888 C   0  0  0  0  0  0
  -18.9470  -30.1452   23.8921 C   0  0  0  0  0  0
  -17.6473  -30.6597   24.0573 C   0  0  0  0  0  0
  -25.9035  -34.9496   23.5147 C   0  0  0  0  0  0
  -16.5363  -29.9115   23.6314 C   0  0  0  0  0  0
  -16.7273  -28.6536   23.0325 C   0  0  0  0  0  0
  -26.4481  -31.6612   25.0743 C   0  0  0  0  0  0
  -25.3759  -31.3682   26.1498 C   0  0  0  0  0  0
  -27.0303  -30.3072   24.6086 C   0  0  0  0  0  0
  -27.6087  -32.4305   25.7483 C   0  0  0  0  0  0
  -27.5594  -37.1804   24.8458 C   0  0  0  0  0  0
  -21.4137  -29.3062   22.3741 N   0  0  0  0  0  0
  -26.4299  -37.3819   23.9421 N   0  0  0  0  0  0
  -24.6662  -31.0819   22.1033 N   0  0  0  0  0  0
  -23.4181  -28.8176   23.3029 O   0  0  0  0  0  0
  -28.4152  -26.7352   20.1090 O   0  0  0  0  0  0
  -26.5588  -34.8948   22.4708 O   0  0  0  0  0  0
  -23.5339  -32.1439   23.7549 O   0  0  0  0  0  0
  -30.3104  -19.3366   21.9022 C   0  0  0  0  0  0
  -28.8115  -18.4712   20.2046 C   0  0  0  0  0  0
  -29.7349  -20.6221   21.7634 C   0  0  0  0  0  0
  -28.2322  -19.7566   20.0741 C   0  0  0  0  0  0
  -29.8803  -18.2458   21.1011 C   0  0  0  0  0  0
  -28.7011  -20.8566   20.8262 C   0  0  0  0  0  0
  -30.6402  -16.9669   21.0925 C   0  0  0  0  0  0
  -27.7126  -24.5722   21.1105 C   0  0  0  0  0  0
  -28.3420  -23.2261   21.5440 C   0  0  0  0  0  0
  -28.4181  -25.3089   19.9430 C   0  0  0  0  0  0
  -28.1523  -22.1344   20.5879 N   0  0  0  0  0  0
  -30.0559  -15.7366   20.9548 N   0  0  0  0  0  0
  -31.9728  -17.0932   21.1708 N   0  3  0  0  0  0
  -31.4595  -12.4193   19.1482 H   0  0  0  0  0  0
  -30.3103  -11.3422   19.8890 H   0  0  0  0  0  0
  -29.7516  -11.7388   17.4708 H   0  0  0  0  0  0
  -29.6583  -13.4608   17.7519 H   0  0  0  0  0  0
  -27.8611  -11.2888   18.8778 H   0  0  0  0  0  0
  -27.3675  -12.5619   17.7923 H   0  0  0  0  0  0
  -27.6652  -14.2546   19.5128 H   0  0  0  0  0  0
  -28.6671  -12.0784   21.4163 H   0  0  0  0  0  0
  -28.4459  -13.7589   21.8198 H   0  0  0  0  0  0
  -25.2719   -9.5695   22.4788 H   0  0  0  0  0  0
  -24.0001   -7.4612   22.7454 H   0  0  0  0  0  0
  -21.0823   -8.8766   19.8930 H   0  0  0  0  0  0
  -22.3657  -10.9684   19.6204 H   0  0  0  0  0  0
  -21.2014   -7.6136   23.9730 H   0  0  0  0  0  0
  -21.1484   -6.0514   25.9088 H   0  0  0  0  0  0
  -22.0593   -2.7596   23.2856 H   0  0  0  0  0  0
  -22.4006  -11.9930   22.4891 H   0  0  0  0  0  0
  -21.1054  -13.1328   22.2584 H   0  0  0  0  0  0
  -24.5917  -15.7872   20.3869 H   0  0  0  0  0  0
  -26.1855  -15.5802   19.8699 H   0  0  0  0  0  0
  -26.7079  -32.5562   23.1169 H   0  0  0  0  0  0
  -25.0099  -33.9833   25.0551 H   0  0  0  0  0  0
  -22.6889  -31.3113   21.4175 H   0  0  0  0  0  0
  -23.3774  -35.9629   23.3294 H   0  0  0  0  0  0
  -24.3577  -36.8948   22.2040 H   0  0  0  0  0  0
  -23.7222  -37.6518   23.6645 H   0  0  0  0  0  0
  -26.0308  -31.5972   20.5879 H   0  0  0  0  0  0
  -26.8203  -30.8985   21.9729 H   0  0  0  0  0  0
  -28.0919  -29.1081   21.1494 H   0  0  0  0  0  0
  -26.0225  -25.9661   19.0242 H   0  0  0  0  0  0
  -23.9562  -27.2961   19.0583 H   0  0  0  0  0  0
  -23.7210  -30.6066   19.4087 H   0  0  0  0  0  0
  -22.7263  -29.2574   19.8660 H   0  0  0  0  0  0
  -25.1280  -36.1983   25.0825 H   0  0  0  0  0  0
  -20.9948  -28.3232   24.1448 H   0  0  0  0  0  0
  -20.5650  -26.2297   23.3592 H   0  0  0  0  0  0
  -21.6642  -26.7447   22.1218 H   0  0  0  0  0  0
  -19.6918  -25.6288   21.1251 H   0  0  0  0  0  0
  -19.6735  -27.3179   20.6718 H   0  0  0  0  0  0
  -17.4199  -26.6686   21.4016 H   0  0  0  0  0  0
  -18.0350  -26.0120   22.9030 H   0  0  0  0  0  0
  -19.7942  -30.7251   24.2328 H   0  0  0  0  0  0
  -17.5045  -31.6281   24.5198 H   0  0  0  0  0  0
  -15.5373  -30.3050   23.7647 H   0  0  0  0  0  0
  -15.8666  -28.0874   22.7042 H   0  0  0  0  0  0
  -24.5935  -30.7035   25.7814 H   0  0  0  0  0  0
  -24.8935  -32.2819   26.4979 H   0  0  0  0  0  0
  -25.8113  -30.8814   27.0232 H   0  0  0  0  0  0
  -26.2817  -29.6820   24.1190 H   0  0  0  0  0  0
  -27.4169  -29.7314   25.4502 H   0  0  0  0  0  0
  -27.8620  -30.4445   23.9168 H   0  0  0  0  0  0
  -27.2745  -33.3574   26.2151 H   0  0  0  0  0  0
  -28.3845  -32.6893   25.0268 H   0  0  0  0  0  0
  -28.0829  -31.8372   26.5321 H   0  0  0  0  0  0
  -28.2590  -38.0121   24.7561 H   0  0  0  0  0  0
  -28.1121  -36.2661   24.6216 H   0  0  0  0  0  0
  -27.2320  -37.1371   25.8860 H   0  0  0  0  0  0
  -20.9295  -29.8811   21.6981 H   0  0  0  0  0  0
  -26.0191  -38.2891   24.1472 H   0  0  0  0  0  0
  -31.1269  -19.2161   22.5996 H   0  0  0  0  0  0
  -28.4647  -17.6746   19.5631 H   0  0  0  0  0  0
  -30.1418  -21.4261   22.3569 H   0  0  0  0  0  0
  -27.4408  -19.9000   19.3526 H   0  0  0  0  0  0
  -27.7535  -25.2233   21.9852 H   0  0  0  0  0  0
  -26.6505  -24.4494   20.8931 H   0  0  0  0  0  0
  -27.8822  -22.9175   22.4853 H   0  0  0  0  0  0
  -29.4007  -23.3831   21.7503 H   0  0  0  0  0  0
  -28.0134  -25.0120   18.9738 H   0  0  0  0  0  0
  -29.4674  -25.0126   19.9198 H   0  0  0  0  0  0
  -27.3662  -22.1993   19.9468 H   0  0  0  0  0  0
  -29.0694  -15.7637   21.1485 H   0  0  0  0  0  0
  -32.4080  -18.0020   21.1518 H   0  0  0  0  0  0
  -32.5310  -16.2670   20.9859 H   0  0  0  0  0  0
  1 25  1  0  0  0
  1 30  2  0  0  0
  1 82  1  0  0  0
  2  3  1  0  0  0
  2 25  1  0  0  0
  2 84  1  0  0  0
  2 85  1  0  0  0
  3  4  1  0  0  0
  3 86  1  0  0  0
  3 87  1  0  0  0
  4  5  1  0  0  0
  4 88  1  0  0  0
  4 89  1  0  0  0
  5  6  1  0  0  0
  5 26  1  0  0  0
  5 90  1  0  0  0
  6 25  1  0  0  0
  6 91  1  0  0  0
  6 92  1  0  0  0
  7  8  2  0  0  0
  7 26  1  0  0  0
  7 29  1  0  0  0
  8  9  1  0  0  0
  8 22  1  0  0  0
  9 10  1  0  0  0
  9 27  2  0  0  0
 10 11  2  0  0  0
 10 15  1  0  0  0
 11 12  1  0  0  0
 11 93  1  0  0  0
 12 13  2  0  0  0
 12 94  1  0  0  0
 13 14  1  0  0  0
 13 31  1  0  0  0
 14 15  2  0  0  0
 14 95  1  0  0  0
 15 96  1  0  0  0
 16 17  2  0  0  0
 16 21  1  0  0  0
 16 31  1  0  0  0
 17 18  1  0  0  0
 17 97  1  0  0  0
 18 19  2  0  0  0
 18 98  1  0  0  0
 19 20  1  0  0  0
 19 24  1  0  0  0
 20 21  2  0  0  0
 20 99  1  0  0  0
 21 23  1  0  0  0
 22 28  1  0  0  0
 22 32  2  0  0  0
 26 27  1  0  0  0
 28100  1  0  0  0
 28101  1  0  0  0
 29102  1  0  0  0
 29103  1  0  0  0
 33 34  1  0  0  0
 33 66  1  0  0  0
 33 70  2  0  0  0
 34 36  1  0  0  0
 34 59  1  0  0  0
 34104  1  0  0  0
 35 44  2  0  0  0
 35 45  1  0  0  0
 35 68  1  0  0  0
 36 56  1  0  0  0
 36105  1  0  0  0
 37 39  1  0  0  0
 37 47  1  0  0  0
 37 66  1  0  0  0
 37106  1  0  0  0
 38 43  2  0  0  0
 38 46  1  0  0  0
 38 47  1  0  0  0
 39 64  1  0  0  0
 39 67  2  0  0  0
 40 52  1  0  0  0
 40 53  2  0  0  0
 40 58  1  0  0  0
 41107  1  0  0  0
 41108  1  0  0  0
 41109  1  0  0  0
 41 48  1  0  0  0
 42 43  1  0  0  0
 42 66  1  0  0  0
 42110  1  0  0  0
 42111  1  0  0  0
 43 44  1  0  0  0
 44112  1  0  0  0
 45 46  2  0  0  0
 45113  1  0  0  0
 46114  1  0  0  0
 47115  1  0  0  0
 47116  1  0  0  0
 48 56  1  0  0  0
 48 65  1  0  0  0
 48117  1  0  0  0
 49 50  1  0  0  0
 49 53  1  0  0  0
 49 64  1  0  0  0
 49118  1  0  0  0
 50 51  1  0  0  0
 50119  1  0  0  0
 50120  1  0  0  0
 51 52  1  0  0  0
 51121  1  0  0  0
 51122  1  0  0  0
 52123  1  0  0  0
 52124  1  0  0  0
 53 54  1  0  0  0
 54 55  2  0  0  0
 54125  1  0  0  0
 55 57  1  0  0  0
 55126  1  0  0  0
 56 69  2  0  0  0
 57 58  2  0  0  0
 57127  1  0  0  0
 58128  1  0  0  0
 59 60  1  0  0  0
 59 61  1  0  0  0
 59 62  1  0  0  0
 60129  1  0  0  0
 60130  1  0  0  0
 60131  1  0  0  0
 61132  1  0  0  0
 61133  1  0  0  0
 61134  1  0  0  0
 62135  1  0  0  0
 62136  1  0  0  0
 62137  1  0  0  0
 63 65  1  0  0  0
 63138  1  0  0  0
 63139  1  0  0  0
 63140  1  0  0  0
 64141  1  0  0  0
 65142  1  0  0  0
 68 80  1  0  0  0
 71 73  2  0  0  0
 71 75  1  0  0  0
 71143  1  0  0  0
 72 74  1  0  0  0
 72 75  2  0  0  0
 72144  1  0  0  0
 73 76  1  0  0  0
 73145  1  0  0  0
 74 76  2  0  0  0
 74146  1  0  0  0
 75 77  1  0  0  0
 76 81  1  0  0  0
 77 82  1  0  0  0
 77 83  2  0  0  0
 78 79  1  0  0  0
 78 80  1  0  0  0
 78147  1  0  0  0
 78148  1  0  0  0
 79 81  1  0  0  0
 79149  1  0  0  0
 79150  1  0  0  0
 80151  1  0  0  0
 80152  1  0  0  0
 81153  1  0  0  0
 82154  1  0  0  0
 83155  1  0  0  0
 83156  1  0  0  0
M  CHG  1  83   1
M  ISO  4   1 100  68 101  80 101  82 100
M  END
> <chiral flag>
0

> <version>
0

> <s_m_source_file>
/data/baiqing/PycharmProjects/Reinvent-master-3.2/result/LINK_invent/BTK/process_docking_weight1_custom_product_contain_oxygen_bond_distance_aromatic_linkinvent_7_9_3/rearranged_h_0006.sdf

> <i_m_source_file_index>
17

> <r_mmod_Potential_Energy-OPLS-2005>
-233.301727294922

> <r_mmod_Stretch_Energy-OPLS-2005>
40.7665557861328

> <r_mmod_Bend_Energy-OPLS-2005>
118.138633728027

> <r_mmod_Torsional_Energy-OPLS-2005>
209.541488647461

> <r_mmod_Improper_Torsional_Energy-OPLS-2005>
9.26142120361328

> <r_mmod_Van_der_Waal_Energy-OPLS-2005>
167.954116821289

> <r_mmod_Electrostatic_Energy-OPLS-2005>
-371.551544189453

> <r_mmod_Solvation_Energy-OPLS-2005>
-429.016448974609

> <b_mmod_Minimization_Converged-OPLS-2005>
0

> <r_mmod_RMS_Derivative-OPLS-2005>
3.62757992744446

$$$$
18
                    3D
 Structure written by MMmdl.
161171  0  0  1  0            999 V2000
  -30.5066  -14.9042   20.4566 C   0  0  0  0  0  0
  -30.4561  -12.5604   19.4900 C   0  0  0  0  0  0
  -29.5249  -12.5426   18.2525 C   0  0  0  0  0  0
  -28.0543  -12.3325   18.6653 C   0  0  0  0  0  0
  -27.6418  -13.2376   19.8556 C   0  0  2  0  0  0
  -28.6883  -13.1861   20.9902 C   0  0  0  0  0  0
  -25.2469  -13.8184   20.5614 C   0  0  0  0  0  0
  -24.1797  -13.0431   20.9217 C   0  0  0  0  0  0
  -24.6410  -11.6916   20.8773 C   0  0  0  0  0  0
  -23.9082  -10.4293   21.0425 C   0  0  0  0  0  0
  -24.3628   -9.4201   21.9195 C   0  0  0  0  0  0
  -23.6299   -8.2242   22.0756 C   0  0  0  0  0  0
  -22.4281   -8.0286   21.3546 C   0  0  0  0  0  0
  -21.9919   -9.0265   20.4651 C   0  0  0  0  0  0
  -22.7255  -10.2143   20.3068 C   0  0  0  0  0  0
  -21.6857   -6.0738   22.5278 C   0  0  0  0  0  0
  -21.4019   -6.5643   23.8211 C   0  0  0  0  0  0
  -21.3659   -5.6796   24.9173 C   0  0  0  0  0  0
  -21.6044   -4.3058   24.7222 C   0  0  0  0  0  0
  -21.8818   -3.8148   23.4342 C   0  0  0  0  0  0
  -21.9191   -4.6964   22.3397 C   0  0  0  0  0  0
  -22.7821  -13.5214   21.1874 C   0  0  0  0  0  0
  -22.1661   -4.2148   21.0974 F   0  0  0  0  0  0
  -21.5620   -3.4544   25.7734 F   0  0  0  0  0  0
  -29.9731  -13.6191   20.4184 N   0  0  0  0  0  0
  -26.2937  -12.9415   20.3300 N   0  0  0  0  0  0
  -25.9349  -11.6551   20.5796 N   0  0  0  0  0  0
  -22.0469  -12.8212   22.0436 N   0  0  0  0  0  0
  -25.4026  -15.1888   20.3776 N   0  0  0  0  0  0
  -31.6774  -15.0633   20.0916 O   0  0  0  0  0  0
  -21.6645   -6.8886   21.4244 O   0  0  0  0  0  0
  -22.3503  -14.5511   20.6705 O   0  0  0  0  0  0
  -24.6410  -31.8461   23.1907 C   0  0  0  0  0  0
  -25.9190  -32.4707   23.8288 C   0  0  1  0  0  0
  -27.2207  -27.1585   20.1477 C   0  0  0  0  0  0
  -25.5956  -33.8512   24.2210 N   0  0  0  0  0  0
  -23.4441  -30.4668   21.5351 C   0  0  2  0  0  0
  -24.8942  -28.8983   20.1111 C   0  0  0  0  0  0
  -22.7558  -29.4555   22.4858 C   0  0  0  0  0  0
  -18.0308  -28.1397   22.8474 C   0  0  0  0  0  0
  -24.1494  -36.7262   23.2639 C   0  0  0  0  0  0
  -25.9989  -30.7276   21.3864 C   0  0  0  0  0  0
  -26.0713  -29.3408   20.7276 C   0  0  0  0  0  0
  -27.2355  -28.4873   20.7294 C   0  0  0  0  0  0
  -26.0154  -26.8125   19.4947 C   0  0  0  0  0  0
  -24.8778  -27.6461   19.4806 C   0  0  0  0  0  0
  -23.6704  -29.7989   20.1536 C   0  0  0  0  0  0
  -25.4124  -36.3038   24.0316 C   0  0  1  0  0  0
  -20.5919  -28.3716   23.1236 C   0  0  2  0  0  0
  -20.6798  -26.9419   22.5398 C   0  0  0  0  0  0
  -19.5769  -26.6375   21.5213 C   0  0  0  0  0  0
  -18.1954  -26.7932   22.1628 C   0  0  0  0  0  0
  -19.1563  -28.8875   23.2850 C   0  0  0  0  0  0
  -18.9479  -30.1471   23.8877 C   0  0  0  0  0  0
  -17.6476  -30.6588   24.0557 C   0  0  0  0  0  0
  -25.9071  -34.9412   23.5069 C   0  0  0  0  0  0
  -16.5368  -29.9083   23.6332 C   0  0  0  0  0  0
  -16.7292  -28.6503   23.0352 C   0  0  0  0  0  0
  -26.4528  -31.6566   25.0714 C   0  0  0  0  0  0
  -25.3731  -31.3767   26.1426 C   0  0  0  0  0  0
  -27.0376  -30.2959   24.6276 C   0  0  0  0  0  0
  -27.6068  -32.4322   25.7494 C   0  0  0  0  0  0
  -27.5581  -37.1785   24.8461 C   0  0  0  0  0  0
  -21.4253  -29.3048   22.3610 N   0  0  0  0  0  0
  -26.4290  -37.3746   23.9407 N   0  0  0  0  0  0
  -24.7142  -31.0338   22.0930 N   0  0  0  0  0  0
  -23.4211  -28.8097   23.2995 O   0  0  0  0  0  0
  -28.2799  -26.1854   20.2197 O   0  0  0  0  0  0
  -26.5647  -34.8900   22.4642 O   0  0  0  0  0  0
  -23.5533  -32.1328   23.7139 O   0  0  0  0  0  0
  -24.8447  -18.0687   24.9881 C   0  0  0  0  0  0
  -24.4886  -19.3954   24.6905 C   0  0  0  0  0  0
  -25.8102  -17.4094   24.2038 C   0  0  0  0  0  0
  -25.0942  -20.0551   23.6049 C   0  0  0  0  0  0
  -30.2968  -18.4336   20.0351 C   0  0  0  0  0  0
  -30.0218  -19.8595   19.9260 C   0  0  0  0  0  0
  -26.4340  -18.0698   23.1159 C   0  0  0  0  0  0
  -26.0668  -19.3972   22.8145 C   0  0  0  0  0  0
  -28.3235  -18.1583   21.3563 C   0  0  0  0  0  0
  -27.9914  -19.5800   21.1436 C   0  0  0  0  0  0
  -29.4629  -17.4933   20.7293 C   0  0  0  0  0  0
  -28.8494  -20.5146   20.4346 C   0  0  0  0  0  0
  -27.4424  -17.3464   22.2950 C   0  0  0  0  0  0
  -26.6590  -20.0918   21.6495 C   0  0  0  0  0  0
  -28.9886  -23.3499   20.3586 C   0  0  0  0  0  0
  -27.9919  -24.6711   20.0567 C   0  0  0  0  0  0
  -29.6392  -15.9644   20.8017 N   0  0  0  0  0  0
  -28.4404  -21.9162   20.1341 N   0  0  0  0  0  0
  -27.5623  -16.1277   22.4441 O   0  0  0  0  0  0
  -26.0554  -21.0418   21.1354 O   0  0  0  0  0  0
  -31.4868  -12.7378   19.1773 H   0  0  0  0  0  0
  -30.4580  -11.5883   19.9859 H   0  0  0  0  0  0
  -29.8330  -11.7625   17.5553 H   0  0  0  0  0  0
  -29.6196  -13.4860   17.7132 H   0  0  0  0  0  0
  -27.9372  -11.2847   18.9438 H   0  0  0  0  0  0
  -27.3932  -12.4986   17.8141 H   0  0  0  0  0  0
  -27.6257  -14.2559   19.4668 H   0  0  0  0  0  0
  -28.7661  -12.1775   21.3974 H   0  0  0  0  0  0
  -28.3952  -13.8190   21.8270 H   0  0  0  0  0  0
  -25.2772   -9.5668   22.4777 H   0  0  0  0  0  0
  -23.9999   -7.4634   22.7477 H   0  0  0  0  0  0
  -21.0845   -8.8796   19.8965 H   0  0  0  0  0  0
  -22.3716  -10.9690   19.6184 H   0  0  0  0  0  0
  -21.2024   -7.6155   23.9717 H   0  0  0  0  0  0
  -21.1480   -6.0526   25.9075 H   0  0  0  0  0  0
  -22.0596   -2.7610   23.2846 H   0  0  0  0  0  0
  -22.4086  -11.9877   22.4825 H   0  0  0  0  0  0
  -21.1089  -13.1246   22.2645 H   0  0  0  0  0  0
  -24.6174  -15.8253   20.4512 H   0  0  0  0  0  0
  -26.2269  -15.6107   19.9727 H   0  0  0  0  0  0
  -26.7252  -32.5324   23.1014 H   0  0  0  0  0  0
  -25.0108  -33.9640   25.0360 H   0  0  0  0  0  0
  -22.7455  -31.2921   21.3830 H   0  0  0  0  0  0
  -23.3760  -35.9588   23.3277 H   0  0  0  0  0  0
  -24.3582  -36.8915   22.2057 H   0  0  0  0  0  0
  -23.7238  -37.6448   23.6689 H   0  0  0  0  0  0
  -26.1522  -31.4836   20.6154 H   0  0  0  0  0  0
  -26.8704  -30.7774   22.0273 H   0  0  0  0  0  0
  -28.1316  -28.8217   21.2341 H   0  0  0  0  0  0
  -25.9140  -25.8564   19.0048 H   0  0  0  0  0  0
  -23.9782  -27.3014   18.9887 H   0  0  0  0  0  0
  -23.8091  -30.5758   19.4007 H   0  0  0  0  0  0
  -22.7848  -29.2433   19.8393 H   0  0  0  0  0  0
  -25.1308  -36.1878   25.0807 H   0  0  0  0  0  0
  -21.0018  -28.3307   24.1354 H   0  0  0  0  0  0
  -20.5709  -26.2321   23.3611 H   0  0  0  0  0  0
  -21.6661  -26.7439   22.1185 H   0  0  0  0  0  0
  -19.6931  -25.6282   21.1253 H   0  0  0  0  0  0
  -19.6708  -27.3171   20.6734 H   0  0  0  0  0  0
  -17.4217  -26.6660   21.4042 H   0  0  0  0  0  0
  -18.0366  -26.0087   22.9039 H   0  0  0  0  0  0
  -19.7957  -30.7293   24.2237 H   0  0  0  0  0  0
  -17.5030  -31.6269   24.5157 H   0  0  0  0  0  0
  -15.5367  -30.2980   23.7669 H   0  0  0  0  0  0
  -15.8693  -28.0816   22.7078 H   0  0  0  0  0  0
  -24.5842  -30.7202   25.7740 H   0  0  0  0  0  0
  -24.9015  -32.2968   26.4886 H   0  0  0  0  0  0
  -25.8011  -30.8877   27.0186 H   0  0  0  0  0  0
  -26.2974  -29.6688   24.1289 H   0  0  0  0  0  0
  -27.3999  -29.7254   25.4838 H   0  0  0  0  0  0
  -27.8887  -30.4196   23.9575 H   0  0  0  0  0  0
  -27.2670  -33.3635   26.2041 H   0  0  0  0  0  0
  -28.3900  -32.6864   25.0337 H   0  0  0  0  0  0
  -28.0713  -31.8466   26.5438 H   0  0  0  0  0  0
  -28.2582  -38.0096   24.7511 H   0  0  0  0  0  0
  -28.1094  -36.2624   24.6285 H   0  0  0  0  0  0
  -27.2294  -37.1423   25.8861 H   0  0  0  0  0  0
  -20.9452  -29.8767   21.6802 H   0  0  0  0  0  0
  -26.0161  -38.2812   24.1421 H   0  0  0  0  0  0
  -24.3762  -17.5551   25.8166 H   0  0  0  0  0  0
  -23.7475  -19.9047   25.2909 H   0  0  0  0  0  0
  -26.0662  -16.3863   24.4451 H   0  0  0  0  0  0
  -24.8035  -21.0735   23.3816 H   0  0  0  0  0  0
  -31.1822  -18.0578   19.5421 H   0  0  0  0  0  0
  -30.7165  -20.4536   19.3493 H   0  0  0  0  0  0
  -29.3265  -23.4099   21.3940 H   0  0  0  0  0  0
  -29.8878  -23.4569   19.7514 H   0  0  0  0  0  0
  -27.0944  -24.4904   20.6493 H   0  0  0  0  0  0
  -27.6806  -24.5515   19.0190 H   0  0  0  0  0  0
  -28.8149  -15.5460   21.2185 H   0  0  0  0  0  0
  -27.4201  -21.9712   20.1750 H   0  0  0  0  0  0
  1 25  1  0  0  0
  1 30  2  0  0  0
  1 87  1  0  0  0
  2  3  1  0  0  0
  2 25  1  0  0  0
  2 91  1  0  0  0
  2 92  1  0  0  0
  3  4  1  0  0  0
  3 93  1  0  0  0
  3 94  1  0  0  0
  4  5  1  0  0  0
  4 95  1  0  0  0
  4 96  1  0  0  0
  5  6  1  0  0  0
  5 26  1  0  0  0
  5 97  1  0  0  0
  6 25  1  0  0  0
  6 98  1  0  0  0
  6 99  1  0  0  0
  7  8  2  0  0  0
  7 26  1  0  0  0
  7 29  1  0  0  0
  8  9  1  0  0  0
  8 22  1  0  0  0
  9 10  1  0  0  0
  9 27  2  0  0  0
 10 11  2  0  0  0
 10 15  1  0  0  0
 11 12  1  0  0  0
 11100  1  0  0  0
 12 13  2  0  0  0
 12101  1  0  0  0
 13 14  1  0  0  0
 13 31  1  0  0  0
 14 15  2  0  0  0
 14102  1  0  0  0
 15103  1  0  0  0
 16 17  2  0  0  0
 16 21  1  0  0  0
 16 31  1  0  0  0
 17 18  1  0  0  0
 17104  1  0  0  0
 18 19  2  0  0  0
 18105  1  0  0  0
 19 20  1  0  0  0
 19 24  1  0  0  0
 20 21  2  0  0  0
 20106  1  0  0  0
 21 23  1  0  0  0
 22 28  1  0  0  0
 22 32  2  0  0  0
 26 27  1  0  0  0
 28107  1  0  0  0
 28108  1  0  0  0
 29109  1  0  0  0
 29110  1  0  0  0
 33 34  1  0  0  0
 33 66  1  0  0  0
 33 70  2  0  0  0
 34 36  1  0  0  0
 34 59  1  0  0  0
 34111  1  0  0  0
 35 44  2  0  0  0
 35 45  1  0  0  0
 35 68  1  0  0  0
 36 56  1  0  0  0
 36112  1  0  0  0
 37 39  1  0  0  0
 37 47  1  0  0  0
 37 66  1  0  0  0
 37113  1  0  0  0
 38 43  2  0  0  0
 38 46  1  0  0  0
 38 47  1  0  0  0
 39 64  1  0  0  0
 39 67  2  0  0  0
 40 52  1  0  0  0
 40 53  2  0  0  0
 40 58  1  0  0  0
 41114  1  0  0  0
 41115  1  0  0  0
 41116  1  0  0  0
 41 48  1  0  0  0
 42 43  1  0  0  0
 42 66  1  0  0  0
 42117  1  0  0  0
 42118  1  0  0  0
 43 44  1  0  0  0
 44119  1  0  0  0
 45 46  2  0  0  0
 45120  1  0  0  0
 46121  1  0  0  0
 47122  1  0  0  0
 47123  1  0  0  0
 48 56  1  0  0  0
 48 65  1  0  0  0
 48124  1  0  0  0
 49 50  1  0  0  0
 49 53  1  0  0  0
 49 64  1  0  0  0
 49125  1  0  0  0
 50 51  1  0  0  0
 50126  1  0  0  0
 50127  1  0  0  0
 51 52  1  0  0  0
 51128  1  0  0  0
 51129  1  0  0  0
 52130  1  0  0  0
 52131  1  0  0  0
 53 54  1  0  0  0
 54 55  2  0  0  0
 54132  1  0  0  0
 55 57  1  0  0  0
 55133  1  0  0  0
 56 69  2  0  0  0
 57 58  2  0  0  0
 57134  1  0  0  0
 58135  1  0  0  0
 59 60  1  0  0  0
 59 61  1  0  0  0
 59 62  1  0  0  0
 60136  1  0  0  0
 60137  1  0  0  0
 60138  1  0  0  0
 61139  1  0  0  0
 61140  1  0  0  0
 61141  1  0  0  0
 62142  1  0  0  0
 62143  1  0  0  0
 62144  1  0  0  0
 63 65  1  0  0  0
 63145  1  0  0  0
 63146  1  0  0  0
 63147  1  0  0  0
 64148  1  0  0  0
 65149  1  0  0  0
 68 86  1  0  0  0
 71 72  2  0  0  0
 71 73  1  0  0  0
 71150  1  0  0  0
 72 74  1  0  0  0
 72151  1  0  0  0
 73 77  2  0  0  0
 73152  1  0  0  0
 74 78  2  0  0  0
 74153  1  0  0  0
 75 76  1  0  0  0
 75 81  2  0  0  0
 75154  1  0  0  0
 76 82  2  0  0  0
 76155  1  0  0  0
 77 78  1  0  0  0
 77 83  1  0  0  0
 78 84  1  0  0  0
 79 80  2  0  0  0
 79 81  1  0  0  0
 79 83  1  0  0  0
 80 82  1  0  0  0
 80 84  1  0  0  0
 81 87  1  0  0  0
 82 88  1  0  0  0
 83 89  2  0  0  0
 84 90  2  0  0  0
 85 86  1  0  0  0
 85 88  1  0  0  0
 85156  1  0  0  0
 85157  1  0  0  0
 86158  1  0  0  0
 86159  1  0  0  0
 87160  1  0  0  0
 88161  1  0  0  0
M  ISO  4   1 100  68 101  86 101  87 100
M  END
> <chiral flag>
0

> <version>
0

> <s_m_source_file>
/data/baiqing/PycharmProjects/Reinvent-master-3.2/result/LINK_invent/BTK/process_docking_weight1_custom_product_contain_oxygen_bond_distance_aromatic_linkinvent_7_9_3/rearranged_h_0006.sdf

> <i_m_source_file_index>
18

> <r_mmod_Potential_Energy-OPLS-2005>
631.521728515625

> <r_mmod_Stretch_Energy-OPLS-2005>
232.107482910156

> <r_mmod_Bend_Energy-OPLS-2005>
278.885345458984

> <r_mmod_Torsional_Energy-OPLS-2005>
239.846649169922

> <r_mmod_Improper_Torsional_Energy-OPLS-2005>
7.05930185317993

> <r_mmod_Van_der_Waal_Energy-OPLS-2005>
187.21240234375

> <r_mmod_Electrostatic_Energy-OPLS-2005>
-261.348114013672

> <r_mmod_Solvation_Energy-OPLS-2005>
-220.436630249023

> <b_mmod_Minimization_Converged-OPLS-2005>
0

> <r_mmod_RMS_Derivative-OPLS-2005>
1.22720158100128

$$$$
19
                    3D
 Structure written by MMmdl.
169178  0  0  1  0            999 V2000
  -30.6521  -14.4645   20.6037 C   0  0  0  0  0  0
  -30.4443  -12.2967   19.4345 C   0  0  0  0  0  0
  -29.5249  -12.4787   18.2133 C   0  0  0  0  0  0
  -28.0390  -12.3240   18.6293 C   0  0  0  0  0  0
  -27.6583  -13.1833   19.8688 C   0  0  2  0  0  0
  -28.6925  -12.9408   20.9931 C   0  0  0  0  0  0
  -25.2504  -13.8013   20.5579 C   0  0  0  0  0  0
  -24.1760  -13.0363   20.9176 C   0  0  0  0  0  0
  -24.6263  -11.6824   20.8736 C   0  0  0  0  0  0
  -23.8907  -10.4264   21.0401 C   0  0  0  0  0  0
  -24.3495   -9.4200   21.9188 C   0  0  0  0  0  0
  -23.6200   -8.2228   22.0749 C   0  0  0  0  0  0
  -22.4211   -8.0235   21.3525 C   0  0  0  0  0  0
  -21.9820   -9.0198   20.4633 C   0  0  0  0  0  0
  -22.7092  -10.2095   20.3030 C   0  0  0  0  0  0
  -21.6863   -6.0661   22.5249 C   0  0  0  0  0  0
  -21.4025   -6.5574   23.8176 C   0  0  0  0  0  0
  -21.3678   -5.6744   24.9164 C   0  0  0  0  0  0
  -21.6043   -4.3010   24.7234 C   0  0  0  0  0  0
  -21.8819   -3.8075   23.4376 C   0  0  0  0  0  0
  -21.9199   -4.6881   22.3400 C   0  0  0  0  0  0
  -22.7820  -13.5203   21.1899 C   0  0  0  0  0  0
  -22.1645   -4.2037   21.0995 F   0  0  0  0  0  0
  -21.5669   -3.4521   25.7776 F   0  0  0  0  0  0
  -30.0193  -13.2758   20.4422 N   0  0  0  0  0  0
  -26.2927  -12.9169   20.3242 N   0  0  0  0  0  0
  -25.9184  -11.6375   20.5732 N   0  0  0  0  0  0
  -22.0407  -12.8231   22.0446 N   0  0  0  0  0  0
  -25.4174  -15.1702   20.3845 N   0  0  0  0  0  0
  -31.8163  -14.6624   20.2278 O   0  0  0  0  0  0
  -21.6630   -6.8808   21.4200 O   0  0  0  0  0  0
  -22.3540  -14.5561   20.6795 O   0  0  0  0  0  0
  -24.6122  -31.8763   23.2183 C   0  0  0  0  0  0
  -25.9033  -32.4857   23.8431 C   0  0  1  0  0  0
  -27.2032  -27.4411   20.0650 C   0  0  0  0  0  0
  -25.5923  -33.8651   24.2364 N   0  0  0  0  0  0
  -23.3958  -30.5065   21.5602 C   0  0  2  0  0  0
  -24.8287  -28.9784   20.1144 C   0  0  0  0  0  0
  -22.7410  -29.4728   22.5012 C   0  0  0  0  0  0
  -18.0247  -28.1438   22.8505 C   0  0  0  0  0  0
  -24.1492  -36.7302   23.2628 C   0  0  0  0  0  0
  -25.9290  -30.8293   21.3809 C   0  0  0  0  0  0
  -25.9927  -29.4726   20.7126 C   0  0  0  0  0  0
  -27.1816  -28.7099   20.6914 C   0  0  0  0  0  0
  -26.0146  -26.9652   19.4637 C   0  0  0  0  0  0
  -24.8323  -27.7204   19.4918 C   0  0  0  0  0  0
  -23.5951  -29.8502   20.1705 C   0  0  0  0  0  0
  -25.4124  -36.3132   24.0330 C   0  0  1  0  0  0
  -20.5814  -28.3762   23.1311 C   0  0  2  0  0  0
  -20.6740  -26.9489   22.5474 C   0  0  0  0  0  0
  -19.5752  -26.6415   21.5302 C   0  0  0  0  0  0
  -18.1884  -26.8025   22.1563 C   0  0  0  0  0  0
  -19.1493  -28.8929   23.2918 C   0  0  0  0  0  0
  -18.9411  -30.1509   23.8937 C   0  0  0  0  0  0
  -17.6432  -30.6635   24.0565 C   0  0  0  0  0  0
  -25.9059  -34.9512   23.5151 C   0  0  0  0  0  0
  -16.5326  -29.9112   23.6380 C   0  0  0  0  0  0
  -16.7238  -28.6540   23.0372 C   0  0  0  0  0  0
  -26.4465  -31.6626   25.0763 C   0  0  0  0  0  0
  -25.3687  -31.3710   26.1464 C   0  0  0  0  0  0
  -27.0310  -30.3078   24.6154 C   0  0  0  0  0  0
  -27.6070  -32.4338   25.7478 C   0  0  0  0  0  0
  -27.5590  -37.1800   24.8473 C   0  0  0  0  0  0
  -21.4143  -29.3118   22.3735 N   0  0  0  0  0  0
  -26.4330  -37.3810   23.9395 N   0  0  0  0  0  0
  -24.6645  -31.0853   22.1063 N   0  0  0  0  0  0
  -23.4193  -28.8210   23.3001 O   0  0  0  0  0  0
  -28.3869  -26.7326   20.0632 O   0  0  0  0  0  0
  -26.5639  -34.8941   22.4720 O   0  0  0  0  0  0
  -23.5325  -32.1498   23.7616 O   0  0  0  0  0  0
  -30.0766  -18.2680   24.1151 C   0  0  0  0  0  0
  -31.0464  -17.2636   23.9812 C   0  0  0  0  0  0
  -29.0939  -18.4339   23.1199 C   0  0  0  0  0  0
  -31.0029  -16.3843   22.8889 C   0  0  0  0  0  0
  -29.0531  -17.5949   21.9688 C   0  0  0  0  0  0
  -29.9935  -16.5161   21.9015 C   0  0  0  0  0  0
  -27.2869  -20.3202   21.3424 C   0  0  0  0  0  0
  -27.0124  -19.3544   19.0115 C   0  0  0  0  0  0
  -26.6424  -21.5355   20.6498 C   0  0  0  0  0  0
  -27.8099  -20.6276   18.6467 C   0  0  0  0  0  0
  -27.1107  -19.0112   20.5292 C   0  0  2  0  0  0
  -28.0593  -17.7776   20.7860 C   0  0  0  0  0  0
  -27.8650  -24.2813   20.0019 C   0  0  0  0  0  0
  -28.3002  -22.9488   19.3393 C   0  0  0  0  0  0
  -28.4841  -25.5196   19.3039 C   0  0  0  0  0  0
  -29.8222  -15.4769   20.9350 N   0  0  0  0  0  0
  -27.2910  -21.8423   19.3393 N   0  3  2  0  0  0
  -31.4924  -12.4022   19.1590 H   0  0  0  0  0  0
  -30.3474  -11.2825   19.8207 H   0  0  0  0  0  0
  -29.7739  -11.7325   17.4562 H   0  0  0  0  0  0
  -29.7085  -13.4572   17.7583 H   0  0  0  0  0  0
  -27.8949  -11.2763   18.8815 H   0  0  0  0  0  0
  -27.3714  -12.5169   17.7876 H   0  0  0  0  0  0
  -27.7101  -14.2299   19.5590 H   0  0  0  0  0  0
  -28.6717  -11.8884   21.2888 H   0  0  0  0  0  0
  -28.4584  -13.4995   21.9026 H   0  0  0  0  0  0
  -25.2649   -9.5737   22.4759 H   0  0  0  0  0  0
  -23.9927   -7.4637   22.7482 H   0  0  0  0  0  0
  -21.0759   -8.8676   19.8956 H   0  0  0  0  0  0
  -22.3514  -10.9622   19.6131 H   0  0  0  0  0  0
  -21.1993   -7.6085   23.9625 H   0  0  0  0  0  0
  -21.1519   -6.0517   25.9054 H   0  0  0  0  0  0
  -22.0591   -2.7530   23.2922 H   0  0  0  0  0  0
  -22.4005  -11.9902   22.4896 H   0  0  0  0  0  0
  -21.0980  -13.1307   22.2520 H   0  0  0  0  0  0
  -24.6419  -15.8175   20.4737 H   0  0  0  0  0  0
  -26.2204  -15.5788   19.9323 H   0  0  0  0  0  0
  -26.7089  -32.5548   23.1160 H   0  0  0  0  0  0
  -25.0058  -33.9839   25.0491 H   0  0  0  0  0  0
  -22.6826  -31.3257   21.4354 H   0  0  0  0  0  0
  -23.3788  -35.9600   23.3349 H   0  0  0  0  0  0
  -24.3572  -36.8880   22.2033 H   0  0  0  0  0  0
  -23.7216  -37.6498   23.6625 H   0  0  0  0  0  0
  -26.0698  -31.6037   20.6276 H   0  0  0  0  0  0
  -26.8031  -30.8520   22.0196 H   0  0  0  0  0  0
  -28.0819  -29.0896   21.1499 H   0  0  0  0  0  0
  -25.9656  -26.0179   18.9504 H   0  0  0  0  0  0
  -23.9306  -27.3420   19.0263 H   0  0  0  0  0  0
  -23.6947  -30.6306   19.4172 H   0  0  0  0  0  0
  -22.7129  -29.2774   19.8776 H   0  0  0  0  0  0
  -25.1299  -36.2021   25.0828 H   0  0  0  0  0  0
  -20.9840  -28.3358   24.1435 H   0  0  0  0  0  0
  -20.5759  -26.2379   23.3699 H   0  0  0  0  0  0
  -21.6557  -26.7579   22.1125 H   0  0  0  0  0  0
  -19.6923  -25.6256   21.1514 H   0  0  0  0  0  0
  -19.6840  -27.3128   20.6746 H   0  0  0  0  0  0
  -17.4304  -26.6912   21.3792 H   0  0  0  0  0  0
  -18.0058  -26.0117   22.8824 H   0  0  0  0  0  0
  -19.7878  -30.7350   24.2283 H   0  0  0  0  0  0
  -17.4937  -31.6320   24.5116 H   0  0  0  0  0  0
  -15.5320  -30.3015   23.7697 H   0  0  0  0  0  0
  -15.8573  -28.0927   22.7070 H   0  0  0  0  0  0
  -24.5856  -30.7107   25.7730 H   0  0  0  0  0  0
  -24.8855  -32.2849   26.4932 H   0  0  0  0  0  0
  -25.7942  -30.8797   27.0217 H   0  0  0  0  0  0
  -26.2874  -29.6813   24.1214 H   0  0  0  0  0  0
  -27.4122  -29.7340   25.4611 H   0  0  0  0  0  0
  -27.8697  -30.4433   23.9318 H   0  0  0  0  0  0
  -27.2762  -33.3666   26.2056 H   0  0  0  0  0  0
  -28.3823  -32.6873   25.0234 H   0  0  0  0  0  0
  -28.0783  -31.8454   26.5357 H   0  0  0  0  0  0
  -28.2639  -38.0072   24.7526 H   0  0  0  0  0  0
  -28.1063  -36.2608   24.6317 H   0  0  0  0  0  0
  -27.2299  -37.1462   25.8877 H   0  0  0  0  0  0
  -20.9335  -29.8914   21.6997 H   0  0  0  0  0  0
  -26.0242  -38.2906   24.1365 H   0  0  0  0  0  0
  -30.0976  -18.9141   24.9853 H   0  0  0  0  0  0
  -31.8103  -17.1492   24.7363 H   0  0  0  0  0  0
  -28.3611  -19.1978   23.3012 H   0  0  0  0  0  0
  -31.7340  -15.5866   22.8665 H   0  0  0  0  0  0
  -26.8193  -20.2240   22.3249 H   0  0  0  0  0  0
  -28.3463  -20.5287   21.4785 H   0  0  0  0  0  0
  -27.3496  -18.5200   18.3972 H   0  0  0  0  0  0
  -25.9655  -19.4925   18.7370 H   0  0  0  0  0  0
  -26.6227  -22.3948   21.3208 H   0  0  0  0  0  0
  -25.5937  -21.3004   20.4477 H   0  0  0  0  0  0
  -27.7858  -20.8029   17.5685 H   0  0  0  0  0  0
  -28.8580  -20.4622   18.9143 H   0  0  0  0  0  0
  -26.1129  -18.6502   20.7860 H   0  0  0  0  0  0
  -28.7171  -17.7269   19.9214 H   0  0  0  0  0  0
  -27.4515  -16.8781   20.7057 H   0  0  0  0  0  0
  -28.1637  -24.2796   21.0523 H   0  0  0  0  0  0
  -26.7798  -24.3549   20.0075 H   0  0  0  0  0  0
  -29.2354  -22.6149   19.7977 H   0  0  0  0  0  0
  -28.5358  -23.1492   18.2919 H   0  0  0  0  0  0
  -28.0792  -25.6499   18.2976 H   0  0  0  0  0  0
  -29.5514  -25.3491   19.1555 H   0  0  0  0  0  0
  -28.8578  -15.2702   20.7263 H   0  0  0  0  0  0
  -26.5277  -22.1689   18.7641 H   0  0  0  0  0  0
  1 25  1  0  0  0
  1 30  2  0  0  0
  1 86  1  0  0  0
  2  3  1  0  0  0
  2 25  1  0  0  0
  2 88  1  0  0  0
  2 89  1  0  0  0
  3  4  1  0  0  0
  3 90  1  0  0  0
  3 91  1  0  0  0
  4  5  1  0  0  0
  4 92  1  0  0  0
  4 93  1  0  0  0
  5  6  1  0  0  0
  5 26  1  0  0  0
  5 94  1  0  0  0
  6 25  1  0  0  0
  6 95  1  0  0  0
  6 96  1  0  0  0
  7  8  2  0  0  0
  7 26  1  0  0  0
  7 29  1  0  0  0
  8  9  1  0  0  0
  8 22  1  0  0  0
  9 10  1  0  0  0
  9 27  2  0  0  0
 10 11  2  0  0  0
 10 15  1  0  0  0
 11 12  1  0  0  0
 11 97  1  0  0  0
 12 13  2  0  0  0
 12 98  1  0  0  0
 13 14  1  0  0  0
 13 31  1  0  0  0
 14 15  2  0  0  0
 14 99  1  0  0  0
 15100  1  0  0  0
 16 17  2  0  0  0
 16 21  1  0  0  0
 16 31  1  0  0  0
 17 18  1  0  0  0
 17101  1  0  0  0
 18 19  2  0  0  0
 18102  1  0  0  0
 19 20  1  0  0  0
 19 24  1  0  0  0
 20 21  2  0  0  0
 20103  1  0  0  0
 21 23  1  0  0  0
 22 28  1  0  0  0
 22 32  2  0  0  0
 26 27  1  0  0  0
 28104  1  0  0  0
 28105  1  0  0  0
 29106  1  0  0  0
 29107  1  0  0  0
 33 34  1  0  0  0
 33 66  1  0  0  0
 33 70  2  0  0  0
 34 36  1  0  0  0
 34 59  1  0  0  0
 34108  1  0  0  0
 35 44  2  0  0  0
 35 45  1  0  0  0
 35 68  1  0  0  0
 36 56  1  0  0  0
 36109  1  0  0  0
 37 39  1  0  0  0
 37 47  1  0  0  0
 37 66  1  0  0  0
 37110  1  0  0  0
 38 43  2  0  0  0
 38 46  1  0  0  0
 38 47  1  0  0  0
 39 64  1  0  0  0
 39 67  2  0  0  0
 40 52  1  0  0  0
 40 53  2  0  0  0
 40 58  1  0  0  0
 41111  1  0  0  0
 41112  1  0  0  0
 41113  1  0  0  0
 41 48  1  0  0  0
 42 43  1  0  0  0
 42 66  1  0  0  0
 42114  1  0  0  0
 42115  1  0  0  0
 43 44  1  0  0  0
 44116  1  0  0  0
 45 46  2  0  0  0
 45117  1  0  0  0
 46118  1  0  0  0
 47119  1  0  0  0
 47120  1  0  0  0
 48 56  1  0  0  0
 48 65  1  0  0  0
 48121  1  0  0  0
 49 50  1  0  0  0
 49 53  1  0  0  0
 49 64  1  0  0  0
 49122  1  0  0  0
 50 51  1  0  0  0
 50123  1  0  0  0
 50124  1  0  0  0
 51 52  1  0  0  0
 51125  1  0  0  0
 51126  1  0  0  0
 52127  1  0  0  0
 52128  1  0  0  0
 53 54  1  0  0  0
 54 55  2  0  0  0
 54129  1  0  0  0
 55 57  1  0  0  0
 55130  1  0  0  0
 56 69  2  0  0  0
 57 58  2  0  0  0
 57131  1  0  0  0
 58132  1  0  0  0
 59 60  1  0  0  0
 59 61  1  0  0  0
 59 62  1  0  0  0
 60133  1  0  0  0
 60134  1  0  0  0
 60135  1  0  0  0
 61136  1  0  0  0
 61137  1  0  0  0
 61138  1  0  0  0
 62139  1  0  0  0
 62140  1  0  0  0
 62141  1  0  0  0
 63 65  1  0  0  0
 63142  1  0  0  0
 63143  1  0  0  0
 63144  1  0  0  0
 64145  1  0  0  0
 65146  1  0  0  0
 68 85  1  0  0  0
 71 72  2  0  0  0
 71 73  1  0  0  0
 71147  1  0  0  0
 72 74  1  0  0  0
 72148  1  0  0  0
 73 75  2  0  0  0
 73149  1  0  0  0
 74 76  2  0  0  0
 74150  1  0  0  0
 75 76  1  0  0  0
 75 82  1  0  0  0
 76 86  1  0  0  0
 77 79  1  0  0  0
 77 81  1  0  0  0
 77151  1  0  0  0
 77152  1  0  0  0
 78 80  1  0  0  0
 78 81  1  0  0  0
 78153  1  0  0  0
 78154  1  0  0  0
 79 87  1  0  0  0
 79155  1  0  0  0
 79156  1  0  0  0
 80 87  1  0  0  0
 80157  1  0  0  0
 80158  1  0  0  0
 81 82  1  0  0  0
 81159  1  0  0  0
 82160  1  0  0  0
 82161  1  0  0  0
 83 84  1  0  0  0
 83 85  1  0  0  0
 83162  1  0  0  0
 83163  1  0  0  0
 84164  1  0  0  0
 84165  1  0  0  0
 84 87  1  0  0  0
 85166  1  0  0  0
 85167  1  0  0  0
 86168  1  0  0  0
 87169  1  0  0  0
M  CHG  1  87   1
M  ISO  4   1 100  68 101  85 101  86 100
M  END
> <chiral flag>
0

> <version>
0

> <s_m_source_file>
/data/baiqing/PycharmProjects/Reinvent-master-3.2/result/LINK_invent/BTK/process_docking_weight1_custom_product_contain_oxygen_bond_distance_aromatic_linkinvent_7_9_3/rearranged_h_0006.sdf

> <i_m_source_file_index>
19

> <r_mmod_Potential_Energy-OPLS-2005>
0.36333492398262

> <r_mmod_Stretch_Energy-OPLS-2005>
46.4438400268555

> <r_mmod_Bend_Energy-OPLS-2005>
146.065521240234

> <r_mmod_Torsional_Energy-OPLS-2005>
292.586059570312

> <r_mmod_Improper_Torsional_Energy-OPLS-2005>
9.22636127471924

> <r_mmod_Van_der_Waal_Energy-OPLS-2005>
177.633255004883

> <r_mmod_Electrostatic_Energy-OPLS-2005>
-239.590515136719

> <r_mmod_Solvation_Energy-OPLS-2005>
-450.028656005859

> <b_mmod_Minimization_Converged-OPLS-2005>
0

> <r_mmod_RMS_Derivative-OPLS-2005>
8.72197532653809

$$$$
20
                    3D
 Structure written by MMmdl.
182192  0  0  1  0            999 V2000
  -30.7176  -14.4239   20.6003 C   0  0  0  0  0  0
  -30.4191  -12.2854   19.4173 C   0  0  0  0  0  0
  -29.4924  -12.5107   18.2043 C   0  0  0  0  0  0
  -28.0137  -12.3689   18.6165 C   0  0  0  0  0  0
  -27.6635  -13.2018   19.8776 C   0  0  2  0  0  0
  -28.7010  -12.9611   20.9976 C   0  0  0  0  0  0
  -25.2583  -13.8151   20.5671 C   0  0  0  0  0  0
  -24.1830  -13.0443   20.9177 C   0  0  0  0  0  0
  -24.6385  -11.6911   20.8742 C   0  0  0  0  0  0
  -23.9050  -10.4303   21.0416 C   0  0  0  0  0  0
  -24.3605   -9.4216   21.9193 C   0  0  0  0  0  0
  -23.6283   -8.2253   22.0765 C   0  0  0  0  0  0
  -22.4262   -8.0299   21.3557 C   0  0  0  0  0  0
  -21.9894   -9.0271   20.4654 C   0  0  0  0  0  0
  -22.7229  -10.2153   20.3067 C   0  0  0  0  0  0
  -21.6849   -6.0746   22.5289 C   0  0  0  0  0  0
  -21.4012   -6.5641   23.8223 C   0  0  0  0  0  0
  -21.3656   -5.6791   24.9181 C   0  0  0  0  0  0
  -21.6042   -4.3054   24.7225 C   0  0  0  0  0  0
  -21.8812   -3.8155   23.4344 C   0  0  0  0  0  0
  -21.9190   -4.6975   22.3405 C   0  0  0  0  0  0
  -22.7853  -13.5259   21.1831 C   0  0  0  0  0  0
  -22.1661   -4.2166   21.0985 F   0  0  0  0  0  0
  -21.5624   -3.4540   25.7736 F   0  0  0  0  0  0
  -30.0407  -13.2551   20.4551 N   0  0  0  0  0  0
  -26.3018  -12.9321   20.3359 N   0  0  0  0  0  0
  -25.9296  -11.6484   20.5733 N   0  0  0  0  0  0
  -22.0475  -12.8280   22.0391 N   0  0  0  0  0  0
  -25.4308  -15.1862   20.4071 N   0  0  0  0  0  0
  -31.8323  -14.6252   20.1062 O   0  0  0  0  0  0
  -21.6630   -6.8890   21.4253 O   0  0  0  0  0  0
  -22.3548  -14.5573   20.6682 O   0  0  0  0  0  0
  -24.6105  -31.8700   23.2130 C   0  0  0  0  0  0
  -25.9013  -32.4835   23.8413 C   0  0  1  0  0  0
  -27.2453  -27.4796   20.0788 C   0  0  0  0  0  0
  -25.5879  -33.8629   24.2347 N   0  0  0  0  0  0
  -23.3969  -30.4927   21.5517 C   0  0  2  0  0  0
  -24.8455  -28.9576   20.1204 C   0  0  0  0  0  0
  -22.7388  -29.4671   22.5016 C   0  0  0  0  0  0
  -18.0269  -28.1369   22.8497 C   0  0  0  0  0  0
  -24.1480  -36.7324   23.2638 C   0  0  0  0  0  0
  -25.9206  -30.8489   21.3587 C   0  0  0  0  0  0
  -26.0010  -29.4826   20.7126 C   0  0  0  0  0  0
  -27.2031  -28.7482   20.6983 C   0  0  0  0  0  0
  -26.0722  -26.9451   19.5135 C   0  0  0  0  0  0
  -24.8718  -27.6828   19.5245 C   0  0  0  0  0  0
  -23.6045  -29.8197   20.1671 C   0  0  0  0  0  0
  -25.4095  -36.3119   24.0347 C   0  0  1  0  0  0
  -20.5856  -28.3649   23.1337 C   0  0  2  0  0  0
  -20.6757  -26.9387   22.5429 C   0  0  0  0  0  0
  -19.5738  -26.6385   21.5217 C   0  0  0  0  0  0
  -18.1915  -26.7919   22.1625 C   0  0  0  0  0  0
  -19.1517  -28.8824   23.2915 C   0  0  0  0  0  0
  -18.9449  -30.1430   23.8923 C   0  0  0  0  0  0
  -17.6452  -30.6575   24.0570 C   0  0  0  0  0  0
  -25.9022  -34.9483   23.5151 C   0  0  0  0  0  0
  -16.5343  -29.9083   23.6321 C   0  0  0  0  0  0
  -16.7259  -28.6500   23.0345 C   0  0  0  0  0  0
  -26.4460  -31.6600   25.0722 C   0  0  0  0  0  0
  -25.3751  -31.3694   26.1490 C   0  0  0  0  0  0
  -27.0277  -30.3052   24.6058 C   0  0  0  0  0  0
  -27.6056  -32.4300   25.7467 C   0  0  0  0  0  0
  -27.5581  -37.1807   24.8463 C   0  0  0  0  0  0
  -21.4121  -29.3025   22.3745 N   0  0  0  0  0  0
  -26.4285  -37.3798   23.9421 N   0  0  0  0  0  0
  -24.6609  -31.0838   22.1008 N   0  0  0  0  0  0
  -23.4181  -28.8213   23.3040 O   0  0  0  0  0  0
  -28.3990  -26.7388   20.0122 O   0  0  0  0  0  0
  -26.5587  -34.8930   22.4710 O   0  0  0  0  0  0
  -23.5310  -32.1433   23.7551 O   0  0  0  0  0  0
  -29.5831  -18.7811   19.7298 C   0  0  0  0  0  0
  -29.3296  -17.4529   20.1158 C   0  0  0  0  0  0
  -31.3668  -17.4618   21.4437 C   0  0  0  0  0  0
  -31.6265  -18.8030   21.0742 C   0  0  0  0  0  0
  -30.7414  -19.4693   20.1669 C   0  0  0  0  0  0
  -30.2476  -16.7733   20.9373 C   0  0  0  0  0  0
  -30.6281  -24.3977   18.3950 C   0  0  0  0  0  0
  -32.8566  -19.3932   21.6280 C   0  0  0  0  0  0
  -33.3408  -25.4376   18.5599 C   0  0  0  0  0  0
  -33.1544  -24.0022   18.0879 C   0  0  0  0  0  0
  -31.5948  -22.1107   17.6905 C   0  0  0  0  0  0
  -31.9373  -22.9903   20.0664 C   0  0  0  0  0  0
  -32.2249  -26.2834   17.9526 C   0  0  0  0  0  0
  -30.6302  -21.0645   18.2718 C   0  0  0  0  0  0
  -30.9387  -21.9148   20.5403 C   0  0  0  0  0  0
  -31.8102  -23.3884   18.5615 C   0  0  0  0  0  0
  -34.9658  -20.7305   21.2225 C   0  0  0  0  0  0
  -29.8161  -26.7137   18.0416 C   0  0  0  0  0  0
  -29.5028  -27.3889   19.3892 C   0  0  0  0  0  0
  -31.0041  -20.7609   19.6489 N   0  0  0  0  0  0
  -30.8862  -25.7147   18.1702 N   0  0  0  0  0  0
  -33.1554  -19.2473   22.9207 N   0  0  0  0  0  0
  -30.0436  -15.4022   21.2250 N   0  0  0  0  0  0
  -33.7062  -20.0679   20.8442 N   0  3  0  0  0  0
  -29.4704  -23.9808   18.4916 O   0  0  0  0  0  0
  -31.4649  -12.3784   19.1177 H   0  0  0  0  0  0
  -30.3077  -11.2696   19.8004 H   0  0  0  0  0  0
  -29.7302  -11.8012   17.4105 H   0  0  0  0  0  0
  -29.6627  -13.5034   17.7839 H   0  0  0  0  0  0
  -27.8215  -11.3131   18.8081 H   0  0  0  0  0  0
  -27.3631  -12.6502   17.7881 H   0  0  0  0  0  0
  -27.7167  -14.2511   19.5891 H   0  0  0  0  0  0
  -28.6658  -11.9208   21.3230 H   0  0  0  0  0  0
  -28.4608  -13.5462   21.8863 H   0  0  0  0  0  0
  -25.2760   -9.5684   22.4753 H   0  0  0  0  0  0
  -24.0007   -7.4632   22.7466 H   0  0  0  0  0  0
  -21.0834   -8.8783   19.8953 H   0  0  0  0  0  0
  -22.3696  -10.9686   19.6164 H   0  0  0  0  0  0
  -21.2012   -7.6149   23.9731 H   0  0  0  0  0  0
  -21.1476   -6.0519   25.9080 H   0  0  0  0  0  0
  -22.0592   -2.7621   23.2835 H   0  0  0  0  0  0
  -22.4073  -11.9955   22.4809 H   0  0  0  0  0  0
  -21.1099  -13.1338   22.2582 H   0  0  0  0  0  0
  -24.6583  -15.8362   20.5040 H   0  0  0  0  0  0
  -26.2745  -15.6266   20.0668 H   0  0  0  0  0  0
  -26.7093  -32.5571   23.1188 H   0  0  0  0  0  0
  -25.0023  -33.9788   25.0488 H   0  0  0  0  0  0
  -22.6836  -31.3078   21.4117 H   0  0  0  0  0  0
  -23.3736  -35.9665   23.3305 H   0  0  0  0  0  0
  -24.3578  -36.8926   22.2053 H   0  0  0  0  0  0
  -23.7238  -37.6535   23.6639 H   0  0  0  0  0  0
  -26.0243  -31.6139   20.5873 H   0  0  0  0  0  0
  -26.8114  -30.9084   21.9725 H   0  0  0  0  0  0
  -28.0947  -29.1558   21.1548 H   0  0  0  0  0  0
  -26.0972  -25.9684   19.0517 H   0  0  0  0  0  0
  -23.9811  -27.2668   19.0744 H   0  0  0  0  0  0
  -23.7092  -30.5912   19.4036 H   0  0  0  0  0  0
  -22.7314  -29.2346   19.8736 H   0  0  0  0  0  0
  -25.1265  -36.1993   25.0840 H   0  0  0  0  0  0
  -20.9951  -28.3212   24.1457 H   0  0  0  0  0  0
  -20.5658  -26.2252   23.3608 H   0  0  0  0  0  0
  -21.6630  -26.7428   22.1225 H   0  0  0  0  0  0
  -19.6896  -25.6305   21.1223 H   0  0  0  0  0  0
  -19.6678  -27.3214   20.6764 H   0  0  0  0  0  0
  -17.4189  -26.6679   21.4023 H   0  0  0  0  0  0
  -18.0306  -26.0048   22.9007 H   0  0  0  0  0  0
  -19.7924  -30.7241   24.2308 H   0  0  0  0  0  0
  -17.5007  -31.6261   24.5159 H   0  0  0  0  0  0
  -15.5344  -30.2997   23.7622 H   0  0  0  0  0  0
  -15.8661  -28.0828   22.7044 H   0  0  0  0  0  0
  -24.5913  -30.7043   25.7842 H   0  0  0  0  0  0
  -24.8954  -32.2848   26.4968 H   0  0  0  0  0  0
  -25.8133  -30.8852   27.0228 H   0  0  0  0  0  0
  -26.2800  -29.6817   24.1144 H   0  0  0  0  0  0
  -27.4098  -29.7278   25.4486 H   0  0  0  0  0  0
  -27.8613  -30.4380   23.9156 H   0  0  0  0  0  0
  -27.2692  -33.3585   26.2087 H   0  0  0  0  0  0
  -28.3835  -32.6878   25.0269 H   0  0  0  0  0  0
  -28.0752  -31.8394   26.5341 H   0  0  0  0  0  0
  -28.2602  -38.0102   24.7514 H   0  0  0  0  0  0
  -28.1069  -36.2638   24.6267 H   0  0  0  0  0  0
  -27.2307  -37.1439   25.8866 H   0  0  0  0  0  0
  -20.9273  -29.8753   21.6975 H   0  0  0  0  0  0
  -26.0183  -38.2879   24.1423 H   0  0  0  0  0  0
  -28.8752  -19.2559   19.0667 H   0  0  0  0  0  0
  -28.4547  -16.9469   19.7361 H   0  0  0  0  0  0
  -32.0633  -16.9406   22.0846 H   0  0  0  0  0  0
  -34.3148  -25.8168   18.2470 H   0  0  0  0  0  0
  -33.3197  -25.4915   19.6494 H   0  0  0  0  0  0
  -33.9967  -23.3956   18.4224 H   0  0  0  0  0  0
  -33.2034  -23.9862   16.9971 H   0  0  0  0  0  0
  -31.2450  -22.3959   16.6969 H   0  0  0  0  0  0
  -32.5536  -21.6172   17.5243 H   0  0  0  0  0  0
  -32.9453  -22.6316   20.2669 H   0  0  0  0  0  0
  -31.8260  -23.8726   20.7001 H   0  0  0  0  0  0
  -32.3805  -26.3740   16.8763 H   0  0  0  0  0  0
  -32.2851  -27.2944   18.3606 H   0  0  0  0  0  0
  -30.6658  -20.1635   17.6563 H   0  0  0  0  0  0
  -29.6021  -21.4281   18.2389 H   0  0  0  0  0  0
  -29.9236  -22.3153   20.5382 H   0  0  0  0  0  0
  -31.1495  -21.6361   21.5733 H   0  0  0  0  0  0
  -35.4690  -21.1182   20.3358 H   0  0  0  0  0  0
  -35.6468  -20.0391   21.7215 H   0  0  0  0  0  0
  -34.7740  -21.5702   21.8922 H   0  0  0  0  0  0
  -30.1346  -27.4766   17.3290 H   0  0  0  0  0  0
  -28.9121  -26.2919   17.5991 H   0  0  0  0  0  0
  -29.3113  -28.4469   19.2032 H   0  0  0  0  0  0
  -30.3625  -27.3569   20.0587 H   0  0  0  0  0  0
  -32.4849  -18.8096   23.5358 H   0  0  0  0  0  0
  -34.0041  -19.6122   23.3198 H   0  0  0  0  0  0
  -29.1262  -15.1384   21.5526 H   0  0  0  0  0  0
  -33.3373  -20.2661   19.9183 H   0  0  0  0  0  0
  1 25  1  0  0  0
  1 30  2  0  0  0
  1 93  1  0  0  0
  2  3  1  0  0  0
  2 25  1  0  0  0
  2 96  1  0  0  0
  2 97  1  0  0  0
  3  4  1  0  0  0
  3 98  1  0  0  0
  3 99  1  0  0  0
  4  5  1  0  0  0
  4100  1  0  0  0
  4101  1  0  0  0
  5  6  1  0  0  0
  5 26  1  0  0  0
  5102  1  0  0  0
  6 25  1  0  0  0
  6103  1  0  0  0
  6104  1  0  0  0
  7  8  2  0  0  0
  7 26  1  0  0  0
  7 29  1  0  0  0
  8  9  1  0  0  0
  8 22  1  0  0  0
  9 10  1  0  0  0
  9 27  2  0  0  0
 10 11  2  0  0  0
 10 15  1  0  0  0
 11 12  1  0  0  0
 11105  1  0  0  0
 12 13  2  0  0  0
 12106  1  0  0  0
 13 14  1  0  0  0
 13 31  1  0  0  0
 14 15  2  0  0  0
 14107  1  0  0  0
 15108  1  0  0  0
 16 17  2  0  0  0
 16 21  1  0  0  0
 16 31  1  0  0  0
 17 18  1  0  0  0
 17109  1  0  0  0
 18 19  2  0  0  0
 18110  1  0  0  0
 19 20  1  0  0  0
 19 24  1  0  0  0
 20 21  2  0  0  0
 20111  1  0  0  0
 21 23  1  0  0  0
 22 28  1  0  0  0
 22 32  2  0  0  0
 26 27  1  0  0  0
 28112  1  0  0  0
 28113  1  0  0  0
 29114  1  0  0  0
 29115  1  0  0  0
 33 34  1  0  0  0
 33 66  1  0  0  0
 33 70  2  0  0  0
 34 36  1  0  0  0
 34 59  1  0  0  0
 34116  1  0  0  0
 35 44  2  0  0  0
 35 45  1  0  0  0
 35 68  1  0  0  0
 36 56  1  0  0  0
 36117  1  0  0  0
 37 39  1  0  0  0
 37 47  1  0  0  0
 37 66  1  0  0  0
 37118  1  0  0  0
 38 43  2  0  0  0
 38 46  1  0  0  0
 38 47  1  0  0  0
 39 64  1  0  0  0
 39 67  2  0  0  0
 40 52  1  0  0  0
 40 53  2  0  0  0
 40 58  1  0  0  0
 41119  1  0  0  0
 41120  1  0  0  0
 41121  1  0  0  0
 41 48  1  0  0  0
 42 43  1  0  0  0
 42 66  1  0  0  0
 42122  1  0  0  0
 42123  1  0  0  0
 43 44  1  0  0  0
 44124  1  0  0  0
 45 46  2  0  0  0
 45125  1  0  0  0
 46126  1  0  0  0
 47127  1  0  0  0
 47128  1  0  0  0
 48 56  1  0  0  0
 48 65  1  0  0  0
 48129  1  0  0  0
 49 50  1  0  0  0
 49 53  1  0  0  0
 49 64  1  0  0  0
 49130  1  0  0  0
 50 51  1  0  0  0
 50131  1  0  0  0
 50132  1  0  0  0
 51 52  1  0  0  0
 51133  1  0  0  0
 51134  1  0  0  0
 52135  1  0  0  0
 52136  1  0  0  0
 53 54  1  0  0  0
 54 55  2  0  0  0
 54137  1  0  0  0
 55 57  1  0  0  0
 55138  1  0  0  0
 56 69  2  0  0  0
 57 58  2  0  0  0
 57139  1  0  0  0
 58140  1  0  0  0
 59 60  1  0  0  0
 59 61  1  0  0  0
 59 62  1  0  0  0
 60141  1  0  0  0
 60142  1  0  0  0
 60143  1  0  0  0
 61144  1  0  0  0
 61145  1  0  0  0
 61146  1  0  0  0
 62147  1  0  0  0
 62148  1  0  0  0
 62149  1  0  0  0
 63 65  1  0  0  0
 63150  1  0  0  0
 63151  1  0  0  0
 63152  1  0  0  0
 64153  1  0  0  0
 65154  1  0  0  0
 68 89  1  0  0  0
 71 72  2  0  0  0
 71 75  1  0  0  0
 71155  1  0  0  0
 72 76  1  0  0  0
 72156  1  0  0  0
 73 74  1  0  0  0
 73 76  2  0  0  0
 73157  1  0  0  0
 74 75  2  0  0  0
 74 78  1  0  0  0
 75 90  1  0  0  0
 76 93  1  0  0  0
 77 91  1  0  0  0
 77 95  2  0  0  0
 77 86  1  0  0  0
 78 92  1  0  0  0
 78 94  2  0  0  0
 79 80  1  0  0  0
 79 83  1  0  0  0
 79158  1  0  0  0
 79159  1  0  0  0
 80160  1  0  0  0
 80161  1  0  0  0
 80 86  1  0  0  0
 81 84  1  0  0  0
 81 86  1  0  0  0
 81162  1  0  0  0
 81163  1  0  0  0
 82 85  1  0  0  0
 82 86  1  0  0  0
 82164  1  0  0  0
 82165  1  0  0  0
 83 91  1  0  0  0
 83166  1  0  0  0
 83167  1  0  0  0
 84 90  1  0  0  0
 84168  1  0  0  0
 84169  1  0  0  0
 85 90  1  0  0  0
 85170  1  0  0  0
 85171  1  0  0  0
 87 94  1  0  0  0
 87172  1  0  0  0
 87173  1  0  0  0
 87174  1  0  0  0
 88 89  1  0  0  0
 88 91  1  0  0  0
 88175  1  0  0  0
 88176  1  0  0  0
 89177  1  0  0  0
 89178  1  0  0  0
 92179  1  0  0  0
 92180  1  0  0  0
 93181  1  0  0  0
 94182  1  0  0  0
M  CHG  1  94   1
M  ISO  4   1 100  68 101  89 101  93 100
M  END
> <chiral flag>
0

> <version>
0

> <s_m_source_file>
/data/baiqing/PycharmProjects/Reinvent-master-3.2/result/LINK_invent/BTK/process_docking_weight1_custom_product_contain_oxygen_bond_distance_aromatic_linkinvent_7_9_3/rearranged_h_0006.sdf

> <i_m_source_file_index>
20

> <r_mmod_Potential_Energy-OPLS-2005>
-122.468360900879

> <r_mmod_Stretch_Energy-OPLS-2005>
43.042236328125

> <r_mmod_Bend_Energy-OPLS-2005>
119.25422668457

> <r_mmod_Torsional_Energy-OPLS-2005>
331.612518310547

> <r_mmod_Improper_Torsional_Energy-OPLS-2005>
7.83265352249146

> <r_mmod_Van_der_Waal_Energy-OPLS-2005>
180.97200012207

> <r_mmod_Electrostatic_Energy-OPLS-2005>
-392.740234375

> <r_mmod_Solvation_Energy-OPLS-2005>
-420.438812255859

> <b_mmod_Minimization_Converged-OPLS-2005>
0

> <r_mmod_RMS_Derivative-OPLS-2005>
2.10182690620422

$$$$
21
                    3D
 Structure written by MMmdl.
153161  0  0  1  0            999 V2000
  -30.6491  -14.6309   20.4723 C   0  0  0  0  0  0
  -30.4348  -12.3768   19.4545 C   0  0  0  0  0  0
  -29.5080  -12.4964   18.2251 C   0  0  0  0  0  0
  -28.0318  -12.3382   18.6386 C   0  0  0  0  0  0
  -27.6552  -13.2180   19.8604 C   0  0  2  0  0  0
  -28.7027  -13.0879   20.9909 C   0  0  0  0  0  0
  -25.2566  -13.8179   20.5680 C   0  0  0  0  0  0
  -24.1827  -13.0440   20.9183 C   0  0  0  0  0  0
  -24.6406  -11.6914   20.8737 C   0  0  0  0  0  0
  -23.9069  -10.4292   21.0400 C   0  0  0  0  0  0
  -24.3615   -9.4210   21.9181 C   0  0  0  0  0  0
  -23.6294   -8.2245   22.0750 C   0  0  0  0  0  0
  -22.4275   -8.0281   21.3546 C   0  0  0  0  0  0
  -21.9912   -9.0251   20.4641 C   0  0  0  0  0  0
  -22.7238  -10.2134   20.3051 C   0  0  0  0  0  0
  -21.6853   -6.0736   22.5281 C   0  0  0  0  0  0
  -21.4012   -6.5639   23.8214 C   0  0  0  0  0  0
  -21.3664   -5.6790   24.9176 C   0  0  0  0  0  0
  -21.6044   -4.3054   24.7223 C   0  0  0  0  0  0
  -21.8820   -3.8148   23.4345 C   0  0  0  0  0  0
  -21.9191   -4.6964   22.3404 C   0  0  0  0  0  0
  -22.7848  -13.5231   21.1860 C   0  0  0  0  0  0
  -22.1660   -4.2147   21.0981 F   0  0  0  0  0  0
  -21.5632   -3.4541   25.7739 F   0  0  0  0  0  0
  -30.0218  -13.4116   20.4221 N   0  0  0  0  0  0
  -26.3013  -12.9366   20.3349 N   0  0  0  0  0  0
  -25.9341  -11.6514   20.5768 N   0  0  0  0  0  0
  -22.0495  -12.8209   22.0407 N   0  0  0  0  0  0
  -25.4276  -15.1894   20.4118 N   0  0  0  0  0  0
  -31.8125  -14.7702   20.0895 O   0  0  0  0  0  0
  -21.6641   -6.8877   21.4240 O   0  0  0  0  0  0
  -22.3534  -14.5536   20.6711 O   0  0  0  0  0  0
  -24.6231  -31.8606   23.2082 C   0  0  0  0  0  0
  -25.9076  -32.4804   23.8385 C   0  0  1  0  0  0
  -27.2227  -27.3336   20.0987 C   0  0  0  0  0  0
  -25.5918  -33.8602   24.2325 N   0  0  0  0  0  0
  -23.4190  -30.4894   21.5478 C   0  0  2  0  0  0
  -24.8642  -28.9502   20.1125 C   0  0  0  0  0  0
  -22.7479  -29.4639   22.4937 C   0  0  0  0  0  0
  -18.0294  -28.1389   22.8499 C   0  0  0  0  0  0
  -24.1491  -36.7293   23.2654 C   0  0  0  0  0  0
  -25.9626  -30.7928   21.3807 C   0  0  0  0  0  0
  -26.0339  -29.4243   20.7170 C   0  0  0  0  0  0
  -27.2146  -28.6267   20.7057 C   0  0  0  0  0  0
  -26.0213  -26.9069   19.4803 C   0  0  0  0  0  0
  -24.8577  -27.6954   19.4894 C   0  0  0  0  0  0
  -23.6348  -29.8315   20.1619 C   0  0  0  0  0  0
  -25.4117  -36.3111   24.0356 C   0  0  1  0  0  0
  -20.5887  -28.3686   23.1287 C   0  0  2  0  0  0
  -20.6785  -26.9411   22.5417 C   0  0  0  0  0  0
  -19.5756  -26.6394   21.5231 C   0  0  0  0  0  0
  -18.1939  -26.7938   22.1638 C   0  0  0  0  0  0
  -19.1542  -28.8861   23.2895 C   0  0  0  0  0  0
  -18.9464  -30.1462   23.8911 C   0  0  0  0  0  0
  -17.6463  -30.6591   24.0577 C   0  0  0  0  0  0
  -25.9031  -34.9467   23.5147 C   0  0  0  0  0  0
  -16.5357  -29.9087   23.6334 C   0  0  0  0  0  0
  -16.7284  -28.6510   23.0351 C   0  0  0  0  0  0
  -26.4475  -31.6598   25.0739 C   0  0  0  0  0  0
  -25.3714  -31.3716   26.1483 C   0  0  0  0  0  0
  -27.0311  -30.3031   24.6172 C   0  0  0  0  0  0
  -27.6059  -32.4319   25.7499 C   0  0  0  0  0  0
  -27.5582  -37.1810   24.8477 C   0  0  0  0  0  0
  -21.4190  -29.3042   22.3680 N   0  0  0  0  0  0
  -26.4295  -37.3798   23.9416 N   0  0  0  0  0  0
  -24.6879  -31.0617   22.1043 N   0  0  0  0  0  0
  -23.4224  -28.8135   23.2968 O   0  0  0  0  0  0
  -28.3532  -26.5010   20.1263 O   0  0  0  0  0  0
  -26.5591  -34.8926   22.4716 O   0  0  0  0  0  0
  -23.5388  -32.1398   23.7390 O   0  0  0  0  0  0
  -31.0407  -19.2246   19.7741 C   0  0  0  0  0  0
  -31.0258  -17.8030   19.9083 C   0  0  0  0  0  0
  -28.9998  -19.3919   21.0372 C   0  0  0  0  0  0
  -30.0395  -20.0636   20.3429 C   0  0  0  0  0  0
  -29.9916  -17.1391   20.6200 C   0  0  0  0  0  0
  -28.9768  -17.9711   21.1658 C   0  0  0  0  0  0
  -30.2191  -21.6288   20.3422 C   0  0  0  0  0  0
  -29.3517  -24.0513   20.2044 C   0  0  0  0  0  0
  -28.1590  -25.0515   19.8947 C   0  0  0  0  0  0
  -29.8624  -15.6945   20.8118 N   0  0  0  0  0  0
  -29.0771  -22.5624   20.0097 N   0  3  0  0  0  0
  -27.9632  -17.3857   21.8489 F   0  0  0  0  0  0
  -31.4786  -12.4810   19.1538 H   0  0  0  0  0  0
  -30.3523  -11.3862   19.9034 H   0  0  0  0  0  0
  -29.7680  -11.7416   17.4819 H   0  0  0  0  0  0
  -29.6536  -13.4633   17.7422 H   0  0  0  0  0  0
  -27.8697  -11.2875   18.8799 H   0  0  0  0  0  0
  -27.3748  -12.5588   17.7965 H   0  0  0  0  0  0
  -27.6694  -14.2505   19.5107 H   0  0  0  0  0  0
  -28.7099  -12.0744   21.3954 H   0  0  0  0  0  0
  -28.4547  -13.7408   21.8303 H   0  0  0  0  0  0
  -25.2761   -9.5689   22.4754 H   0  0  0  0  0  0
  -24.0005   -7.4636   22.7470 H   0  0  0  0  0  0
  -21.0846   -8.8767   19.8947 H   0  0  0  0  0  0
  -22.3696  -10.9667   19.6157 H   0  0  0  0  0  0
  -21.2002   -7.6146   23.9715 H   0  0  0  0  0  0
  -21.1488   -6.0523   25.9078 H   0  0  0  0  0  0
  -22.0595   -2.7608   23.2848 H   0  0  0  0  0  0
  -22.4109  -11.9872   22.4783 H   0  0  0  0  0  0
  -21.1118  -13.1236   22.2619 H   0  0  0  0  0  0
  -24.6666  -15.8471   20.5390 H   0  0  0  0  0  0
  -26.2914  -15.6372   20.1324 H   0  0  0  0  0  0
  -26.7141  -32.5478   23.1117 H   0  0  0  0  0  0
  -25.0092  -33.9743   25.0493 H   0  0  0  0  0  0
  -22.7124  -31.3111   21.4077 H   0  0  0  0  0  0
  -23.3769  -35.9607   23.3330 H   0  0  0  0  0  0
  -24.3593  -36.8884   22.2066 H   0  0  0  0  0  0
  -23.7190  -37.6497   23.6631 H   0  0  0  0  0  0
  -26.0879  -31.5554   20.6121 H   0  0  0  0  0  0
  -26.8465  -30.8427   22.0077 H   0  0  0  0  0  0
  -28.1089  -28.9858   21.1932 H   0  0  0  0  0  0
  -25.9432  -25.9502   18.9885 H   0  0  0  0  0  0
  -23.9560  -27.3291   19.0180 H   0  0  0  0  0  0
  -23.7618  -30.6116   19.4089 H   0  0  0  0  0  0
  -22.7556  -29.2610   19.8562 H   0  0  0  0  0  0
  -25.1277  -36.2020   25.0843 H   0  0  0  0  0  0
  -20.9983  -28.3262   24.1406 H   0  0  0  0  0  0
  -20.5712  -26.2291   23.3610 H   0  0  0  0  0  0
  -21.6642  -26.7450   22.1187 H   0  0  0  0  0  0
  -19.6904  -25.6314   21.1243 H   0  0  0  0  0  0
  -19.6689  -27.3224   20.6782 H   0  0  0  0  0  0
  -17.4206  -26.6716   21.4042 H   0  0  0  0  0  0
  -18.0312  -26.0075   22.9023 H   0  0  0  0  0  0
  -19.7937  -30.7289   24.2275 H   0  0  0  0  0  0
  -17.5013  -31.6269   24.5172 H   0  0  0  0  0  0
  -15.5354  -30.2992   23.7646 H   0  0  0  0  0  0
  -15.8692  -28.0843   22.7028 H   0  0  0  0  0  0
  -24.5911  -30.7047   25.7810 H   0  0  0  0  0  0
  -24.8880  -32.2873   26.4901 H   0  0  0  0  0  0
  -25.8051  -30.8906   27.0264 H   0  0  0  0  0  0
  -26.2879  -29.6808   24.1187 H   0  0  0  0  0  0
  -27.4029  -29.7264   25.4649 H   0  0  0  0  0  0
  -27.8739  -30.4360   23.9386 H   0  0  0  0  0  0
  -27.2708  -33.3642   26.2064 H   0  0  0  0  0  0
  -28.3867  -32.6839   25.0305 H   0  0  0  0  0  0
  -28.0728  -31.8441   26.5422 H   0  0  0  0  0  0
  -28.2614  -38.0092   24.7516 H   0  0  0  0  0  0
  -28.1057  -36.2623   24.6314 H   0  0  0  0  0  0
  -27.2298  -37.1483   25.8879 H   0  0  0  0  0  0
  -20.9361  -29.8796   21.6927 H   0  0  0  0  0  0
  -26.0209  -38.2893   24.1405 H   0  0  0  0  0  0
  -31.8737  -19.6797   19.2530 H   0  0  0  0  0  0
  -31.8337  -17.2380   19.4627 H   0  0  0  0  0  0
  -28.2144  -19.9605   21.5123 H   0  0  0  0  0  0
  -31.0254  -21.8689   19.6481 H   0  0  0  0  0  0
  -30.6033  -21.8994   21.3268 H   0  0  0  0  0  0
  -29.6573  -24.1984   21.2385 H   0  0  0  0  0  0
  -30.2141  -24.3312   19.5967 H   0  0  0  0  0  0
  -27.8775  -24.9072   18.8521 H   0  0  0  0  0  0
  -27.3097  -24.7352   20.5021 H   0  0  0  0  0  0
  -28.9675  -15.4257   21.1913 H   0  0  0  0  0  0
  -28.2890  -22.3075   20.5817 H   0  0  0  0  0  0
  -28.8124  -22.3909   19.0519 H   0  0  0  0  0  0
  1 25  1  0  0  0
  1 30  2  0  0  0
  1 80  1  0  0  0
  2  3  1  0  0  0
  2 25  1  0  0  0
  2 83  1  0  0  0
  2 84  1  0  0  0
  3  4  1  0  0  0
  3 85  1  0  0  0
  3 86  1  0  0  0
  4  5  1  0  0  0
  4 87  1  0  0  0
  4 88  1  0  0  0
  5  6  1  0  0  0
  5 26  1  0  0  0
  5 89  1  0  0  0
  6 25  1  0  0  0
  6 90  1  0  0  0
  6 91  1  0  0  0
  7  8  2  0  0  0
  7 26  1  0  0  0
  7 29  1  0  0  0
  8  9  1  0  0  0
  8 22  1  0  0  0
  9 10  1  0  0  0
  9 27  2  0  0  0
 10 11  2  0  0  0
 10 15  1  0  0  0
 11 12  1  0  0  0
 11 92  1  0  0  0
 12 13  2  0  0  0
 12 93  1  0  0  0
 13 14  1  0  0  0
 13 31  1  0  0  0
 14 15  2  0  0  0
 14 94  1  0  0  0
 15 95  1  0  0  0
 16 17  2  0  0  0
 16 21  1  0  0  0
 16 31  1  0  0  0
 17 18  1  0  0  0
 17 96  1  0  0  0
 18 19  2  0  0  0
 18 97  1  0  0  0
 19 20  1  0  0  0
 19 24  1  0  0  0
 20 21  2  0  0  0
 20 98  1  0  0  0
 21 23  1  0  0  0
 22 28  1  0  0  0
 22 32  2  0  0  0
 26 27  1  0  0  0
 28 99  1  0  0  0
 28100  1  0  0  0
 29101  1  0  0  0
 29102  1  0  0  0
 33 34  1  0  0  0
 33 66  1  0  0  0
 33 70  2  0  0  0
 34 36  1  0  0  0
 34 59  1  0  0  0
 34103  1  0  0  0
 35 44  2  0  0  0
 35 45  1  0  0  0
 35 68  1  0  0  0
 36 56  1  0  0  0
 36104  1  0  0  0
 37 39  1  0  0  0
 37 47  1  0  0  0
 37 66  1  0  0  0
 37105  1  0  0  0
 38 43  2  0  0  0
 38 46  1  0  0  0
 38 47  1  0  0  0
 39 64  1  0  0  0
 39 67  2  0  0  0
 40 52  1  0  0  0
 40 53  2  0  0  0
 40 58  1  0  0  0
 41106  1  0  0  0
 41107  1  0  0  0
 41108  1  0  0  0
 41 48  1  0  0  0
 42 43  1  0  0  0
 42 66  1  0  0  0
 42109  1  0  0  0
 42110  1  0  0  0
 43 44  1  0  0  0
 44111  1  0  0  0
 45 46  2  0  0  0
 45112  1  0  0  0
 46113  1  0  0  0
 47114  1  0  0  0
 47115  1  0  0  0
 48 56  1  0  0  0
 48 65  1  0  0  0
 48116  1  0  0  0
 49 50  1  0  0  0
 49 53  1  0  0  0
 49 64  1  0  0  0
 49117  1  0  0  0
 50 51  1  0  0  0
 50118  1  0  0  0
 50119  1  0  0  0
 51 52  1  0  0  0
 51120  1  0  0  0
 51121  1  0  0  0
 52122  1  0  0  0
 52123  1  0  0  0
 53 54  1  0  0  0
 54 55  2  0  0  0
 54124  1  0  0  0
 55 57  1  0  0  0
 55125  1  0  0  0
 56 69  2  0  0  0
 57 58  2  0  0  0
 57126  1  0  0  0
 58127  1  0  0  0
 59 60  1  0  0  0
 59 61  1  0  0  0
 59 62  1  0  0  0
 60128  1  0  0  0
 60129  1  0  0  0
 60130  1  0  0  0
 61131  1  0  0  0
 61132  1  0  0  0
 61133  1  0  0  0
 62134  1  0  0  0
 62135  1  0  0  0
 62136  1  0  0  0
 63 65  1  0  0  0
 63137  1  0  0  0
 63138  1  0  0  0
 63139  1  0  0  0
 64140  1  0  0  0
 65141  1  0  0  0
 68 79  1  0  0  0
 71 72  2  0  0  0
 71 74  1  0  0  0
 71142  1  0  0  0
 72 75  1  0  0  0
 72143  1  0  0  0
 73 74  2  0  0  0
 73 76  1  0  0  0
 73144  1  0  0  0
 74 77  1  0  0  0
 75 76  2  0  0  0
 75 80  1  0  0  0
 76 82  1  0  0  0
 77 81  1  0  0  0
 77145  1  0  0  0
 77146  1  0  0  0
 78 79  1  0  0  0
 78 81  1  0  0  0
 78147  1  0  0  0
 78148  1  0  0  0
 79149  1  0  0  0
 79150  1  0  0  0
 80151  1  0  0  0
 81152  1  0  0  0
 81153  1  0  0  0
M  CHG  1  81   1
M  ISO  4   1 100  68 101  79 101  80 100
M  END
> <chiral flag>
0

> <version>
0

> <s_m_source_file>
/data/baiqing/PycharmProjects/Reinvent-master-3.2/result/LINK_invent/BTK/process_docking_weight1_custom_product_contain_oxygen_bond_distance_aromatic_linkinvent_7_9_3/rearranged_h_0006.sdf

> <i_m_source_file_index>
21

> <r_mmod_Potential_Energy-OPLS-2005>
-169.907638549805

> <r_mmod_Stretch_Energy-OPLS-2005>
74.6796112060547

> <r_mmod_Bend_Energy-OPLS-2005>
135.353530883789

> <r_mmod_Torsional_Energy-OPLS-2005>
203.257019042969

> <r_mmod_Improper_Torsional_Energy-OPLS-2005>
4.4197096824646

> <r_mmod_Van_der_Waal_Energy-OPLS-2005>
145.306213378906

> <r_mmod_Electrostatic_Energy-OPLS-2005>
-306.239837646484

> <r_mmod_Solvation_Energy-OPLS-2005>
-470.850830078125

> <b_mmod_Minimization_Converged-OPLS-2005>
0

> <r_mmod_RMS_Derivative-OPLS-2005>
3.29414439201355

$$$$
22
                    3D
 Structure written by MMmdl.
163173  0  0  1  0            999 V2000
  -30.6878  -14.4971   20.5210 C   0  0  0  0  0  0
  -30.4220  -12.3067   19.4356 C   0  0  0  0  0  0
  -29.4973  -12.4867   18.2131 C   0  0  0  0  0  0
  -28.0182  -12.3487   18.6245 C   0  0  0  0  0  0
  -27.6574  -13.2061   19.8672 C   0  0  2  0  0  0
  -28.6992  -13.0221   20.9957 C   0  0  0  0  0  0
  -25.2571  -13.8157   20.5662 C   0  0  0  0  0  0
  -24.1833  -13.0437   20.9186 C   0  0  0  0  0  0
  -24.6387  -11.6903   20.8743 C   0  0  0  0  0  0
  -23.9059  -10.4290   21.0413 C   0  0  0  0  0  0
  -24.3616   -9.4204   21.9185 C   0  0  0  0  0  0
  -23.6291   -8.2239   22.0755 C   0  0  0  0  0  0
  -22.4271   -8.0281   21.3547 C   0  0  0  0  0  0
  -21.9907   -9.0255   20.4653 C   0  0  0  0  0  0
  -22.7235  -10.2131   20.3062 C   0  0  0  0  0  0
  -21.6850   -6.0732   22.5279 C   0  0  0  0  0  0
  -21.4013   -6.5639   23.8211 C   0  0  0  0  0  0
  -21.3659   -5.6794   24.9174 C   0  0  0  0  0  0
  -21.6046   -4.3057   24.7227 C   0  0  0  0  0  0
  -21.8818   -3.8147   23.4349 C   0  0  0  0  0  0
  -21.9193   -4.6962   22.3403 C   0  0  0  0  0  0
  -22.7857  -13.5234   21.1850 C   0  0  0  0  0  0
  -22.1661   -4.2150   21.0980 F   0  0  0  0  0  0
  -21.5632   -3.4540   25.7739 F   0  0  0  0  0  0
  -30.0298  -13.3102   20.4372 N   0  0  0  0  0  0
  -26.3000  -12.9323   20.3329 N   0  0  0  0  0  0
  -25.9310  -11.6489   20.5767 N   0  0  0  0  0  0
  -22.0500  -12.8229   22.0413 N   0  0  0  0  0  0
  -25.4298  -15.1868   20.4023 N   0  0  0  0  0  0
  -31.8423  -14.6554   20.1168 O   0  0  0  0  0  0
  -21.6639   -6.8874   21.4240 O   0  0  0  0  0  0
  -22.3547  -14.5545   20.6704 O   0  0  0  0  0  0
  -24.6161  -31.8673   23.2086 C   0  0  0  0  0  0
  -25.9060  -32.4816   23.8375 C   0  0  1  0  0  0
  -27.2331  -27.4161   20.0850 C   0  0  0  0  0  0
  -25.5915  -33.8612   24.2317 N   0  0  0  0  0  0
  -23.4030  -30.4924   21.5498 C   0  0  2  0  0  0
  -24.8462  -28.9566   20.1130 C   0  0  0  0  0  0
  -22.7413  -29.4667   22.4978 C   0  0  0  0  0  0
  -18.0280  -28.1383   22.8491 C   0  0  0  0  0  0
  -24.1492  -36.7305   23.2638 C   0  0  0  0  0  0
  -25.9349  -30.8250   21.3658 C   0  0  0  0  0  0
  -26.0078  -29.4595   20.7096 C   0  0  0  0  0  0
  -27.1980  -28.6946   20.6960 C   0  0  0  0  0  0
  -26.0410  -26.9259   19.4989 C   0  0  0  0  0  0
  -24.8584  -27.6887   19.5089 C   0  0  0  0  0  0
  -23.6105  -29.8261   20.1637 C   0  0  0  0  0  0
  -25.4117  -36.3109   24.0335 C   0  0  1  0  0  0
  -20.5871  -28.3669   23.1314 C   0  0  2  0  0  0
  -20.6774  -26.9404   22.5414 C   0  0  0  0  0  0
  -19.5751  -26.6390   21.5210 C   0  0  0  0  0  0
  -18.1929  -26.7928   22.1620 C   0  0  0  0  0  0
  -19.1530  -28.8841   23.2899 C   0  0  0  0  0  0
  -18.9458  -30.1447   23.8908 C   0  0  0  0  0  0
  -17.6460  -30.6587   24.0567 C   0  0  0  0  0  0
  -25.9040  -34.9471   23.5122 C   0  0  0  0  0  0
  -16.5351  -29.9085   23.6329 C   0  0  0  0  0  0
  -16.7269  -28.6504   23.0345 C   0  0  0  0  0  0
  -26.4477  -31.6599   25.0714 C   0  0  0  0  0  0
  -25.3745  -31.3733   26.1467 C   0  0  0  0  0  0
  -27.0299  -30.3034   24.6112 C   0  0  0  0  0  0
  -27.6059  -32.4316   25.7468 C   0  0  0  0  0  0
  -27.5584  -37.1816   24.8470 C   0  0  0  0  0  0
  -21.4142  -29.3034   22.3715 N   0  0  0  0  0  0
  -26.4311  -37.3788   23.9398 N   0  0  0  0  0  0
  -24.6696  -31.0763   22.0993 N   0  0  0  0  0  0
  -23.4183  -28.8214   23.3029 O   0  0  0  0  0  0
  -28.4185  -26.7002   20.1311 O   0  0  0  0  0  0
  -26.5590  -34.8926   22.4677 O   0  0  0  0  0  0
  -23.5354  -32.1435   23.7476 O   0  0  0  0  0  0
  -28.7278  -23.8692   24.9172 C   0  0  0  0  0  0
  -29.2839  -22.8003   25.6460 C   0  0  0  0  0  0
  -28.5478  -23.7612   23.5219 C   0  0  0  0  0  0
  -29.6602  -21.6175   24.9793 C   0  0  0  0  0  0
  -29.1909  -21.1960   20.8590 C   0  0  0  0  0  0
  -28.9239  -22.5775   22.8426 C   0  0  0  0  0  0
  -29.4811  -21.5091   23.5878 C   0  0  0  0  0  0
  -28.7795  -22.4228   21.4408 C   0  0  0  0  0  0
  -29.7383  -20.1292   21.6299 C   0  0  0  0  0  0
  -30.9372  -17.8015   21.5503 C   0  0  0  0  0  0
  -29.1536  -17.9921   20.5475 C   0  0  0  0  0  0
  -30.2911  -16.9453   20.4353 C   0  0  2  0  0  0
  -29.2456  -24.3509   20.0669 C   0  0  0  0  0  0
  -28.6516  -25.5560   19.2884 C   0  0  0  0  0  0
  -29.8507  -20.3754   22.9630 N   0  3  0  0  0  0
  -30.1802  -18.8782   21.0830 N   0  0  0  0  0  0
  -28.2369  -23.4570   20.6418 N   0  0  0  0  0  0
  -29.9232  -15.5636   20.8192 N   0  0  0  0  0  0
  -31.6552  -17.6264   22.5179 O   0  0  0  0  0  0
  -31.4679  -12.3989   19.1367 H   0  0  0  0  0  0
  -30.3186  -11.3041   19.8530 H   0  0  0  0  0  0
  -29.7399  -11.7496   17.4460 H   0  0  0  0  0  0
  -29.6661  -13.4654   17.7607 H   0  0  0  0  0  0
  -27.8330  -11.2947   18.8370 H   0  0  0  0  0  0
  -27.3678  -12.6071   17.7880 H   0  0  0  0  0  0
  -27.6905  -14.2467   19.5449 H   0  0  0  0  0  0
  -28.6733  -12.0003   21.3766 H   0  0  0  0  0  0
  -28.4667  -13.6625   21.8482 H   0  0  0  0  0  0
  -25.2763   -9.5677   22.4755 H   0  0  0  0  0  0
  -24.0004   -7.4626   22.7469 H   0  0  0  0  0  0
  -21.0836   -8.8774   19.8956 H   0  0  0  0  0  0
  -22.3695  -10.9671   19.6171 H   0  0  0  0  0  0
  -21.2004   -7.6146   23.9712 H   0  0  0  0  0  0
  -21.1482   -6.0526   25.9076 H   0  0  0  0  0  0
  -22.0598   -2.7610   23.2851 H   0  0  0  0  0  0
  -22.4112  -11.9878   22.4783 H   0  0  0  0  0  0
  -21.1125  -13.1259   22.2628 H   0  0  0  0  0  0
  -24.6551  -15.8366   20.4865 H   0  0  0  0  0  0
  -26.2622  -15.6149   20.0185 H   0  0  0  0  0  0
  -26.7124  -32.5512   23.1127 H   0  0  0  0  0  0
  -25.0104  -33.9768   25.0490 H   0  0  0  0  0  0
  -22.6928  -31.3105   21.4121 H   0  0  0  0  0  0
  -23.3743  -35.9650   23.3344 H   0  0  0  0  0  0
  -24.3581  -36.8873   22.2043 H   0  0  0  0  0  0
  -23.7263  -37.6535   23.6615 H   0  0  0  0  0  0
  -26.0565  -31.5932   20.6007 H   0  0  0  0  0  0
  -26.8196  -30.8717   21.9889 H   0  0  0  0  0  0
  -28.0945  -29.0811   21.1603 H   0  0  0  0  0  0
  -25.9744  -25.9481   19.0495 H   0  0  0  0  0  0
  -23.9599  -27.2892   19.0587 H   0  0  0  0  0  0
  -23.7202  -30.6011   19.4042 H   0  0  0  0  0  0
  -22.7329  -29.2493   19.8668 H   0  0  0  0  0  0
  -25.1300  -36.1979   25.0830 H   0  0  0  0  0  0
  -20.9966  -28.3239   24.1433 H   0  0  0  0  0  0
  -20.5689  -26.2271   23.3599 H   0  0  0  0  0  0
  -21.6644  -26.7455   22.1204 H   0  0  0  0  0  0
  -19.6911  -25.6305   21.1229 H   0  0  0  0  0  0
  -19.6693  -27.3208   20.6744 H   0  0  0  0  0  0
  -17.4201  -26.6680   21.4019 H   0  0  0  0  0  0
  -18.0327  -26.0070   22.9015 H   0  0  0  0  0  0
  -19.7935  -30.7257   24.2283 H   0  0  0  0  0  0
  -17.5018  -31.6269   24.5161 H   0  0  0  0  0  0
  -15.5352  -30.2988   23.7651 H   0  0  0  0  0  0
  -15.8670  -28.0825   22.7052 H   0  0  0  0  0  0
  -24.5902  -30.7091   25.7816 H   0  0  0  0  0  0
  -24.8951  -32.2902   26.4906 H   0  0  0  0  0  0
  -25.8098  -30.8908   27.0227 H   0  0  0  0  0  0
  -26.2842  -29.6804   24.1161 H   0  0  0  0  0  0
  -27.4053  -29.7270   25.4578 H   0  0  0  0  0  0
  -27.8684  -30.4337   23.9269 H   0  0  0  0  0  0
  -27.2680  -33.3597   26.2085 H   0  0  0  0  0  0
  -28.3838  -32.6912   25.0277 H   0  0  0  0  0  0
  -28.0757  -31.8420   26.5351 H   0  0  0  0  0  0
  -28.2639  -38.0076   24.7477 H   0  0  0  0  0  0
  -28.1046  -36.2612   24.6352 H   0  0  0  0  0  0
  -27.2295  -37.1536   25.8874 H   0  0  0  0  0  0
  -20.9301  -29.8740   21.6927 H   0  0  0  0  0  0
  -26.0206  -38.2876   24.1367 H   0  0  0  0  0  0
  -28.4435  -24.7781   25.4337 H   0  0  0  0  0  0
  -29.4239  -22.8906   26.7153 H   0  0  0  0  0  0
  -28.1308  -24.5994   22.9844 H   0  0  0  0  0  0
  -30.0878  -20.8091   25.5576 H   0  0  0  0  0  0
  -29.0883  -21.0649   19.7915 H   0  0  0  0  0  0
  -28.3741  -17.7541   21.2763 H   0  0  0  0  0  0
  -28.7379  -18.3274   19.5965 H   0  0  0  0  0  0
  -30.8031  -17.0110   19.4716 H   0  0  0  0  0  0
  -29.9292  -24.7082   20.8394 H   0  0  0  0  0  0
  -29.8511  -23.7616   19.3760 H   0  0  0  0  0  0
  -27.8273  -25.2318   18.6602 H   0  0  0  0  0  0
  -29.4096  -25.8884   18.5781 H   0  0  0  0  0  0
  -30.2590  -19.6390   23.5462 H   0  0  0  0  0  0
  -27.5321  -23.9901   21.1406 H   0  0  0  0  0  0
  -28.9840  -15.3891   21.1417 H   0  0  0  0  0  0
  1 25  1  0  0  0
  1 30  2  0  0  0
  1 88  1  0  0  0
  2  3  1  0  0  0
  2 25  1  0  0  0
  2 90  1  0  0  0
  2 91  1  0  0  0
  3  4  1  0  0  0
  3 92  1  0  0  0
  3 93  1  0  0  0
  4  5  1  0  0  0
  4 94  1  0  0  0
  4 95  1  0  0  0
  5  6  1  0  0  0
  5 26  1  0  0  0
  5 96  1  0  0  0
  6 25  1  0  0  0
  6 97  1  0  0  0
  6 98  1  0  0  0
  7  8  2  0  0  0
  7 26  1  0  0  0
  7 29  1  0  0  0
  8  9  1  0  0  0
  8 22  1  0  0  0
  9 10  1  0  0  0
  9 27  2  0  0  0
 10 11  2  0  0  0
 10 15  1  0  0  0
 11 12  1  0  0  0
 11 99  1  0  0  0
 12 13  2  0  0  0
 12100  1  0  0  0
 13 14  1  0  0  0
 13 31  1  0  0  0
 14 15  2  0  0  0
 14101  1  0  0  0
 15102  1  0  0  0
 16 17  2  0  0  0
 16 21  1  0  0  0
 16 31  1  0  0  0
 17 18  1  0  0  0
 17103  1  0  0  0
 18 19  2  0  0  0
 18104  1  0  0  0
 19 20  1  0  0  0
 19 24  1  0  0  0
 20 21  2  0  0  0
 20105  1  0  0  0
 21 23  1  0  0  0
 22 28  1  0  0  0
 22 32  2  0  0  0
 26 27  1  0  0  0
 28106  1  0  0  0
 28107  1  0  0  0
 29108  1  0  0  0
 29109  1  0  0  0
 33 34  1  0  0  0
 33 66  1  0  0  0
 33 70  2  0  0  0
 34 36  1  0  0  0
 34 59  1  0  0  0
 34110  1  0  0  0
 35 44  2  0  0  0
 35 45  1  0  0  0
 35 68  1  0  0  0
 36 56  1  0  0  0
 36111  1  0  0  0
 37 39  1  0  0  0
 37 47  1  0  0  0
 37 66  1  0  0  0
 37112  1  0  0  0
 38 43  2  0  0  0
 38 46  1  0  0  0
 38 47  1  0  0  0
 39 64  1  0  0  0
 39 67  2  0  0  0
 40 52  1  0  0  0
 40 53  2  0  0  0
 40 58  1  0  0  0
 41113  1  0  0  0
 41114  1  0  0  0
 41115  1  0  0  0
 41 48  1  0  0  0
 42 43  1  0  0  0
 42 66  1  0  0  0
 42116  1  0  0  0
 42117  1  0  0  0
 43 44  1  0  0  0
 44118  1  0  0  0
 45 46  2  0  0  0
 45119  1  0  0  0
 46120  1  0  0  0
 47121  1  0  0  0
 47122  1  0  0  0
 48 56  1  0  0  0
 48 65  1  0  0  0
 48123  1  0  0  0
 49 50  1  0  0  0
 49 53  1  0  0  0
 49 64  1  0  0  0
 49124  1  0  0  0
 50 51  1  0  0  0
 50125  1  0  0  0
 50126  1  0  0  0
 51 52  1  0  0  0
 51127  1  0  0  0
 51128  1  0  0  0
 52129  1  0  0  0
 52130  1  0  0  0
 53 54  1  0  0  0
 54 55  2  0  0  0
 54131  1  0  0  0
 55 57  1  0  0  0
 55132  1  0  0  0
 56 69  2  0  0  0
 57 58  2  0  0  0
 57133  1  0  0  0
 58134  1  0  0  0
 59 60  1  0  0  0
 59 61  1  0  0  0
 59 62  1  0  0  0
 60135  1  0  0  0
 60136  1  0  0  0
 60137  1  0  0  0
 61138  1  0  0  0
 61139  1  0  0  0
 61140  1  0  0  0
 62141  1  0  0  0
 62142  1  0  0  0
 62143  1  0  0  0
 63 65  1  0  0  0
 63144  1  0  0  0
 63145  1  0  0  0
 63146  1  0  0  0
 64147  1  0  0  0
 65148  1  0  0  0
 68 84  1  0  0  0
 71 72  2  0  0  0
 71 73  1  0  0  0
 71149  1  0  0  0
 72 74  1  0  0  0
 72150  1  0  0  0
 73 76  2  0  0  0
 73151  1  0  0  0
 74 77  2  0  0  0
 74152  1  0  0  0
 75 78  2  0  0  0
 75 79  1  0  0  0
 75153  1  0  0  0
 76 77  1  0  0  0
 76 78  1  0  0  0
 77 85  1  0  0  0
 78 87  1  0  0  0
 79 85  2  0  0  0
 79 86  1  0  0  0
 80 82  1  0  0  0
 80 86  1  0  0  0
 80 89  2  0  0  0
 81 82  1  0  0  0
 81 86  1  0  0  0
 81154  1  0  0  0
 81155  1  0  0  0
 82 88  1  0  0  0
 82156  1  0  0  0
 83 84  1  0  0  0
 83 87  1  0  0  0
 83157  1  0  0  0
 83158  1  0  0  0
 84159  1  0  0  0
 84160  1  0  0  0
 85161  1  0  0  0
 87162  1  0  0  0
 88163  1  0  0  0
M  CHG  1  85   1
M  ISO  4   1 100  68 101  84 101  88 100
M  END
> <chiral flag>
0

> <version>
0

> <s_m_source_file>
/data/baiqing/PycharmProjects/Reinvent-master-3.2/result/LINK_invent/BTK/process_docking_weight1_custom_product_contain_oxygen_bond_distance_aromatic_linkinvent_7_9_3/rearranged_h_0006.sdf

> <i_m_source_file_index>
22

> <r_mmod_Potential_Energy-OPLS-2005>
-123.579551696777

> <r_mmod_Stretch_Energy-OPLS-2005>
42.8191795349121

> <r_mmod_Bend_Energy-OPLS-2005>
130.300231933594

> <r_mmod_Torsional_Energy-OPLS-2005>
247.100662231445

> <r_mmod_Improper_Torsional_Energy-OPLS-2005>
18.4638214111328

> <r_mmod_Van_der_Waal_Energy-OPLS-2005>
166.848388671875

> <r_mmod_Electrostatic_Energy-OPLS-2005>
-314.114288330078

> <r_mmod_Solvation_Energy-OPLS-2005>
-432.785797119141

> <b_mmod_Minimization_Converged-OPLS-2005>
0

> <r_mmod_RMS_Derivative-OPLS-2005>
1.03493905067444

$$$$
23
                    3D
 Structure written by MMmdl.
166175  0  0  1  0            999 V2000
  -30.6915  -14.4584   20.6090 C   0  0  0  0  0  0
  -30.4263  -12.3096   19.4175 C   0  0  0  0  0  0
  -29.4933  -12.5168   18.2064 C   0  0  0  0  0  0
  -28.0159  -12.3700   18.6190 C   0  0  0  0  0  0
  -27.6635  -13.2020   19.8799 C   0  0  2  0  0  0
  -28.7014  -12.9582   20.9982 C   0  0  0  0  0  0
  -25.2589  -13.8157   20.5679 C   0  0  0  0  0  0
  -24.1829  -13.0433   20.9156 C   0  0  0  0  0  0
  -24.6372  -11.6898   20.8720 C   0  0  0  0  0  0
  -23.9039  -10.4288   21.0396 C   0  0  0  0  0  0
  -24.3604   -9.4209   21.9173 C   0  0  0  0  0  0
  -23.6288   -8.2242   22.0749 C   0  0  0  0  0  0
  -22.4268   -8.0276   21.3545 C   0  0  0  0  0  0
  -21.9895   -9.0241   20.4641 C   0  0  0  0  0  0
  -22.7213  -10.2122   20.3047 C   0  0  0  0  0  0
  -21.6851   -6.0725   22.5275 C   0  0  0  0  0  0
  -21.4009   -6.5632   23.8206 C   0  0  0  0  0  0
  -21.3664   -5.6789   24.9171 C   0  0  0  0  0  0
  -21.6051   -4.3052   24.7224 C   0  0  0  0  0  0
  -21.8819   -3.8138   23.4347 C   0  0  0  0  0  0
  -21.9190   -4.6954   22.3399 C   0  0  0  0  0  0
  -22.7854  -13.5236   21.1839 C   0  0  0  0  0  0
  -22.1660   -4.2138   21.0976 F   0  0  0  0  0  0
  -21.5634   -3.4538   25.7740 F   0  0  0  0  0  0
  -30.0396  -13.2724   20.4606 N   0  0  0  0  0  0
  -26.3024  -12.9313   20.3371 N   0  0  0  0  0  0
  -25.9299  -11.6478   20.5753 N   0  0  0  0  0  0
  -22.0499  -12.8227   22.0402 N   0  0  0  0  0  0
  -25.4327  -15.1877   20.4112 N   0  0  0  0  0  0
  -31.7805  -14.6941   20.0733 O   0  0  0  0  0  0
  -21.6641   -6.8867   21.4234 O   0  0  0  0  0  0
  -22.3538  -14.5546   20.6702 O   0  0  0  0  0  0
  -24.6123  -31.8689   23.2124 C   0  0  0  0  0  0
  -25.9030  -32.4815   23.8414 C   0  0  1  0  0  0
  -27.2412  -27.4511   20.0966 C   0  0  0  0  0  0
  -25.5899  -33.8618   24.2347 N   0  0  0  0  0  0
  -23.4003  -30.4897   21.5521 C   0  0  2  0  0  0
  -24.8498  -28.9496   20.1248 C   0  0  0  0  0  0
  -22.7393  -29.4662   22.5021 C   0  0  0  0  0  0
  -18.0252  -28.1371   22.8484 C   0  0  0  0  0  0
  -24.1487  -36.7321   23.2629 C   0  0  0  0  0  0
  -25.9268  -30.8363   21.3650 C   0  0  0  0  0  0
  -26.0065  -29.4682   20.7209 C   0  0  0  0  0  0
  -27.2079  -28.7235   20.7086 C   0  0  0  0  0  0
  -26.0727  -26.9371   19.5026 C   0  0  0  0  0  0
  -24.8750  -27.6804   19.5182 C   0  0  0  0  0  0
  -23.6087  -29.8144   20.1707 C   0  0  0  0  0  0
  -25.4109  -36.3117   24.0337 C   0  0  1  0  0  0
  -20.5839  -28.3667   23.1321 C   0  0  2  0  0  0
  -20.6745  -26.9403   22.5428 C   0  0  0  0  0  0
  -19.5739  -26.6381   21.5206 C   0  0  0  0  0  0
  -18.1903  -26.7920   22.1597 C   0  0  0  0  0  0
  -19.1501  -28.8833   23.2892 C   0  0  0  0  0  0
  -18.9435  -30.1432   23.8917 C   0  0  0  0  0  0
  -17.6440  -30.6583   24.0569 C   0  0  0  0  0  0
  -25.9044  -34.9475   23.5146 C   0  0  0  0  0  0
  -16.5331  -29.9089   23.6322 C   0  0  0  0  0  0
  -16.7242  -28.6501   23.0353 C   0  0  0  0  0  0
  -26.4470  -31.6576   25.0726 C   0  0  0  0  0  0
  -25.3759  -31.3683   26.1498 C   0  0  0  0  0  0
  -27.0248  -30.2999   24.6089 C   0  0  0  0  0  0
  -27.6096  -32.4256   25.7450 C   0  0  0  0  0  0
  -27.5613  -37.1785   24.8441 C   0  0  0  0  0  0
  -21.4126  -29.3034   22.3742 N   0  0  0  0  0  0
  -26.4296  -37.3812   23.9430 N   0  0  0  0  0  0
  -24.6640  -31.0791   22.1023 N   0  0  0  0  0  0
  -23.4162  -28.8209   23.3069 O   0  0  0  0  0  0
  -28.4142  -26.7460   19.9908 O   0  0  0  0  0  0
  -26.5607  -34.8914   22.4706 O   0  0  0  0  0  0
  -23.5326  -32.1445   23.7531 O   0  0  0  0  0  0
  -30.7342  -18.9422   20.3848 C   0  0  0  0  0  0
  -30.6666  -17.5376   20.3225 C   0  0  0  0  0  0
  -29.7528  -18.9137   22.6219 C   0  0  0  0  0  0
  -29.6666  -17.4880   22.5483 C   0  0  0  0  0  0
  -30.2967  -19.6468   21.5268 C   0  0  0  0  0  0
  -30.1510  -16.7926   21.4065 C   0  0  0  0  0  0
  -29.2542  -19.6532   23.8705 C   0  0  0  0  0  0
  -29.1016  -16.6725   23.7166 C   0  0  0  0  0  0
  -29.0830  -18.7656   25.1059 C   0  0  0  0  0  0
  -28.3280  -17.4899   24.7538 C   0  0  0  0  0  0
  -30.5041  -21.1720   21.5586 C   0  0  0  0  0  0
  -28.5763  -24.3695   20.6160 C   0  0  0  0  0  0
  -29.4284  -23.4061   21.4803 C   0  0  0  0  0  0
  -28.7207  -25.8471   21.0553 C   0  0  0  0  0  0
  -30.0364  -15.3654   21.3597 N   0  0  0  0  0  0
  -29.3498  -21.9729   21.0823 N   0  3  0  0  0  0
  -31.4695  -12.4192   19.1163 H   0  0  0  0  0  0
  -30.3353  -11.2923   19.8007 H   0  0  0  0  0  0
  -29.7324  -11.8001   17.4199 H   0  0  0  0  0  0
  -29.6573  -13.5068   17.7786 H   0  0  0  0  0  0
  -27.8306  -11.3126   18.8107 H   0  0  0  0  0  0
  -27.3629  -12.6467   17.7904 H   0  0  0  0  0  0
  -27.7146  -14.2530   19.5957 H   0  0  0  0  0  0
  -28.6760  -11.9150   21.3149 H   0  0  0  0  0  0
  -28.4445  -13.5286   21.8910 H   0  0  0  0  0  0
  -25.2747   -9.5689   22.4743 H   0  0  0  0  0  0
  -24.0002   -7.4634   22.7468 H   0  0  0  0  0  0
  -21.0829   -8.8748   19.8949 H   0  0  0  0  0  0
  -22.3667  -10.9658   19.6159 H   0  0  0  0  0  0
  -21.2002   -7.6137   23.9703 H   0  0  0  0  0  0
  -21.1490   -6.0521   25.9071 H   0  0  0  0  0  0
  -22.0596   -2.7601   23.2849 H   0  0  0  0  0  0
  -22.4114  -11.9883   22.4780 H   0  0  0  0  0  0
  -21.1128  -13.1261   22.2638 H   0  0  0  0  0  0
  -24.6684  -15.8456   20.5215 H   0  0  0  0  0  0
  -26.2948  -15.6285   20.1150 H   0  0  0  0  0  0
  -26.7097  -32.5547   23.1184 H   0  0  0  0  0  0
  -25.0009  -33.9783   25.0466 H   0  0  0  0  0  0
  -22.6888  -31.3053   21.4095 H   0  0  0  0  0  0
  -23.3773  -35.9626   23.3209 H   0  0  0  0  0  0
  -24.3601  -36.9035   22.2062 H   0  0  0  0  0  0
  -23.7190  -37.6477   23.6705 H   0  0  0  0  0  0
  -26.0335  -31.5997   20.5932 H   0  0  0  0  0  0
  -26.8168  -30.8940   21.9806 H   0  0  0  0  0  0
  -28.1085  -29.1284   21.1495 H   0  0  0  0  0  0
  -26.0983  -25.9725   19.0161 H   0  0  0  0  0  0
  -23.9861  -27.2761   19.0544 H   0  0  0  0  0  0
  -23.7130  -30.5848   19.4064 H   0  0  0  0  0  0
  -22.7346  -29.2289   19.8789 H   0  0  0  0  0  0
  -25.1268  -36.1987   25.0829 H   0  0  0  0  0  0
  -20.9912  -28.3242   24.1453 H   0  0  0  0  0  0
  -20.5639  -26.2280   23.3620 H   0  0  0  0  0  0
  -21.6623  -26.7444   22.1247 H   0  0  0  0  0  0
  -19.6919  -25.6293   21.1233 H   0  0  0  0  0  0
  -19.6697  -27.3195   20.6742 H   0  0  0  0  0  0
  -17.4191  -26.6681   21.3977 H   0  0  0  0  0  0
  -18.0284  -26.0037   22.8966 H   0  0  0  0  0  0
  -19.7912  -30.7221   24.2335 H   0  0  0  0  0  0
  -17.4995  -31.6269   24.5159 H   0  0  0  0  0  0
  -15.5338  -30.3003   23.7638 H   0  0  0  0  0  0
  -15.8632  -28.0833   22.7084 H   0  0  0  0  0  0
  -24.5932  -30.7026   25.7843 H   0  0  0  0  0  0
  -24.8945  -32.2823   26.4977 H   0  0  0  0  0  0
  -25.8132  -30.8833   27.0236 H   0  0  0  0  0  0
  -26.2746  -29.6768   24.1206 H   0  0  0  0  0  0
  -27.4040  -29.7242   25.4543 H   0  0  0  0  0  0
  -27.8587  -30.4261   23.9186 H   0  0  0  0  0  0
  -27.2801  -33.3591   26.2023 H   0  0  0  0  0  0
  -28.3898  -32.6751   25.0243 H   0  0  0  0  0  0
  -28.0753  -31.8350   26.5349 H   0  0  0  0  0  0
  -28.2572  -38.0142   24.7598 H   0  0  0  0  0  0
  -28.1163  -36.2685   24.6113 H   0  0  0  0  0  0
  -27.2342  -37.1259   25.8839 H   0  0  0  0  0  0
  -20.9298  -29.8724   21.6926 H   0  0  0  0  0  0
  -26.0182  -38.2879   24.1493 H   0  0  0  0  0  0
  -31.1507  -19.4790   19.5432 H   0  0  0  0  0  0
  -31.0125  -17.0447   19.4249 H   0  0  0  0  0  0
  -28.2976  -20.1173   23.6275 H   0  0  0  0  0  0
  -29.9283  -20.4570   24.1568 H   0  0  0  0  0  0
  -29.9443  -16.1787   24.2035 H   0  0  0  0  0  0
  -28.4456  -15.8819   23.3508 H   0  0  0  0  0  0
  -28.5669  -19.3155   25.8938 H   0  0  0  0  0  0
  -30.0639  -18.5043   25.5059 H   0  0  0  0  0  0
  -28.1484  -16.8879   25.6455 H   0  0  0  0  0  0
  -27.3470  -17.7538   24.3563 H   0  0  0  0  0  0
  -31.3652  -21.4218   20.9368 H   0  0  0  0  0  0
  -30.7970  -21.4963   22.5546 H   0  0  0  0  0  0
  -27.5234  -24.0859   20.6387 H   0  0  0  0  0  0
  -28.8992  -24.2813   19.5781 H   0  0  0  0  0  0
  -29.1461  -23.4965   22.5307 H   0  0  0  0  0  0
  -30.4693  -23.7265   21.4146 H   0  0  0  0  0  0
  -29.7597  -26.0464   21.3214 H   0  0  0  0  0  0
  -28.1314  -26.0487   21.9528 H   0  0  0  0  0  0
  -29.2651  -14.9785   21.8804 H   0  0  0  0  0  0
  -28.4993  -21.5722   21.4418 H   0  0  0  0  0  0
  -29.3224  -21.8960   20.0787 H   0  0  0  0  0  0
  1 25  1  0  0  0
  1 30  2  0  0  0
  1 85  1  0  0  0
  2  3  1  0  0  0
  2 25  1  0  0  0
  2 87  1  0  0  0
  2 88  1  0  0  0
  3  4  1  0  0  0
  3 89  1  0  0  0
  3 90  1  0  0  0
  4  5  1  0  0  0
  4 91  1  0  0  0
  4 92  1  0  0  0
  5  6  1  0  0  0
  5 26  1  0  0  0
  5 93  1  0  0  0
  6 25  1  0  0  0
  6 94  1  0  0  0
  6 95  1  0  0  0
  7  8  2  0  0  0
  7 26  1  0  0  0
  7 29  1  0  0  0
  8  9  1  0  0  0
  8 22  1  0  0  0
  9 10  1  0  0  0
  9 27  2  0  0  0
 10 11  2  0  0  0
 10 15  1  0  0  0
 11 12  1  0  0  0
 11 96  1  0  0  0
 12 13  2  0  0  0
 12 97  1  0  0  0
 13 14  1  0  0  0
 13 31  1  0  0  0
 14 15  2  0  0  0
 14 98  1  0  0  0
 15 99  1  0  0  0
 16 17  2  0  0  0
 16 21  1  0  0  0
 16 31  1  0  0  0
 17 18  1  0  0  0
 17100  1  0  0  0
 18 19  2  0  0  0
 18101  1  0  0  0
 19 20  1  0  0  0
 19 24  1  0  0  0
 20 21  2  0  0  0
 20102  1  0  0  0
 21 23  1  0  0  0
 22 28  1  0  0  0
 22 32  2  0  0  0
 26 27  1  0  0  0
 28103  1  0  0  0
 28104  1  0  0  0
 29105  1  0  0  0
 29106  1  0  0  0
 33 34  1  0  0  0
 33 66  1  0  0  0
 33 70  2  0  0  0
 34 36  1  0  0  0
 34 59  1  0  0  0
 34107  1  0  0  0
 35 44  2  0  0  0
 35 45  1  0  0  0
 35 68  1  0  0  0
 36 56  1  0  0  0
 36108  1  0  0  0
 37 39  1  0  0  0
 37 47  1  0  0  0
 37 66  1  0  0  0
 37109  1  0  0  0
 38 43  2  0  0  0
 38 46  1  0  0  0
 38 47  1  0  0  0
 39 64  1  0  0  0
 39 67  2  0  0  0
 40 52  1  0  0  0
 40 53  2  0  0  0
 40 58  1  0  0  0
 41110  1  0  0  0
 41111  1  0  0  0
 41112  1  0  0  0
 41 48  1  0  0  0
 42 43  1  0  0  0
 42 66  1  0  0  0
 42113  1  0  0  0
 42114  1  0  0  0
 43 44  1  0  0  0
 44115  1  0  0  0
 45 46  2  0  0  0
 45116  1  0  0  0
 46117  1  0  0  0
 47118  1  0  0  0
 47119  1  0  0  0
 48 56  1  0  0  0
 48 65  1  0  0  0
 48120  1  0  0  0
 49 50  1  0  0  0
 49 53  1  0  0  0
 49 64  1  0  0  0
 49121  1  0  0  0
 50 51  1  0  0  0
 50122  1  0  0  0
 50123  1  0  0  0
 51 52  1  0  0  0
 51124  1  0  0  0
 51125  1  0  0  0
 52126  1  0  0  0
 52127  1  0  0  0
 53 54  1  0  0  0
 54 55  2  0  0  0
 54128  1  0  0  0
 55 57  1  0  0  0
 55129  1  0  0  0
 56 69  2  0  0  0
 57 58  2  0  0  0
 57130  1  0  0  0
 58131  1  0  0  0
 59 60  1  0  0  0
 59 61  1  0  0  0
 59 62  1  0  0  0
 60132  1  0  0  0
 60133  1  0  0  0
 60134  1  0  0  0
 61135  1  0  0  0
 61136  1  0  0  0
 61137  1  0  0  0
 62138  1  0  0  0
 62139  1  0  0  0
 62140  1  0  0  0
 63 65  1  0  0  0
 63141  1  0  0  0
 63142  1  0  0  0
 63143  1  0  0  0
 64144  1  0  0  0
 65145  1  0  0  0
 68 84  1  0  0  0
 71 72  2  0  0  0
 71 75  1  0  0  0
 71146  1  0  0  0
 72 76  1  0  0  0
 72147  1  0  0  0
 73 74  1  0  0  0
 73 75  2  0  0  0
 73 77  1  0  0  0
 74 76  2  0  0  0
 74 78  1  0  0  0
 75 81  1  0  0  0
 76 85  1  0  0  0
 77 79  1  0  0  0
 77148  1  0  0  0
 77149  1  0  0  0
 78 80  1  0  0  0
 78150  1  0  0  0
 78151  1  0  0  0
 79 80  1  0  0  0
 79152  1  0  0  0
 79153  1  0  0  0
 80154  1  0  0  0
 80155  1  0  0  0
 81 86  1  0  0  0
 81156  1  0  0  0
 81157  1  0  0  0
 82 83  1  0  0  0
 82 84  1  0  0  0
 82158  1  0  0  0
 82159  1  0  0  0
 83 86  1  0  0  0
 83160  1  0  0  0
 83161  1  0  0  0
 84162  1  0  0  0
 84163  1  0  0  0
 85164  1  0  0  0
 86165  1  0  0  0
 86166  1  0  0  0
M  CHG  1  86   1
M  ISO  4   1 100  68 101  84 101  85 100
M  END
> <chiral flag>
0

> <version>
0

> <s_m_source_file>
/data/baiqing/PycharmProjects/Reinvent-master-3.2/result/LINK_invent/BTK/process_docking_weight1_custom_product_contain_oxygen_bond_distance_aromatic_linkinvent_7_9_3/rearranged_h_0006.sdf

> <i_m_source_file_index>
23

> <r_mmod_Potential_Energy-OPLS-2005>
-230.439086914062

> <r_mmod_Stretch_Energy-OPLS-2005>
40.3361129760742

> <r_mmod_Bend_Energy-OPLS-2005>
100.699249267578

> <r_mmod_Torsional_Energy-OPLS-2005>
243.116333007812

> <r_mmod_Improper_Torsional_Energy-OPLS-2005>
2.73193573951721

> <r_mmod_Van_der_Waal_Energy-OPLS-2005>
155.566421508789

> <r_mmod_Electrostatic_Energy-OPLS-2005>
-313.476531982422

> <r_mmod_Solvation_Energy-OPLS-2005>
-468.703216552734

> <b_mmod_Minimization_Converged-OPLS-2005>
0

> <r_mmod_RMS_Derivative-OPLS-2005>
1.51753890514374

$$$$
24
                    3D
 Structure written by MMmdl.
164172  0  0  1  0            999 V2000
  -30.6317  -14.6104   20.5138 C   0  0  0  0  0  0
  -30.4402  -12.3727   19.4484 C   0  0  0  0  0  0
  -29.5084  -12.4982   18.2225 C   0  0  0  0  0  0
  -28.0285  -12.3520   18.6311 C   0  0  0  0  0  0
  -27.6586  -13.2123   19.8697 C   0  0  2  0  0  0
  -28.7018  -13.0417   20.9960 C   0  0  0  0  0  0
  -25.2594  -13.8166   20.5680 C   0  0  0  0  0  0
  -24.1847  -13.0446   20.9182 C   0  0  0  0  0  0
  -24.6396  -11.6915   20.8725 C   0  0  0  0  0  0
  -23.9058  -10.4297   21.0401 C   0  0  0  0  0  0
  -24.3615   -9.4216   21.9186 C   0  0  0  0  0  0
  -23.6291   -8.2252   22.0756 C   0  0  0  0  0  0
  -22.4271   -8.0283   21.3546 C   0  0  0  0  0  0
  -21.9908   -9.0256   20.4651 C   0  0  0  0  0  0
  -22.7229  -10.2138   20.3053 C   0  0  0  0  0  0
  -21.6849   -6.0729   22.5277 C   0  0  0  0  0  0
  -21.4018   -6.5641   23.8208 C   0  0  0  0  0  0
  -21.3658   -5.6795   24.9171 C   0  0  0  0  0  0
  -21.6033   -4.3055   24.7226 C   0  0  0  0  0  0
  -21.8821   -3.8148   23.4348 C   0  0  0  0  0  0
  -21.9200   -4.6962   22.3402 C   0  0  0  0  0  0
  -22.7867  -13.5253   21.1858 C   0  0  0  0  0  0
  -22.1663   -4.2150   21.0976 F   0  0  0  0  0  0
  -21.5628   -3.4534   25.7736 F   0  0  0  0  0  0
  -30.0218  -13.3845   20.4401 N   0  0  0  0  0  0
  -26.3019  -12.9341   20.3343 N   0  0  0  0  0  0
  -25.9331  -11.6497   20.5758 N   0  0  0  0  0  0
  -22.0499  -12.8233   22.0395 N   0  0  0  0  0  0
  -25.4347  -15.1882   20.4094 N   0  0  0  0  0  0
  -31.7830  -14.7827   20.1019 O   0  0  0  0  0  0
  -21.6638   -6.8879   21.4237 O   0  0  0  0  0  0
  -22.3559  -14.5558   20.6716 O   0  0  0  0  0  0
  -24.6271  -31.8597   23.2032 C   0  0  0  0  0  0
  -25.9127  -32.4763   23.8356 C   0  0  1  0  0  0
  -27.2157  -27.3118   20.1168 C   0  0  0  0  0  0
  -25.5946  -33.8566   24.2284 N   0  0  0  0  0  0
  -23.4203  -30.4841   21.5451 C   0  0  2  0  0  0
  -24.8647  -28.9446   20.1078 C   0  0  0  0  0  0
  -22.7483  -29.4614   22.4910 C   0  0  0  0  0  0
  -18.0302  -28.1387   22.8459 C   0  0  0  0  0  0
  -24.1504  -36.7284   23.2639 C   0  0  0  0  0  0
  -25.9633  -30.7875   21.3774 C   0  0  0  0  0  0
  -26.0358  -29.4164   20.7154 C   0  0  0  0  0  0
  -27.2156  -28.6136   20.7079 C   0  0  0  0  0  0
  -26.0197  -26.8954   19.4835 C   0  0  0  0  0  0
  -24.8606  -27.6909   19.4799 C   0  0  0  0  0  0
  -23.6343  -29.8251   20.1577 C   0  0  0  0  0  0
  -25.4132  -36.3074   24.0328 C   0  0  1  0  0  0
  -20.5901  -28.3681   23.1269 C   0  0  2  0  0  0
  -20.6805  -26.9404   22.5402 C   0  0  0  0  0  0
  -19.5784  -26.6386   21.5199 C   0  0  0  0  0  0
  -18.1960  -26.7930   22.1602 C   0  0  0  0  0  0
  -19.1554  -28.8855   23.2862 C   0  0  0  0  0  0
  -18.9481  -30.1459   23.8868 C   0  0  0  0  0  0
  -17.6481  -30.6583   24.0547 C   0  0  0  0  0  0
  -25.9073  -34.9436   23.5104 C   0  0  0  0  0  0
  -16.5367  -29.9071   23.6338 C   0  0  0  0  0  0
  -16.7291  -28.6496   23.0327 C   0  0  0  0  0  0
  -26.4514  -31.6575   25.0723 C   0  0  0  0  0  0
  -25.3745  -31.3718   26.1446 C   0  0  0  0  0  0
  -27.0375  -30.3011   24.6169 C   0  0  0  0  0  0
  -27.6080  -32.4316   25.7492 C   0  0  0  0  0  0
  -27.5588  -37.1798   24.8469 C   0  0  0  0  0  0
  -21.4199  -29.3026   22.3653 N   0  0  0  0  0  0
  -26.4309  -37.3763   23.9406 N   0  0  0  0  0  0
  -24.6888  -31.0608   22.0988 N   0  0  0  0  0  0
  -23.4223  -28.8141   23.2970 O   0  0  0  0  0  0
  -28.3253  -26.4513   20.1753 O   0  0  0  0  0  0
  -26.5611  -34.8899   22.4660 O   0  0  0  0  0  0
  -23.5438  -32.1394   23.7355 O   0  0  0  0  0  0
  -30.7083  -17.7291   19.8028 C   0  0  0  0  0  0
  -29.0619  -19.3656   21.3636 C   0  0  0  0  0  0
  -30.6902  -19.1417   19.6026 C   0  0  0  0  0  0
  -29.0641  -17.9465   21.5682 C   0  0  0  0  0  0
  -29.8653  -19.9995   20.3854 C   0  0  0  0  0  0
  -29.8983  -17.0906   20.7773 C   0  0  0  0  0  0
  -31.5774  -19.7223   18.5120 C   0  0  0  0  0  0
  -26.9998  -18.1928   23.1269 C   0  0  0  0  0  0
  -29.0987  -17.0326   23.9125 C   0  0  0  0  0  0
  -29.2077  -23.9360   20.3903 C   0  0  0  0  0  0
  -28.8041  -22.3908   20.3572 C   0  0  0  0  0  0
  -28.0655  -24.9949   20.0736 C   0  0  0  0  0  0
  -28.2119  -17.3430   22.6971 C   0  0  0  0  0  0
  -29.8441  -15.6378   20.9530 N   0  0  0  0  0  0
  -29.9293  -21.4219   20.2075 N   0  0  0  0  0  0
  -31.4797  -12.5005   19.1415 H   0  0  0  0  0  0
  -30.3797  -11.3718   19.8787 H   0  0  0  0  0  0
  -29.7648  -11.7426   17.4788 H   0  0  0  0  0  0
  -29.6612  -13.4633   17.7364 H   0  0  0  0  0  0
  -27.8493  -11.2985   18.8477 H   0  0  0  0  0  0
  -27.3800  -12.6024   17.7905 H   0  0  0  0  0  0
  -27.6885  -14.2529   19.5483 H   0  0  0  0  0  0
  -28.7015  -12.0107   21.3555 H   0  0  0  0  0  0
  -28.4483  -13.6518   21.8644 H   0  0  0  0  0  0
  -25.2768   -9.5685   22.4764 H   0  0  0  0  0  0
  -23.9995   -7.4637   22.7467 H   0  0  0  0  0  0
  -21.0844   -8.8774   19.8953 H   0  0  0  0  0  0
  -22.3692  -10.9681   19.6155 H   0  0  0  0  0  0
  -21.2008   -7.6149   23.9713 H   0  0  0  0  0  0
  -21.1474   -6.0523   25.9074 H   0  0  0  0  0  0
  -22.0606   -2.7613   23.2845 H   0  0  0  0  0  0
  -22.4120  -11.9885   22.4777 H   0  0  0  0  0  0
  -21.1120  -13.1274   22.2608 H   0  0  0  0  0  0
  -24.6731  -15.8469   20.5234 H   0  0  0  0  0  0
  -26.2800  -15.6193   20.0597 H   0  0  0  0  0  0
  -26.7161  -32.5432   23.1075 H   0  0  0  0  0  0
  -25.0104  -33.9713   25.0430 H   0  0  0  0  0  0
  -22.7159  -31.3064   21.4034 H   0  0  0  0  0  0
  -23.3760  -35.9625   23.3304 H   0  0  0  0  0  0
  -24.3601  -36.8913   22.2059 H   0  0  0  0  0  0
  -23.7283  -37.6495   23.6655 H   0  0  0  0  0  0
  -26.1031  -31.5529   20.6109 H   0  0  0  0  0  0
  -26.8426  -30.8303   22.0076 H   0  0  0  0  0  0
  -28.1131  -28.9691   21.1946 H   0  0  0  0  0  0
  -25.9424  -25.9368   18.9941 H   0  0  0  0  0  0
  -23.9650  -27.3301   18.9945 H   0  0  0  0  0  0
  -23.7572  -30.6066   19.4068 H   0  0  0  0  0  0
  -22.7529  -29.2570   19.8513 H   0  0  0  0  0  0
  -25.1305  -36.1909   25.0815 H   0  0  0  0  0  0
  -20.9997  -28.3259   24.1384 H   0  0  0  0  0  0
  -20.5758  -26.2268   23.3588 H   0  0  0  0  0  0
  -21.6673  -26.7469   22.1168 H   0  0  0  0  0  0
  -19.6971  -25.6298   21.1234 H   0  0  0  0  0  0
  -19.6759  -27.3181   20.6713 H   0  0  0  0  0  0
  -17.4246  -26.6668   21.3994 H   0  0  0  0  0  0
  -18.0373  -26.0075   22.9009 H   0  0  0  0  0  0
  -19.7960  -30.7283   24.2222 H   0  0  0  0  0  0
  -17.5034  -31.6262   24.5150 H   0  0  0  0  0  0
  -15.5368  -30.2954   23.7700 H   0  0  0  0  0  0
  -15.8689  -28.0829   22.7025 H   0  0  0  0  0  0
  -24.5910  -30.7071   25.7774 H   0  0  0  0  0  0
  -24.8922  -32.2876   26.4855 H   0  0  0  0  0  0
  -25.8066  -30.8914   27.0231 H   0  0  0  0  0  0
  -26.2949  -29.6732   24.1224 H   0  0  0  0  0  0
  -27.4118  -29.7283   25.4665 H   0  0  0  0  0  0
  -27.8787  -30.4317   23.9363 H   0  0  0  0  0  0
  -27.2696  -33.3625   26.2051 H   0  0  0  0  0  0
  -28.3892  -32.6862   25.0309 H   0  0  0  0  0  0
  -28.0721  -31.8445   26.5413 H   0  0  0  0  0  0
  -28.2582  -38.0109   24.7493 H   0  0  0  0  0  0
  -28.1103  -36.2637   24.6311 H   0  0  0  0  0  0
  -27.2293  -37.1456   25.8866 H   0  0  0  0  0  0
  -20.9387  -29.8721   21.6834 H   0  0  0  0  0  0
  -26.0186  -38.2831   24.1414 H   0  0  0  0  0  0
  -31.3533  -17.1279   19.1784 H   0  0  0  0  0  0
  -28.4564  -19.9923   21.9970 H   0  0  0  0  0  0
  -32.0347  -18.9388   17.9071 H   0  0  0  0  0  0
  -32.3772  -20.3212   18.9484 H   0  0  0  0  0  0
  -30.9985  -20.3539   17.8368 H   0  0  0  0  0  0
  -26.3691  -18.4546   22.2762 H   0  0  0  0  0  0
  -27.2999  -19.1119   23.6319 H   0  0  0  0  0  0
  -26.3772  -17.6432   23.8340 H   0  0  0  0  0  0
  -29.8832  -16.3200   23.6556 H   0  0  0  0  0  0
  -28.5190  -16.6035   24.7296 H   0  0  0  0  0  0
  -29.5837  -17.9358   24.2865 H   0  0  0  0  0  0
  -30.0146  -24.1082   19.6800 H   0  0  0  0  0  0
  -29.6277  -24.1591   21.3730 H   0  0  0  0  0  0
  -28.1313  -22.2276   19.5132 H   0  0  0  0  0  0
  -28.2281  -22.1506   21.2513 H   0  0  0  0  0  0
  -27.2192  -24.7544   20.7182 H   0  0  0  0  0  0
  -27.7450  -24.7866   19.0517 H   0  0  0  0  0  0
  -27.7930  -16.4039   22.3310 H   0  0  0  0  0  0
  -28.9980  -15.3068   21.3889 H   0  0  0  0  0  0
  -30.6293  -21.7143   19.5304 H   0  0  0  0  0  0
  1 25  1  0  0  0
  1 30  2  0  0  0
  1 84  1  0  0  0
  2  3  1  0  0  0
  2 25  1  0  0  0
  2 86  1  0  0  0
  2 87  1  0  0  0
  3  4  1  0  0  0
  3 88  1  0  0  0
  3 89  1  0  0  0
  4  5  1  0  0  0
  4 90  1  0  0  0
  4 91  1  0  0  0
  5  6  1  0  0  0
  5 26  1  0  0  0
  5 92  1  0  0  0
  6 25  1  0  0  0
  6 93  1  0  0  0
  6 94  1  0  0  0
  7  8  2  0  0  0
  7 26  1  0  0  0
  7 29  1  0  0  0
  8  9  1  0  0  0
  8 22  1  0  0  0
  9 10  1  0  0  0
  9 27  2  0  0  0
 10 11  2  0  0  0
 10 15  1  0  0  0
 11 12  1  0  0  0
 11 95  1  0  0  0
 12 13  2  0  0  0
 12 96  1  0  0  0
 13 14  1  0  0  0
 13 31  1  0  0  0
 14 15  2  0  0  0
 14 97  1  0  0  0
 15 98  1  0  0  0
 16 17  2  0  0  0
 16 21  1  0  0  0
 16 31  1  0  0  0
 17 18  1  0  0  0
 17 99  1  0  0  0
 18 19  2  0  0  0
 18100  1  0  0  0
 19 20  1  0  0  0
 19 24  1  0  0  0
 20 21  2  0  0  0
 20101  1  0  0  0
 21 23  1  0  0  0
 22 28  1  0  0  0
 22 32  2  0  0  0
 26 27  1  0  0  0
 28102  1  0  0  0
 28103  1  0  0  0
 29104  1  0  0  0
 29105  1  0  0  0
 33 34  1  0  0  0
 33 66  1  0  0  0
 33 70  2  0  0  0
 34 36  1  0  0  0
 34 59  1  0  0  0
 34106  1  0  0  0
 35 44  2  0  0  0
 35 45  1  0  0  0
 35 68  1  0  0  0
 36 56  1  0  0  0
 36107  1  0  0  0
 37 39  1  0  0  0
 37 47  1  0  0  0
 37 66  1  0  0  0
 37108  1  0  0  0
 38 43  2  0  0  0
 38 46  1  0  0  0
 38 47  1  0  0  0
 39 64  1  0  0  0
 39 67  2  0  0  0
 40 52  1  0  0  0
 40 53  2  0  0  0
 40 58  1  0  0  0
 41109  1  0  0  0
 41110  1  0  0  0
 41111  1  0  0  0
 41 48  1  0  0  0
 42 43  1  0  0  0
 42 66  1  0  0  0
 42112  1  0  0  0
 42113  1  0  0  0
 43 44  1  0  0  0
 44114  1  0  0  0
 45 46  2  0  0  0
 45115  1  0  0  0
 46116  1  0  0  0
 47117  1  0  0  0
 47118  1  0  0  0
 48 56  1  0  0  0
 48 65  1  0  0  0
 48119  1  0  0  0
 49 50  1  0  0  0
 49 53  1  0  0  0
 49 64  1  0  0  0
 49120  1  0  0  0
 50 51  1  0  0  0
 50121  1  0  0  0
 50122  1  0  0  0
 51 52  1  0  0  0
 51123  1  0  0  0
 51124  1  0  0  0
 52125  1  0  0  0
 52126  1  0  0  0
 53 54  1  0  0  0
 54 55  2  0  0  0
 54127  1  0  0  0
 55 57  1  0  0  0
 55128  1  0  0  0
 56 69  2  0  0  0
 57 58  2  0  0  0
 57129  1  0  0  0
 58130  1  0  0  0
 59 60  1  0  0  0
 59 61  1  0  0  0
 59 62  1  0  0  0
 60131  1  0  0  0
 60132  1  0  0  0
 60133  1  0  0  0
 61134  1  0  0  0
 61135  1  0  0  0
 61136  1  0  0  0
 62137  1  0  0  0
 62138  1  0  0  0
 62139  1  0  0  0
 63 65  1  0  0  0
 63140  1  0  0  0
 63141  1  0  0  0
 63142  1  0  0  0
 64143  1  0  0  0
 65144  1  0  0  0
 68 82  1  0  0  0
 71 73  2  0  0  0
 71 76  1  0  0  0
 71145  1  0  0  0
 72 74  1  0  0  0
 72 75  2  0  0  0
 72146  1  0  0  0
 73 75  1  0  0  0
 73 77  1  0  0  0
 74 76  2  0  0  0
 74 83  1  0  0  0
 75 85  1  0  0  0
 76 84  1  0  0  0
 77147  1  0  0  0
 77148  1  0  0  0
 77149  1  0  0  0
 78150  1  0  0  0
 78151  1  0  0  0
 78152  1  0  0  0
 78 83  1  0  0  0
 79 83  1  0  0  0
 79153  1  0  0  0
 79154  1  0  0  0
 79155  1  0  0  0
 80 81  1  0  0  0
 80 82  1  0  0  0
 80156  1  0  0  0
 80157  1  0  0  0
 81 85  1  0  0  0
 81158  1  0  0  0
 81159  1  0  0  0
 82160  1  0  0  0
 82161  1  0  0  0
 83162  1  0  0  0
 84163  1  0  0  0
 85164  1  0  0  0
M  ISO  4   1 100  68 101  82 101  84 100
M  END
> <chiral flag>
0

> <version>
0

> <s_m_source_file>
/data/baiqing/PycharmProjects/Reinvent-master-3.2/result/LINK_invent/BTK/process_docking_weight1_custom_product_contain_oxygen_bond_distance_aromatic_linkinvent_7_9_3/rearranged_h_0006.sdf

> <i_m_source_file_index>
24

> <r_mmod_Potential_Energy-OPLS-2005>
13.2824077606201

> <r_mmod_Stretch_Energy-OPLS-2005>
78.4778289794922

> <r_mmod_Bend_Energy-OPLS-2005>
142.855041503906

> <r_mmod_Torsional_Energy-OPLS-2005>
214.938369750977

> <r_mmod_Improper_Torsional_Energy-OPLS-2005>
5.60741662979126

> <r_mmod_Van_der_Waal_Energy-OPLS-2005>
148.416122436523

> <r_mmod_Electrostatic_Energy-OPLS-2005>
-415.313842773438

> <r_mmod_Solvation_Energy-OPLS-2005>
-207.510101318359

> <b_mmod_Minimization_Converged-OPLS-2005>
0

> <r_mmod_RMS_Derivative-OPLS-2005>
2.70240259170532

$$$$
25
                    3D
 Structure written by MMmdl.
170179  0  0  1  0            999 V2000
  -30.7786  -14.3509   20.7259 C   0  0  0  0  0  0
  -30.4232  -12.3117   19.3782 C   0  0  0  0  0  0
  -29.4743  -12.5458   18.1869 C   0  0  0  0  0  0
  -28.0035  -12.3801   18.6100 C   0  0  0  0  0  0
  -27.6646  -13.1978   19.8812 C   0  0  2  0  0  0
  -28.7062  -12.9268   20.9889 C   0  0  0  0  0  0
  -25.2599  -13.8138   20.5686 C   0  0  0  0  0  0
  -24.1851  -13.0427   20.9166 C   0  0  0  0  0  0
  -24.6398  -11.6879   20.8752 C   0  0  0  0  0  0
  -23.9061  -10.4280   21.0422 C   0  0  0  0  0  0
  -24.3615   -9.4184   21.9186 C   0  0  0  0  0  0
  -23.6291   -8.2227   22.0744 C   0  0  0  0  0  0
  -22.4266   -8.0283   21.3544 C   0  0  0  0  0  0
  -21.9911   -9.0265   20.4644 C   0  0  0  0  0  0
  -22.7246  -10.2138   20.3055 C   0  0  0  0  0  0
  -21.6845   -6.0742   22.5279 C   0  0  0  0  0  0
  -21.4018   -6.5645   23.8218 C   0  0  0  0  0  0
  -21.3659   -5.6795   24.9181 C   0  0  0  0  0  0
  -21.6045   -4.3063   24.7227 C   0  0  0  0  0  0
  -21.8821   -3.8155   23.4345 C   0  0  0  0  0  0
  -21.9197   -4.6977   22.3402 C   0  0  0  0  0  0
  -22.7874  -13.5227   21.1832 C   0  0  0  0  0  0
  -22.1655   -4.2167   21.0975 F   0  0  0  0  0  0
  -21.5621   -3.4533   25.7729 F   0  0  0  0  0  0
  -30.0488  -13.2375   20.4545 N   0  0  0  0  0  0
  -26.3035  -12.9286   20.3402 N   0  0  0  0  0  0
  -25.9317  -11.6441   20.5784 N   0  0  0  0  0  0
  -22.0511  -12.8231   22.0388 N   0  0  0  0  0  0
  -25.4344  -15.1868   20.4101 N   0  0  0  0  0  0
  -31.7921  -14.6668   20.0925 O   0  0  0  0  0  0
  -21.6624   -6.8886   21.4236 O   0  0  0  0  0  0
  -22.3565  -14.5553   20.6696 O   0  0  0  0  0  0
  -24.6115  -31.8695   23.2133 C   0  0  0  0  0  0
  -25.9002  -32.4849   23.8433 C   0  0  1  0  0  0
  -27.2434  -27.4767   20.0802 C   0  0  0  0  0  0
  -25.5843  -33.8645   24.2355 N   0  0  0  0  0  0
  -23.4007  -30.4886   21.5536 C   0  0  2  0  0  0
  -24.8499  -28.9563   20.1175 C   0  0  0  0  0  0
  -22.7412  -29.4635   22.5041 C   0  0  0  0  0  0
  -18.0254  -28.1361   22.8494 C   0  0  0  0  0  0
  -24.1491  -36.7356   23.2644 C   0  0  0  0  0  0
  -25.9235  -30.8465   21.3603 C   0  0  0  0  0  0
  -26.0045  -29.4801   20.7144 C   0  0  0  0  0  0
  -27.2070  -28.7443   20.6977 C   0  0  0  0  0  0
  -26.0796  -26.9544   19.4830 C   0  0  0  0  0  0
  -24.8792  -27.6917   19.5009 C   0  0  0  0  0  0
  -23.6092  -29.8181   20.1686 C   0  0  0  0  0  0
  -25.4105  -36.3146   24.0355 C   0  0  1  0  0  0
  -20.5844  -28.3639   23.1341 C   0  0  2  0  0  0
  -20.6734  -26.9376   22.5436 C   0  0  0  0  0  0
  -19.5720  -26.6374   21.5218 C   0  0  0  0  0  0
  -18.1900  -26.7903   22.1634 C   0  0  0  0  0  0
  -19.1503  -28.8823   23.2906 C   0  0  0  0  0  0
  -18.9428  -30.1432   23.8912 C   0  0  0  0  0  0
  -17.6428  -30.6564   24.0566 C   0  0  0  0  0  0
  -25.9022  -34.9498   23.5165 C   0  0  0  0  0  0
  -16.5322  -29.9073   23.6312 C   0  0  0  0  0  0
  -16.7244  -28.6494   23.0329 C   0  0  0  0  0  0
  -26.4431  -31.6601   25.0734 C   0  0  0  0  0  0
  -25.3713  -31.3665   26.1493 C   0  0  0  0  0  0
  -27.0237  -30.3059   24.6035 C   0  0  0  0  0  0
  -27.6036  -32.4298   25.7468 C   0  0  0  0  0  0
  -27.5591  -37.1838   24.8463 C   0  0  0  0  0  0
  -21.4140  -29.3016   22.3787 N   0  0  0  0  0  0
  -26.4309  -37.3813   23.9403 N   0  0  0  0  0  0
  -24.6637  -31.0817   22.1024 N   0  0  0  0  0  0
  -23.4189  -28.8180   23.3075 O   0  0  0  0  0  0
  -28.4074  -26.7575   20.0284 O   0  0  0  0  0  0
  -26.5601  -34.8936   22.4733 O   0  0  0  0  0  0
  -23.5312  -32.1427   23.7537 O   0  0  0  0  0  0
  -32.7532  -17.4540   23.3460 C   0  0  0  0  0  0
  -31.8570  -18.3975   23.8846 C   0  0  0  0  0  0
  -32.2691  -16.3484   22.6183 C   0  0  0  0  0  0
  -29.9877  -17.1273   22.9671 C   0  0  0  0  0  0
  -30.4701  -18.2350   23.6926 C   0  0  0  0  0  0
  -30.8779  -16.1849   22.4172 C   0  0  0  0  0  0
  -27.7360  -20.7451   23.3407 C   0  0  0  0  0  0
  -27.4974  -20.1464   19.9652 C   0  0  0  0  0  0
  -26.5282  -20.1155   21.1472 C   0  0  0  0  0  0
  -27.8762  -21.6249   19.8822 C   0  0  0  0  0  0
  -27.0087  -21.2471   22.0812 C   0  0  2  0  0  0
  -29.4897  -19.2467   24.2494 C   0  0  0  0  0  0
  -28.7080  -24.4523   20.7371 C   0  0  0  0  0  0
  -27.6648  -23.5661   21.4495 C   0  0  0  0  0  0
  -28.6293  -25.9308   21.1641 C   0  0  0  0  0  0
  -30.3113  -15.0641   21.7608 N   0  0  0  0  0  0
  -28.6606  -19.7909   23.1842 N   0  0  0  0  0  0
  -27.9118  -22.1107   21.2803 N   0  3  2  0  0  0
  -27.4953  -21.2510   24.4381 O   0  0  0  0  0  0
  -31.4624  -12.4341   19.0652 H   0  0  0  0  0  0
  -30.3424  -11.2865   19.7390 H   0  0  0  0  0  0
  -29.7083  -11.8563   17.3756 H   0  0  0  0  0  0
  -29.6259  -13.5517   17.7905 H   0  0  0  0  0  0
  -27.8185  -11.3200   18.7901 H   0  0  0  0  0  0
  -27.3418  -12.6680   17.7918 H   0  0  0  0  0  0
  -27.7238  -14.2531   19.6123 H   0  0  0  0  0  0
  -28.4407  -13.4771   21.8921 H   0  0  0  0  0  0
  -28.6772  -11.8754   21.2806 H   0  0  0  0  0  0
  -25.2773   -9.5649   22.4746 H   0  0  0  0  0  0
  -24.0002   -7.4601   22.7452 H   0  0  0  0  0  0
  -21.0836   -8.8814   19.8938 H   0  0  0  0  0  0
  -22.3741  -10.9685   19.6162 H   0  0  0  0  0  0
  -21.2013   -7.6152   23.9742 H   0  0  0  0  0  0
  -21.1466   -6.0511   25.9089 H   0  0  0  0  0  0
  -22.0604   -2.7615   23.2841 H   0  0  0  0  0  0
  -22.4087  -11.9865   22.4751 H   0  0  0  0  0  0
  -21.1128  -13.1266   22.2570 H   0  0  0  0  0  0
  -26.3029  -15.6242   20.1263 H   0  0  0  0  0  0
  -24.6714  -15.8480   20.5067 H   0  0  0  0  0  0
  -26.7094  -32.5581   23.1227 H   0  0  0  0  0  0
  -24.9917  -33.9811   25.0451 H   0  0  0  0  0  0
  -22.6881  -31.3038   21.4149 H   0  0  0  0  0  0
  -23.3739  -35.9702   23.3311 H   0  0  0  0  0  0
  -24.3608  -36.8958   22.2060 H   0  0  0  0  0  0
  -23.7254  -37.6576   23.6640 H   0  0  0  0  0  0
  -26.0207  -31.6086   20.5869 H   0  0  0  0  0  0
  -26.8175  -30.9109   21.9682 H   0  0  0  0  0  0
  -28.1051  -29.1487   21.1441 H   0  0  0  0  0  0
  -26.1079  -25.9896   18.9952 H   0  0  0  0  0  0
  -23.9928  -27.2856   19.0340 H   0  0  0  0  0  0
  -23.7181  -30.5925   19.4079 H   0  0  0  0  0  0
  -22.7326  -29.2370   19.8758 H   0  0  0  0  0  0
  -25.1275  -36.2041   25.0852 H   0  0  0  0  0  0
  -20.9909  -28.3186   24.1468 H   0  0  0  0  0  0
  -20.5598  -26.2250   23.3626 H   0  0  0  0  0  0
  -21.6611  -26.7394   22.1256 H   0  0  0  0  0  0
  -19.6876  -25.6292   21.1230 H   0  0  0  0  0  0
  -19.6657  -27.3198   20.6760 H   0  0  0  0  0  0
  -17.4169  -26.6638   21.4043 H   0  0  0  0  0  0
  -18.0308  -26.0045   22.9031 H   0  0  0  0  0  0
  -19.7903  -30.7242   24.2294 H   0  0  0  0  0  0
  -17.4976  -31.6240   24.5169 H   0  0  0  0  0  0
  -15.5322  -30.2970   23.7623 H   0  0  0  0  0  0
  -15.8648  -28.0825   22.7007 H   0  0  0  0  0  0
  -24.5917  -30.6963   25.7842 H   0  0  0  0  0  0
  -24.8840  -32.2778   26.4966 H   0  0  0  0  0  0
  -25.8087  -30.8847   27.0246 H   0  0  0  0  0  0
  -26.2748  -29.6868   24.1068 H   0  0  0  0  0  0
  -27.4014  -29.7240   25.4456 H   0  0  0  0  0  0
  -27.8585  -30.4424   23.9156 H   0  0  0  0  0  0
  -27.2696  -33.3613   26.2053 H   0  0  0  0  0  0
  -28.3810  -32.6825   25.0244 H   0  0  0  0  0  0
  -28.0723  -31.8401   26.5357 H   0  0  0  0  0  0
  -28.2618  -38.0126   24.7491 H   0  0  0  0  0  0
  -28.1078  -36.2658   24.6303 H   0  0  0  0  0  0
  -27.2313  -37.1506   25.8868 H   0  0  0  0  0  0
  -20.9307  -29.8808   21.7067 H   0  0  0  0  0  0
  -26.0216  -38.2914   24.1345 H   0  0  0  0  0  0
  -33.8161  -17.5746   23.5046 H   0  0  0  0  0  0
  -32.2391  -19.2389   24.4493 H   0  0  0  0  0  0
  -32.9735  -15.6209   22.2419 H   0  0  0  0  0  0
  -28.9212  -17.0001   22.8358 H   0  0  0  0  0  0
  -27.0468  -19.7813   19.0416 H   0  0  0  0  0  0
  -28.3792  -19.5345   20.1640 H   0  0  0  0  0  0
  -26.4819  -19.1376   21.6265 H   0  0  0  0  0  0
  -25.5190  -20.3414   20.7974 H   0  0  0  0  0  0
  -28.8214  -21.7832   19.3622 H   0  0  0  0  0  0
  -27.1018  -22.1591   19.3288 H   0  0  0  0  0  0
  -26.1327  -21.8143   22.3999 H   0  0  0  0  0  0
  -30.0225  -20.0498   24.7612 H   0  0  0  0  0  0
  -28.8613  -18.7527   24.9922 H   0  0  0  0  0  0
  -28.5944  -24.3673   19.6548 H   0  0  0  0  0  0
  -29.7113  -24.0848   20.9551 H   0  0  0  0  0  0
  -26.6612  -23.8157   21.0999 H   0  0  0  0  0  0
  -27.6833  -23.7875   22.5175 H   0  0  0  0  0  0
  -27.8642  -26.0782   21.9316 H   0  0  0  0  0  0
  -29.5730  -26.2304   21.6219 H   0  0  0  0  0  0
  -29.4150  -14.7586   22.1072 H   0  0  0  0  0  0
  -28.7791  -19.3710   22.2736 H   0  0  0  0  0  0
  -28.8323  -21.9173   21.6485 H   0  0  0  0  0  0
  1 25  1  0  0  0
  1 30  2  0  0  0
  1 86  1  0  0  0
  2  3  1  0  0  0
  2 25  1  0  0  0
  2 90  1  0  0  0
  2 91  1  0  0  0
  3  4  1  0  0  0
  3 92  1  0  0  0
  3 93  1  0  0  0
  4  5  1  0  0  0
  4 94  1  0  0  0
  4 95  1  0  0  0
  5  6  1  0  0  0
  5 26  1  0  0  0
  5 96  1  0  0  0
  6 25  1  0  0  0
  6 97  1  0  0  0
  6 98  1  0  0  0
  7  8  2  0  0  0
  7 26  1  0  0  0
  7 29  1  0  0  0
  8  9  1  0  0  0
  8 22  1  0  0  0
  9 10  1  0  0  0
  9 27  2  0  0  0
 10 11  2  0  0  0
 10 15  1  0  0  0
 11 12  1  0  0  0
 11 99  1  0  0  0
 12 13  2  0  0  0
 12100  1  0  0  0
 13 14  1  0  0  0
 13 31  1  0  0  0
 14 15  2  0  0  0
 14101  1  0  0  0
 15102  1  0  0  0
 16 17  2  0  0  0
 16 21  1  0  0  0
 16 31  1  0  0  0
 17 18  1  0  0  0
 17103  1  0  0  0
 18 19  2  0  0  0
 18104  1  0  0  0
 19 20  1  0  0  0
 19 24  1  0  0  0
 20 21  2  0  0  0
 20105  1  0  0  0
 21 23  1  0  0  0
 22 28  1  0  0  0
 22 32  2  0  0  0
 26 27  1  0  0  0
 28106  1  0  0  0
 28107  1  0  0  0
 29108  1  0  0  0
 29109  1  0  0  0
 33 34  1  0  0  0
 33 66  1  0  0  0
 33 70  2  0  0  0
 34 36  1  0  0  0
 34 59  1  0  0  0
 34110  1  0  0  0
 35 44  2  0  0  0
 35 45  1  0  0  0
 35 68  1  0  0  0
 36 56  1  0  0  0
 36111  1  0  0  0
 37 39  1  0  0  0
 37 47  1  0  0  0
 37 66  1  0  0  0
 37112  1  0  0  0
 38 43  2  0  0  0
 38 46  1  0  0  0
 38 47  1  0  0  0
 39 64  1  0  0  0
 39 67  2  0  0  0
 40 52  1  0  0  0
 40 53  2  0  0  0
 40 58  1  0  0  0
 41113  1  0  0  0
 41114  1  0  0  0
 41115  1  0  0  0
 41 48  1  0  0  0
 42 43  1  0  0  0
 42 66  1  0  0  0
 42116  1  0  0  0
 42117  1  0  0  0
 43 44  1  0  0  0
 44118  1  0  0  0
 45 46  2  0  0  0
 45119  1  0  0  0
 46120  1  0  0  0
 47121  1  0  0  0
 47122  1  0  0  0
 48 56  1  0  0  0
 48 65  1  0  0  0
 48123  1  0  0  0
 49 50  1  0  0  0
 49 53  1  0  0  0
 49 64  1  0  0  0
 49124  1  0  0  0
 50 51  1  0  0  0
 50125  1  0  0  0
 50126  1  0  0  0
 51 52  1  0  0  0
 51127  1  0  0  0
 51128  1  0  0  0
 52129  1  0  0  0
 52130  1  0  0  0
 53 54  1  0  0  0
 54 55  2  0  0  0
 54131  1  0  0  0
 55 57  1  0  0  0
 55132  1  0  0  0
 56 69  2  0  0  0
 57 58  2  0  0  0
 57133  1  0  0  0
 58134  1  0  0  0
 59 60  1  0  0  0
 59 61  1  0  0  0
 59 62  1  0  0  0
 60135  1  0  0  0
 60136  1  0  0  0
 60137  1  0  0  0
 61138  1  0  0  0
 61139  1  0  0  0
 61140  1  0  0  0
 62141  1  0  0  0
 62142  1  0  0  0
 62143  1  0  0  0
 63 65  1  0  0  0
 63144  1  0  0  0
 63145  1  0  0  0
 63146  1  0  0  0
 64147  1  0  0  0
 65148  1  0  0  0
 68 85  1  0  0  0
 71 72  2  0  0  0
 71 73  1  0  0  0
 71149  1  0  0  0
 72 75  1  0  0  0
 72150  1  0  0  0
 73 76  2  0  0  0
 73151  1  0  0  0
 74 75  2  0  0  0
 74 76  1  0  0  0
 74152  1  0  0  0
 75 82  1  0  0  0
 76 86  1  0  0  0
 77 87  1  0  0  0
 77 89  2  0  0  0
 77 81  1  0  0  0
 78 79  1  0  0  0
 78 80  1  0  0  0
 78153  1  0  0  0
 78154  1  0  0  0
 79 81  1  0  0  0
 79155  1  0  0  0
 79156  1  0  0  0
 80 88  1  0  0  0
 80157  1  0  0  0
 80158  1  0  0  0
 81 88  1  0  0  0
 81159  1  0  0  0
 82 87  1  0  0  0
 82160  1  0  0  0
 82161  1  0  0  0
 83 84  1  0  0  0
 83 85  1  0  0  0
 83162  1  0  0  0
 83163  1  0  0  0
 84164  1  0  0  0
 84165  1  0  0  0
 84 88  1  0  0  0
 85166  1  0  0  0
 85167  1  0  0  0
 86168  1  0  0  0
 87169  1  0  0  0
 88170  1  0  0  0
M  CHG  1  88   1
M  ISO  4   1 100  68 101  85 101  86 100
M  END
> <chiral flag>
0

> <version>
0

> <s_m_source_file>
/data/baiqing/PycharmProjects/Reinvent-master-3.2/result/LINK_invent/BTK/process_docking_weight1_custom_product_contain_oxygen_bond_distance_aromatic_linkinvent_7_9_3/rearranged_h_0006.sdf

> <i_m_source_file_index>
25

> <r_mmod_Potential_Energy-OPLS-2005>
-195.103149414062

> <r_mmod_Stretch_Energy-OPLS-2005>
31.9876613616943

> <r_mmod_Bend_Energy-OPLS-2005>
113.090538024902

> <r_mmod_Torsional_Energy-OPLS-2005>
325.488586425781

> <r_mmod_Improper_Torsional_Energy-OPLS-2005>
1.9538631439209

> <r_mmod_Van_der_Waal_Energy-OPLS-2005>
147.955825805664

> <r_mmod_Electrostatic_Energy-OPLS-2005>
-355.6787109375

> <r_mmod_Solvation_Energy-OPLS-2005>
-466.836822509766

> <b_mmod_Minimization_Converged-OPLS-2005>
0

> <r_mmod_RMS_Derivative-OPLS-2005>
2.81066417694092

$$$$
26
                    3D
 Structure written by MMmdl.
152161  0  0  1  0            999 V2000
  -30.4858  -14.8956   20.4472 C   0  0  0  0  0  0
  -30.4521  -12.5587   19.4912 C   0  0  0  0  0  0
  -29.5227  -12.5337   18.2524 C   0  0  0  0  0  0
  -28.0536  -12.3179   18.6661 C   0  0  0  0  0  0
  -27.6339  -13.2278   19.8490 C   0  0  2  0  0  0
  -28.6726  -13.1909   20.9922 C   0  0  0  0  0  0
  -25.2459  -13.8157   20.5671 C   0  0  0  0  0  0
  -24.1772  -13.0414   20.9198 C   0  0  0  0  0  0
  -24.6367  -11.6888   20.8727 C   0  0  0  0  0  0
  -23.9037  -10.4291   21.0421 C   0  0  0  0  0  0
  -24.3596   -9.4213   21.9188 C   0  0  0  0  0  0
  -23.6273   -8.2241   22.0753 C   0  0  0  0  0  0
  -22.4255   -8.0274   21.3540 C   0  0  0  0  0  0
  -21.9910   -9.0257   20.4647 C   0  0  0  0  0  0
  -22.7222  -10.2129   20.3082 C   0  0  0  0  0  0
  -21.6865   -6.0742   22.5270 C   0  0  0  0  0  0
  -21.4007   -6.5636   23.8214 C   0  0  0  0  0  0
  -21.3657   -5.6787   24.9145 C   0  0  0  0  0  0
  -21.6065   -4.3061   24.7203 C   0  0  0  0  0  0
  -21.8812   -3.8145   23.4324 C   0  0  0  0  0  0
  -21.9193   -4.6960   22.3375 C   0  0  0  0  0  0
  -22.7798  -13.5195   21.1848 C   0  0  0  0  0  0
  -22.1662   -4.2157   21.0968 F   0  0  0  0  0  0
  -21.5629   -3.4544   25.7720 F   0  0  0  0  0  0
  -29.9572  -13.6121   20.4119 N   0  0  0  0  0  0
  -26.2876  -12.9361   20.3235 N   0  0  0  0  0  0
  -25.9288  -11.6509   20.5739 N   0  0  0  0  0  0
  -22.0450  -12.8228   22.0438 N   0  0  0  0  0  0
  -25.4184  -15.1874   20.3990 N   0  0  0  0  0  0
  -31.6698  -15.0622   20.1214 O   0  0  0  0  0  0
  -21.6634   -6.8856   21.4225 O   0  0  0  0  0  0
  -22.3515  -14.5538   20.6695 O   0  0  0  0  0  0
  -24.6472  -31.8297   23.1824 C   0  0  0  0  0  0
  -25.9216  -32.4642   23.8231 C   0  0  1  0  0  0
  -27.2176  -27.1136   20.1708 C   0  0  0  0  0  0
  -25.5975  -33.8449   24.2155 N   0  0  0  0  0  0
  -23.4536  -30.4598   21.5222 C   0  0  2  0  0  0
  -24.8914  -28.8583   20.1194 C   0  0  0  0  0  0
  -22.7608  -29.4486   22.4725 C   0  0  0  0  0  0
  -18.0340  -28.1363   22.8384 C   0  0  0  0  0  0
  -24.1523  -36.7251   23.2649 C   0  0  0  0  0  0
  -26.0073  -30.7010   21.3696 C   0  0  0  0  0  0
  -26.0734  -29.3084   20.7164 C   0  0  0  0  0  0
  -27.2366  -28.4512   20.7038 C   0  0  0  0  0  0
  -26.0095  -26.7535   19.5292 C   0  0  0  0  0  0
  -24.8678  -27.6022   19.5080 C   0  0  0  0  0  0
  -23.6802  -29.7751   20.1510 C   0  0  0  0  0  0
  -25.4099  -36.2970   24.0319 C   0  0  1  0  0  0
  -20.5946  -28.3675   23.1209 C   0  0  2  0  0  0
  -20.6798  -26.9367   22.5386 C   0  0  0  0  0  0
  -19.5805  -26.6325   21.5168 C   0  0  0  0  0  0
  -18.1977  -26.7897   22.1552 C   0  0  0  0  0  0
  -19.1566  -28.8820   23.2810 C   0  0  0  0  0  0
  -18.9501  -30.1421   23.8859 C   0  0  0  0  0  0
  -17.6492  -30.6576   24.0519 C   0  0  0  0  0  0
  -25.8986  -34.9357   23.5007 C   0  0  0  0  0  0
  -16.5401  -29.9029   23.6345 C   0  0  0  0  0  0
  -16.7299  -28.6462   23.0315 C   0  0  0  0  0  0
  -26.4524  -31.6560   25.0700 C   0  0  0  0  0  0
  -25.3717  -31.3782   26.1420 C   0  0  0  0  0  0
  -27.0399  -30.2972   24.6285 C   0  0  0  0  0  0
  -27.6052  -32.4305   25.7488 C   0  0  0  0  0  0
  -27.5567  -37.1768   24.8448 C   0  0  0  0  0  0
  -21.4272  -29.3021   22.3582 N   0  0  0  0  0  0
  -26.4269  -37.3706   23.9383 N   0  0  0  0  0  0
  -24.7258  -31.0167   22.0864 N   0  0  0  0  0  0
  -23.4273  -28.8028   23.2855 O   0  0  0  0  0  0
  -28.3453  -26.2119   20.1423 O   0  0  0  0  0  0
  -26.5634  -34.8838   22.4619 O   0  0  0  0  0  0
  -23.5562  -32.1118   23.7090 O   0  0  0  0  0  0
  -30.3077  -19.8791   20.2930 C   0  0  0  0  0  0
  -30.5412  -18.4394   20.3661 C   0  0  0  0  0  0
  -28.2232  -18.1165   20.6430 C   0  0  0  0  0  0
  -26.7202  -20.2926   20.6186 C   0  0  0  0  0  0
  -27.9419  -19.5418   20.5550 C   0  0  0  0  0  0
  -29.0094  -20.4930   20.3869 C   0  0  0  0  0  0
  -29.5030  -17.4726   20.5425 C   0  0  0  0  0  0
  -27.0181  -21.6267   20.4654 C   0  0  0  0  0  0
  -28.9925  -23.3350   20.1894 C   0  0  0  0  0  0
  -28.3853  -24.8022   20.8151 C   0  0  0  0  0  0
  -28.4054  -21.8611   20.3731 N   0  0  0  0  0  0
  -29.5859  -15.9530   20.6701 N   0  0  0  0  0  0
  -26.1912  -22.7074   20.3957 O   0  0  0  0  0  0
  -31.4842  -12.7398   19.1833 H   0  0  0  0  0  0
  -30.4583  -11.5862   19.9888 H   0  0  0  0  0  0
  -29.8364  -11.7506   17.5599 H   0  0  0  0  0  0
  -29.6174  -13.4734   17.7107 H   0  0  0  0  0  0
  -27.9415  -11.2715   18.9500 H   0  0  0  0  0  0
  -27.3914  -12.4731   17.8128 H   0  0  0  0  0  0
  -27.6153  -14.2419   19.4512 H   0  0  0  0  0  0
  -28.7446  -12.1908   21.4262 H   0  0  0  0  0  0
  -28.3714  -13.8500   21.8091 H   0  0  0  0  0  0
  -25.2749   -9.5694   22.4768 H   0  0  0  0  0  0
  -23.9998   -7.4640   22.7501 H   0  0  0  0  0  0
  -21.0839   -8.8767   19.8967 H   0  0  0  0  0  0
  -22.3679  -10.9665   19.6201 H   0  0  0  0  0  0
  -21.2009   -7.6159   23.9694 H   0  0  0  0  0  0
  -21.1488   -6.0529   25.9054 H   0  0  0  0  0  0
  -22.0600   -2.7631   23.2818 H   0  0  0  0  0  0
  -22.4076  -11.9871   22.4793 H   0  0  0  0  0  0
  -21.1091  -13.1297   22.2661 H   0  0  0  0  0  0
  -24.6237  -15.8180   20.4491 H   0  0  0  0  0  0
  -26.2169  -15.5967   19.9326 H   0  0  0  0  0  0
  -26.7301  -32.5249   23.0962 H   0  0  0  0  0  0
  -25.0149  -33.9494   25.0342 H   0  0  0  0  0  0
  -22.7573  -31.2914   21.3607 H   0  0  0  0  0  0
  -23.3739  -35.9644   23.3247 H   0  0  0  0  0  0
  -24.3624  -36.8915   22.2078 H   0  0  0  0  0  0
  -23.7346  -37.6457   23.6708 H   0  0  0  0  0  0
  -26.1601  -31.4526   20.5944 H   0  0  0  0  0  0
  -26.8892  -30.7620   22.0031 H   0  0  0  0  0  0
  -28.1559  -28.7909   21.1468 H   0  0  0  0  0  0
  -25.8965  -25.7993   19.0395 H   0  0  0  0  0  0
  -23.9448  -27.2690   19.0411 H   0  0  0  0  0  0
  -23.8247  -30.5378   19.3859 H   0  0  0  0  0  0
  -22.7975  -29.2241   19.8402 H   0  0  0  0  0  0
  -25.1311  -36.1738   25.0838 H   0  0  0  0  0  0
  -21.0052  -28.3195   24.1300 H   0  0  0  0  0  0
  -20.5581  -26.2234   23.3550 H   0  0  0  0  0  0
  -21.6654  -26.7235   22.1216 H   0  0  0  0  0  0
  -19.6914  -25.6225   21.1193 H   0  0  0  0  0  0
  -19.6787  -27.3079   20.6700 H   0  0  0  0  0  0
  -17.4216  -26.6602   21.4004 H   0  0  0  0  0  0
  -18.0414  -26.0077   22.9002 H   0  0  0  0  0  0
  -19.7987  -30.7274   24.2137 H   0  0  0  0  0  0
  -17.5053  -31.6253   24.5155 H   0  0  0  0  0  0
  -15.5389  -30.2920   23.7705 H   0  0  0  0  0  0
  -15.8711  -28.0831   22.6962 H   0  0  0  0  0  0
  -24.5887  -30.7104   25.7813 H   0  0  0  0  0  0
  -24.8906  -32.2990   26.4758 H   0  0  0  0  0  0
  -25.7990  -30.9055   27.0289 H   0  0  0  0  0  0
  -26.3038  -29.6675   24.1271 H   0  0  0  0  0  0
  -27.4069  -29.7263   25.4846 H   0  0  0  0  0  0
  -27.8919  -30.4267   23.9588 H   0  0  0  0  0  0
  -27.2687  -33.3655   26.1989 H   0  0  0  0  0  0
  -28.3937  -32.6759   25.0357 H   0  0  0  0  0  0
  -28.0668  -31.8468   26.5474 H   0  0  0  0  0  0
  -28.2517  -38.0129   24.7466 H   0  0  0  0  0  0
  -28.1131  -36.2629   24.6278 H   0  0  0  0  0  0
  -27.2291  -37.1412   25.8866 H   0  0  0  0  0  0
  -20.9428  -29.8871   21.6930 H   0  0  0  0  0  0
  -26.0083  -38.2750   24.1442 H   0  0  0  0  0  0
  -31.1653  -20.5191   20.1845 H   0  0  0  0  0  0
  -31.5641  -18.0847   20.3191 H   0  0  0  0  0  0
  -27.3540  -17.5041   20.8080 H   0  0  0  0  0  0
  -25.7320  -19.8677   20.7550 H   0  0  0  0  0  0
  -30.0027  -23.2667   20.5909 H   0  0  0  0  0  0
  -29.1578  -23.4829   19.1179 H   0  0  0  0  0  0
  -29.0548  -25.0267   21.6480 H   0  0  0  0  0  0
  -27.4617  -24.6346   21.3600 H   0  0  0  0  0  0
  -28.6936  -15.5550   20.9146 H   0  0  0  0  0  0
  -25.3103  -22.4330   20.6248 H   0  0  0  0  0  0
  1 25  1  0  0  0
  1 30  2  0  0  0
  1 82  1  0  0  0
  2  3  1  0  0  0
  2 25  1  0  0  0
  2 84  1  0  0  0
  2 85  1  0  0  0
  3  4  1  0  0  0
  3 86  1  0  0  0
  3 87  1  0  0  0
  4  5  1  0  0  0
  4 88  1  0  0  0
  4 89  1  0  0  0
  5  6  1  0  0  0
  5 26  1  0  0  0
  5 90  1  0  0  0
  6 25  1  0  0  0
  6 91  1  0  0  0
  6 92  1  0  0  0
  7  8  2  0  0  0
  7 26  1  0  0  0
  7 29  1  0  0  0
  8  9  1  0  0  0
  8 22  1  0  0  0
  9 10  1  0  0  0
  9 27  2  0  0  0
 10 11  2  0  0  0
 10 15  1  0  0  0
 11 12  1  0  0  0
 11 93  1  0  0  0
 12 13  2  0  0  0
 12 94  1  0  0  0
 13 14  1  0  0  0
 13 31  1  0  0  0
 14 15  2  0  0  0
 14 95  1  0  0  0
 15 96  1  0  0  0
 16 17  2  0  0  0
 16 21  1  0  0  0
 16 31  1  0  0  0
 17 18  1  0  0  0
 17 97  1  0  0  0
 18 19  2  0  0  0
 18 98  1  0  0  0
 19 20  1  0  0  0
 19 24  1  0  0  0
 20 21  2  0  0  0
 20 99  1  0  0  0
 21 23  1  0  0  0
 22 28  1  0  0  0
 22 32  2  0  0  0
 26 27  1  0  0  0
 28100  1  0  0  0
 28101  1  0  0  0
 29102  1  0  0  0
 29103  1  0  0  0
 33 34  1  0  0  0
 33 66  1  0  0  0
 33 70  2  0  0  0
 34 36  1  0  0  0
 34 59  1  0  0  0
 34104  1  0  0  0
 35 44  2  0  0  0
 35 45  1  0  0  0
 35 68  1  0  0  0
 36 56  1  0  0  0
 36105  1  0  0  0
 37 39  1  0  0  0
 37 47  1  0  0  0
 37 66  1  0  0  0
 37106  1  0  0  0
 38 43  2  0  0  0
 38 46  1  0  0  0
 38 47  1  0  0  0
 39 64  1  0  0  0
 39 67  2  0  0  0
 40 52  1  0  0  0
 40 53  2  0  0  0
 40 58  1  0  0  0
 41107  1  0  0  0
 41108  1  0  0  0
 41109  1  0  0  0
 41 48  1  0  0  0
 42 43  1  0  0  0
 42 66  1  0  0  0
 42110  1  0  0  0
 42111  1  0  0  0
 43 44  1  0  0  0
 44112  1  0  0  0
 45 46  2  0  0  0
 45113  1  0  0  0
 46114  1  0  0  0
 47115  1  0  0  0
 47116  1  0  0  0
 48 56  1  0  0  0
 48 65  1  0  0  0
 48117  1  0  0  0
 49 50  1  0  0  0
 49 53  1  0  0  0
 49 64  1  0  0  0
 49118  1  0  0  0
 50 51  1  0  0  0
 50119  1  0  0  0
 50120  1  0  0  0
 51 52  1  0  0  0
 51121  1  0  0  0
 51122  1  0  0  0
 52123  1  0  0  0
 52124  1  0  0  0
 53 54  1  0  0  0
 54 55  2  0  0  0
 54125  1  0  0  0
 55 57  1  0  0  0
 55126  1  0  0  0
 56 69  2  0  0  0
 57 58  2  0  0  0
 57127  1  0  0  0
 58128  1  0  0  0
 59 60  1  0  0  0
 59 61  1  0  0  0
 59 62  1  0  0  0
 60129  1  0  0  0
 60130  1  0  0  0
 60131  1  0  0  0
 61132  1  0  0  0
 61133  1  0  0  0
 61134  1  0  0  0
 62135  1  0  0  0
 62136  1  0  0  0
 62137  1  0  0  0
 63 65  1  0  0  0
 63138  1  0  0  0
 63139  1  0  0  0
 63140  1  0  0  0
 64141  1  0  0  0
 65142  1  0  0  0
 68 80  1  0  0  0
 71 72  2  0  0  0
 71 76  1  0  0  0
 71143  1  0  0  0
 72 77  1  0  0  0
 72144  1  0  0  0
 73 75  1  0  0  0
 73 77  2  0  0  0
 73145  1  0  0  0
 74 75  1  0  0  0
 74 78  2  0  0  0
 74146  1  0  0  0
 75 76  2  0  0  0
 76 81  1  0  0  0
 77 82  1  0  0  0
 78 81  1  0  0  0
 78 83  1  0  0  0
 79 80  1  0  0  0
 79 81  1  0  0  0
 79147  1  0  0  0
 79148  1  0  0  0
 80149  1  0  0  0
 80150  1  0  0  0
 82151  1  0  0  0
 83152  1  0  0  0
M  ISO  4   1 100  68 101  80 101  82 100
M  END
> <chiral flag>
0

> <version>
0

> <s_m_source_file>
/data/baiqing/PycharmProjects/Reinvent-master-3.2/result/LINK_invent/BTK/process_docking_weight1_custom_product_contain_oxygen_bond_distance_aromatic_linkinvent_7_9_3/rearranged_h_0006.sdf

> <i_m_source_file_index>
26

> <r_mmod_Potential_Energy-OPLS-2005>
455.573913574219

> <r_mmod_Stretch_Energy-OPLS-2005>
237.43684387207

> <r_mmod_Bend_Energy-OPLS-2005>
270.281036376953

> <r_mmod_Torsional_Energy-OPLS-2005>
253.691635131836

> <r_mmod_Improper_Torsional_Energy-OPLS-2005>
6.13965845108032

> <r_mmod_Van_der_Waal_Energy-OPLS-2005>
121.85604095459

> <r_mmod_Electrostatic_Energy-OPLS-2005>
-381.107543945312

> <r_mmod_Solvation_Energy-OPLS-2005>
-228.135986328125

> <b_mmod_Minimization_Converged-OPLS-2005>
0

> <r_mmod_RMS_Derivative-OPLS-2005>
16.9353256225586

$$$$
27
                    3D
 Structure written by MMmdl.
162171  0  0  1  0            999 V2000
  -30.7079  -14.4328   20.6237 C   0  0  0  0  0  0
  -30.4257  -12.2985   19.4141 C   0  0  0  0  0  0
  -29.4961  -12.5264   18.2038 C   0  0  0  0  0  0
  -28.0169  -12.3806   18.6121 C   0  0  0  0  0  0
  -27.6672  -13.2016   19.8817 C   0  0  2  0  0  0
  -28.7044  -12.9444   20.9983 C   0  0  0  0  0  0
  -25.2614  -13.8152   20.5676 C   0  0  0  0  0  0
  -24.1852  -13.0440   20.9160 C   0  0  0  0  0  0
  -24.6393  -11.6904   20.8723 C   0  0  0  0  0  0
  -23.9049  -10.4292   21.0405 C   0  0  0  0  0  0
  -24.3610   -9.4209   21.9183 C   0  0  0  0  0  0
  -23.6295   -8.2237   22.0747 C   0  0  0  0  0  0
  -22.4275   -8.0275   21.3538 C   0  0  0  0  0  0
  -21.9901   -9.0243   20.4635 C   0  0  0  0  0  0
  -22.7223  -10.2126   20.3048 C   0  0  0  0  0  0
  -21.6848   -6.0740   22.5278 C   0  0  0  0  0  0
  -21.4011   -6.5638   23.8216 C   0  0  0  0  0  0
  -21.3661   -5.6786   24.9176 C   0  0  0  0  0  0
  -21.6046   -4.3049   24.7218 C   0  0  0  0  0  0
  -21.8822   -3.8144   23.4335 C   0  0  0  0  0  0
  -21.9189   -4.6968   22.3400 C   0  0  0  0  0  0
  -22.7880  -13.5243   21.1834 C   0  0  0  0  0  0
  -22.1660   -4.2157   21.0977 F   0  0  0  0  0  0
  -21.5634   -3.4531   25.7728 F   0  0  0  0  0  0
  -30.0447  -13.2548   20.4644 N   0  0  0  0  0  0
  -26.3047  -12.9309   20.3373 N   0  0  0  0  0  0
  -25.9316  -11.6476   20.5749 N   0  0  0  0  0  0
  -22.0509  -12.8245   22.0389 N   0  0  0  0  0  0
  -25.4361  -15.1864   20.4085 N   0  0  0  0  0  0
  -31.7934  -14.6676   20.0821 O   0  0  0  0  0  0
  -21.6634   -6.8877   21.4236 O   0  0  0  0  0  0
  -22.3570  -14.5554   20.6686 O   0  0  0  0  0  0
  -24.6143  -31.8695   23.2111 C   0  0  0  0  0  0
  -25.9041  -32.4826   23.8412 C   0  0  1  0  0  0
  -27.2417  -27.4500   20.0761 C   0  0  0  0  0  0
  -25.5900  -33.8625   24.2343 N   0  0  0  0  0  0
  -23.4016  -30.4942   21.5506 C   0  0  2  0  0  0
  -24.8471  -28.9613   20.1138 C   0  0  0  0  0  0
  -22.7405  -29.4681   22.4986 C   0  0  0  0  0  0
  -18.0268  -28.1389   22.8492 C   0  0  0  0  0  0
  -24.1486  -36.7325   23.2637 C   0  0  0  0  0  0
  -25.9292  -30.8350   21.3643 C   0  0  0  0  0  0
  -26.0051  -29.4689   20.7148 C   0  0  0  0  0  0
  -27.1989  -28.7139   20.7069 C   0  0  0  0  0  0
  -26.0579  -26.9473   19.4853 C   0  0  0  0  0  0
  -24.8671  -27.6969   19.5020 C   0  0  0  0  0  0
  -23.6091  -29.8268   20.1648 C   0  0  0  0  0  0
  -25.4104  -36.3114   24.0336 C   0  0  1  0  0  0
  -20.5860  -28.3680   23.1315 C   0  0  2  0  0  0
  -20.6764  -26.9417   22.5419 C   0  0  0  0  0  0
  -19.5743  -26.6397   21.5214 C   0  0  0  0  0  0
  -18.1917  -26.7939   22.1622 C   0  0  0  0  0  0
  -19.1518  -28.8847   23.2904 C   0  0  0  0  0  0
  -18.9445  -30.1448   23.8921 C   0  0  0  0  0  0
  -17.6450  -30.6591   24.0569 C   0  0  0  0  0  0
  -25.9035  -34.9477   23.5137 C   0  0  0  0  0  0
  -16.5341  -29.9098   23.6321 C   0  0  0  0  0  0
  -16.7259  -28.6515   23.0341 C   0  0  0  0  0  0
  -26.4478  -31.6589   25.0731 C   0  0  0  0  0  0
  -25.3748  -31.3676   26.1478 C   0  0  0  0  0  0
  -27.0300  -30.3030   24.6094 C   0  0  0  0  0  0
  -27.6071  -32.4287   25.7490 C   0  0  0  0  0  0
  -27.5577  -37.1816   24.8465 C   0  0  0  0  0  0
  -21.4132  -29.3048   22.3720 N   0  0  0  0  0  0
  -26.4294  -37.3793   23.9402 N   0  0  0  0  0  0
  -24.6667  -31.0805   22.1010 N   0  0  0  0  0  0
  -23.4179  -28.8219   23.3028 O   0  0  0  0  0  0
  -28.4215  -26.7346   20.1002 O   0  0  0  0  0  0
  -26.5600  -34.8923   22.4698 O   0  0  0  0  0  0
  -23.5334  -32.1452   23.7506 O   0  0  0  0  0  0
  -31.0956  -18.9180   20.7200 C   0  0  0  0  0  0
  -31.1927  -17.5193   20.8833 C   0  0  0  0  0  0
  -28.8482  -17.4410   21.5057 C   0  0  0  0  0  0
  -29.8704  -19.5984   20.9134 C   0  0  0  0  0  0
  -30.0564  -16.7598   21.2474 C   0  0  0  0  0  0
  -28.7480  -18.8376   21.3383 C   0  0  0  0  0  0
  -30.7196  -21.8917   21.3367 C   0  0  0  0  0  0
  -28.5423  -21.5897   20.2102 C   0  0  0  0  0  0
  -30.9578  -23.1815   20.5166 C   0  0  0  0  0  0
  -28.7895  -22.8638   19.3756 C   0  0  0  0  0  0
  -29.9880  -25.0616   19.2539 C   0  0  0  0  0  0
  -28.7730  -25.9670   18.9463 C   0  0  0  0  0  0
  -29.8014  -20.9881   20.6448 N   0  0  0  0  0  0
  -30.0595  -15.3381   21.3809 N   0  0  0  0  0  0
  -29.6951  -23.8339   20.0600 N   0  3  0  0  0  0
  -27.5568  -19.4326   21.5959 F   0  0  0  0  0  0
  -31.4707  -12.4008   19.1170 H   0  0  0  0  0  0
  -30.3242  -11.2778   19.7872 H   0  0  0  0  0  0
  -29.7368  -11.8221   17.4063 H   0  0  0  0  0  0
  -29.6658  -13.5231   17.7928 H   0  0  0  0  0  0
  -27.8245  -11.3225   18.7922 H   0  0  0  0  0  0
  -27.3661  -12.6694   17.7854 H   0  0  0  0  0  0
  -27.7236  -14.2559   19.6095 H   0  0  0  0  0  0
  -28.6750  -11.8973   21.3026 H   0  0  0  0  0  0
  -28.4539  -13.5051   21.8995 H   0  0  0  0  0  0
  -25.2761   -9.5693   22.4747 H   0  0  0  0  0  0
  -24.0011   -7.4628   22.7470 H   0  0  0  0  0  0
  -21.0827   -8.8746   19.8949 H   0  0  0  0  0  0
  -22.3673  -10.9657   19.6151 H   0  0  0  0  0  0
  -21.1998   -7.6146   23.9724 H   0  0  0  0  0  0
  -21.1486   -6.0513   25.9083 H   0  0  0  0  0  0
  -22.0600   -2.7606   23.2825 H   0  0  0  0  0  0
  -22.4102  -11.9901   22.4789 H   0  0  0  0  0  0
  -21.1128  -13.1283   22.2586 H   0  0  0  0  0  0
  -24.6706  -15.8435   20.5102 H   0  0  0  0  0  0
  -26.2862  -15.6174   20.0681 H   0  0  0  0  0  0
  -26.7116  -32.5546   23.1183 H   0  0  0  0  0  0
  -25.0037  -33.9795   25.0476 H   0  0  0  0  0  0
  -22.6902  -31.3109   21.4124 H   0  0  0  0  0  0
  -23.3730  -35.9677   23.3322 H   0  0  0  0  0  0
  -24.3579  -36.8923   22.2048 H   0  0  0  0  0  0
  -23.7259  -37.6544   23.6639 H   0  0  0  0  0  0
  -26.0385  -31.5971   20.5916 H   0  0  0  0  0  0
  -26.8193  -30.8920   21.9793 H   0  0  0  0  0  0
  -28.0924  -29.1031   21.1755 H   0  0  0  0  0  0
  -26.0189  -25.9718   19.0263 H   0  0  0  0  0  0
  -23.9734  -27.2947   19.0446 H   0  0  0  0  0  0
  -23.7153  -30.6019   19.4050 H   0  0  0  0  0  0
  -22.7346  -29.2447   19.8709 H   0  0  0  0  0  0
  -25.1278  -36.1989   25.0829 H   0  0  0  0  0  0
  -20.9952  -28.3253   24.1436 H   0  0  0  0  0  0
  -20.5658  -26.2299   23.3612 H   0  0  0  0  0  0
  -21.6632  -26.7464   22.1208 H   0  0  0  0  0  0
  -19.6901  -25.6310   21.1237 H   0  0  0  0  0  0
  -19.6679  -27.3215   20.6752 H   0  0  0  0  0  0
  -17.4190  -26.6687   21.4021 H   0  0  0  0  0  0
  -18.0316  -26.0077   22.9014 H   0  0  0  0  0  0
  -19.7921  -30.7249   24.2311 H   0  0  0  0  0  0
  -17.5006  -31.6270   24.5171 H   0  0  0  0  0  0
  -15.5340  -30.3005   23.7635 H   0  0  0  0  0  0
  -15.8657  -28.0839   22.7044 H   0  0  0  0  0  0
  -24.5930  -30.7022   25.7800 H   0  0  0  0  0  0
  -24.8928  -32.2821   26.4944 H   0  0  0  0  0  0
  -25.8103  -30.8826   27.0222 H   0  0  0  0  0  0
  -26.2835  -29.6793   24.1165 H   0  0  0  0  0  0
  -27.4092  -29.7267   25.4543 H   0  0  0  0  0  0
  -27.8662  -30.4346   23.9222 H   0  0  0  0  0  0
  -27.2712  -33.3575   26.2108 H   0  0  0  0  0  0
  -28.3862  -32.6855   25.0302 H   0  0  0  0  0  0
  -28.0755  -31.8377   26.5371 H   0  0  0  0  0  0
  -28.2606  -38.0102   24.7488 H   0  0  0  0  0  0
  -28.1063  -36.2633   24.6314 H   0  0  0  0  0  0
  -27.2299  -37.1491   25.8872 H   0  0  0  0  0  0
  -20.9294  -29.8772   21.6941 H   0  0  0  0  0  0
  -26.0190  -38.2878   24.1380 H   0  0  0  0  0  0
  -31.9740  -19.4617   20.4040 H   0  0  0  0  0  0
  -32.1486  -17.0466   20.7095 H   0  0  0  0  0  0
  -27.9671  -16.8965   21.8135 H   0  0  0  0  0  0
  -30.2935  -22.1460   22.3087 H   0  0  0  0  0  0
  -31.6775  -21.4124   21.5420 H   0  0  0  0  0  0
  -27.9659  -20.8811   19.6129 H   0  0  0  0  0  0
  -27.9369  -21.8331   21.0855 H   0  0  0  0  0  0
  -31.5659  -22.9357   19.6448 H   0  0  0  0  0  0
  -31.5443  -23.8832   21.1111 H   0  0  0  0  0  0
  -27.8223  -23.3162   19.1641 H   0  0  0  0  0  0
  -29.2220  -22.5847   18.4130 H   0  0  0  0  0  0
  -30.7405  -25.6651   19.7633 H   0  0  0  0  0  0
  -30.4434  -24.7540   18.3113 H   0  0  0  0  0  0
  -27.9578  -25.3865   18.5248 H   0  0  0  0  0  0
  -29.0593  -26.6785   18.1706 H   0  0  0  0  0  0
  -29.2419  -14.9495   21.8270 H   0  0  0  0  0  0
  -29.2165  -24.1322   20.8981 H   0  0  0  0  0  0
  1 25  1  0  0  0
  1 30  2  0  0  0
  1 84  1  0  0  0
  2  3  1  0  0  0
  2 25  1  0  0  0
  2 87  1  0  0  0
  2 88  1  0  0  0
  3  4  1  0  0  0
  3 89  1  0  0  0
  3 90  1  0  0  0
  4  5  1  0  0  0
  4 91  1  0  0  0
  4 92  1  0  0  0
  5  6  1  0  0  0
  5 26  1  0  0  0
  5 93  1  0  0  0
  6 25  1  0  0  0
  6 94  1  0  0  0
  6 95  1  0  0  0
  7  8  2  0  0  0
  7 26  1  0  0  0
  7 29  1  0  0  0
  8  9  1  0  0  0
  8 22  1  0  0  0
  9 10  1  0  0  0
  9 27  2  0  0  0
 10 11  2  0  0  0
 10 15  1  0  0  0
 11 12  1  0  0  0
 11 96  1  0  0  0
 12 13  2  0  0  0
 12 97  1  0  0  0
 13 14  1  0  0  0
 13 31  1  0  0  0
 14 15  2  0  0  0
 14 98  1  0  0  0
 15 99  1  0  0  0
 16 17  2  0  0  0
 16 21  1  0  0  0
 16 31  1  0  0  0
 17 18  1  0  0  0
 17100  1  0  0  0
 18 19  2  0  0  0
 18101  1  0  0  0
 19 20  1  0  0  0
 19 24  1  0  0  0
 20 21  2  0  0  0
 20102  1  0  0  0
 21 23  1  0  0  0
 22 28  1  0  0  0
 22 32  2  0  0  0
 26 27  1  0  0  0
 28103  1  0  0  0
 28104  1  0  0  0
 29105  1  0  0  0
 29106  1  0  0  0
 33 34  1  0  0  0
 33 66  1  0  0  0
 33 70  2  0  0  0
 34 36  1  0  0  0
 34 59  1  0  0  0
 34107  1  0  0  0
 35 44  2  0  0  0
 35 45  1  0  0  0
 35 68  1  0  0  0
 36 56  1  0  0  0
 36108  1  0  0  0
 37 39  1  0  0  0
 37 47  1  0  0  0
 37 66  1  0  0  0
 37109  1  0  0  0
 38 43  2  0  0  0
 38 46  1  0  0  0
 38 47  1  0  0  0
 39 64  1  0  0  0
 39 67  2  0  0  0
 40 52  1  0  0  0
 40 53  2  0  0  0
 40 58  1  0  0  0
 41110  1  0  0  0
 41111  1  0  0  0
 41112  1  0  0  0
 41 48  1  0  0  0
 42 43  1  0  0  0
 42 66  1  0  0  0
 42113  1  0  0  0
 42114  1  0  0  0
 43 44  1  0  0  0
 44115  1  0  0  0
 45 46  2  0  0  0
 45116  1  0  0  0
 46117  1  0  0  0
 47118  1  0  0  0
 47119  1  0  0  0
 48 56  1  0  0  0
 48 65  1  0  0  0
 48120  1  0  0  0
 49 50  1  0  0  0
 49 53  1  0  0  0
 49 64  1  0  0  0
 49121  1  0  0  0
 50 51  1  0  0  0
 50122  1  0  0  0
 50123  1  0  0  0
 51 52  1  0  0  0
 51124  1  0  0  0
 51125  1  0  0  0
 52126  1  0  0  0
 52127  1  0  0  0
 53 54  1  0  0  0
 54 55  2  0  0  0
 54128  1  0  0  0
 55 57  1  0  0  0
 55129  1  0  0  0
 56 69  2  0  0  0
 57 58  2  0  0  0
 57130  1  0  0  0
 58131  1  0  0  0
 59 60  1  0  0  0
 59 61  1  0  0  0
 59 62  1  0  0  0
 60132  1  0  0  0
 60133  1  0  0  0
 60134  1  0  0  0
 61135  1  0  0  0
 61136  1  0  0  0
 61137  1  0  0  0
 62138  1  0  0  0
 62139  1  0  0  0
 62140  1  0  0  0
 63 65  1  0  0  0
 63141  1  0  0  0
 63142  1  0  0  0
 63143  1  0  0  0
 64144  1  0  0  0
 65145  1  0  0  0
 68 82  1  0  0  0
 71 72  2  0  0  0
 71 74  1  0  0  0
 71146  1  0  0  0
 72 75  1  0  0  0
 72147  1  0  0  0
 73 75  2  0  0  0
 73 76  1  0  0  0
 73148  1  0  0  0
 74 76  2  0  0  0
 74 83  1  0  0  0
 75 84  1  0  0  0
 76 86  1  0  0  0
 77 79  1  0  0  0
 77 83  1  0  0  0
 77149  1  0  0  0
 77150  1  0  0  0
 78 80  1  0  0  0
 78 83  1  0  0  0
 78151  1  0  0  0
 78152  1  0  0  0
 79 85  1  0  0  0
 79153  1  0  0  0
 79154  1  0  0  0
 80 85  1  0  0  0
 80155  1  0  0  0
 80156  1  0  0  0
 81 82  1  0  0  0
 81157  1  0  0  0
 81158  1  0  0  0
 81 85  1  0  0  0
 82159  1  0  0  0
 82160  1  0  0  0
 84161  1  0  0  0
 85162  1  0  0  0
M  CHG  1  85   1
M  ISO  4   1 100  68 101  82 101  84 100
M  END
> <chiral flag>
0

> <version>
0

> <s_m_source_file>
/data/baiqing/PycharmProjects/Reinvent-master-3.2/result/LINK_invent/BTK/process_docking_weight1_custom_product_contain_oxygen_bond_distance_aromatic_linkinvent_7_9_3/rearranged_h_0006.sdf

> <i_m_source_file_index>
27

> <r_mmod_Potential_Energy-OPLS-2005>
-6.34420967102051

> <r_mmod_Stretch_Energy-OPLS-2005>
39.2464752197266

> <r_mmod_Bend_Energy-OPLS-2005>
113.141792297363

> <r_mmod_Torsional_Energy-OPLS-2005>
291.601928710938

> <r_mmod_Improper_Torsional_Energy-OPLS-2005>
5.60819911956787

> <r_mmod_Van_der_Waal_Energy-OPLS-2005>
167.741912841797

> <r_mmod_Electrostatic_Energy-OPLS-2005>
-215.551605224609

> <r_mmod_Solvation_Energy-OPLS-2005>
-417.410400390625

> <b_mmod_Minimization_Converged-OPLS-2005>
0

> <r_mmod_RMS_Derivative-OPLS-2005>
1.27523422241211

$$$$
28
                    3D
 Structure written by MMmdl.
156164  0  0  1  0            999 V2000
  -30.4520  -15.2874   20.3498 C   0  0  0  0  0  0
  -30.4371  -12.8226   19.5370 C   0  0  0  0  0  0
  -29.5447  -12.5898   18.2915 C   0  0  0  0  0  0
  -28.0953  -12.3086   18.7207 C   0  0  0  0  0  0
  -27.6139  -13.2858   19.8219 C   0  0  2  0  0  0
  -28.6434  -13.4920   20.9574 C   0  0  0  0  0  0
  -25.2398  -13.8242   20.5774 C   0  0  0  0  0  0
  -24.1750  -13.0428   20.9289 C   0  0  0  0  0  0
  -24.6412  -11.6927   20.8772 C   0  0  0  0  0  0
  -23.9103  -10.4282   21.0397 C   0  0  0  0  0  0
  -24.3646   -9.4203   21.9170 C   0  0  0  0  0  0
  -23.6303   -8.2242   22.0745 C   0  0  0  0  0  0
  -22.4269   -8.0295   21.3552 C   0  0  0  0  0  0
  -21.9915   -9.0264   20.4650 C   0  0  0  0  0  0
  -22.7275  -10.2126   20.3042 C   0  0  0  0  0  0
  -21.6851   -6.0736   22.5284 C   0  0  0  0  0  0
  -21.4037   -6.5633   23.8221 C   0  0  0  0  0  0
  -21.3675   -5.6781   24.9174 C   0  0  0  0  0  0
  -21.6035   -4.3043   24.7218 C   0  0  0  0  0  0
  -21.8816   -3.8147   23.4339 C   0  0  0  0  0  0
  -21.9185   -4.6966   22.3400 C   0  0  0  0  0  0
  -22.7777  -13.5188   21.1939 C   0  0  0  0  0  0
  -22.1662   -4.2167   21.0970 F   0  0  0  0  0  0
  -21.5611   -3.4512   25.7727 F   0  0  0  0  0  0
  -29.8833  -13.9831   20.3318 N   0  0  0  0  0  0
  -26.2848  -12.9559   20.3218 N   0  0  0  0  0  0
  -25.9363  -11.6646   20.5710 N   0  0  0  0  0  0
  -22.0416  -12.8190   22.0481 N   0  0  0  0  0  0
  -25.3970  -15.1984   20.4271 N   0  0  0  0  0  0
  -31.6670  -15.2684   20.1037 O   0  0  0  0  0  0
  -21.6639   -6.8888   21.4249 O   0  0  0  0  0  0
  -22.3480  -14.5513   20.6787 O   0  0  0  0  0  0
  -24.6629  -31.8240   23.1716 C   0  0  0  0  0  0
  -25.9316  -32.4587   23.8188 C   0  0  1  0  0  0
  -27.2195  -26.9389   20.1781 C   0  0  0  0  0  0
  -25.5988  -33.8399   24.2088 N   0  0  0  0  0  0
  -23.4793  -30.4353   21.5190 C   0  0  2  0  0  0
  -24.9358  -28.8285   20.1068 C   0  0  0  0  0  0
  -22.7684  -29.4415   22.4762 C   0  0  0  0  0  0
  -18.0334  -28.1403   22.8467 C   0  0  0  0  0  0
  -24.1503  -36.7193   23.2649 C   0  0  0  0  0  0
  -26.0488  -30.6340   21.4056 C   0  0  0  0  0  0
  -26.1169  -29.2263   20.7437 C   0  0  0  0  0  0
  -27.2523  -28.3017   20.7562 C   0  0  0  0  0  0
  -26.0100  -26.6907   19.4909 C   0  0  0  0  0  0
  -24.9079  -27.5828   19.4589 C   0  0  0  0  0  0
  -23.7213  -29.7562   20.1424 C   0  0  0  0  0  0
  -25.4144  -36.2958   24.0300 C   0  0  1  0  0  0
  -20.5961  -28.3736   23.1198 C   0  0  2  0  0  0
  -20.6813  -26.9413   22.5422 C   0  0  0  0  0  0
  -19.5787  -26.6364   21.5232 C   0  0  0  0  0  0
  -18.1963  -26.7941   22.1622 C   0  0  0  0  0  0
  -19.1599  -28.8898   23.2828 C   0  0  0  0  0  0
  -18.9492  -30.1485   23.8862 C   0  0  0  0  0  0
  -17.6478  -30.6588   24.0557 C   0  0  0  0  0  0
  -25.9096  -34.9341   23.5001 C   0  0  0  0  0  0
  -16.5373  -29.9066   23.6340 C   0  0  0  0  0  0
  -16.7317  -28.6495   23.0361 C   0  0  0  0  0  0
  -26.4550  -31.6537   25.0723 C   0  0  0  0  0  0
  -25.3668  -31.3812   26.1371 C   0  0  0  0  0  0
  -27.0460  -30.2902   24.6491 C   0  0  0  0  0  0
  -27.6056  -32.4350   25.7518 C   0  0  0  0  0  0
  -27.5574  -37.1752   24.8460 C   0  0  0  0  0  0
  -21.4356  -29.3019   22.3529 N   0  0  0  0  0  0
  -26.4291  -37.3689   23.9400 N   0  0  0  0  0  0
  -24.7509  -30.9915   22.0846 N   0  0  0  0  0  0
  -23.4248  -28.7980   23.2988 O   0  0  0  0  0  0
  -28.2245  -25.8437   20.2738 O   0  0  0  0  0  0
  -26.5699  -34.8868   22.4600 O   0  0  0  0  0  0
  -23.5696  -32.1196   23.6798 O   0  0  0  0  0  0
  -31.4058  -19.5189   18.3869 C   0  0  0  0  0  0
  -30.8019  -20.9445   18.4449 C   0  0  0  0  0  0
  -31.2342  -18.5649   19.5984 C   0  0  0  0  0  0
  -29.2678  -21.0623   18.5331 C   0  0  0  0  0  0
  -29.1252  -19.6998   20.6737 C   0  0  0  0  0  0
  -29.7773  -18.1849   19.9592 C   0  0  2  0  0  0
  -28.9120  -22.7347   20.4865 C   0  0  0  0  0  0
  -28.0484  -24.2313   19.9664 C   0  0  0  0  0  0
  -29.6973  -16.5694   20.4456 N   0  0  0  0  0  0
  -28.8010  -21.1575   19.9309 N   0  3  1  0  0  0
  -31.4646  -13.0085   19.2216 H   0  0  0  0  0  0
  -30.4811  -11.9232   20.1513 H   0  0  0  0  0  0
  -29.9278  -11.7572   17.7005 H   0  0  0  0  0  0
  -29.5800  -13.4663   17.6432 H   0  0  0  0  0  0
  -28.0661  -11.2902   19.1075 H   0  0  0  0  0  0
  -27.4252  -12.3394   17.8602 H   0  0  0  0  0  0
  -27.5204  -14.2458   19.3127 H   0  0  0  0  0  0
  -28.8079  -12.5824   21.5339 H   0  0  0  0  0  0
  -28.2782  -14.2423   21.6607 H   0  0  0  0  0  0
  -25.2780   -9.5665   22.4753 H   0  0  0  0  0  0
  -24.0007   -7.4612   22.7440 H   0  0  0  0  0  0
  -21.0849   -8.8809   19.8943 H   0  0  0  0  0  0
  -22.3752  -10.9670   19.6152 H   0  0  0  0  0  0
  -21.2058   -7.6145   23.9753 H   0  0  0  0  0  0
  -21.1500   -6.0491   25.9082 H   0  0  0  0  0  0
  -22.0575   -2.7617   23.2824 H   0  0  0  0  0  0
  -22.4046  -11.9873   22.4901 H   0  0  0  0  0  0
  -21.1034  -13.1219   22.2663 H   0  0  0  0  0  0
  -24.6113  -15.8330   20.5234 H   0  0  0  0  0  0
  -26.2271  -15.6508   20.0697 H   0  0  0  0  0  0
  -26.7394  -32.5130   23.0912 H   0  0  0  0  0  0
  -25.0107  -33.9487   25.0219 H   0  0  0  0  0  0
  -22.7904  -31.2659   21.3490 H   0  0  0  0  0  0
  -23.3772  -35.9510   23.3280 H   0  0  0  0  0  0
  -24.3584  -36.8870   22.2069 H   0  0  0  0  0  0
  -23.7250  -37.6367   23.6730 H   0  0  0  0  0  0
  -26.2379  -31.3840   20.6367 H   0  0  0  0  0  0
  -26.9050  -30.6827   22.0667 H   0  0  0  0  0  0
  -28.1448  -28.6009   21.2861 H   0  0  0  0  0  0
  -25.8801  -25.7388   18.9997 H   0  0  0  0  0  0
  -24.0119  -27.2765   18.9375 H   0  0  0  0  0  0
  -23.8778  -30.5290   19.3881 H   0  0  0  0  0  0
  -22.8330  -29.2096   19.8229 H   0  0  0  0  0  0
  -25.1339  -36.1747   25.0788 H   0  0  0  0  0  0
  -21.0057  -28.3347   24.1318 H   0  0  0  0  0  0
  -20.5697  -26.2340   23.3654 H   0  0  0  0  0  0
  -21.6668  -26.7380   22.1220 H   0  0  0  0  0  0
  -19.6926  -25.6258   21.1300 H   0  0  0  0  0  0
  -19.6741  -27.3147   20.6742 H   0  0  0  0  0  0
  -17.4232  -26.6708   21.4017 H   0  0  0  0  0  0
  -18.0322  -26.0101   22.9032 H   0  0  0  0  0  0
  -19.7953  -30.7336   24.2212 H   0  0  0  0  0  0
  -17.5007  -31.6260   24.5158 H   0  0  0  0  0  0
  -15.5364  -30.2944   23.7680 H   0  0  0  0  0  0
  -15.8723  -28.0798   22.7080 H   0  0  0  0  0  0
  -24.5857  -30.7151   25.7667 H   0  0  0  0  0  0
  -24.8846  -32.3027   26.4651 H   0  0  0  0  0  0
  -25.7877  -30.9063   27.0242 H   0  0  0  0  0  0
  -26.3131  -29.6552   24.1498 H   0  0  0  0  0  0
  -27.3965  -29.7300   25.5167 H   0  0  0  0  0  0
  -27.9085  -30.4060   23.9930 H   0  0  0  0  0  0
  -27.2632  -33.3693   26.1977 H   0  0  0  0  0  0
  -28.3925  -32.6837   25.0388 H   0  0  0  0  0  0
  -28.0661  -31.8561   26.5529 H   0  0  0  0  0  0
  -28.2554  -38.0070   24.7496 H   0  0  0  0  0  0
  -28.1097  -36.2599   24.6296 H   0  0  0  0  0  0
  -27.2293  -37.1404   25.8858 H   0  0  0  0  0  0
  -20.9592  -29.8710   21.6673 H   0  0  0  0  0  0
  -26.0128  -38.2741   24.1409 H   0  0  0  0  0  0
  -32.4796  -19.6619   18.2594 H   0  0  0  0  0  0
  -31.0823  -19.0168   17.4755 H   0  0  0  0  0  0
  -31.0912  -21.4338   17.5149 H   0  0  0  0  0  0
  -31.2799  -21.5311   19.2286 H   0  0  0  0  0  0
  -31.7263  -18.9943   20.4734 H   0  0  0  0  0  0
  -31.8098  -17.6719   19.3656 H   0  0  0  0  0  0
  -28.7895  -20.2202   18.0301 H   0  0  0  0  0  0
  -28.9257  -21.9484   17.9974 H   0  0  0  0  0  0
  -29.7912  -19.9578   21.4969 H   0  0  0  0  0  0
  -28.1931  -19.4316   21.1719 H   0  0  0  0  0  0
  -29.2513  -18.1034   19.0088 H   0  0  0  0  0  0
  -28.8086  -22.6766   21.5690 H   0  0  0  0  0  0
  -29.9613  -22.9924   20.3477 H   0  0  0  0  0  0
  -26.9966  -24.0233   20.1731 H   0  0  0  0  0  0
  -28.1053  -24.2091   18.8774 H   0  0  0  0  0  0
  -28.7502  -16.3508   20.7269 H   0  0  0  0  0  0
  -27.7973  -21.0770   19.8444 H   0  0  0  0  0  0
  1 25  1  0  0  0
  1 30  2  0  0  0
  1 79  1  0  0  0
  2  3  1  0  0  0
  2 25  1  0  0  0
  2 81  1  0  0  0
  2 82  1  0  0  0
  3  4  1  0  0  0
  3 83  1  0  0  0
  3 84  1  0  0  0
  4  5  1  0  0  0
  4 85  1  0  0  0
  4 86  1  0  0  0
  5  6  1  0  0  0
  5 26  1  0  0  0
  5 87  1  0  0  0
  6 25  1  0  0  0
  6 88  1  0  0  0
  6 89  1  0  0  0
  7  8  2  0  0  0
  7 26  1  0  0  0
  7 29  1  0  0  0
  8  9  1  0  0  0
  8 22  1  0  0  0
  9 10  1  0  0  0
  9 27  2  0  0  0
 10 11  2  0  0  0
 10 15  1  0  0  0
 11 12  1  0  0  0
 11 90  1  0  0  0
 12 13  2  0  0  0
 12 91  1  0  0  0
 13 14  1  0  0  0
 13 31  1  0  0  0
 14 15  2  0  0  0
 14 92  1  0  0  0
 15 93  1  0  0  0
 16 17  2  0  0  0
 16 21  1  0  0  0
 16 31  1  0  0  0
 17 18  1  0  0  0
 17 94  1  0  0  0
 18 19  2  0  0  0
 18 95  1  0  0  0
 19 20  1  0  0  0
 19 24  1  0  0  0
 20 21  2  0  0  0
 20 96  1  0  0  0
 21 23  1  0  0  0
 22 28  1  0  0  0
 22 32  2  0  0  0
 26 27  1  0  0  0
 28 97  1  0  0  0
 28 98  1  0  0  0
 29 99  1  0  0  0
 29100  1  0  0  0
 33 34  1  0  0  0
 33 66  1  0  0  0
 33 70  2  0  0  0
 34 36  1  0  0  0
 34 59  1  0  0  0
 34101  1  0  0  0
 35 44  2  0  0  0
 35 45  1  0  0  0
 35 68  1  0  0  0
 36 56  1  0  0  0
 36102  1  0  0  0
 37 39  1  0  0  0
 37 47  1  0  0  0
 37 66  1  0  0  0
 37103  1  0  0  0
 38 43  2  0  0  0
 38 46  1  0  0  0
 38 47  1  0  0  0
 39 64  1  0  0  0
 39 67  2  0  0  0
 40 52  1  0  0  0
 40 53  2  0  0  0
 40 58  1  0  0  0
 41104  1  0  0  0
 41105  1  0  0  0
 41106  1  0  0  0
 41 48  1  0  0  0
 42 43  1  0  0  0
 42 66  1  0  0  0
 42107  1  0  0  0
 42108  1  0  0  0
 43 44  1  0  0  0
 44109  1  0  0  0
 45 46  2  0  0  0
 45110  1  0  0  0
 46111  1  0  0  0
 47112  1  0  0  0
 47113  1  0  0  0
 48 56  1  0  0  0
 48 65  1  0  0  0
 48114  1  0  0  0
 49 50  1  0  0  0
 49 53  1  0  0  0
 49 64  1  0  0  0
 49115  1  0  0  0
 50 51  1  0  0  0
 50116  1  0  0  0
 50117  1  0  0  0
 51 52  1  0  0  0
 51118  1  0  0  0
 51119  1  0  0  0
 52120  1  0  0  0
 52121  1  0  0  0
 53 54  1  0  0  0
 54 55  2  0  0  0
 54122  1  0  0  0
 55 57  1  0  0  0
 55123  1  0  0  0
 56 69  2  0  0  0
 57 58  2  0  0  0
 57124  1  0  0  0
 58125  1  0  0  0
 59 60  1  0  0  0
 59 61  1  0  0  0
 59 62  1  0  0  0
 60126  1  0  0  0
 60127  1  0  0  0
 60128  1  0  0  0
 61129  1  0  0  0
 61130  1  0  0  0
 61131  1  0  0  0
 62132  1  0  0  0
 62133  1  0  0  0
 62134  1  0  0  0
 63 65  1  0  0  0
 63135  1  0  0  0
 63136  1  0  0  0
 63137  1  0  0  0
 64138  1  0  0  0
 65139  1  0  0  0
 68 78  1  0  0  0
 71 72  1  0  0  0
 71 73  1  0  0  0
 71140  1  0  0  0
 71141  1  0  0  0
 72 74  1  0  0  0
 72142  1  0  0  0
 72143  1  0  0  0
 73 76  1  0  0  0
 73144  1  0  0  0
 73145  1  0  0  0
 74 80  1  0  0  0
 74146  1  0  0  0
 74147  1  0  0  0
 75 76  1  0  0  0
 75 80  1  0  0  0
 75148  1  0  0  0
 75149  1  0  0  0
 76 79  1  0  0  0
 76150  1  0  0  0
 77 78  1  0  0  0
 77151  1  0  0  0
 77152  1  0  0  0
 77 80  1  0  0  0
 78153  1  0  0  0
 78154  1  0  0  0
 79155  1  0  0  0
 80156  1  0  0  0
M  CHG  1  80   1
M  ISO  4   1 100  68 101  78 101  79 100
M  END
> <chiral flag>
0

> <version>
0

> <s_m_source_file>
/data/baiqing/PycharmProjects/Reinvent-master-3.2/result/LINK_invent/BTK/process_docking_weight1_custom_product_contain_oxygen_bond_distance_aromatic_linkinvent_7_9_3/rearranged_h_0006.sdf

> <i_m_source_file_index>
28

> <r_mmod_Potential_Energy-OPLS-2005>
1237.08532714844

> <r_mmod_Stretch_Energy-OPLS-2005>
608.666259765625

> <r_mmod_Bend_Energy-OPLS-2005>
459.522308349609

> <r_mmod_Torsional_Energy-OPLS-2005>
265.949401855469

> <r_mmod_Improper_Torsional_Energy-OPLS-2005>
4.71116352081299

> <r_mmod_Van_der_Waal_Energy-OPLS-2005>
111.233551025391

> <r_mmod_Electrostatic_Energy-OPLS-2005>
-222.837188720703

> <r_mmod_Solvation_Energy-OPLS-2005>
-456.571533203125

> <b_mmod_Minimization_Converged-OPLS-2005>
0

> <r_mmod_RMS_Derivative-OPLS-2005>
4.78147077560425

$$$$
29
                    3D
 Structure written by MMmdl.
160168  0  0  1  0            999 V2000
  -30.3979  -15.4202   20.3760 C   0  0  0  0  0  0
  -30.4262  -12.9351   19.5169 C   0  0  0  0  0  0
  -29.5437  -12.6208   18.2827 C   0  0  0  0  0  0
  -28.0945  -12.3128   18.7078 C   0  0  0  0  0  0
  -27.5967  -13.2861   19.8067 C   0  0  2  0  0  0
  -28.6271  -13.5321   20.9288 C   0  0  0  0  0  0
  -25.2370  -13.8209   20.5805 C   0  0  0  0  0  0
  -24.1740  -13.0363   20.9268 C   0  0  0  0  0  0
  -24.6426  -11.6884   20.8746 C   0  0  0  0  0  0
  -23.9101  -10.4279   21.0368 C   0  0  0  0  0  0
  -24.3603   -9.4214   21.9185 C   0  0  0  0  0  0
  -23.6267   -8.2255   22.0769 C   0  0  0  0  0  0
  -22.4254   -8.0283   21.3565 C   0  0  0  0  0  0
  -21.9886   -9.0269   20.4657 C   0  0  0  0  0  0
  -22.7239  -10.2139   20.3048 C   0  0  0  0  0  0
  -21.6825   -6.0732   22.5311 C   0  0  0  0  0  0
  -21.4015   -6.5622   23.8250 C   0  0  0  0  0  0
  -21.3669   -5.6763   24.9204 C   0  0  0  0  0  0
  -21.6051   -4.3035   24.7235 C   0  0  0  0  0  0
  -21.8812   -3.8130   23.4362 C   0  0  0  0  0  0
  -21.9180   -4.6955   22.3413 C   0  0  0  0  0  0
  -22.7724  -13.5136   21.1846 C   0  0  0  0  0  0
  -22.1619   -4.2142   21.0996 F   0  0  0  0  0  0
  -21.5640   -3.4516   25.7753 F   0  0  0  0  0  0
  -29.8212  -14.1045   20.2775 N   0  0  0  0  0  0
  -26.2792  -12.9499   20.3178 N   0  0  0  0  0  0
  -25.9380  -11.6590   20.5674 N   0  0  0  0  0  0
  -22.0284  -12.8257   22.0413 N   0  0  0  0  0  0
  -25.3940  -15.1961   20.4368 N   0  0  0  0  0  0
  -31.6352  -15.3369   20.2727 O   0  0  0  0  0  0
  -21.6611   -6.8884   21.4272 O   0  0  0  0  0  0
  -22.3459  -14.5426   20.6610 O   0  0  0  0  0  0
  -24.6662  -31.8114   23.1702 C   0  0  0  0  0  0
  -25.9324  -32.4555   23.8147 C   0  0  1  0  0  0
  -27.2095  -26.8367   20.2196 C   0  0  0  0  0  0
  -25.6004  -33.8377   24.2064 N   0  0  0  0  0  0
  -23.4885  -30.4223   21.5174 C   0  0  2  0  0  0
  -24.9431  -28.7910   20.1201 C   0  0  0  0  0  0
  -22.7670  -29.4393   22.4765 C   0  0  0  0  0  0
  -18.0313  -28.1395   22.8464 C   0  0  0  0  0  0
  -24.1504  -36.7167   23.2648 C   0  0  0  0  0  0
  -26.0620  -30.5918   21.4138 C   0  0  0  0  0  0
  -26.1261  -29.1742   20.7628 C   0  0  0  0  0  0
  -27.2499  -28.2190   20.7851 C   0  0  0  0  0  0
  -25.9988  -26.6290   19.5159 C   0  0  0  0  0  0
  -24.9089  -27.5453   19.4733 C   0  0  0  0  0  0
  -23.7316  -29.7284   20.1479 C   0  0  0  0  0  0
  -25.4164  -36.2943   24.0287 C   0  0  1  0  0  0
  -20.5949  -28.3752   23.1181 C   0  0  2  0  0  0
  -20.6806  -26.9413   22.5406 C   0  0  0  0  0  0
  -19.5783  -26.6356   21.5207 C   0  0  0  0  0  0
  -18.1960  -26.7936   22.1604 C   0  0  0  0  0  0
  -19.1579  -28.8894   23.2815 C   0  0  0  0  0  0
  -18.9474  -30.1495   23.8824 C   0  0  0  0  0  0
  -17.6475  -30.6593   24.0529 C   0  0  0  0  0  0
  -25.9124  -34.9333   23.5007 C   0  0  0  0  0  0
  -16.5364  -29.9062   23.6361 C   0  0  0  0  0  0
  -16.7299  -28.6488   23.0363 C   0  0  0  0  0  0
  -26.4596  -31.6544   25.0696 C   0  0  0  0  0  0
  -25.3720  -31.3746   26.1335 C   0  0  0  0  0  0
  -27.0523  -30.2913   24.6489 C   0  0  0  0  0  0
  -27.6087  -32.4362   25.7494 C   0  0  0  0  0  0
  -27.5576  -37.1748   24.8464 C   0  0  0  0  0  0
  -21.4329  -29.3030   22.3507 N   0  0  0  0  0  0
  -26.4304  -37.3680   23.9398 N   0  0  0  0  0  0
  -24.7621  -30.9703   22.0871 N   0  0  0  0  0  0
  -23.4183  -28.7945   23.3014 O   0  0  0  0  0  0
  -28.1917  -25.6889   20.3366 O   0  0  0  0  0  0
  -26.5693  -34.8845   22.4575 O   0  0  0  0  0  0
  -23.5744  -32.1122   23.6767 O   0  0  0  0  0  0
  -30.1769  -18.1230   21.0857 C   0  0  0  0  0  0
  -30.7720  -18.0549   22.3181 C   0  0  0  0  0  0
  -30.0392  -19.6960   20.3850 C   0  0  0  0  0  0
  -27.5500  -18.3803   20.5804 C   0  0  0  0  0  0
  -28.4271  -17.2265   19.8150 C   0  0  0  0  0  0
  -27.5502  -20.0016   20.3659 C   0  0  0  0  0  0
  -30.9957  -16.7701   23.1074 C   0  0  0  0  0  0
  -31.2890  -19.2809   23.0671 C   0  0  0  0  0  0
  -28.9000  -22.4721   20.6660 C   0  0  0  0  0  0
  -28.0019  -24.0120   20.1420 C   0  0  0  0  0  0
  -29.7153  -16.7902   20.4703 N   0  0  0  0  0  0
  -28.8356  -20.7952   20.2968 N   0  3  1  0  0  0
  -31.4357  -13.1645   19.1757 H   0  0  0  0  0  0
  -30.5278  -12.0534   20.1502 H   0  0  0  0  0  0
  -29.9681  -11.7955   17.7099 H   0  0  0  0  0  0
  -29.5452  -13.4846   17.6144 H   0  0  0  0  0  0
  -28.0661  -11.2864   19.0803 H   0  0  0  0  0  0
  -27.4339  -12.3458   17.8390 H   0  0  0  0  0  0
  -27.4747  -14.2293   19.2777 H   0  0  0  0  0  0
  -28.8527  -12.6105   21.4698 H   0  0  0  0  0  0
  -28.2333  -14.2438   21.6563 H   0  0  0  0  0  0
  -25.2724   -9.5655   22.4780 H   0  0  0  0  0  0
  -23.9946   -7.4620   22.7465 H   0  0  0  0  0  0
  -21.0827   -8.8773   19.8962 H   0  0  0  0  0  0
  -22.3688  -10.9661   19.6139 H   0  0  0  0  0  0
  -21.2006   -7.6121   23.9774 H   0  0  0  0  0  0
  -21.1484   -6.0469   25.9116 H   0  0  0  0  0  0
  -22.0589   -2.7587   23.2852 H   0  0  0  0  0  0
  -22.3709  -11.9996   22.5100 H   0  0  0  0  0  0
  -21.0908  -13.1437   22.2444 H   0  0  0  0  0  0
  -24.6114  -15.8329   20.5568 H   0  0  0  0  0  0
  -26.2455  -15.6580   20.1545 H   0  0  0  0  0  0
  -26.7393  -32.5046   23.0857 H   0  0  0  0  0  0
  -25.0194  -33.9483   25.0253 H   0  0  0  0  0  0
  -22.8115  -31.2615   21.3391 H   0  0  0  0  0  0
  -23.3801  -35.9462   23.3277 H   0  0  0  0  0  0
  -24.3583  -36.8834   22.2067 H   0  0  0  0  0  0
  -23.7229  -37.6327   23.6738 H   0  0  0  0  0  0
  -26.2494  -31.3266   20.6300 H   0  0  0  0  0  0
  -26.9240  -30.6564   22.0707 H   0  0  0  0  0  0
  -28.1404  -28.5051   21.3252 H   0  0  0  0  0  0
  -25.8508  -25.6765   19.0275 H   0  0  0  0  0  0
  -24.0082  -27.2508   18.9542 H   0  0  0  0  0  0
  -23.8869  -30.4874   19.3794 H   0  0  0  0  0  0
  -22.8441  -29.1731   19.8365 H   0  0  0  0  0  0
  -25.1386  -36.1729   25.0777 H   0  0  0  0  0  0
  -21.0063  -28.3314   24.1294 H   0  0  0  0  0  0
  -20.5669  -26.2324   23.3629 H   0  0  0  0  0  0
  -21.6663  -26.7342   22.1194 H   0  0  0  0  0  0
  -19.6909  -25.6240   21.1276 H   0  0  0  0  0  0
  -19.6750  -27.3129   20.6699 H   0  0  0  0  0  0
  -17.4232  -26.6677   21.3997 H   0  0  0  0  0  0
  -18.0333  -26.0091   22.8999 H   0  0  0  0  0  0
  -19.7948  -30.7332   24.2147 H   0  0  0  0  0  0
  -17.5011  -31.6271   24.5108 H   0  0  0  0  0  0
  -15.5362  -30.2912   23.7762 H   0  0  0  0  0  0
  -15.8696  -28.0785   22.7122 H   0  0  0  0  0  0
  -24.5959  -30.7073   25.7589 H   0  0  0  0  0  0
  -24.8860  -32.2917   26.4655 H   0  0  0  0  0  0
  -25.7939  -30.8938   27.0171 H   0  0  0  0  0  0
  -26.3214  -29.6580   24.1465 H   0  0  0  0  0  0
  -27.4001  -29.7289   25.5167 H   0  0  0  0  0  0
  -27.9173  -30.4094   23.9964 H   0  0  0  0  0  0
  -27.2699  -33.3744   26.1898 H   0  0  0  0  0  0
  -28.3993  -32.6795   25.0384 H   0  0  0  0  0  0
  -28.0682  -31.8592   26.5531 H   0  0  0  0  0  0
  -28.2568  -38.0065   24.7535 H   0  0  0  0  0  0
  -28.1089  -36.2584   24.6302 H   0  0  0  0  0  0
  -27.2255  -37.1381   25.8850 H   0  0  0  0  0  0
  -20.9583  -29.8706   21.6632 H   0  0  0  0  0  0
  -26.0121  -38.2724   24.1419 H   0  0  0  0  0  0
  -30.2755  -19.5261   19.3375 H   0  0  0  0  0  0
  -30.9100  -20.2612   20.7173 H   0  0  0  0  0  0
  -27.5757  -18.1790   21.6546 H   0  0  0  0  0  0
  -26.5174  -18.1154   20.3468 H   0  0  0  0  0  0
  -28.6318  -17.5233   18.7869 H   0  0  0  0  0  0
  -27.7957  -16.3476   19.7268 H   0  0  0  0  0  0
  -26.9437  -20.4433   21.1583 H   0  0  0  0  0  0
  -27.0058  -20.2408   19.4510 H   0  0  0  0  0  0
  -30.2168  -16.0324   22.9319 H   0  0  0  0  0  0
  -30.9697  -16.9450   24.1834 H   0  0  0  0  0  0
  -31.9664  -16.3364   22.8672 H   0  0  0  0  0  0
  -30.6294  -20.1403   22.9332 H   0  0  0  0  0  0
  -32.3022  -19.5436   22.7540 H   0  0  0  0  0  0
  -31.3218  -19.1052   24.1436 H   0  0  0  0  0  0
  -28.8784  -22.5005   21.7570 H   0  0  0  0  0  0
  -29.9315  -22.7041   20.4071 H   0  0  0  0  0  0
  -26.9788  -23.8519   20.4821 H   0  0  0  0  0  0
  -27.9272  -23.9101   19.0587 H   0  0  0  0  0  0
  -28.8726  -20.9062   19.2923 H   0  0  0  0  0  0
  1 25  1  0  0  0
  1 30  2  0  0  0
  1 81  1  0  0  0
  2  3  1  0  0  0
  2 25  1  0  0  0
  2 83  1  0  0  0
  2 84  1  0  0  0
  3  4  1  0  0  0
  3 85  1  0  0  0
  3 86  1  0  0  0
  4  5  1  0  0  0
  4 87  1  0  0  0
  4 88  1  0  0  0
  5  6  1  0  0  0
  5 26  1  0  0  0
  5 89  1  0  0  0
  6 25  1  0  0  0
  6 90  1  0  0  0
  6 91  1  0  0  0
  7  8  2  0  0  0
  7 26  1  0  0  0
  7 29  1  0  0  0
  8  9  1  0  0  0
  8 22  1  0  0  0
  9 10  1  0  0  0
  9 27  2  0  0  0
 10 11  2  0  0  0
 10 15  1  0  0  0
 11 12  1  0  0  0
 11 92  1  0  0  0
 12 13  2  0  0  0
 12 93  1  0  0  0
 13 14  1  0  0  0
 13 31  1  0  0  0
 14 15  2  0  0  0
 14 94  1  0  0  0
 15 95  1  0  0  0
 16 17  2  0  0  0
 16 21  1  0  0  0
 16 31  1  0  0  0
 17 18  1  0  0  0
 17 96  1  0  0  0
 18 19  2  0  0  0
 18 97  1  0  0  0
 19 20  1  0  0  0
 19 24  1  0  0  0
 20 21  2  0  0  0
 20 98  1  0  0  0
 21 23  1  0  0  0
 22 28  1  0  0  0
 22 32  2  0  0  0
 26 27  1  0  0  0
 28 99  1  0  0  0
 28100  1  0  0  0
 29101  1  0  0  0
 29102  1  0  0  0
 33 34  1  0  0  0
 33 66  1  0  0  0
 33 70  2  0  0  0
 34 36  1  0  0  0
 34 59  1  0  0  0
 34103  1  0  0  0
 35 44  2  0  0  0
 35 45  1  0  0  0
 35 68  1  0  0  0
 36 56  1  0  0  0
 36104  1  0  0  0
 37 39  1  0  0  0
 37 47  1  0  0  0
 37 66  1  0  0  0
 37105  1  0  0  0
 38 43  2  0  0  0
 38 46  1  0  0  0
 38 47  1  0  0  0
 39 64  1  0  0  0
 39 67  2  0  0  0
 40 52  1  0  0  0
 40 53  2  0  0  0
 40 58  1  0  0  0
 41106  1  0  0  0
 41107  1  0  0  0
 41108  1  0  0  0
 41 48  1  0  0  0
 42 43  1  0  0  0
 42 66  1  0  0  0
 42109  1  0  0  0
 42110  1  0  0  0
 43 44  1  0  0  0
 44111  1  0  0  0
 45 46  2  0  0  0
 45112  1  0  0  0
 46113  1  0  0  0
 47114  1  0  0  0
 47115  1  0  0  0
 48 56  1  0  0  0
 48 65  1  0  0  0
 48116  1  0  0  0
 49 50  1  0  0  0
 49 53  1  0  0  0
 49 64  1  0  0  0
 49117  1  0  0  0
 50 51  1  0  0  0
 50118  1  0  0  0
 50119  1  0  0  0
 51 52  1  0  0  0
 51120  1  0  0  0
 51121  1  0  0  0
 52122  1  0  0  0
 52123  1  0  0  0
 53 54  1  0  0  0
 54 55  2  0  0  0
 54124  1  0  0  0
 55 57  1  0  0  0
 55125  1  0  0  0
 56 69  2  0  0  0
 57 58  2  0  0  0
 57126  1  0  0  0
 58127  1  0  0  0
 59 60  1  0  0  0
 59 61  1  0  0  0
 59 62  1  0  0  0
 60128  1  0  0  0
 60129  1  0  0  0
 60130  1  0  0  0
 61131  1  0  0  0
 61132  1  0  0  0
 61133  1  0  0  0
 62134  1  0  0  0
 62135  1  0  0  0
 62136  1  0  0  0
 63 65  1  0  0  0
 63137  1  0  0  0
 63138  1  0  0  0
 63139  1  0  0  0
 64140  1  0  0  0
 65141  1  0  0  0
 68 80  1  0  0  0
 71 72  2  0  0  0
 71 73  1  0  0  0
 71 81  1  0  0  0
 72 77  1  0  0  0
 72 78  1  0  0  0
 73 82  1  0  0  0
 73142  1  0  0  0
 73143  1  0  0  0
 74 75  1  0  0  0
 74 76  1  0  0  0
 74144  1  0  0  0
 74145  1  0  0  0
 75 81  1  0  0  0
 75146  1  0  0  0
 75147  1  0  0  0
 76 82  1  0  0  0
 76148  1  0  0  0
 76149  1  0  0  0
 77150  1  0  0  0
 77151  1  0  0  0
 77152  1  0  0  0
 78153  1  0  0  0
 78154  1  0  0  0
 78155  1  0  0  0
 79 80  1  0  0  0
 79156  1  0  0  0
 79157  1  0  0  0
 79 82  1  0  0  0
 80158  1  0  0  0
 80159  1  0  0  0
 82160  1  0  0  0
M  CHG  1  82   1
M  ISO  4   1 100  68 101  80 101  81 100
M  END
> <chiral flag>
0

> <version>
0

> <s_m_source_file>
/data/baiqing/PycharmProjects/Reinvent-master-3.2/result/LINK_invent/BTK/process_docking_weight1_custom_product_contain_oxygen_bond_distance_aromatic_linkinvent_7_9_3/rearranged_h_0006.sdf

> <i_m_source_file_index>
29

> <r_mmod_Potential_Energy-OPLS-2005>
1814.77270507812

> <r_mmod_Stretch_Energy-OPLS-2005>
728.361511230469

> <r_mmod_Bend_Energy-OPLS-2005>
599.909118652344

> <r_mmod_Torsional_Energy-OPLS-2005>
332.688140869141

> <r_mmod_Improper_Torsional_Energy-OPLS-2005>
2.53271579742432

> <r_mmod_Van_der_Waal_Energy-OPLS-2005>
132.68962097168

> <r_mmod_Electrostatic_Energy-OPLS-2005>
-184.124237060547

> <r_mmod_Solvation_Energy-OPLS-2005>
-420.761291503906

> <b_mmod_Minimization_Converged-OPLS-2005>
0

> <r_mmod_RMS_Derivative-OPLS-2005>
6.27223587036133

$$$$
30
                    3D
 Structure written by MMmdl.
160168  0  0  1  0            999 V2000
  -30.6080  -14.6290   20.4741 C   0  0  0  0  0  0
  -30.4421  -12.3795   19.4383 C   0  0  0  0  0  0
  -29.5025  -12.4917   18.2162 C   0  0  0  0  0  0
  -28.0247  -12.3408   18.6342 C   0  0  0  0  0  0
  -27.6510  -13.2122   19.8639 C   0  0  2  0  0  0
  -28.7017  -13.0555   20.9881 C   0  0  0  0  0  0
  -25.2542  -13.8126   20.5683 C   0  0  0  0  0  0
  -24.1803  -13.0401   20.9170 C   0  0  0  0  0  0
  -24.6379  -11.6873   20.8744 C   0  0  0  0  0  0
  -23.9053  -10.4263   21.0424 C   0  0  0  0  0  0
  -24.3605   -9.4180   21.9203 C   0  0  0  0  0  0
  -23.6285   -8.2217   22.0762 C   0  0  0  0  0  0
  -22.4274   -8.0264   21.3544 C   0  0  0  0  0  0
  -21.9907   -9.0234   20.4654 C   0  0  0  0  0  0
  -22.7233  -10.2112   20.3070 C   0  0  0  0  0  0
  -21.6845   -6.0741   22.5282 C   0  0  0  0  0  0
  -21.4001   -6.5644   23.8211 C   0  0  0  0  0  0
  -21.3655   -5.6798   24.9176 C   0  0  0  0  0  0
  -21.6044   -4.3063   24.7229 C   0  0  0  0  0  0
  -21.8821   -3.8153   23.4348 C   0  0  0  0  0  0
  -21.9188   -4.6968   22.3404 C   0  0  0  0  0  0
  -22.7829  -13.5207   21.1850 C   0  0  0  0  0  0
  -22.1669   -4.2163   21.0979 F   0  0  0  0  0  0
  -21.5624   -3.4537   25.7733 F   0  0  0  0  0  0
  -30.0179  -13.3951   20.4193 N   0  0  0  0  0  0
  -26.2981  -12.9315   20.3357 N   0  0  0  0  0  0
  -25.9313  -11.6472   20.5799 N   0  0  0  0  0  0
  -22.0480  -12.8196   22.0419 N   0  0  0  0  0  0
  -25.4183  -15.1847   20.4141 N   0  0  0  0  0  0
  -31.7794  -14.8078   20.1250 O   0  0  0  0  0  0
  -21.6629   -6.8877   21.4247 O   0  0  0  0  0  0
  -22.3509  -14.5528   20.6735 O   0  0  0  0  0  0
  -24.6208  -31.8605   23.2018 C   0  0  0  0  0  0
  -25.9048  -32.4786   23.8364 C   0  0  1  0  0  0
  -27.2393  -27.3367   20.1395 C   0  0  0  0  0  0
  -25.5900  -33.8586   24.2300 N   0  0  0  0  0  0
  -23.4166  -30.4849   21.5393 C   0  0  2  0  0  0
  -24.8691  -28.9362   20.1101 C   0  0  0  0  0  0
  -22.7463  -29.4640   22.4899 C   0  0  0  0  0  0
  -18.0285  -28.1383   22.8501 C   0  0  0  0  0  0
  -24.1490  -36.7277   23.2650 C   0  0  0  0  0  0
  -25.9531  -30.8035   21.3645 C   0  0  0  0  0  0
  -26.0324  -29.4286   20.7152 C   0  0  0  0  0  0
  -27.2165  -28.6396   20.7228 C   0  0  0  0  0  0
  -26.0543  -26.8838   19.5171 C   0  0  0  0  0  0
  -24.8816  -27.6695   19.5015 C   0  0  0  0  0  0
  -23.6347  -29.8179   20.1523 C   0  0  0  0  0  0
  -25.4116  -36.3090   24.0354 C   0  0  1  0  0  0
  -20.5898  -28.3662   23.1294 C   0  0  2  0  0  0
  -20.6802  -26.9391   22.5416 C   0  0  0  0  0  0
  -19.5777  -26.6386   21.5220 C   0  0  0  0  0  0
  -18.1939  -26.7935   22.1623 C   0  0  0  0  0  0
  -19.1541  -28.8838   23.2902 C   0  0  0  0  0  0
  -18.9472  -30.1458   23.8911 C   0  0  0  0  0  0
  -17.6475  -30.6595   24.0576 C   0  0  0  0  0  0
  -25.9054  -34.9459   23.5132 C   0  0  0  0  0  0
  -16.5364  -29.9112   23.6332 C   0  0  0  0  0  0
  -16.7275  -28.6520   23.0368 C   0  0  0  0  0  0
  -26.4472  -31.6599   25.0712 C   0  0  0  0  0  0
  -25.3729  -31.3710   26.1458 C   0  0  0  0  0  0
  -27.0307  -30.3048   24.6073 C   0  0  0  0  0  0
  -27.6049  -32.4311   25.7470 C   0  0  0  0  0  0
  -27.5585  -37.1812   24.8486 C   0  0  0  0  0  0
  -21.4171  -29.3026   22.3676 N   0  0  0  0  0  0
  -26.4293  -37.3783   23.9431 N   0  0  0  0  0  0
  -24.6808  -31.0684   22.0905 N   0  0  0  0  0  0
  -23.4199  -28.8170   23.2964 O   0  0  0  0  0  0
  -28.3782  -26.5174   20.2174 O   0  0  0  0  0  0
  -26.5616  -34.8921   22.4695 O   0  0  0  0  0  0
  -23.5378  -32.1365   23.7376 O   0  0  0  0  0  0
  -30.8827  -19.3296   20.4525 C   0  0  0  0  0  0
  -30.9601  -17.9013   20.4101 C   0  0  0  0  0  0
  -28.5041  -19.2209   20.8255 C   0  0  0  0  0  0
  -29.6642  -20.0179   20.7102 C   0  0  0  0  0  0
  -29.8036  -17.1055   20.6188 C   0  0  0  0  0  0
  -28.5783  -17.8017   20.7835 C   0  0  0  0  0  0
  -30.5406  -20.9921   23.2777 C   0  0  0  0  0  0
  -29.6526  -21.4824   21.1824 C   0  0  0  0  0  0
  -30.6343  -20.2074   25.6760 C   0  0  0  0  0  0
  -30.9607  -21.3415   24.6869 C   0  0  0  0  0  0
  -29.3080  -23.9904   20.7367 C   0  0  0  0  0  0
  -28.2710  -25.0375   20.1091 C   0  0  0  0  0  0
  -30.0960  -21.8413   22.4265 N   0  0  0  0  0  0
  -29.7470  -15.6542   20.7386 N   0  0  0  0  0  0
  -29.1959  -22.4769   20.4347 N   0  3  0  0  0  0
  -27.4494  -17.0733   20.9629 F   0  0  0  0  0  0
  -31.4791  -12.5162   19.1276 H   0  0  0  0  0  0
  -30.3871  -11.3812   19.8755 H   0  0  0  0  0  0
  -29.7566  -11.7321   17.4750 H   0  0  0  0  0  0
  -29.6485  -13.4556   17.7282 H   0  0  0  0  0  0
  -27.8594  -11.2882   18.8671 H   0  0  0  0  0  0
  -27.3667  -12.5697   17.7940 H   0  0  0  0  0  0
  -27.6663  -14.2487   19.5247 H   0  0  0  0  0  0
  -28.7066  -12.0318   21.3671 H   0  0  0  0  0  0
  -28.4545  -13.6841   21.8453 H   0  0  0  0  0  0
  -25.2753   -9.5654   22.4789 H   0  0  0  0  0  0
  -23.9999   -7.4604   22.7462 H   0  0  0  0  0  0
  -21.0850   -8.8738   19.8957 H   0  0  0  0  0  0
  -22.3688  -10.9648   19.6181 H   0  0  0  0  0  0
  -21.1990   -7.6152   23.9716 H   0  0  0  0  0  0
  -21.1482   -6.0531   25.9079 H   0  0  0  0  0  0
  -22.0609   -2.7621   23.2830 H   0  0  0  0  0  0
  -22.4082  -11.9829   22.4760 H   0  0  0  0  0  0
  -21.1125  -13.1246   22.2692 H   0  0  0  0  0  0
  -24.6557  -15.8340   20.5688 H   0  0  0  0  0  0
  -26.3011  -15.6570   20.2540 H   0  0  0  0  0  0
  -26.7115  -32.5483   23.1127 H   0  0  0  0  0  0
  -25.0115  -33.9733   25.0487 H   0  0  0  0  0  0
  -22.7101  -31.3038   21.3981 H   0  0  0  0  0  0
  -23.3765  -35.9595   23.3323 H   0  0  0  0  0  0
  -24.3592  -36.8859   22.2059 H   0  0  0  0  0  0
  -23.7197  -37.6477   23.6639 H   0  0  0  0  0  0
  -26.0837  -31.5625   20.5914 H   0  0  0  0  0  0
  -26.8333  -30.8576   21.9935 H   0  0  0  0  0  0
  -28.1034  -29.0079   21.2215 H   0  0  0  0  0  0
  -26.0183  -25.9051   19.0608 H   0  0  0  0  0  0
  -23.9870  -27.2869   19.0292 H   0  0  0  0  0  0
  -23.7631  -30.5985   19.3998 H   0  0  0  0  0  0
  -22.7527  -29.2540   19.8419 H   0  0  0  0  0  0
  -25.1284  -36.1963   25.0842 H   0  0  0  0  0  0
  -21.0002  -28.3220   24.1414 H   0  0  0  0  0  0
  -20.5720  -26.2251   23.3590 H   0  0  0  0  0  0
  -21.6668  -26.7456   22.1202 H   0  0  0  0  0  0
  -19.6941  -25.6296   21.1246 H   0  0  0  0  0  0
  -19.6737  -27.3209   20.6755 H   0  0  0  0  0  0
  -17.4234  -26.6680   21.4003 H   0  0  0  0  0  0
  -18.0344  -26.0066   22.9007 H   0  0  0  0  0  0
  -19.7951  -30.7282   24.2257 H   0  0  0  0  0  0
  -17.5041  -31.6268   24.5193 H   0  0  0  0  0  0
  -15.5377  -30.3048   23.7630 H   0  0  0  0  0  0
  -15.8671  -28.0859   22.7082 H   0  0  0  0  0  0
  -24.5916  -30.7031   25.7817 H   0  0  0  0  0  0
  -24.8912  -32.2866   26.4895 H   0  0  0  0  0  0
  -25.8083  -30.8912   27.0229 H   0  0  0  0  0  0
  -26.2853  -29.6803   24.1128 H   0  0  0  0  0  0
  -27.4124  -29.7260   25.4496 H   0  0  0  0  0  0
  -27.8670  -30.4413   23.9205 H   0  0  0  0  0  0
  -27.2696  -33.3621   26.2038 H   0  0  0  0  0  0
  -28.3861  -32.6824   25.0293 H   0  0  0  0  0  0
  -28.0707  -31.8430   26.5388 H   0  0  0  0  0  0
  -28.2628  -38.0094   24.7535 H   0  0  0  0  0  0
  -28.1046  -36.2621   24.6307 H   0  0  0  0  0  0
  -27.2311  -37.1465   25.8894 H   0  0  0  0  0  0
  -20.9302  -29.8762   21.6926 H   0  0  0  0  0  0
  -26.0180  -38.2858   24.1430 H   0  0  0  0  0  0
  -31.7947  -19.9027   20.3893 H   0  0  0  0  0  0
  -31.9257  -17.4352   20.2760 H   0  0  0  0  0  0
  -27.5646  -19.6968   21.0500 H   0  0  0  0  0  0
  -30.6495  -19.9247   23.0696 H   0  0  0  0  0  0
  -30.9119  -20.4798   26.6945 H   0  0  0  0  0  0
  -31.1722  -19.2905   25.4286 H   0  0  0  0  0  0
  -29.5683  -19.9726   25.6811 H   0  0  0  0  0  0
  -30.4598  -22.2583   24.9960 H   0  0  0  0  0  0
  -32.0324  -21.5435   24.6940 H   0  0  0  0  0  0
  -29.2992  -24.1026   21.8222 H   0  0  0  0  0  0
  -30.3209  -24.2594   20.4322 H   0  0  0  0  0  0
  -28.9848  -25.3904   19.3631 H   0  0  0  0  0  0
  -27.8639  -25.2842   21.0924 H   0  0  0  0  0  0
  -28.8244  -15.3214   20.9774 H   0  0  0  0  0  0
  -28.8414  -22.2692   19.4981 H   0  0  0  0  0  0
  1 25  1  0  0  0
  1 30  2  0  0  0
  1 84  1  0  0  0
  2  3  1  0  0  0
  2 25  1  0  0  0
  2 87  1  0  0  0
  2 88  1  0  0  0
  3  4  1  0  0  0
  3 89  1  0  0  0
  3 90  1  0  0  0
  4  5  1  0  0  0
  4 91  1  0  0  0
  4 92  1  0  0  0
  5  6  1  0  0  0
  5 26  1  0  0  0
  5 93  1  0  0  0
  6 25  1  0  0  0
  6 94  1  0  0  0
  6 95  1  0  0  0
  7  8  2  0  0  0
  7 26  1  0  0  0
  7 29  1  0  0  0
  8  9  1  0  0  0
  8 22  1  0  0  0
  9 10  1  0  0  0
  9 27  2  0  0  0
 10 11  2  0  0  0
 10 15  1  0  0  0
 11 12  1  0  0  0
 11 96  1  0  0  0
 12 13  2  0  0  0
 12 97  1  0  0  0
 13 14  1  0  0  0
 13 31  1  0  0  0
 14 15  2  0  0  0
 14 98  1  0  0  0
 15 99  1  0  0  0
 16 17  2  0  0  0
 16 21  1  0  0  0
 16 31  1  0  0  0
 17 18  1  0  0  0
 17100  1  0  0  0
 18 19  2  0  0  0
 18101  1  0  0  0
 19 20  1  0  0  0
 19 24  1  0  0  0
 20 21  2  0  0  0
 20102  1  0  0  0
 21 23  1  0  0  0
 22 28  1  0  0  0
 22 32  2  0  0  0
 26 27  1  0  0  0
 28103  1  0  0  0
 28104  1  0  0  0
 29105  1  0  0  0
 29106  1  0  0  0
 33 34  1  0  0  0
 33 66  1  0  0  0
 33 70  2  0  0  0
 34 36  1  0  0  0
 34 59  1  0  0  0
 34107  1  0  0  0
 35 44  2  0  0  0
 35 45  1  0  0  0
 35 68  1  0  0  0
 36 56  1  0  0  0
 36108  1  0  0  0
 37 39  1  0  0  0
 37 47  1  0  0  0
 37 66  1  0  0  0
 37109  1  0  0  0
 38 43  2  0  0  0
 38 46  1  0  0  0
 38 47  1  0  0  0
 39 64  1  0  0  0
 39 67  2  0  0  0
 40 52  1  0  0  0
 40 53  2  0  0  0
 40 58  1  0  0  0
 41110  1  0  0  0
 41111  1  0  0  0
 41112  1  0  0  0
 41 48  1  0  0  0
 42 43  1  0  0  0
 42 66  1  0  0  0
 42113  1  0  0  0
 42114  1  0  0  0
 43 44  1  0  0  0
 44115  1  0  0  0
 45 46  2  0  0  0
 45116  1  0  0  0
 46117  1  0  0  0
 47118  1  0  0  0
 47119  1  0  0  0
 48 56  1  0  0  0
 48 65  1  0  0  0
 48120  1  0  0  0
 49 50  1  0  0  0
 49 53  1  0  0  0
 49 64  1  0  0  0
 49121  1  0  0  0
 50 51  1  0  0  0
 50122  1  0  0  0
 50123  1  0  0  0
 51 52  1  0  0  0
 51124  1  0  0  0
 51125  1  0  0  0
 52126  1  0  0  0
 52127  1  0  0  0
 53 54  1  0  0  0
 54 55  2  0  0  0
 54128  1  0  0  0
 55 57  1  0  0  0
 55129  1  0  0  0
 56 69  2  0  0  0
 57 58  2  0  0  0
 57130  1  0  0  0
 58131  1  0  0  0
 59 60  1  0  0  0
 59 61  1  0  0  0
 59 62  1  0  0  0
 60132  1  0  0  0
 60133  1  0  0  0
 60134  1  0  0  0
 61135  1  0  0  0
 61136  1  0  0  0
 61137  1  0  0  0
 62138  1  0  0  0
 62139  1  0  0  0
 62140  1  0  0  0
 63 65  1  0  0  0
 63141  1  0  0  0
 63142  1  0  0  0
 63143  1  0  0  0
 64144  1  0  0  0
 65145  1  0  0  0
 68 82  1  0  0  0
 71 72  2  0  0  0
 71 74  1  0  0  0
 71146  1  0  0  0
 72 75  1  0  0  0
 72147  1  0  0  0
 73 74  2  0  0  0
 73 76  1  0  0  0
 73148  1  0  0  0
 74 78  1  0  0  0
 75 76  2  0  0  0
 75 84  1  0  0  0
 76 86  1  0  0  0
 77 80  1  0  0  0
 77 83  2  0  0  0
 77149  1  0  0  0
 78 83  1  0  0  0
 78 85  2  0  0  0
 79 80  1  0  0  0
 79150  1  0  0  0
 79151  1  0  0  0
 79152  1  0  0  0
 80153  1  0  0  0
 80154  1  0  0  0
 81 82  1  0  0  0
 81 85  1  0  0  0
 81155  1  0  0  0
 81156  1  0  0  0
 82157  1  0  0  0
 82158  1  0  0  0
 84159  1  0  0  0
 85160  1  0  0  0
M  CHG  1  85   1
M  ISO  4   1 100  68 101  82 101  84 100
M  END
> <chiral flag>
0

> <version>
0

> <s_m_source_file>
/data/baiqing/PycharmProjects/Reinvent-master-3.2/result/LINK_invent/BTK/process_docking_weight1_custom_product_contain_oxygen_bond_distance_aromatic_linkinvent_7_9_3/rearranged_h_0006.sdf

> <i_m_source_file_index>
30

> <r_mmod_Potential_Energy-OPLS-2005>
196.048934936523

> <r_mmod_Stretch_Energy-OPLS-2005>
88.8008117675781

> <r_mmod_Bend_Energy-OPLS-2005>
353.046997070312

> <r_mmod_Torsional_Energy-OPLS-2005>
249.828109741211

> <r_mmod_Improper_Torsional_Energy-OPLS-2005>
7.87370014190674

> <r_mmod_Van_der_Waal_Energy-OPLS-2005>
163.501953125

> <r_mmod_Electrostatic_Energy-OPLS-2005>
-270.983764648438

> <r_mmod_Solvation_Energy-OPLS-2005>
-441.375610351562

> <b_mmod_Minimization_Converged-OPLS-2005>
0

> <r_mmod_RMS_Derivative-OPLS-2005>
3.09676432609558

$$$$
31
                    3D
 Structure written by MMmdl.
159167  0  0  1  0            999 V2000
  -30.5692  -14.6601   20.4908 C   0  0  0  0  0  0
  -30.4461  -12.4049   19.4211 C   0  0  0  0  0  0
  -29.4991  -12.5081   18.2032 C   0  0  0  0  0  0
  -28.0218  -12.3499   18.6218 C   0  0  0  0  0  0
  -27.6557  -13.2036   19.8640 C   0  0  2  0  0  0
  -28.7078  -13.0203   20.9814 C   0  0  0  0  0  0
  -25.2599  -13.8123   20.5668 C   0  0  0  0  0  0
  -24.1849  -13.0414   20.9152 C   0  0  0  0  0  0
  -24.6395  -11.6876   20.8717 C   0  0  0  0  0  0
  -23.9047  -10.4279   21.0407 C   0  0  0  0  0  0
  -24.3604   -9.4202   21.9181 C   0  0  0  0  0  0
  -23.6287   -8.2234   22.0762 C   0  0  0  0  0  0
  -22.4261   -8.0270   21.3569 C   0  0  0  0  0  0
  -21.9900   -9.0225   20.4645 C   0  0  0  0  0  0
  -22.7217  -10.2114   20.3062 C   0  0  0  0  0  0
  -21.6848   -6.0735   22.5269 C   0  0  0  0  0  0
  -21.4005   -6.5644   23.8197 C   0  0  0  0  0  0
  -21.3660   -5.6803   24.9160 C   0  0  0  0  0  0
  -21.6046   -4.3063   24.7206 C   0  0  0  0  0  0
  -21.8824   -3.8150   23.4329 C   0  0  0  0  0  0
  -21.9191   -4.6971   22.3391 C   0  0  0  0  0  0
  -22.7881  -13.5242   21.1803 C   0  0  0  0  0  0
  -22.1666   -4.2159   21.0974 F   0  0  0  0  0  0
  -21.5628   -3.4551   25.7721 F   0  0  0  0  0  0
  -30.0129  -13.4057   20.4187 N   0  0  0  0  0  0
  -26.3017  -12.9270   20.3332 N   0  0  0  0  0  0
  -25.9326  -11.6440   20.5749 N   0  0  0  0  0  0
  -22.0522  -12.8252   22.0369 N   0  0  0  0  0  0
  -25.4311  -15.1838   20.4059 N   0  0  0  0  0  0
  -31.7144  -14.8796   20.0821 O   0  0  0  0  0  0
  -21.6642   -6.8867   21.4236 O   0  0  0  0  0  0
  -22.3582  -14.5556   20.6638 O   0  0  0  0  0  0
  -24.6237  -31.8568   23.1991 C   0  0  0  0  0  0
  -25.9081  -32.4781   23.8301 C   0  0  1  0  0  0
  -27.2256  -27.3084   20.1378 C   0  0  0  0  0  0
  -25.5913  -33.8571   24.2249 N   0  0  0  0  0  0
  -23.4198  -30.4807   21.5380 C   0  0  2  0  0  0
  -24.8714  -28.9244   20.1162 C   0  0  0  0  0  0
  -22.7498  -29.4606   22.4870 C   0  0  0  0  0  0
  -18.0294  -28.1414   22.8436 C   0  0  0  0  0  0
  -24.1479  -36.7233   23.2652 C   0  0  0  0  0  0
  -25.9610  -30.7858   21.3789 C   0  0  0  0  0  0
  -26.0346  -29.4113   20.7236 C   0  0  0  0  0  0
  -27.2156  -28.6122   20.7208 C   0  0  0  0  0  0
  -26.0442  -26.8671   19.5142 C   0  0  0  0  0  0
  -24.8760  -27.6580   19.5040 C   0  0  0  0  0  0
  -23.6443  -29.8124   20.1561 C   0  0  0  0  0  0
  -25.4094  -36.3047   24.0345 C   0  0  1  0  0  0
  -20.5899  -28.3688   23.1276 C   0  0  2  0  0  0
  -20.6792  -26.9401   22.5416 C   0  0  0  0  0  0
  -19.5785  -26.6356   21.5224 C   0  0  0  0  0  0
  -18.1946  -26.7949   22.1594 C   0  0  0  0  0  0
  -19.1542  -28.8850   23.2854 C   0  0  0  0  0  0
  -18.9496  -30.1451   23.8860 C   0  0  0  0  0  0
  -17.6516  -30.6602   24.0546 C   0  0  0  0  0  0
  -25.9024  -34.9448   23.5093 C   0  0  0  0  0  0
  -16.5389  -29.9097   23.6377 C   0  0  0  0  0  0
  -16.7281  -28.6555   23.0315 C   0  0  0  0  0  0
  -26.4496  -31.6596   25.0684 C   0  0  0  0  0  0
  -25.3750  -31.3769   26.1435 C   0  0  0  0  0  0
  -27.0331  -30.3004   24.6121 C   0  0  0  0  0  0
  -27.6017  -32.4336   25.7461 C   0  0  0  0  0  0
  -27.5563  -37.1763   24.8486 C   0  0  0  0  0  0
  -21.4197  -29.3021   22.3649 N   0  0  0  0  0  0
  -26.4269  -37.3750   23.9439 N   0  0  0  0  0  0
  -24.6862  -31.0579   22.0959 N   0  0  0  0  0  0
  -23.4219  -28.8138   23.2955 O   0  0  0  0  0  0
  -28.3678  -26.4967   20.1155 O   0  0  0  0  0  0
  -26.5594  -34.8928   22.4653 O   0  0  0  0  0  0
  -23.5392  -32.1381   23.7306 O   0  0  0  0  0  0
  -30.1806  -19.4470   20.1589 C   0  0  0  0  0  0
  -30.4385  -18.0277   20.1450 C   0  0  0  0  0  0
  -28.4621  -17.6817   21.4470 C   0  0  0  0  0  0
  -29.0593  -20.0310   20.8362 C   0  0  0  0  0  0
  -28.2046  -19.0849   21.4868 C   0  0  0  0  0  0
  -29.5844  -17.1012   20.8101 C   0  0  0  0  0  0
  -25.7160  -19.7085   21.5391 C   0  0  0  0  0  0
  -27.0118  -19.5162   22.3401 C   0  0  0  0  0  0
  -28.8032  -21.6055   21.0069 C   0  0  0  0  0  0
  -28.2597  -23.8568   19.7021 C   0  0  0  0  0  0
  -28.3241  -25.1222   20.6796 C   0  0  0  0  0  0
  -29.7030  -15.6402   20.9126 N   0  0  0  0  0  0
  -29.1428  -22.6181   19.9300 N   0  3  0  0  0  0
  -31.4802  -12.5581   19.1068 H   0  0  0  0  0  0
  -30.4091  -11.3977   19.8408 H   0  0  0  0  0  0
  -29.7466  -11.7465   17.4623 H   0  0  0  0  0  0
  -29.6366  -13.4699   17.7059 H   0  0  0  0  0  0
  -27.8501  -11.2933   18.8329 H   0  0  0  0  0  0
  -27.3618  -12.5994   17.7874 H   0  0  0  0  0  0
  -27.6787  -14.2467   19.5409 H   0  0  0  0  0  0
  -28.7359  -11.9789   21.3081 H   0  0  0  0  0  0
  -28.4537  -13.5976   21.8726 H   0  0  0  0  0  0
  -25.2745   -9.5699   22.4757 H   0  0  0  0  0  0
  -23.9985   -7.4657   22.7518 H   0  0  0  0  0  0
  -21.0813   -8.8723   19.8974 H   0  0  0  0  0  0
  -22.3632  -10.9653   19.6177 H   0  0  0  0  0  0
  -21.1995   -7.6148   23.9696 H   0  0  0  0  0  0
  -21.1481   -6.0534   25.9060 H   0  0  0  0  0  0
  -22.0604   -2.7615   23.2815 H   0  0  0  0  0  0
  -22.4138  -11.9893   22.4745 H   0  0  0  0  0  0
  -21.1153  -13.1327   22.2589 H   0  0  0  0  0  0
  -24.6541  -15.8287   20.4947 H   0  0  0  0  0  0
  -26.2653  -15.6206   20.0354 H   0  0  0  0  0  0
  -26.7112  -32.5440   23.0999 H   0  0  0  0  0  0
  -25.0185  -33.9716   25.0485 H   0  0  0  0  0  0
  -22.7113  -31.2990   21.3838 H   0  0  0  0  0  0
  -23.3791  -35.9530   23.3305 H   0  0  0  0  0  0
  -24.3596  -36.8839   22.2079 H   0  0  0  0  0  0
  -23.7211  -37.6410   23.6688 H   0  0  0  0  0  0
  -26.1030  -31.5522   20.6149 H   0  0  0  0  0  0
  -26.8374  -30.8275   22.0127 H   0  0  0  0  0  0
  -28.1165  -28.9850   21.1849 H   0  0  0  0  0  0
  -26.0250  -25.9046   19.0229 H   0  0  0  0  0  0
  -23.9840  -27.2838   19.0233 H   0  0  0  0  0  0
  -23.7853  -30.5910   19.4063 H   0  0  0  0  0  0
  -22.7652  -29.2515   19.8325 H   0  0  0  0  0  0
  -25.1283  -36.1882   25.0845 H   0  0  0  0  0  0
  -20.9934  -28.3271   24.1416 H   0  0  0  0  0  0
  -20.5721  -26.2285   23.3593 H   0  0  0  0  0  0
  -21.6663  -26.7442   22.1180 H   0  0  0  0  0  0
  -19.6981  -25.6270   21.1247 H   0  0  0  0  0  0
  -19.6775  -27.3151   20.6741 H   0  0  0  0  0  0
  -17.4209  -26.6658   21.3987 H   0  0  0  0  0  0
  -18.0327  -26.0104   22.8998 H   0  0  0  0  0  0
  -19.8005  -30.7239   24.2170 H   0  0  0  0  0  0
  -17.5127  -31.6292   24.5130 H   0  0  0  0  0  0
  -15.5412  -30.3005   23.7767 H   0  0  0  0  0  0
  -15.8669  -28.0912   22.7004 H   0  0  0  0  0  0
  -24.5880  -30.7148   25.7798 H   0  0  0  0  0  0
  -24.9007  -32.2972   26.4841 H   0  0  0  0  0  0
  -25.8074  -30.8971   27.0219 H   0  0  0  0  0  0
  -26.2874  -29.6733   24.1204 H   0  0  0  0  0  0
  -27.4146  -29.7255   25.4570 H   0  0  0  0  0  0
  -27.8698  -30.4290   23.9252 H   0  0  0  0  0  0
  -27.2591  -33.3667   26.1930 H   0  0  0  0  0  0
  -28.3888  -32.6824   25.0340 H   0  0  0  0  0  0
  -28.0604  -31.8548   26.5477 H   0  0  0  0  0  0
  -28.2542  -38.0087   24.7504 H   0  0  0  0  0  0
  -28.1091  -36.2605   24.6318 H   0  0  0  0  0  0
  -27.2309  -37.1392   25.8901 H   0  0  0  0  0  0
  -20.9351  -29.8700   21.6829 H   0  0  0  0  0  0
  -26.0152  -38.2814   24.1491 H   0  0  0  0  0  0
  -30.8863  -20.0896   19.6510 H   0  0  0  0  0  0
  -31.3107  -17.6576   19.6227 H   0  0  0  0  0  0
  -27.7744  -17.0277   21.9603 H   0  0  0  0  0  0
  -24.9063  -20.0284   22.1969 H   0  0  0  0  0  0
  -25.4034  -18.7803   21.0589 H   0  0  0  0  0  0
  -25.8182  -20.4624   20.7582 H   0  0  0  0  0  0
  -27.2572  -20.4062   22.9230 H   0  0  0  0  0  0
  -26.8276  -18.7475   23.0935 H   0  0  0  0  0  0
  -29.3228  -21.9052   21.9187 H   0  0  0  0  0  0
  -27.7494  -21.7589   21.2251 H   0  0  0  0  0  0
  -28.5235  -24.2244   18.7089 H   0  0  0  0  0  0
  -27.2207  -23.5340   19.6038 H   0  0  0  0  0  0
  -29.2109  -25.0314   21.3060 H   0  0  0  0  0  0
  -27.4973  -25.0573   21.3935 H   0  0  0  0  0  0
  -28.8782  -15.2120   21.3068 H   0  0  0  0  0  0
  -29.1178  -22.1073   19.0629 H   0  0  0  0  0  0
  -30.1018  -22.9092   20.0525 H   0  0  0  0  0  0
  1 25  1  0  0  0
  1 30  2  0  0  0
  1 82  1  0  0  0
  2  3  1  0  0  0
  2 25  1  0  0  0
  2 84  1  0  0  0
  2 85  1  0  0  0
  3  4  1  0  0  0
  3 86  1  0  0  0
  3 87  1  0  0  0
  4  5  1  0  0  0
  4 88  1  0  0  0
  4 89  1  0  0  0
  5  6  1  0  0  0
  5 26  1  0  0  0
  5 90  1  0  0  0
  6 25  1  0  0  0
  6 91  1  0  0  0
  6 92  1  0  0  0
  7  8  2  0  0  0
  7 26  1  0  0  0
  7 29  1  0  0  0
  8  9  1  0  0  0
  8 22  1  0  0  0
  9 10  1  0  0  0
  9 27  2  0  0  0
 10 11  2  0  0  0
 10 15  1  0  0  0
 11 12  1  0  0  0
 11 93  1  0  0  0
 12 13  2  0  0  0
 12 94  1  0  0  0
 13 14  1  0  0  0
 13 31  1  0  0  0
 14 15  2  0  0  0
 14 95  1  0  0  0
 15 96  1  0  0  0
 16 17  2  0  0  0
 16 21  1  0  0  0
 16 31  1  0  0  0
 17 18  1  0  0  0
 17 97  1  0  0  0
 18 19  2  0  0  0
 18 98  1  0  0  0
 19 20  1  0  0  0
 19 24  1  0  0  0
 20 21  2  0  0  0
 20 99  1  0  0  0
 21 23  1  0  0  0
 22 28  1  0  0  0
 22 32  2  0  0  0
 26 27  1  0  0  0
 28100  1  0  0  0
 28101  1  0  0  0
 29102  1  0  0  0
 29103  1  0  0  0
 33 34  1  0  0  0
 33 66  1  0  0  0
 33 70  2  0  0  0
 34 36  1  0  0  0
 34 59  1  0  0  0
 34104  1  0  0  0
 35 44  2  0  0  0
 35 45  1  0  0  0
 35 68  1  0  0  0
 36 56  1  0  0  0
 36105  1  0  0  0
 37 39  1  0  0  0
 37 47  1  0  0  0
 37 66  1  0  0  0
 37106  1  0  0  0
 38 43  2  0  0  0
 38 46  1  0  0  0
 38 47  1  0  0  0
 39 64  1  0  0  0
 39 67  2  0  0  0
 40 52  1  0  0  0
 40 53  2  0  0  0
 40 58  1  0  0  0
 41107  1  0  0  0
 41108  1  0  0  0
 41109  1  0  0  0
 41 48  1  0  0  0
 42 43  1  0  0  0
 42 66  1  0  0  0
 42110  1  0  0  0
 42111  1  0  0  0
 43 44  1  0  0  0
 44112  1  0  0  0
 45 46  2  0  0  0
 45113  1  0  0  0
 46114  1  0  0  0
 47115  1  0  0  0
 47116  1  0  0  0
 48 56  1  0  0  0
 48 65  1  0  0  0
 48117  1  0  0  0
 49 50  1  0  0  0
 49 53  1  0  0  0
 49 64  1  0  0  0
 49118  1  0  0  0
 50 51  1  0  0  0
 50119  1  0  0  0
 50120  1  0  0  0
 51 52  1  0  0  0
 51121  1  0  0  0
 51122  1  0  0  0
 52123  1  0  0  0
 52124  1  0  0  0
 53 54  1  0  0  0
 54 55  2  0  0  0
 54125  1  0  0  0
 55 57  1  0  0  0
 55126  1  0  0  0
 56 69  2  0  0  0
 57 58  2  0  0  0
 57127  1  0  0  0
 58128  1  0  0  0
 59 60  1  0  0  0
 59 61  1  0  0  0
 59 62  1  0  0  0
 60129  1  0  0  0
 60130  1  0  0  0
 60131  1  0  0  0
 61132  1  0  0  0
 61133  1  0  0  0
 61134  1  0  0  0
 62135  1  0  0  0
 62136  1  0  0  0
 62137  1  0  0  0
 63 65  1  0  0  0
 63138  1  0  0  0
 63139  1  0  0  0
 63140  1  0  0  0
 64141  1  0  0  0
 65142  1  0  0  0
 68 81  1  0  0  0
 71 72  2  0  0  0
 71 74  1  0  0  0
 71143  1  0  0  0
 72 76  1  0  0  0
 72144  1  0  0  0
 73 75  1  0  0  0
 73 76  2  0  0  0
 73145  1  0  0  0
 74 75  2  0  0  0
 74 79  1  0  0  0
 75 78  1  0  0  0
 76 82  1  0  0  0
 77 78  1  0  0  0
 77146  1  0  0  0
 77147  1  0  0  0
 77148  1  0  0  0
 78149  1  0  0  0
 78150  1  0  0  0
 79 83  1  0  0  0
 79151  1  0  0  0
 79152  1  0  0  0
 80 81  1  0  0  0
 80 83  1  0  0  0
 80153  1  0  0  0
 80154  1  0  0  0
 81155  1  0  0  0
 81156  1  0  0  0
 82157  1  0  0  0
 83158  1  0  0  0
 83159  1  0  0  0
M  CHG  1  83   1
M  ISO  4   1 100  68 101  81 101  82 100
M  END
> <chiral flag>
0

> <version>
0

> <s_m_source_file>
/data/baiqing/PycharmProjects/Reinvent-master-3.2/result/LINK_invent/BTK/process_docking_weight1_custom_product_contain_oxygen_bond_distance_aromatic_linkinvent_7_9_3/rearranged_h_0006.sdf

> <i_m_source_file_index>
31

> <r_mmod_Potential_Energy-OPLS-2005>
-35.5961685180664

> <r_mmod_Stretch_Energy-OPLS-2005>
93.6058731079102

> <r_mmod_Bend_Energy-OPLS-2005>
182.831512451172

> <r_mmod_Torsional_Energy-OPLS-2005>
241.476699829102

> <r_mmod_Improper_Torsional_Energy-OPLS-2005>
4.35031843185425

> <r_mmod_Van_der_Waal_Energy-OPLS-2005>
132.934219360352

> <r_mmod_Electrostatic_Energy-OPLS-2005>
-287.683074951172

> <r_mmod_Solvation_Energy-OPLS-2005>
-455.253173828125

> <b_mmod_Minimization_Converged-OPLS-2005>
0

> <r_mmod_RMS_Derivative-OPLS-2005>
5.29568433761597

$$$$
32
                    3D
 Structure written by MMmdl.
137144  0  0  1  0            999 V2000
  -29.9622  -16.5635   20.2664 C   0  0  0  0  0  0
  -30.3146  -13.7964   19.5233 C   0  0  0  0  0  0
  -29.5702  -12.9451   18.4142 C   0  0  0  0  0  0
  -28.2376  -12.3814   18.9086 C   0  0  0  0  0  0
  -27.5746  -13.4257   19.8177 C   0  0  2  0  0  0
  -28.5152  -14.1357   20.8613 C   0  0  0  0  0  0
  -25.2174  -13.8479   20.5951 C   0  0  0  0  0  0
  -24.1675  -13.0467   20.9341 C   0  0  0  0  0  0
  -24.6541  -11.7031   20.8745 C   0  0  0  0  0  0
  -23.9255  -10.4321   21.0342 C   0  0  0  0  0  0
  -24.3739   -9.4228   21.9149 C   0  0  0  0  0  0
  -23.6364   -8.2283   22.0747 C   0  0  0  0  0  0
  -22.4340   -8.0323   21.3544 C   0  0  0  0  0  0
  -22.0014   -9.0304   20.4634 C   0  0  0  0  0  0
  -22.7395  -10.2158   20.3018 C   0  0  0  0  0  0
  -21.6878   -6.0765   22.5277 C   0  0  0  0  0  0
  -21.4033   -6.5657   23.8214 C   0  0  0  0  0  0
  -21.3665   -5.6802   24.9171 C   0  0  0  0  0  0
  -21.6043   -4.3064   24.7217 C   0  0  0  0  0  0
  -21.8816   -3.8163   23.4335 C   0  0  0  0  0  0
  -21.9200   -4.6987   22.3396 C   0  0  0  0  0  0
  -22.7650  -13.5092   21.1938 C   0  0  0  0  0  0
  -22.1663   -4.2170   21.0973 F   0  0  0  0  0  0
  -21.5624   -3.4543   25.7727 F   0  0  0  0  0  0
  -29.5188  -15.0444   20.1465 N   0  0  0  0  0  0
  -26.2805  -13.0063   20.3476 N   0  0  0  0  0  0
  -25.9548  -11.6990   20.5678 N   0  0  0  0  0  0
  -22.0351  -12.8040   22.0489 N   0  0  0  0  0  0
  -25.3555  -15.2242   20.4383 N   0  0  0  0  0  0
  -31.2063  -16.3142   20.2293 O   0  0  0  0  0  0
  -21.6677   -6.8928   21.4248 O   0  0  0  0  0  0
  -22.3283  -14.5375   20.6771 O   0  0  0  0  0  0
  -24.7449  -31.7216   23.0979 C   0  0  0  0  0  0
  -25.9712  -32.4091   23.7768 C   0  0  1  0  0  0
  -27.2626  -26.0606   20.2671 C   0  0  0  0  0  0
  -25.6018  -33.7953   24.1581 N   0  0  0  0  0  0
  -23.5996  -30.2922   21.4680 C   0  0  2  0  0  0
  -25.0624  -28.4936   20.1392 C   0  0  0  0  0  0
  -22.8035  -29.3895   22.4550 C   0  0  0  0  0  0
  -18.0376  -28.1454   22.8421 C   0  0  0  0  0  0
  -24.1496  -36.6992   23.2671 C   0  0  0  0  0  0
  -26.1999  -30.2411   21.4589 C   0  0  0  0  0  0
  -26.2597  -28.7329   20.8212 C   0  0  0  0  0  0
  -27.3097  -27.5690   20.8335 C   0  0  0  0  0  0
  -26.0272  -26.1946   19.5192 C   0  0  0  0  0  0
  -25.0234  -27.2541   19.4619 C   0  0  0  0  0  0
  -23.8874  -29.5253   20.1333 C   0  0  0  0  0  0
  -25.4170  -36.2677   24.0236 C   0  0  1  0  0  0
  -20.6038  -28.3836   23.1031 C   0  0  2  0  0  0
  -20.6806  -26.9436   22.5420 C   0  0  0  0  0  0
  -19.5796  -26.6348   21.5224 C   0  0  0  0  0  0
  -18.1977  -26.7969   22.1607 C   0  0  0  0  0  0
  -19.1657  -28.8984   23.2686 C   0  0  0  0  0  0
  -18.9553  -30.1552   23.8759 C   0  0  0  0  0  0
  -17.6536  -30.6619   24.0537 C   0  0  0  0  0  0
  -25.9187  -34.9084   23.4798 C   0  0  0  0  0  0
  -16.5422  -29.9090   23.6366 C   0  0  0  0  0  0
  -16.7352  -28.6518   23.0376 C   0  0  0  0  0  0
  -26.4693  -31.6408   25.0652 C   0  0  0  0  0  0
  -25.3596  -31.3898   26.1149 C   0  0  0  0  0  0
  -27.0730  -30.2690   24.7003 C   0  0  0  0  0  0
  -27.6017  -32.4426   25.7501 C   0  0  0  0  0  0
  -27.5543  -37.1648   24.8466 C   0  0  0  0  0  0
  -21.4628  -29.2949   22.3282 N   0  0  0  0  0  0
  -26.4242  -37.3509   23.9408 N   0  0  0  0  0  0
  -24.8802  -30.8007   22.0600 N   0  0  0  0  0  0
  -23.4175  -28.7613   23.3197 O   0  0  0  0  0  0
  -28.1668  -24.5661   20.3212 O   0  0  0  0  0  0
  -26.5925  -34.8791   22.4483 O   0  0  0  0  0  0
  -23.6336  -32.0588   23.5524 O   0  0  0  0  0  0
  -29.2006  -20.3375   20.3201 C   0  0  0  0  0  0
  -28.2004  -22.4649   20.2188 C   0  0  0  0  0  0
  -29.3170  -18.2279   20.2702 N   0  0  0  0  0  0
  -31.2155  -14.1817   19.0448 H   0  0  0  0  0  0
  -30.7050  -13.1434   20.3066 H   0  0  0  0  0  0
  -30.2109  -12.1390   18.0541 H   0  0  0  0  0  0
  -29.3823  -13.5901   17.5547 H   0  0  0  0  0  0
  -28.4305  -11.4738   19.4819 H   0  0  0  0  0  0
  -27.5913  -12.1016   18.0755 H   0  0  0  0  0  0
  -27.3204  -14.2160   19.1091 H   0  0  0  0  0  0
  -28.9720  -13.4238   21.5512 H   0  0  0  0  0  0
  -27.9168  -14.7884   21.4973 H   0  0  0  0  0  0
  -25.2871   -9.5690   22.4748 H   0  0  0  0  0  0
  -24.0047   -7.4683   22.7489 H   0  0  0  0  0  0
  -21.0938   -8.8851   19.8945 H   0  0  0  0  0  0
  -22.3854  -10.9697   19.6127 H   0  0  0  0  0  0
  -21.2035   -7.6165   23.9725 H   0  0  0  0  0  0
  -21.1486   -6.0529   25.9075 H   0  0  0  0  0  0
  -22.0587   -2.7625   23.2829 H   0  0  0  0  0  0
  -22.4039  -11.9742   22.4895 H   0  0  0  0  0  0
  -21.0937  -13.0980   22.2674 H   0  0  0  0  0  0
  -24.5768  -15.8638   20.5540 H   0  0  0  0  0  0
  -26.2060  -15.6839   20.1380 H   0  0  0  0  0  0
  -26.7876  -32.4443   23.0543 H   0  0  0  0  0  0
  -24.9961  -33.8879   24.9601 H   0  0  0  0  0  0
  -22.9629  -31.1444   21.2211 H   0  0  0  0  0  0
  -23.3792  -35.9283   23.3224 H   0  0  0  0  0  0
  -24.3542  -36.8804   22.2107 H   0  0  0  0  0  0
  -23.7229  -37.6104   23.6874 H   0  0  0  0  0  0
  -26.4659  -30.9211   20.6487 H   0  0  0  0  0  0
  -27.0298  -30.3291   22.1459 H   0  0  0  0  0  0
  -28.1985  -27.7908   21.4071 H   0  0  0  0  0  0
  -25.7596  -25.3099   18.9588 H   0  0  0  0  0  0
  -24.1415  -27.0455   18.8719 H   0  0  0  0  0  0
  -24.1127  -30.2559   19.3556 H   0  0  0  0  0  0
  -22.9802  -29.0216   19.7958 H   0  0  0  0  0  0
  -25.1411  -36.1346   25.0723 H   0  0  0  0  0  0
  -21.0093  -28.3507   24.1170 H   0  0  0  0  0  0
  -20.5606  -26.2478   23.3738 H   0  0  0  0  0  0
  -21.6663  -26.7276   22.1281 H   0  0  0  0  0  0
  -19.6940  -25.6222   21.1342 H   0  0  0  0  0  0
  -19.6763  -27.3084   20.6699 H   0  0  0  0  0  0
  -17.4253  -26.6718   21.4002 H   0  0  0  0  0  0
  -18.0338  -26.0144   22.9029 H   0  0  0  0  0  0
  -19.8031  -30.7398   24.2071 H   0  0  0  0  0  0
  -17.5087  -31.6284   24.5168 H   0  0  0  0  0  0
  -15.5417  -30.2952   23.7771 H   0  0  0  0  0  0
  -15.8752  -28.0794   22.7169 H   0  0  0  0  0  0
  -24.5845  -30.7190   25.7424 H   0  0  0  0  0  0
  -24.8725  -32.3171   26.4173 H   0  0  0  0  0  0
  -25.7627  -30.9316   27.0189 H   0  0  0  0  0  0
  -26.3552  -29.6093   24.2123 H   0  0  0  0  0  0
  -27.4038  -29.7408   25.5956 H   0  0  0  0  0  0
  -27.9570  -30.3690   24.0706 H   0  0  0  0  0  0
  -27.2476  -33.3875   26.1635 H   0  0  0  0  0  0
  -28.4042  -32.6752   25.0488 H   0  0  0  0  0  0
  -28.0450  -31.8868   26.5774 H   0  0  0  0  0  0
  -28.2488  -38.0006   24.7515 H   0  0  0  0  0  0
  -28.1107  -36.2518   24.6291 H   0  0  0  0  0  0
  -27.2256  -37.1265   25.8866 H   0  0  0  0  0  0
  -21.0089  -29.8498   21.6159 H   0  0  0  0  0  0
  -26.0011  -38.2526   24.1435 H   0  0  0  0  0  0
  -30.0015  -20.5173   19.6027 H   0  0  0  0  0  0
  -29.6902  -20.4553   21.2869 H   0  0  0  0  0  0
  -27.7199  -22.3753   19.2446 H   0  0  0  0  0  0
  -27.3860  -22.2933   20.9225 H   0  0  0  0  0  0
  -30.3181  -18.3884   20.2986 H   0  0  0  0  0  0
  1 25  1  0  0  0
  1 30  2  0  0  0
  1 73  1  0  0  0
  2  3  1  0  0  0
  2 25  1  0  0  0
  2 74  1  0  0  0
  2 75  1  0  0  0
  3  4  1  0  0  0
  3 76  1  0  0  0
  3 77  1  0  0  0
  4  5  1  0  0  0
  4 78  1  0  0  0
  4 79  1  0  0  0
  5  6  1  0  0  0
  5 26  1  0  0  0
  5 80  1  0  0  0
  6 25  1  0  0  0
  6 81  1  0  0  0
  6 82  1  0  0  0
  7  8  2  0  0  0
  7 26  1  0  0  0
  7 29  1  0  0  0
  8  9  1  0  0  0
  8 22  1  0  0  0
  9 10  1  0  0  0
  9 27  2  0  0  0
 10 11  2  0  0  0
 10 15  1  0  0  0
 11 12  1  0  0  0
 11 83  1  0  0  0
 12 13  2  0  0  0
 12 84  1  0  0  0
 13 14  1  0  0  0
 13 31  1  0  0  0
 14 15  2  0  0  0
 14 85  1  0  0  0
 15 86  1  0  0  0
 16 17  2  0  0  0
 16 21  1  0  0  0
 16 31  1  0  0  0
 17 18  1  0  0  0
 17 87  1  0  0  0
 18 19  2  0  0  0
 18 88  1  0  0  0
 19 20  1  0  0  0
 19 24  1  0  0  0
 20 21  2  0  0  0
 20 89  1  0  0  0
 21 23  1  0  0  0
 22 28  1  0  0  0
 22 32  2  0  0  0
 26 27  1  0  0  0
 28 90  1  0  0  0
 28 91  1  0  0  0
 29 92  1  0  0  0
 29 93  1  0  0  0
 33 34  1  0  0  0
 33 66  1  0  0  0
 33 70  2  0  0  0
 34 36  1  0  0  0
 34 59  1  0  0  0
 34 94  1  0  0  0
 35 44  2  0  0  0
 35 45  1  0  0  0
 35 68  1  0  0  0
 36 56  1  0  0  0
 36 95  1  0  0  0
 37 39  1  0  0  0
 37 47  1  0  0  0
 37 66  1  0  0  0
 37 96  1  0  0  0
 38 43  2  0  0  0
 38 46  1  0  0  0
 38 47  1  0  0  0
 39 64  1  0  0  0
 39 67  2  0  0  0
 40 52  1  0  0  0
 40 53  2  0  0  0
 40 58  1  0  0  0
 41 97  1  0  0  0
 41 98  1  0  0  0
 41 99  1  0  0  0
 41 48  1  0  0  0
 42 43  1  0  0  0
 42 66  1  0  0  0
 42100  1  0  0  0
 42101  1  0  0  0
 43 44  1  0  0  0
 44102  1  0  0  0
 45 46  2  0  0  0
 45103  1  0  0  0
 46104  1  0  0  0
 47105  1  0  0  0
 47106  1  0  0  0
 48 56  1  0  0  0
 48 65  1  0  0  0
 48107  1  0  0  0
 49 50  1  0  0  0
 49 53  1  0  0  0
 49 64  1  0  0  0
 49108  1  0  0  0
 50 51  1  0  0  0
 50109  1  0  0  0
 50110  1  0  0  0
 51 52  1  0  0  0
 51111  1  0  0  0
 51112  1  0  0  0
 52113  1  0  0  0
 52114  1  0  0  0
 53 54  1  0  0  0
 54 55  2  0  0  0
 54115  1  0  0  0
 55 57  1  0  0  0
 55116  1  0  0  0
 56 69  2  0  0  0
 57 58  2  0  0  0
 57117  1  0  0  0
 58118  1  0  0  0
 59 60  1  0  0  0
 59 61  1  0  0  0
 59 62  1  0  0  0
 60119  1  0  0  0
 60120  1  0  0  0
 60121  1  0  0  0
 61122  1  0  0  0
 61123  1  0  0  0
 61124  1  0  0  0
 62125  1  0  0  0
 62126  1  0  0  0
 62127  1  0  0  0
 63 65  1  0  0  0
 63128  1  0  0  0
 63129  1  0  0  0
 63130  1  0  0  0
 64131  1  0  0  0
 65132  1  0  0  0
 68 72  1  0  0  0
 71 72  1  0  0  0
 71 73  1  0  0  0
 71133  1  0  0  0
 71134  1  0  0  0
 72135  1  0  0  0
 72136  1  0  0  0
 73137  1  0  0  0
M  ISO  4   1 100  68 101  72 101  73 100
M  END
> <chiral flag>
0

> <version>
0

> <s_m_source_file>
/data/baiqing/PycharmProjects/Reinvent-master-3.2/result/LINK_invent/BTK/process_docking_weight1_custom_product_contain_oxygen_bond_distance_aromatic_linkinvent_7_9_3/rearranged_h_0006.sdf

> <i_m_source_file_index>
32

> <r_mmod_Potential_Energy-OPLS-2005>
6948.9697265625

> <r_mmod_Stretch_Energy-OPLS-2005>
3136.46411132812

> <r_mmod_Bend_Energy-OPLS-2005>
1268.50207519531

> <r_mmod_Torsional_Energy-OPLS-2005>
217.324829101562

> <r_mmod_Improper_Torsional_Energy-OPLS-2005>
4.82364273071289

> <r_mmod_Van_der_Waal_Energy-OPLS-2005>
120.95548248291

> <r_mmod_Electrostatic_Energy-OPLS-2005>
-391.247985839844

> <r_mmod_Solvation_Energy-OPLS-2005>
-221.174652099609

> <b_mmod_Minimization_Converged-OPLS-2005>
1

> <r_mmod_RMS_Derivative-OPLS-2005>
0.042349461466074

$$$$
33
                    3D
 Structure written by MMmdl.
176185  0  0  1  0            999 V2000
  -30.7418  -14.3810   20.6209 C   0  0  0  0  0  0
  -30.4179  -12.2725   19.3925 C   0  0  0  0  0  0
  -29.4899  -12.5171   18.1863 C   0  0  0  0  0  0
  -28.0033  -12.4190   18.5935 C   0  0  0  0  0  0
  -27.6705  -13.2066   19.8899 C   0  0  2  0  0  0
  -28.7138  -12.9230   20.9942 C   0  0  0  0  0  0
  -25.2633  -13.8159   20.5709 C   0  0  0  0  0  0
  -24.1886  -13.0443   20.9179 C   0  0  0  0  0  0
  -24.6435  -11.6910   20.8755 C   0  0  0  0  0  0
  -23.9103  -10.4316   21.0409 C   0  0  0  0  0  0
  -24.3642   -9.4222   21.9188 C   0  0  0  0  0  0
  -23.6315   -8.2258   22.0756 C   0  0  0  0  0  0
  -22.4312   -8.0308   21.3534 C   0  0  0  0  0  0
  -21.9936   -9.0291   20.4640 C   0  0  0  0  0  0
  -22.7269  -10.2164   20.3050 C   0  0  0  0  0  0
  -21.6853   -6.0755   22.5292 C   0  0  0  0  0  0
  -21.4016   -6.5649   23.8236 C   0  0  0  0  0  0
  -21.3668   -5.6800   24.9186 C   0  0  0  0  0  0
  -21.6053   -4.3060   24.7237 C   0  0  0  0  0  0
  -21.8818   -3.8161   23.4360 C   0  0  0  0  0  0
  -21.9184   -4.6986   22.3410 C   0  0  0  0  0  0
  -22.7906  -13.5249   21.1867 C   0  0  0  0  0  0
  -22.1654   -4.2168   21.0987 F   0  0  0  0  0  0
  -21.5619   -3.4534   25.7735 F   0  0  0  0  0  0
  -30.0495  -13.2246   20.4480 N   0  0  0  0  0  0
  -26.3079  -12.9335   20.3415 N   0  0  0  0  0  0
  -25.9367  -11.6487   20.5784 N   0  0  0  0  0  0
  -22.0514  -12.8250   22.0406 N   0  0  0  0  0  0
  -25.4364  -15.1903   20.4235 N   0  0  0  0  0  0
  -31.8162  -14.6252   20.0666 O   0  0  0  0  0  0
  -21.6650   -6.8915   21.4258 O   0  0  0  0  0  0
  -22.3612  -14.5550   20.6708 O   0  0  0  0  0  0
  -24.6157  -31.8690   23.2120 C   0  0  0  0  0  0
  -25.9049  -32.4818   23.8417 C   0  0  1  0  0  0
  -27.2295  -27.4314   20.0976 C   0  0  0  0  0  0
  -25.5923  -33.8623   24.2349 N   0  0  0  0  0  0
  -23.4008  -30.4969   21.5493 C   0  0  2  0  0  0
  -24.8444  -28.9578   20.1208 C   0  0  0  0  0  0
  -22.7401  -29.4684   22.4958 C   0  0  0  0  0  0
  -18.0278  -28.1364   22.8480 C   0  0  0  0  0  0
  -24.1480  -36.7314   23.2646 C   0  0  0  0  0  0
  -25.9324  -30.8312   21.3680 C   0  0  0  0  0  0
  -26.0046  -29.4661   20.7164 C   0  0  0  0  0  0
  -27.1979  -28.7104   20.7002 C   0  0  0  0  0  0
  -26.0420  -26.9320   19.5108 C   0  0  0  0  0  0
  -24.8566  -27.6893   19.5183 C   0  0  0  0  0  0
  -23.6118  -29.8319   20.1635 C   0  0  0  0  0  0
  -25.4104  -36.3115   24.0352 C   0  0  1  0  0  0
  -20.5867  -28.3667   23.1290 C   0  0  2  0  0  0
  -20.6759  -26.9392   22.5409 C   0  0  0  0  0  0
  -19.5744  -26.6376   21.5195 C   0  0  0  0  0  0
  -18.1923  -26.7907   22.1604 C   0  0  0  0  0  0
  -19.1526  -28.8830   23.2887 C   0  0  0  0  0  0
  -18.9453  -30.1431   23.8901 C   0  0  0  0  0  0
  -17.6459  -30.6578   24.0554 C   0  0  0  0  0  0
  -25.9043  -34.9480   23.5142 C   0  0  0  0  0  0
  -16.5349  -29.9078   23.6333 C   0  0  0  0  0  0
  -16.7266  -28.6496   23.0349 C   0  0  0  0  0  0
  -26.4480  -31.6600   25.0749 C   0  0  0  0  0  0
  -25.3748  -31.3694   26.1504 C   0  0  0  0  0  0
  -27.0321  -30.3049   24.6126 C   0  0  0  0  0  0
  -27.6074  -32.4314   25.7498 C   0  0  0  0  0  0
  -27.5584  -37.1816   24.8477 C   0  0  0  0  0  0
  -21.4132  -29.3049   22.3711 N   0  0  0  0  0  0
  -26.4302  -37.3795   23.9420 N   0  0  0  0  0  0
  -24.6669  -31.0797   22.1016 N   0  0  0  0  0  0
  -23.4193  -28.8225   23.2980 O   0  0  0  0  0  0
  -28.4229  -26.7356   20.0900 O   0  0  0  0  0  0
  -26.5594  -34.8917   22.4692 O   0  0  0  0  0  0
  -23.5346  -32.1447   23.7515 O   0  0  0  0  0  0
  -28.9524  -20.4529   20.5802 C   0  0  0  0  0  0
  -28.6283  -21.8264   20.5719 C   0  0  0  0  0  0
  -26.7306  -19.9239   21.4000 C   0  0  0  0  0  0
  -28.0217  -19.4959   21.0312 C   0  0  0  0  0  0
  -26.3920  -21.2933   21.3932 C   0  0  0  0  0  0
  -27.3560  -22.2658   21.0130 C   0  0  0  0  0  0
  -28.1694  -17.3084   22.4628 C   0  0  0  0  0  0
  -28.4124  -18.0557   21.1709 C   0  0  2  0  0  0
  -29.5806  -17.6753   22.0522 C   0  0  2  0  0  0
  -24.1173  -23.6068   16.0450 C   0  0  0  0  0  0
  -25.0002  -21.6957   21.8701 C   0  0  0  0  0  0
  -30.6118  -16.6543   21.6066 C   0  0  0  0  0  0
  -23.5274  -22.8669   17.2545 C   0  0  0  0  0  0
  -24.3364  -23.0858   18.5439 C   0  0  0  0  0  0
  -23.8097  -22.2597   19.7328 C   0  0  0  0  0  0
  -28.4168  -25.3057   19.9552 C   0  0  0  0  0  0
  -27.9987  -24.6035   21.2667 C   0  0  0  0  0  0
  -30.1354  -15.2902   21.3911 N   0  0  0  0  0  0
  -24.4018  -22.7236   21.0050 N   0  3  0  0  0  0
  -26.9938  -23.6003   21.0697 O   0  0  0  0  0  0
  -31.4644  -12.3579   19.0918 H   0  0  0  0  0  0
  -30.2973  -11.2496   19.7550 H   0  0  0  0  0  0
  -29.6997  -11.7894   17.4002 H   0  0  0  0  0  0
  -29.6951  -13.4989   17.7558 H   0  0  0  0  0  0
  -27.7536  -11.3664   18.7208 H   0  0  0  0  0  0
  -27.3729  -12.7708   17.7764 H   0  0  0  0  0  0
  -27.7335  -14.2672   19.6505 H   0  0  0  0  0  0
  -28.6717  -11.8726   21.2828 H   0  0  0  0  0  0
  -28.4855  -13.4716   21.9080 H   0  0  0  0  0  0
  -25.2776   -9.5692   22.4786 H   0  0  0  0  0  0
  -24.0020   -7.4630   22.7455 H   0  0  0  0  0  0
  -21.0866   -8.8821   19.8940 H   0  0  0  0  0  0
  -22.3727  -10.9722   19.6178 H   0  0  0  0  0  0
  -21.2013   -7.6160   23.9740 H   0  0  0  0  0  0
  -21.1489   -6.0521   25.9083 H   0  0  0  0  0  0
  -22.0592   -2.7631   23.2847 H   0  0  0  0  0  0
  -22.4072  -11.9894   22.4794 H   0  0  0  0  0  0
  -21.1113  -13.1283   22.2531 H   0  0  0  0  0  0
  -24.6807  -15.8493   20.5767 H   0  0  0  0  0  0
  -26.2974  -15.6352   20.1346 H   0  0  0  0  0  0
  -26.7114  -32.5523   23.1181 H   0  0  0  0  0  0
  -25.0112  -33.9786   25.0517 H   0  0  0  0  0  0
  -22.6917  -31.3158   21.4081 H   0  0  0  0  0  0
  -23.3742  -35.9645   23.3319 H   0  0  0  0  0  0
  -24.3573  -36.8911   22.2060 H   0  0  0  0  0  0
  -23.7230  -37.6528   23.6635 H   0  0  0  0  0  0
  -26.0547  -31.5939   20.5976 H   0  0  0  0  0  0
  -26.8193  -30.8796   21.9884 H   0  0  0  0  0  0
  -28.0949  -29.1006   21.1599 H   0  0  0  0  0  0
  -26.0065  -25.9681   19.0306 H   0  0  0  0  0  0
  -23.9614  -27.2900   19.0620 H   0  0  0  0  0  0
  -23.7305  -30.6090   19.4072 H   0  0  0  0  0  0
  -22.7332  -29.2616   19.8571 H   0  0  0  0  0  0
  -25.1256  -36.2002   25.0847 H   0  0  0  0  0  0
  -20.9958  -28.3221   24.1405 H   0  0  0  0  0  0
  -20.5614  -26.2263   23.3594 H   0  0  0  0  0  0
  -21.6628  -26.7396   22.1217 H   0  0  0  0  0  0
  -19.6898  -25.6289   21.1223 H   0  0  0  0  0  0
  -19.6691  -27.3174   20.6715 H   0  0  0  0  0  0
  -17.4180  -26.6655   21.4022 H   0  0  0  0  0  0
  -18.0333  -26.0045   22.8995 H   0  0  0  0  0  0
  -19.7932  -30.7242   24.2268 H   0  0  0  0  0  0
  -17.5018  -31.6257   24.5140 H   0  0  0  0  0  0
  -15.5345  -30.2979   23.7651 H   0  0  0  0  0  0
  -15.8662  -28.0817   22.7059 H   0  0  0  0  0  0
  -24.5925  -30.7029   25.7859 H   0  0  0  0  0  0
  -24.8929  -32.2829   26.4998 H   0  0  0  0  0  0
  -25.8128  -30.8854   27.0241 H   0  0  0  0  0  0
  -26.2861  -29.6804   24.1203 H   0  0  0  0  0  0
  -27.4115  -29.7308   25.4592 H   0  0  0  0  0  0
  -27.8684  -30.4381   23.9255 H   0  0  0  0  0  0
  -27.2718  -33.3606   26.2117 H   0  0  0  0  0  0
  -28.3869  -32.6894   25.0312 H   0  0  0  0  0  0
  -28.0752  -31.8402   26.5381 H   0  0  0  0  0  0
  -28.2613  -38.0103   24.7508 H   0  0  0  0  0  0
  -28.1055  -36.2635   24.6295 H   0  0  0  0  0  0
  -27.2296  -37.1471   25.8878 H   0  0  0  0  0  0
  -20.9277  -29.8837   21.7005 H   0  0  0  0  0  0
  -26.0192  -38.2875   24.1407 H   0  0  0  0  0  0
  -29.9382  -20.1328   20.2687 H   0  0  0  0  0  0
  -29.3742  -22.5274   20.2299 H   0  0  0  0  0  0
  -26.0084  -19.1919   21.7364 H   0  0  0  0  0  0
  -27.8377  -16.2763   22.3773 H   0  0  0  0  0  0
  -27.7582  -17.8577   23.3089 H   0  0  0  0  0  0
  -28.3089  -17.5145   20.2321 H   0  0  0  0  0  0
  -30.0309  -18.5096   22.5836 H   0  0  0  0  0  0
  -23.4849  -23.4780   15.1672 H   0  0  0  0  0  0
  -25.1100  -23.2352   15.7884 H   0  0  0  0  0  0
  -24.1985  -24.6782   16.2283 H   0  0  0  0  0  0
  -25.0952  -22.0902   22.8835 H   0  0  0  0  0  0
  -24.3341  -20.8338   21.9346 H   0  0  0  0  0  0
  -31.3979  -16.6236   22.3612 H   0  0  0  0  0  0
  -31.0777  -17.0326   20.6945 H   0  0  0  0  0  0
  -23.4647  -21.8017   17.0283 H   0  0  0  0  0  0
  -22.5020  -23.2065   17.4164 H   0  0  0  0  0  0
  -24.3177  -24.1487   18.7913 H   0  0  0  0  0  0
  -25.3821  -22.8255   18.3733 H   0  0  0  0  0  0
  -24.0019  -21.1982   19.5638 H   0  0  0  0  0  0
  -22.7272  -22.3650   19.8124 H   0  0  0  0  0  0
  -27.8161  -24.9639   19.1143 H   0  0  0  0  0  0
  -29.4314  -24.9946   19.7039 H   0  0  0  0  0  0
  -27.5397  -25.3399   21.9266 H   0  0  0  0  0  0
  -28.8668  -24.2415   21.8203 H   0  0  0  0  0  0
  -29.2789  -15.0145   21.8437 H   0  0  0  0  0  0
  -25.1682  -23.3511   20.8117 H   0  0  0  0  0  0
  -23.7032  -23.2191   21.5340 H   0  0  0  0  0  0
  1 25  1  0  0  0
  1 30  2  0  0  0
  1 88  1  0  0  0
  2  3  1  0  0  0
  2 25  1  0  0  0
  2 91  1  0  0  0
  2 92  1  0  0  0
  3  4  1  0  0  0
  3 93  1  0  0  0
  3 94  1  0  0  0
  4  5  1  0  0  0
  4 95  1  0  0  0
  4 96  1  0  0  0
  5  6  1  0  0  0
  5 26  1  0  0  0
  5 97  1  0  0  0
  6 25  1  0  0  0
  6 98  1  0  0  0
  6 99  1  0  0  0
  7  8  2  0  0  0
  7 26  1  0  0  0
  7 29  1  0  0  0
  8  9  1  0  0  0
  8 22  1  0  0  0
  9 10  1  0  0  0
  9 27  2  0  0  0
 10 11  2  0  0  0
 10 15  1  0  0  0
 11 12  1  0  0  0
 11100  1  0  0  0
 12 13  2  0  0  0
 12101  1  0  0  0
 13 14  1  0  0  0
 13 31  1  0  0  0
 14 15  2  0  0  0
 14102  1  0  0  0
 15103  1  0  0  0
 16 17  2  0  0  0
 16 21  1  0  0  0
 16 31  1  0  0  0
 17 18  1  0  0  0
 17104  1  0  0  0
 18 19  2  0  0  0
 18105  1  0  0  0
 19 20  1  0  0  0
 19 24  1  0  0  0
 20 21  2  0  0  0
 20106  1  0  0  0
 21 23  1  0  0  0
 22 28  1  0  0  0
 22 32  2  0  0  0
 26 27  1  0  0  0
 28107  1  0  0  0
 28108  1  0  0  0
 29109  1  0  0  0
 29110  1  0  0  0
 33 34  1  0  0  0
 33 66  1  0  0  0
 33 70  2  0  0  0
 34 36  1  0  0  0
 34 59  1  0  0  0
 34111  1  0  0  0
 35 44  2  0  0  0
 35 45  1  0  0  0
 35 68  1  0  0  0
 36 56  1  0  0  0
 36112  1  0  0  0
 37 39  1  0  0  0
 37 47  1  0  0  0
 37 66  1  0  0  0
 37113  1  0  0  0
 38 43  2  0  0  0
 38 46  1  0  0  0
 38 47  1  0  0  0
 39 64  1  0  0  0
 39 67  2  0  0  0
 40 52  1  0  0  0
 40 53  2  0  0  0
 40 58  1  0  0  0
 41114  1  0  0  0
 41115  1  0  0  0
 41116  1  0  0  0
 41 48  1  0  0  0
 42 43  1  0  0  0
 42 66  1  0  0  0
 42117  1  0  0  0
 42118  1  0  0  0
 43 44  1  0  0  0
 44119  1  0  0  0
 45 46  2  0  0  0
 45120  1  0  0  0
 46121  1  0  0  0
 47122  1  0  0  0
 47123  1  0  0  0
 48 56  1  0  0  0
 48 65  1  0  0  0
 48124  1  0  0  0
 49 50  1  0  0  0
 49 53  1  0  0  0
 49 64  1  0  0  0
 49125  1  0  0  0
 50 51  1  0  0  0
 50126  1  0  0  0
 50127  1  0  0  0
 51 52  1  0  0  0
 51128  1  0  0  0
 51129  1  0  0  0
 52130  1  0  0  0
 52131  1  0  0  0
 53 54  1  0  0  0
 54 55  2  0  0  0
 54132  1  0  0  0
 55 57  1  0  0  0
 55133  1  0  0  0
 56 69  2  0  0  0
 57 58  2  0  0  0
 57134  1  0  0  0
 58135  1  0  0  0
 59 60  1  0  0  0
 59 61  1  0  0  0
 59 62  1  0  0  0
 60136  1  0  0  0
 60137  1  0  0  0
 60138  1  0  0  0
 61139  1  0  0  0
 61140  1  0  0  0
 61141  1  0  0  0
 62142  1  0  0  0
 62143  1  0  0  0
 62144  1  0  0  0
 63 65  1  0  0  0
 63145  1  0  0  0
 63146  1  0  0  0
 63147  1  0  0  0
 64148  1  0  0  0
 65149  1  0  0  0
 68 86  1  0  0  0
 71 72  2  0  0  0
 71 74  1  0  0  0
 71150  1  0  0  0
 72 76  1  0  0  0
 72151  1  0  0  0
 73 74  2  0  0  0
 73 75  1  0  0  0
 73152  1  0  0  0
 74 78  1  0  0  0
 75 76  2  0  0  0
 75 81  1  0  0  0
 76 90  1  0  0  0
 77 78  1  0  0  0
 77 79  1  0  0  0
 77153  1  0  0  0
 77154  1  0  0  0
 78 79  1  0  0  0
 78155  1  0  0  0
 79 82  1  0  0  0
 79156  1  0  0  0
 80 83  1  0  0  0
 80157  1  0  0  0
 80158  1  0  0  0
 80159  1  0  0  0
 81 89  1  0  0  0
 81160  1  0  0  0
 81161  1  0  0  0
 82 88  1  0  0  0
 82162  1  0  0  0
 82163  1  0  0  0
 83 84  1  0  0  0
 83164  1  0  0  0
 83165  1  0  0  0
 84 85  1  0  0  0
 84166  1  0  0  0
 84167  1  0  0  0
 85 89  1  0  0  0
 85168  1  0  0  0
 85169  1  0  0  0
 86 87  1  0  0  0
 86170  1  0  0  0
 86171  1  0  0  0
 87 90  1  0  0  0
 87172  1  0  0  0
 87173  1  0  0  0
 88174  1  0  0  0
 89175  1  0  0  0
 89176  1  0  0  0
M  CHG  1  89   1
M  ISO  4   1 100  68 101  86 101  88 100
M  END
> <chiral flag>
0

> <version>
0

> <s_m_source_file>
/data/baiqing/PycharmProjects/Reinvent-master-3.2/result/LINK_invent/BTK/process_docking_weight1_custom_product_contain_oxygen_bond_distance_aromatic_linkinvent_7_9_3/rearranged_h_0006.sdf

> <i_m_source_file_index>
33

> <r_mmod_Potential_Energy-OPLS-2005>
-233.080078125

> <r_mmod_Stretch_Energy-OPLS-2005>
35.8994102478027

> <r_mmod_Bend_Energy-OPLS-2005>
109.055244445801

> <r_mmod_Torsional_Energy-OPLS-2005>
256.632537841797

> <r_mmod_Improper_Torsional_Energy-OPLS-2005>
2.20672249794006

> <r_mmod_Van_der_Waal_Energy-OPLS-2005>
141.977111816406

> <r_mmod_Electrostatic_Energy-OPLS-2005>
-352.538238525391

> <r_mmod_Solvation_Energy-OPLS-2005>
-435.210876464844

> <b_mmod_Minimization_Converged-OPLS-2005>
0

> <r_mmod_RMS_Derivative-OPLS-2005>
4.80633068084717

$$$$
34
                    3D
 Structure written by MMmdl.
154162  0  0  1  0            999 V2000
  -30.6063  -14.7267   20.3567 C   0  0  0  0  0  0
  -30.4398  -12.4061   19.4749 C   0  0  0  0  0  0
  -29.5114  -12.3780   18.2406 C   0  0  0  0  0  0
  -28.0243  -12.2940   18.6539 C   0  0  0  0  0  0
  -27.6357  -13.2102   19.8498 C   0  0  2  0  0  0
  -28.6939  -13.1773   20.9707 C   0  0  0  0  0  0
  -25.2531  -13.8140   20.5773 C   0  0  0  0  0  0
  -24.1788  -13.0411   20.9249 C   0  0  0  0  0  0
  -24.6352  -11.6883   20.8795 C   0  0  0  0  0  0
  -23.9032  -10.4279   21.0431 C   0  0  0  0  0  0
  -24.3593   -9.4189   21.9189 C   0  0  0  0  0  0
  -23.6274   -8.2223   22.0748 C   0  0  0  0  0  0
  -22.4256   -8.0272   21.3537 C   0  0  0  0  0  0
  -21.9893   -9.0249   20.4637 C   0  0  0  0  0  0
  -22.7218  -10.2130   20.3064 C   0  0  0  0  0  0
  -21.6847   -6.0727   22.5274 C   0  0  0  0  0  0
  -21.4001   -6.5627   23.8207 C   0  0  0  0  0  0
  -21.3664   -5.6780   24.9169 C   0  0  0  0  0  0
  -21.6053   -4.3044   24.7218 C   0  0  0  0  0  0
  -21.8821   -3.8139   23.4339 C   0  0  0  0  0  0
  -21.9187   -4.6956   22.3394 C   0  0  0  0  0  0
  -22.7819  -13.5221   21.1891 C   0  0  0  0  0  0
  -22.1654   -4.2141   21.0974 F   0  0  0  0  0  0
  -21.5644   -3.4527   25.7733 F   0  0  0  0  0  0
  -29.9848  -13.5008   20.3535 N   0  0  0  0  0  0
  -26.2925  -12.9286   20.3384 N   0  0  0  0  0  0
  -25.9279  -11.6457   20.5855 N   0  0  0  0  0  0
  -22.0449  -12.8216   22.0439 N   0  0  0  0  0  0
  -25.4269  -15.1862   20.4218 N   0  0  0  0  0  0
  -31.8352  -14.7939   20.2597 O   0  0  0  0  0  0
  -21.6619   -6.8871   21.4237 O   0  0  0  0  0  0
  -22.3521  -14.5526   20.6733 O   0  0  0  0  0  0
  -24.6255  -31.8590   23.2003 C   0  0  0  0  0  0
  -25.9104  -32.4773   23.8335 C   0  0  1  0  0  0
  -27.2296  -27.3151   20.1209 C   0  0  0  0  0  0
  -25.5925  -33.8573   24.2269 N   0  0  0  0  0  0
  -23.4183  -30.4801   21.5439 C   0  0  2  0  0  0
  -24.8643  -28.9292   20.1112 C   0  0  0  0  0  0
  -22.7468  -29.4614   22.4946 C   0  0  0  0  0  0
  -18.0285  -28.1377   22.8489 C   0  0  0  0  0  0
  -24.1488  -36.7286   23.2640 C   0  0  0  0  0  0
  -25.9576  -30.7896   21.3685 C   0  0  0  0  0  0
  -26.0306  -29.4149   20.7133 C   0  0  0  0  0  0
  -27.2117  -28.6185   20.7074 C   0  0  0  0  0  0
  -26.0352  -26.8710   19.5090 C   0  0  0  0  0  0
  -24.8683  -27.6631   19.5020 C   0  0  0  0  0  0
  -23.6319  -29.8095   20.1598 C   0  0  0  0  0  0
  -25.4115  -36.3079   24.0330 C   0  0  1  0  0  0
  -20.5881  -28.3679   23.1293 C   0  0  2  0  0  0
  -20.6774  -26.9402   22.5416 C   0  0  0  0  0  0
  -19.5754  -26.6380   21.5214 C   0  0  0  0  0  0
  -18.1931  -26.7921   22.1621 C   0  0  0  0  0  0
  -19.1535  -28.8845   23.2886 C   0  0  0  0  0  0
  -18.9457  -30.1449   23.8898 C   0  0  0  0  0  0
  -17.6456  -30.6582   24.0559 C   0  0  0  0  0  0
  -25.9050  -34.9450   23.5100 C   0  0  0  0  0  0
  -16.5349  -29.9078   23.6328 C   0  0  0  0  0  0
  -16.7271  -28.6494   23.0353 C   0  0  0  0  0  0
  -26.4498  -31.6585   25.0703 C   0  0  0  0  0  0
  -25.3744  -31.3718   26.1439 C   0  0  0  0  0  0
  -27.0343  -30.3015   24.6145 C   0  0  0  0  0  0
  -27.6055  -32.4326   25.7475 C   0  0  0  0  0  0
  -27.5579  -37.1801   24.8468 C   0  0  0  0  0  0
  -21.4183  -29.3030   22.3691 N   0  0  0  0  0  0
  -26.4292  -37.3776   23.9409 N   0  0  0  0  0  0
  -24.6861  -31.0599   22.0951 N   0  0  0  0  0  0
  -23.4196  -28.8169   23.3033 O   0  0  0  0  0  0
  -28.3842  -26.5203   20.1893 O   0  0  0  0  0  0
  -26.5618  -34.8919   22.4666 O   0  0  0  0  0  0
  -23.5420  -32.1384   23.7338 O   0  0  0  0  0  0
  -28.7077  -17.5589   21.2588 C   0  0  0  0  0  0
  -28.3906  -18.9352   21.4772 C   0  0  0  0  0  0
  -30.1618  -19.6103   20.0090 C   0  0  0  0  0  0
  -29.7555  -17.1630   20.3886 C   0  0  0  0  0  0
  -29.0730  -20.0032   20.8306 C   0  0  0  0  0  0
  -30.5010  -18.2362   19.8049 C   0  0  0  0  0  0
  -29.6936  -15.7643   18.4006 C   0  0  0  0  0  0
  -28.4170  -23.8918   20.6762 C   0  0  0  0  0  0
  -28.4834  -25.1331   19.6757 C   0  0  0  0  0  0
  -28.9206  -22.4568   20.1665 C   0  0  0  0  0  0
  -29.8464  -15.7858   19.8718 N   0  0  0  0  0  0
  -28.6487  -21.3317   21.0710 O   0  0  0  0  0  0
  -31.5251  -17.9523   18.9639 F   0  0  0  0  0  0
  -31.4779  -12.5345   19.1615 H   0  0  0  0  0  0
  -30.4003  -11.4564   20.0097 H   0  0  0  0  0  0
  -29.7595  -11.5130   17.6239 H   0  0  0  0  0  0
  -29.6931  -13.2328   17.5962 H   0  0  0  0  0  0
  -27.8412  -11.2542   18.9270 H   0  0  0  0  0  0
  -27.3783  -12.4948   17.7988 H   0  0  0  0  0  0
  -27.5978  -14.2250   19.4703 H   0  0  0  0  0  0
  -28.7291  -12.1996   21.4536 H   0  0  0  0  0  0
  -28.4507  -13.9045   21.7475 H   0  0  0  0  0  0
  -25.2740   -9.5661   22.4759 H   0  0  0  0  0  0
  -23.9987   -7.4605   22.7453 H   0  0  0  0  0  0
  -21.0834   -8.8765   19.8933 H   0  0  0  0  0  0
  -22.3681  -10.9666   19.6170 H   0  0  0  0  0  0
  -21.1989   -7.6129   23.9703 H   0  0  0  0  0  0
  -21.1488   -6.0511   25.9070 H   0  0  0  0  0  0
  -22.0603   -2.7604   23.2837 H   0  0  0  0  0  0
  -22.4035  -11.9863   22.4825 H   0  0  0  0  0  0
  -21.1059  -13.1238   22.2623 H   0  0  0  0  0  0
  -24.6684  -15.8471   20.5492 H   0  0  0  0  0  0
  -26.2890  -15.6233   20.1221 H   0  0  0  0  0  0
  -26.7171  -32.5443   23.1082 H   0  0  0  0  0  0
  -25.0089  -33.9720   25.0424 H   0  0  0  0  0  0
  -22.7114  -31.2997   21.3992 H   0  0  0  0  0  0
  -23.3751  -35.9619   23.3309 H   0  0  0  0  0  0
  -24.3572  -36.8898   22.2052 H   0  0  0  0  0  0
  -23.7242  -37.6491   23.6656 H   0  0  0  0  0  0
  -26.0851  -31.5518   20.5987 H   0  0  0  0  0  0
  -26.8396  -30.8407   21.9955 H   0  0  0  0  0  0
  -28.1087  -28.9902   21.1825 H   0  0  0  0  0  0
  -25.9654  -25.8972   19.0514 H   0  0  0  0  0  0
  -23.9706  -27.2812   19.0354 H   0  0  0  0  0  0
  -23.7490  -30.5832   19.4003 H   0  0  0  0  0  0
  -22.7522  -29.2369   19.8609 H   0  0  0  0  0  0
  -25.1298  -36.1928   25.0824 H   0  0  0  0  0  0
  -20.9971  -28.3248   24.1415 H   0  0  0  0  0  0
  -20.5670  -26.2286   23.3614 H   0  0  0  0  0  0
  -21.6645  -26.7432   22.1214 H   0  0  0  0  0  0
  -19.6912  -25.6292   21.1242 H   0  0  0  0  0  0
  -19.6692  -27.3192   20.6747 H   0  0  0  0  0  0
  -17.4205  -26.6677   21.4018 H   0  0  0  0  0  0
  -18.0320  -26.0058   22.9011 H   0  0  0  0  0  0
  -19.7935  -30.7269   24.2263 H   0  0  0  0  0  0
  -17.5011  -31.6261   24.5163 H   0  0  0  0  0  0
  -15.5348  -30.2980   23.7651 H   0  0  0  0  0  0
  -15.8672  -28.0814   22.7064 H   0  0  0  0  0  0
  -24.5902  -30.7087   25.7769 H   0  0  0  0  0  0
  -24.8959  -32.2885   26.4894 H   0  0  0  0  0  0
  -25.8077  -30.8870   27.0196 H   0  0  0  0  0  0
  -26.2909  -29.6761   24.1187 H   0  0  0  0  0  0
  -27.4074  -29.7272   25.4636 H   0  0  0  0  0  0
  -27.8763  -30.4310   23.9340 H   0  0  0  0  0  0
  -27.2653  -33.3616   26.2065 H   0  0  0  0  0  0
  -28.3856  -32.6908   25.0301 H   0  0  0  0  0  0
  -28.0738  -31.8451   26.5384 H   0  0  0  0  0  0
  -28.2608  -38.0087   24.7501 H   0  0  0  0  0  0
  -28.1063  -36.2617   24.6311 H   0  0  0  0  0  0
  -27.2294  -37.1470   25.8871 H   0  0  0  0  0  0
  -20.9360  -29.8746   21.6897 H   0  0  0  0  0  0
  -26.0171  -38.2853   24.1404 H   0  0  0  0  0  0
  -28.0816  -16.8050   21.7138 H   0  0  0  0  0  0
  -27.5587  -19.1723   22.1253 H   0  0  0  0  0  0
  -30.7500  -20.3602   19.5026 H   0  0  0  0  0  0
  -29.4771  -16.7435   17.9740 H   0  0  0  0  0  0
  -28.8564  -15.1529   18.0832 H   0  0  0  0  0  0
  -30.5921  -15.4017   17.8964 H   0  0  0  0  0  0
  -27.3875  -23.7963   21.0206 H   0  0  0  0  0  0
  -28.9972  -24.1443   21.5636 H   0  0  0  0  0  0
  -27.8188  -24.9626   18.8316 H   0  0  0  0  0  0
  -29.4747  -25.0958   19.2240 H   0  0  0  0  0  0
  -29.9920  -22.5113   19.9706 H   0  0  0  0  0  0
  -28.4434  -22.2346   19.2110 H   0  0  0  0  0  0
  1 25  1  0  0  0
  1 30  2  0  0  0
  1 81  1  0  0  0
  2  3  1  0  0  0
  2 25  1  0  0  0
  2 84  1  0  0  0
  2 85  1  0  0  0
  3  4  1  0  0  0
  3 86  1  0  0  0
  3 87  1  0  0  0
  4  5  1  0  0  0
  4 88  1  0  0  0
  4 89  1  0  0  0
  5  6  1  0  0  0
  5 26  1  0  0  0
  5 90  1  0  0  0
  6 25  1  0  0  0
  6 91  1  0  0  0
  6 92  1  0  0  0
  7  8  2  0  0  0
  7 26  1  0  0  0
  7 29  1  0  0  0
  8  9  1  0  0  0
  8 22  1  0  0  0
  9 10  1  0  0  0
  9 27  2  0  0  0
 10 11  2  0  0  0
 10 15  1  0  0  0
 11 12  1  0  0  0
 11 93  1  0  0  0
 12 13  2  0  0  0
 12 94  1  0  0  0
 13 14  1  0  0  0
 13 31  1  0  0  0
 14 15  2  0  0  0
 14 95  1  0  0  0
 15 96  1  0  0  0
 16 17  2  0  0  0
 16 21  1  0  0  0
 16 31  1  0  0  0
 17 18  1  0  0  0
 17 97  1  0  0  0
 18 19  2  0  0  0
 18 98  1  0  0  0
 19 20  1  0  0  0
 19 24  1  0  0  0
 20 21  2  0  0  0
 20 99  1  0  0  0
 21 23  1  0  0  0
 22 28  1  0  0  0
 22 32  2  0  0  0
 26 27  1  0  0  0
 28100  1  0  0  0
 28101  1  0  0  0
 29102  1  0  0  0
 29103  1  0  0  0
 33 34  1  0  0  0
 33 66  1  0  0  0
 33 70  2  0  0  0
 34 36  1  0  0  0
 34 59  1  0  0  0
 34104  1  0  0  0
 35 44  2  0  0  0
 35 45  1  0  0  0
 35 68  1  0  0  0
 36 56  1  0  0  0
 36105  1  0  0  0
 37 39  1  0  0  0
 37 47  1  0  0  0
 37 66  1  0  0  0
 37106  1  0  0  0
 38 43  2  0  0  0
 38 46  1  0  0  0
 38 47  1  0  0  0
 39 64  1  0  0  0
 39 67  2  0  0  0
 40 52  1  0  0  0
 40 53  2  0  0  0
 40 58  1  0  0  0
 41107  1  0  0  0
 41108  1  0  0  0
 41109  1  0  0  0
 41 48  1  0  0  0
 42 43  1  0  0  0
 42 66  1  0  0  0
 42110  1  0  0  0
 42111  1  0  0  0
 43 44  1  0  0  0
 44112  1  0  0  0
 45 46  2  0  0  0
 45113  1  0  0  0
 46114  1  0  0  0
 47115  1  0  0  0
 47116  1  0  0  0
 48 56  1  0  0  0
 48 65  1  0  0  0
 48117  1  0  0  0
 49 50  1  0  0  0
 49 53  1  0  0  0
 49 64  1  0  0  0
 49118  1  0  0  0
 50 51  1  0  0  0
 50119  1  0  0  0
 50120  1  0  0  0
 51 52  1  0  0  0
 51121  1  0  0  0
 51122  1  0  0  0
 52123  1  0  0  0
 52124  1  0  0  0
 53 54  1  0  0  0
 54 55  2  0  0  0
 54125  1  0  0  0
 55 57  1  0  0  0
 55126  1  0  0  0
 56 69  2  0  0  0
 57 58  2  0  0  0
 57127  1  0  0  0
 58128  1  0  0  0
 59 60  1  0  0  0
 59 61  1  0  0  0
 59 62  1  0  0  0
 60129  1  0  0  0
 60130  1  0  0  0
 60131  1  0  0  0
 61132  1  0  0  0
 61133  1  0  0  0
 61134  1  0  0  0
 62135  1  0  0  0
 62136  1  0  0  0
 62137  1  0  0  0
 63 65  1  0  0  0
 63138  1  0  0  0
 63139  1  0  0  0
 63140  1  0  0  0
 64141  1  0  0  0
 65142  1  0  0  0
 68 79  1  0  0  0
 71 72  2  0  0  0
 71 74  1  0  0  0
 71143  1  0  0  0
 72 75  1  0  0  0
 72144  1  0  0  0
 73 75  2  0  0  0
 73 76  1  0  0  0
 73145  1  0  0  0
 74 76  2  0  0  0
 74 81  1  0  0  0
 75 82  1  0  0  0
 76 83  1  0  0  0
 77 81  1  0  0  0
 77146  1  0  0  0
 77147  1  0  0  0
 77148  1  0  0  0
 78 79  1  0  0  0
 78 80  1  0  0  0
 78149  1  0  0  0
 78150  1  0  0  0
 79151  1  0  0  0
 79152  1  0  0  0
 80 82  1  0  0  0
 80153  1  0  0  0
 80154  1  0  0  0
M  ISO  4   1 100  68 101  79 101  81 100
M  END
> <chiral flag>
0

> <version>
0

> <s_m_source_file>
/data/baiqing/PycharmProjects/Reinvent-master-3.2/result/LINK_invent/BTK/process_docking_weight1_custom_product_contain_oxygen_bond_distance_aromatic_linkinvent_7_9_3/rearranged_h_0006.sdf

> <i_m_source_file_index>
34

> <r_mmod_Potential_Energy-OPLS-2005>
309.552795410156

> <r_mmod_Stretch_Energy-OPLS-2005>
88.2453536987305

> <r_mmod_Bend_Energy-OPLS-2005>
167.276290893555

> <r_mmod_Torsional_Energy-OPLS-2005>
327.139190673828

> <r_mmod_Improper_Torsional_Energy-OPLS-2005>
25.6013622283936

> <r_mmod_Van_der_Waal_Energy-OPLS-2005>
144.744674682617

> <r_mmod_Electrostatic_Energy-OPLS-2005>
-321.322082519531

> <r_mmod_Solvation_Energy-OPLS-2005>
-199.737258911133

> <b_mmod_Minimization_Converged-OPLS-2005>
0

> <r_mmod_RMS_Derivative-OPLS-2005>
0.991896033287048

$$$$
35
                    3D
 Structure written by MMmdl.
156165  0  0  1  0            999 V2000
  -30.5311  -14.8947   20.4506 C   0  0  0  0  0  0
  -30.4585  -12.5516   19.4913 C   0  0  0  0  0  0
  -29.5270  -12.5240   18.2544 C   0  0  0  0  0  0
  -28.0545  -12.3265   18.6674 C   0  0  0  0  0  0
  -27.6437  -13.2380   19.8517 C   0  0  2  0  0  0
  -28.6905  -13.2004   20.9878 C   0  0  0  0  0  0
  -25.2505  -13.8205   20.5693 C   0  0  0  0  0  0
  -24.1808  -13.0442   20.9218 C   0  0  0  0  0  0
  -24.6405  -11.6922   20.8748 C   0  0  0  0  0  0
  -23.9068  -10.4299   21.0400 C   0  0  0  0  0  0
  -24.3607   -9.4210   21.9175 C   0  0  0  0  0  0
  -23.6279   -8.2245   22.0747 C   0  0  0  0  0  0
  -22.4259   -8.0280   21.3537 C   0  0  0  0  0  0
  -21.9896   -9.0261   20.4641 C   0  0  0  0  0  0
  -22.7236  -10.2141   20.3053 C   0  0  0  0  0  0
  -21.6852   -6.0722   22.5275 C   0  0  0  0  0  0
  -21.4019   -6.5623   23.8209 C   0  0  0  0  0  0
  -21.3665   -5.6774   24.9172 C   0  0  0  0  0  0
  -21.6046   -4.3042   24.7224 C   0  0  0  0  0  0
  -21.8821   -3.8131   23.4344 C   0  0  0  0  0  0
  -21.9194   -4.6944   22.3400 C   0  0  0  0  0  0
  -22.7820  -13.5213   21.1867 C   0  0  0  0  0  0
  -22.1656   -4.2126   21.0977 F   0  0  0  0  0  0
  -21.5638   -3.4527   25.7739 F   0  0  0  0  0  0
  -29.9780  -13.6181   20.4112 N   0  0  0  0  0  0
  -26.2951  -12.9421   20.3298 N   0  0  0  0  0  0
  -25.9342  -11.6561   20.5766 N   0  0  0  0  0  0
  -22.0446  -12.8230   22.0437 N   0  0  0  0  0  0
  -25.4146  -15.1929   20.4067 N   0  0  0  0  0  0
  -31.7038  -15.0360   20.0905 O   0  0  0  0  0  0
  -21.6629   -6.8868   21.4234 O   0  0  0  0  0  0
  -22.3484  -14.5492   20.6677 O   0  0  0  0  0  0
  -24.6428  -31.8459   23.1891 C   0  0  0  0  0  0
  -25.9207  -32.4705   23.8277 C   0  0  1  0  0  0
  -27.2200  -27.1592   20.1497 C   0  0  0  0  0  0
  -25.5954  -33.8513   24.2195 N   0  0  0  0  0  0
  -23.4453  -30.4659   21.5350 C   0  0  2  0  0  0
  -24.8944  -28.8967   20.1105 C   0  0  0  0  0  0
  -22.7578  -29.4554   22.4881 C   0  0  0  0  0  0
  -18.0318  -28.1395   22.8481 C   0  0  0  0  0  0
  -24.1492  -36.7263   23.2639 C   0  0  0  0  0  0
  -25.9999  -30.7258   21.3849 C   0  0  0  0  0  0
  -26.0712  -29.3397   20.7278 C   0  0  0  0  0  0
  -27.2358  -28.4871   20.7298 C   0  0  0  0  0  0
  -26.0182  -26.8178   19.4860 C   0  0  0  0  0  0
  -24.8801  -27.6494   19.4716 C   0  0  0  0  0  0
  -23.6705  -29.7963   20.1533 C   0  0  0  0  0  0
  -25.4121  -36.3040   24.0315 C   0  0  1  0  0  0
  -20.5930  -28.3705   23.1249 C   0  0  2  0  0  0
  -20.6807  -26.9417   22.5391 C   0  0  0  0  0  0
  -19.5764  -26.6373   21.5216 C   0  0  0  0  0  0
  -18.1947  -26.7937   22.1627 C   0  0  0  0  0  0
  -19.1573  -28.8874   23.2861 C   0  0  0  0  0  0
  -18.9488  -30.1468   23.8890 C   0  0  0  0  0  0
  -17.6488  -30.6588   24.0585 C   0  0  0  0  0  0
  -25.9069  -34.9417   23.5068 C   0  0  0  0  0  0
  -16.5376  -29.9082   23.6348 C   0  0  0  0  0  0
  -16.7307  -28.6514   23.0346 C   0  0  0  0  0  0
  -26.4544  -31.6551   25.0697 C   0  0  0  0  0  0
  -25.3734  -31.3710   26.1386 C   0  0  0  0  0  0
  -27.0403  -30.2954   24.6240 C   0  0  0  0  0  0
  -27.6079  -32.4308   25.7470 C   0  0  0  0  0  0
  -27.5580  -37.1785   24.8465 C   0  0  0  0  0  0
  -21.4268  -29.3041   22.3637 N   0  0  0  0  0  0
  -26.4289  -37.3747   23.9412 N   0  0  0  0  0  0
  -24.7157  -31.0334   22.0915 N   0  0  0  0  0  0
  -23.4234  -28.8108   23.3022 O   0  0  0  0  0  0
  -28.2719  -26.1792   20.2285 O   0  0  0  0  0  0
  -26.5660  -34.8915   22.4641 O   0  0  0  0  0  0
  -23.5550  -32.1337   23.7119 O   0  0  0  0  0  0
  -29.8413  -19.8695   19.8209 C   0  0  0  0  0  0
  -28.3836  -19.5278   21.6516 C   0  0  0  0  0  0
  -28.8792  -20.4950   20.6963 C   0  0  0  0  0  0
  -29.6164  -17.4904   20.7413 C   0  0  0  0  0  0
  -30.1926  -18.4456   19.8294 C   0  0  0  0  0  0
  -28.7288  -18.1241   21.6562 C   0  0  0  0  0  0
  -27.3785  -19.9512   22.7174 C   0  0  0  0  0  0
  -26.9073  -21.3989   22.5860 C   0  0  0  0  0  0
  -26.9190  -21.8214   21.1169 C   0  0  0  0  0  0
  -28.8906  -23.3145   20.5152 C   0  0  0  0  0  0
  -27.9342  -24.6686   20.1783 C   0  0  0  0  0  0
  -28.2912  -21.8726   20.5971 N   0  0  0  0  0  0
  -29.6893  -15.9667   20.7966 N   0  0  0  0  0  0
  -31.0623  -17.9957   18.8927 F   0  0  0  0  0  0
  -28.1373  -17.3237   22.5797 F   0  0  0  0  0  0
  -31.4892  -12.7222   19.1755 H   0  0  0  0  0  0
  -30.4613  -11.5854   19.9975 H   0  0  0  0  0  0
  -29.8327  -11.7310   17.5691 H   0  0  0  0  0  0
  -29.6282  -13.4602   17.7050 H   0  0  0  0  0  0
  -27.9332  -11.2805   18.9521 H   0  0  0  0  0  0
  -27.3942  -12.4884   17.8146 H   0  0  0  0  0  0
  -27.6266  -14.2534   19.4530 H   0  0  0  0  0  0
  -28.7655  -12.1978   21.4124 H   0  0  0  0  0  0
  -28.3969  -13.8542   21.8101 H   0  0  0  0  0  0
  -25.2745   -9.5686   22.4756 H   0  0  0  0  0  0
  -23.9983   -7.4627   22.7466 H   0  0  0  0  0  0
  -21.0823   -8.8779   19.8939 H   0  0  0  0  0  0
  -22.3682  -10.9674   19.6165 H   0  0  0  0  0  0
  -21.2009   -7.6129   23.9711 H   0  0  0  0  0  0
  -21.1487   -6.0500   25.9076 H   0  0  0  0  0  0
  -22.0595   -2.7589   23.2849 H   0  0  0  0  0  0
  -22.4033  -11.9917   22.4892 H   0  0  0  0  0  0
  -21.1052  -13.1266   22.2597 H   0  0  0  0  0  0
  -24.6419  -15.8397   20.5212 H   0  0  0  0  0  0
  -26.2469  -15.6343   20.0384 H   0  0  0  0  0  0
  -26.7276  -32.5332   23.1013 H   0  0  0  0  0  0
  -25.0091  -33.9617   25.0339 H   0  0  0  0  0  0
  -22.7466  -31.2914   21.3827 H   0  0  0  0  0  0
  -23.3761  -35.9589   23.3280 H   0  0  0  0  0  0
  -24.3582  -36.8912   22.2058 H   0  0  0  0  0  0
  -23.7244  -37.6452   23.6688 H   0  0  0  0  0  0
  -26.1513  -31.4780   20.6106 H   0  0  0  0  0  0
  -26.8735  -30.7782   22.0226 H   0  0  0  0  0  0
  -28.1301  -28.8195   21.2387 H   0  0  0  0  0  0
  -25.9204  -25.8685   18.9846 H   0  0  0  0  0  0
  -23.9839  -27.3084   18.9698 H   0  0  0  0  0  0
  -23.8099  -30.5714   19.3992 H   0  0  0  0  0  0
  -22.7860  -29.2376   19.8419 H   0  0  0  0  0  0
  -25.1312  -36.1866   25.0811 H   0  0  0  0  0  0
  -21.0023  -28.3285   24.1368 H   0  0  0  0  0  0
  -20.5699  -26.2333   23.3615 H   0  0  0  0  0  0
  -21.6666  -26.7419   22.1188 H   0  0  0  0  0  0
  -19.6911  -25.6278   21.1251 H   0  0  0  0  0  0
  -19.6696  -27.3187   20.6751 H   0  0  0  0  0  0
  -17.4217  -26.6707   21.4022 H   0  0  0  0  0  0
  -18.0315  -26.0079   22.9017 H   0  0  0  0  0  0
  -19.7961  -30.7293   24.2250 H   0  0  0  0  0  0
  -17.5047  -31.6257   24.5202 H   0  0  0  0  0  0
  -15.5379  -30.2982   23.7686 H   0  0  0  0  0  0
  -15.8714  -28.0833   22.7032 H   0  0  0  0  0  0
  -24.5920  -30.7057   25.7695 H   0  0  0  0  0  0
  -24.8912  -32.2877   26.4788 H   0  0  0  0  0  0
  -25.8019  -30.8889   27.0178 H   0  0  0  0  0  0
  -26.3000  -29.6670   24.1271 H   0  0  0  0  0  0
  -27.4072  -29.7253   25.4783 H   0  0  0  0  0  0
  -27.8893  -30.4208   23.9515 H   0  0  0  0  0  0
  -27.2682  -33.3623   26.2011 H   0  0  0  0  0  0
  -28.3907  -32.6839   25.0306 H   0  0  0  0  0  0
  -28.0739  -31.8453   26.5405 H   0  0  0  0  0  0
  -28.2589  -38.0091   24.7535 H   0  0  0  0  0  0
  -28.1087  -36.2626   24.6271 H   0  0  0  0  0  0
  -27.2302  -37.1414   25.8867 H   0  0  0  0  0  0
  -20.9483  -29.8795   21.6848 H   0  0  0  0  0  0
  -26.0155  -38.2816   24.1410 H   0  0  0  0  0  0
  -30.2908  -20.4853   19.0558 H   0  0  0  0  0  0
  -27.8003  -19.7808   23.7093 H   0  0  0  0  0  0
  -26.5124  -19.2938   22.6325 H   0  0  0  0  0  0
  -27.5614  -22.0575   23.1588 H   0  0  0  0  0  0
  -25.9130  -21.5045   23.0240 H   0  0  0  0  0  0
  -26.3790  -22.7552   21.0112 H   0  0  0  0  0  0
  -26.3403  -21.1082   20.5268 H   0  0  0  0  0  0
  -29.3741  -23.4993   21.4758 H   0  0  0  0  0  0
  -29.7029  -23.2851   19.7879 H   0  0  0  0  0  0
  -27.0825  -24.6265   20.8543 H   0  0  0  0  0  0
  -27.5391  -24.4797   19.1806 H   0  0  0  0  0  0
  -28.8482  -15.6009   21.2152 H   0  0  0  0  0  0
  1 25  1  0  0  0
  1 30  2  0  0  0
  1 83  1  0  0  0
  2  3  1  0  0  0
  2 25  1  0  0  0
  2 86  1  0  0  0
  2 87  1  0  0  0
  3  4  1  0  0  0
  3 88  1  0  0  0
  3 89  1  0  0  0
  4  5  1  0  0  0
  4 90  1  0  0  0
  4 91  1  0  0  0
  5  6  1  0  0  0
  5 26  1  0  0  0
  5 92  1  0  0  0
  6 25  1  0  0  0
  6 93  1  0  0  0
  6 94  1  0  0  0
  7  8  2  0  0  0
  7 26  1  0  0  0
  7 29  1  0  0  0
  8  9  1  0  0  0
  8 22  1  0  0  0
  9 10  1  0  0  0
  9 27  2  0  0  0
 10 11  2  0  0  0
 10 15  1  0  0  0
 11 12  1  0  0  0
 11 95  1  0  0  0
 12 13  2  0  0  0
 12 96  1  0  0  0
 13 14  1  0  0  0
 13 31  1  0  0  0
 14 15  2  0  0  0
 14 97  1  0  0  0
 15 98  1  0  0  0
 16 17  2  0  0  0
 16 21  1  0  0  0
 16 31  1  0  0  0
 17 18  1  0  0  0
 17 99  1  0  0  0
 18 19  2  0  0  0
 18100  1  0  0  0
 19 20  1  0  0  0
 19 24  1  0  0  0
 20 21  2  0  0  0
 20101  1  0  0  0
 21 23  1  0  0  0
 22 28  1  0  0  0
 22 32  2  0  0  0
 26 27  1  0  0  0
 28102  1  0  0  0
 28103  1  0  0  0
 29104  1  0  0  0
 29105  1  0  0  0
 33 34  1  0  0  0
 33 66  1  0  0  0
 33 70  2  0  0  0
 34 36  1  0  0  0
 34 59  1  0  0  0
 34106  1  0  0  0
 35 44  2  0  0  0
 35 45  1  0  0  0
 35 68  1  0  0  0
 36 56  1  0  0  0
 36107  1  0  0  0
 37 39  1  0  0  0
 37 47  1  0  0  0
 37 66  1  0  0  0
 37108  1  0  0  0
 38 43  2  0  0  0
 38 46  1  0  0  0
 38 47  1  0  0  0
 39 64  1  0  0  0
 39 67  2  0  0  0
 40 52  1  0  0  0
 40 53  2  0  0  0
 40 58  1  0  0  0
 41109  1  0  0  0
 41110  1  0  0  0
 41111  1  0  0  0
 41 48  1  0  0  0
 42 43  1  0  0  0
 42 66  1  0  0  0
 42112  1  0  0  0
 42113  1  0  0  0
 43 44  1  0  0  0
 44114  1  0  0  0
 45 46  2  0  0  0
 45115  1  0  0  0
 46116  1  0  0  0
 47117  1  0  0  0
 47118  1  0  0  0
 48 56  1  0  0  0
 48 65  1  0  0  0
 48119  1  0  0  0
 49 50  1  0  0  0
 49 53  1  0  0  0
 49 64  1  0  0  0
 49120  1  0  0  0
 50 51  1  0  0  0
 50121  1  0  0  0
 50122  1  0  0  0
 51 52  1  0  0  0
 51123  1  0  0  0
 51124  1  0  0  0
 52125  1  0  0  0
 52126  1  0  0  0
 53 54  1  0  0  0
 54 55  2  0  0  0
 54127  1  0  0  0
 55 57  1  0  0  0
 55128  1  0  0  0
 56 69  2  0  0  0
 57 58  2  0  0  0
 57129  1  0  0  0
 58130  1  0  0  0
 59 60  1  0  0  0
 59 61  1  0  0  0
 59 62  1  0  0  0
 60131  1  0  0  0
 60132  1  0  0  0
 60133  1  0  0  0
 61134  1  0  0  0
 61135  1  0  0  0
 61136  1  0  0  0
 62137  1  0  0  0
 62138  1  0  0  0
 62139  1  0  0  0
 63 65  1  0  0  0
 63140  1  0  0  0
 63141  1  0  0  0
 63142  1  0  0  0
 64143  1  0  0  0
 65144  1  0  0  0
 68 81  1  0  0  0
 71 73  2  0  0  0
 71 75  1  0  0  0
 71145  1  0  0  0
 72 73  1  0  0  0
 72 76  2  0  0  0
 72 77  1  0  0  0
 73 82  1  0  0  0
 74 75  2  0  0  0
 74 76  1  0  0  0
 74 83  1  0  0  0
 75 84  1  0  0  0
 76 85  1  0  0  0
 77 78  1  0  0  0
 77146  1  0  0  0
 77147  1  0  0  0
 78 79  1  0  0  0
 78148  1  0  0  0
 78149  1  0  0  0
 79 82  1  0  0  0
 79150  1  0  0  0
 79151  1  0  0  0
 80 81  1  0  0  0
 80 82  1  0  0  0
 80152  1  0  0  0
 80153  1  0  0  0
 81154  1  0  0  0
 81155  1  0  0  0
 83156  1  0  0  0
M  ISO  4   1 100  68 101  81 101  83 100
M  END
> <chiral flag>
0

> <version>
0

> <s_m_source_file>
/data/baiqing/PycharmProjects/Reinvent-master-3.2/result/LINK_invent/BTK/process_docking_weight1_custom_product_contain_oxygen_bond_distance_aromatic_linkinvent_7_9_3/rearranged_h_0006.sdf

> <i_m_source_file_index>
35

> <r_mmod_Potential_Energy-OPLS-2005>
404.640502929688

> <r_mmod_Stretch_Energy-OPLS-2005>
218.110214233398

> <r_mmod_Bend_Energy-OPLS-2005>
279.406005859375

> <r_mmod_Torsional_Energy-OPLS-2005>
242.407043457031

> <r_mmod_Improper_Torsional_Energy-OPLS-2005>
5.42712783813477

> <r_mmod_Van_der_Waal_Energy-OPLS-2005>
148.745208740234

> <r_mmod_Electrostatic_Energy-OPLS-2005>
-430.267303466797

> <r_mmod_Solvation_Energy-OPLS-2005>
-224.280166625977

> <b_mmod_Minimization_Converged-OPLS-2005>
0

> <r_mmod_RMS_Derivative-OPLS-2005>
2.09719753265381

$$$$
36
                    3D
 Structure written by MMmdl.
154163  0  0  1  0            999 V2000
  -30.5246  -14.8753   20.4563 C   0  0  0  0  0  0
  -30.4539  -12.5379   19.4904 C   0  0  0  0  0  0
  -29.5255  -12.5298   18.2515 C   0  0  0  0  0  0
  -28.0534  -12.3277   18.6632 C   0  0  0  0  0  0
  -27.6431  -13.2343   19.8522 C   0  0  2  0  0  0
  -28.6871  -13.1853   20.9899 C   0  0  0  0  0  0
  -25.2514  -13.8191   20.5682 C   0  0  0  0  0  0
  -24.1809  -13.0439   20.9211 C   0  0  0  0  0  0
  -24.6400  -11.6917   20.8749 C   0  0  0  0  0  0
  -23.9069  -10.4295   21.0408 C   0  0  0  0  0  0
  -24.3617   -9.4206   21.9183 C   0  0  0  0  0  0
  -23.6290   -8.2242   22.0747 C   0  0  0  0  0  0
  -22.4273   -8.0283   21.3537 C   0  0  0  0  0  0
  -21.9911   -9.0257   20.4639 C   0  0  0  0  0  0
  -22.7240  -10.2136   20.3053 C   0  0  0  0  0  0
  -21.6852   -6.0733   22.5279 C   0  0  0  0  0  0
  -21.4015   -6.5634   23.8215 C   0  0  0  0  0  0
  -21.3663   -5.6784   24.9175 C   0  0  0  0  0  0
  -21.6047   -4.3048   24.7223 C   0  0  0  0  0  0
  -21.8820   -3.8141   23.4343 C   0  0  0  0  0  0
  -21.9192   -4.6960   22.3401 C   0  0  0  0  0  0
  -22.7825  -13.5220   21.1870 C   0  0  0  0  0  0
  -22.1658   -4.2147   21.0977 F   0  0  0  0  0  0
  -21.5633   -3.4531   25.7735 F   0  0  0  0  0  0
  -29.9778  -13.5985   20.4174 N   0  0  0  0  0  0
  -26.2944  -12.9396   20.3272 N   0  0  0  0  0  0
  -25.9330  -11.6539   20.5744 N   0  0  0  0  0  0
  -22.0465  -12.8217   22.0429 N   0  0  0  0  0  0
  -25.4200  -15.1911   20.4064 N   0  0  0  0  0  0
  -31.6956  -15.0294   20.0942 O   0  0  0  0  0  0
  -21.6634   -6.8881   21.4242 O   0  0  0  0  0  0
  -22.3511  -14.5526   20.6712 O   0  0  0  0  0  0
  -24.6400  -31.8475   23.1925 C   0  0  0  0  0  0
  -25.9182  -32.4717   23.8299 C   0  0  1  0  0  0
  -27.2158  -27.1670   20.1524 C   0  0  0  0  0  0
  -25.5946  -33.8527   24.2212 N   0  0  0  0  0  0
  -23.4427  -30.4686   21.5382 C   0  0  2  0  0  0
  -24.8926  -28.9025   20.1122 C   0  0  0  0  0  0
  -22.7557  -29.4565   22.4889 C   0  0  0  0  0  0
  -18.0302  -28.1397   22.8477 C   0  0  0  0  0  0
  -24.1493  -36.7263   23.2640 C   0  0  0  0  0  0
  -25.9974  -30.7297   21.3897 C   0  0  0  0  0  0
  -26.0690  -29.3437   20.7332 C   0  0  0  0  0  0
  -27.2333  -28.4908   20.7393 C   0  0  0  0  0  0
  -26.0218  -26.8330   19.4738 C   0  0  0  0  0  0
  -24.8797  -27.6583   19.4673 C   0  0  0  0  0  0
  -23.6677  -29.8004   20.1568 C   0  0  0  0  0  0
  -25.4123  -36.3050   24.0317 C   0  0  1  0  0  0
  -20.5915  -28.3714   23.1246 C   0  0  2  0  0  0
  -20.6796  -26.9425   22.5402 C   0  0  0  0  0  0
  -19.5759  -26.6381   21.5223 C   0  0  0  0  0  0
  -18.1939  -26.7929   22.1635 C   0  0  0  0  0  0
  -19.1561  -28.8880   23.2849 C   0  0  0  0  0  0
  -18.9478  -30.1479   23.8871 C   0  0  0  0  0  0
  -17.6472  -30.6595   24.0559 C   0  0  0  0  0  0
  -25.9067  -34.9424   23.5067 C   0  0  0  0  0  0
  -16.5366  -29.9084   23.6339 C   0  0  0  0  0  0
  -16.7287  -28.6505   23.0353 C   0  0  0  0  0  0
  -26.4520  -31.6568   25.0720 C   0  0  0  0  0  0
  -25.3715  -31.3734   26.1419 C   0  0  0  0  0  0
  -27.0376  -30.2967   24.6273 C   0  0  0  0  0  0
  -27.6058  -32.4331   25.7494 C   0  0  0  0  0  0
  -27.5578  -37.1792   24.8466 C   0  0  0  0  0  0
  -21.4255  -29.3044   22.3628 N   0  0  0  0  0  0
  -26.4293  -37.3753   23.9404 N   0  0  0  0  0  0
  -24.7131  -31.0357   22.0949 N   0  0  0  0  0  0
  -23.4217  -28.8108   23.3021 O   0  0  0  0  0  0
  -28.2667  -26.1870   20.1982 O   0  0  0  0  0  0
  -26.5658  -34.8911   22.4648 O   0  0  0  0  0  0
  -23.5522  -32.1338   23.7154 O   0  0  0  0  0  0
  -29.6513  -19.8422   19.8430 C   0  0  0  0  0  0
  -28.8711  -20.4571   20.8905 C   0  0  0  0  0  0
  -28.5679  -19.4810   21.9040 C   0  0  0  0  0  0
  -29.6129  -17.4562   20.7942 C   0  0  0  0  0  0
  -29.9980  -18.4159   19.7884 C   0  0  0  0  0  0
  -28.9019  -18.0802   21.8544 C   0  0  0  0  0  0
  -27.1093  -21.9329   21.7150 C   0  0  0  0  0  0
  -26.7412  -20.7821   22.6675 C   0  0  0  0  0  0
  -28.7301  -23.2518   20.3249 C   0  0  0  0  0  0
  -27.9271  -24.7251   20.5734 C   0  0  0  0  0  0
  -27.8340  -19.8899   23.0148 N   0  0  0  0  0  0
  -28.2735  -21.8844   20.9911 N   0  0  0  0  0  0
  -29.6688  -15.9343   20.7974 N   0  0  0  0  0  0
  -26.2612  -22.8211   21.6411 O   0  0  0  0  0  0
  -30.6634  -17.9639   18.6984 F   0  0  0  0  0  0
  -28.4586  -17.2882   22.8651 F   0  0  0  0  0  0
  -31.4871  -12.7049   19.1812 H   0  0  0  0  0  0
  -30.4453  -11.5658   19.9867 H   0  0  0  0  0  0
  -29.8297  -11.7459   17.5563 H   0  0  0  0  0  0
  -29.6277  -13.4719   17.7117 H   0  0  0  0  0  0
  -27.9317  -11.2807   18.9427 H   0  0  0  0  0  0
  -27.3925  -12.4922   17.8114 H   0  0  0  0  0  0
  -27.6289  -14.2514   19.4603 H   0  0  0  0  0  0
  -28.7543  -12.1806   21.4100 H   0  0  0  0  0  0
  -28.3931  -13.8368   21.8138 H   0  0  0  0  0  0
  -25.2762   -9.5676   22.4757 H   0  0  0  0  0  0
  -23.9999   -7.4628   22.7461 H   0  0  0  0  0  0
  -21.0842   -8.8773   19.8945 H   0  0  0  0  0  0
  -22.3699  -10.9671   19.6162 H   0  0  0  0  0  0
  -21.2005   -7.6142   23.9720 H   0  0  0  0  0  0
  -21.1488   -6.0509   25.9081 H   0  0  0  0  0  0
  -22.0599   -2.7602   23.2836 H   0  0  0  0  0  0
  -22.4069  -11.9885   22.4839 H   0  0  0  0  0  0
  -21.1085  -13.1253   22.2636 H   0  0  0  0  0  0
  -24.6460  -15.8397   20.5025 H   0  0  0  0  0  0
  -26.2543  -15.6256   20.0355 H   0  0  0  0  0  0
  -26.7253  -32.5334   23.1039 H   0  0  0  0  0  0
  -25.0083  -33.9642   25.0354 H   0  0  0  0  0  0
  -22.7429  -31.2936   21.3872 H   0  0  0  0  0  0
  -23.3761  -35.9589   23.3296 H   0  0  0  0  0  0
  -24.3580  -36.8894   22.2056 H   0  0  0  0  0  0
  -23.7244  -37.6456   23.6677 H   0  0  0  0  0  0
  -26.1508  -31.4845   20.6174 H   0  0  0  0  0  0
  -26.8694  -30.7797   22.0301 H   0  0  0  0  0  0
  -28.1288  -28.8217   21.2462 H   0  0  0  0  0  0
  -25.9436  -25.8987   18.9384 H   0  0  0  0  0  0
  -23.9865  -27.3223   18.9574 H   0  0  0  0  0  0
  -23.8020  -30.5756   19.4018 H   0  0  0  0  0  0
  -22.7833  -29.2408   19.8469 H   0  0  0  0  0  0
  -25.1317  -36.1884   25.0811 H   0  0  0  0  0  0
  -21.0000  -28.3301   24.1371 H   0  0  0  0  0  0
  -20.5703  -26.2321   23.3611 H   0  0  0  0  0  0
  -21.6666  -26.7437   22.1201 H   0  0  0  0  0  0
  -19.6922  -25.6290   21.1257 H   0  0  0  0  0  0
  -19.6699  -27.3188   20.6751 H   0  0  0  0  0  0
  -17.4208  -26.6669   21.4043 H   0  0  0  0  0  0
  -18.0342  -26.0086   22.9043 H   0  0  0  0  0  0
  -19.7947  -30.7310   24.2224 H   0  0  0  0  0  0
  -17.5026  -31.6273   24.5165 H   0  0  0  0  0  0
  -15.5364  -30.2972   23.7690 H   0  0  0  0  0  0
  -15.8689  -28.0814   22.7074 H   0  0  0  0  0  0
  -24.5905  -30.7071   25.7738 H   0  0  0  0  0  0
  -24.8889  -32.2901   26.4814 H   0  0  0  0  0  0
  -25.8007  -30.8927   27.0219 H   0  0  0  0  0  0
  -26.2975  -29.6701   24.1278 H   0  0  0  0  0  0
  -27.3995  -29.7255   25.4834 H   0  0  0  0  0  0
  -27.8891  -30.4211   23.9580 H   0  0  0  0  0  0
  -27.2658  -33.3649   26.2030 H   0  0  0  0  0  0
  -28.3884  -32.6861   25.0330 H   0  0  0  0  0  0
  -28.0713  -31.8483   26.5437 H   0  0  0  0  0  0
  -28.2601  -38.0085   24.7519 H   0  0  0  0  0  0
  -28.1073  -36.2618   24.6302 H   0  0  0  0  0  0
  -27.2294  -37.1451   25.8869 H   0  0  0  0  0  0
  -20.9453  -29.8745   21.6808 H   0  0  0  0  0  0
  -26.0164  -38.2821   24.1404 H   0  0  0  0  0  0
  -29.9524  -20.4592   19.0097 H   0  0  0  0  0  0
  -25.9313  -20.2049   22.2174 H   0  0  0  0  0  0
  -26.3419  -21.2084   23.5894 H   0  0  0  0  0  0
  -29.7659  -23.3941   20.6304 H   0  0  0  0  0  0
  -28.7712  -23.0738   19.2509 H   0  0  0  0  0  0
  -27.7858  -24.8061   21.6519 H   0  0  0  0  0  0
  -26.9415  -24.5463   20.1592 H   0  0  0  0  0  0
  -27.5822  -19.1112   23.6196 H   0  0  0  0  0  0
  -28.8368  -15.5557   21.2222 H   0  0  0  0  0  0
  1 25  1  0  0  0
  1 30  2  0  0  0
  1 83  1  0  0  0
  2  3  1  0  0  0
  2 25  1  0  0  0
  2 87  1  0  0  0
  2 88  1  0  0  0
  3  4  1  0  0  0
  3 89  1  0  0  0
  3 90  1  0  0  0
  4  5  1  0  0  0
  4 91  1  0  0  0
  4 92  1  0  0  0
  5  6  1  0  0  0
  5 26  1  0  0  0
  5 93  1  0  0  0
  6 25  1  0  0  0
  6 94  1  0  0  0
  6 95  1  0  0  0
  7  8  2  0  0  0
  7 26  1  0  0  0
  7 29  1  0  0  0
  8  9  1  0  0  0
  8 22  1  0  0  0
  9 10  1  0  0  0
  9 27  2  0  0  0
 10 11  2  0  0  0
 10 15  1  0  0  0
 11 12  1  0  0  0
 11 96  1  0  0  0
 12 13  2  0  0  0
 12 97  1  0  0  0
 13 14  1  0  0  0
 13 31  1  0  0  0
 14 15  2  0  0  0
 14 98  1  0  0  0
 15 99  1  0  0  0
 16 17  2  0  0  0
 16 21  1  0  0  0
 16 31  1  0  0  0
 17 18  1  0  0  0
 17100  1  0  0  0
 18 19  2  0  0  0
 18101  1  0  0  0
 19 20  1  0  0  0
 19 24  1  0  0  0
 20 21  2  0  0  0
 20102  1  0  0  0
 21 23  1  0  0  0
 22 28  1  0  0  0
 22 32  2  0  0  0
 26 27  1  0  0  0
 28103  1  0  0  0
 28104  1  0  0  0
 29105  1  0  0  0
 29106  1  0  0  0
 33 34  1  0  0  0
 33 66  1  0  0  0
 33 70  2  0  0  0
 34 36  1  0  0  0
 34 59  1  0  0  0
 34107  1  0  0  0
 35 44  2  0  0  0
 35 45  1  0  0  0
 35 68  1  0  0  0
 36 56  1  0  0  0
 36108  1  0  0  0
 37 39  1  0  0  0
 37 47  1  0  0  0
 37 66  1  0  0  0
 37109  1  0  0  0
 38 43  2  0  0  0
 38 46  1  0  0  0
 38 47  1  0  0  0
 39 64  1  0  0  0
 39 67  2  0  0  0
 40 52  1  0  0  0
 40 53  2  0  0  0
 40 58  1  0  0  0
 41110  1  0  0  0
 41111  1  0  0  0
 41112  1  0  0  0
 41 48  1  0  0  0
 42 43  1  0  0  0
 42 66  1  0  0  0
 42113  1  0  0  0
 42114  1  0  0  0
 43 44  1  0  0  0
 44115  1  0  0  0
 45 46  2  0  0  0
 45116  1  0  0  0
 46117  1  0  0  0
 47118  1  0  0  0
 47119  1  0  0  0
 48 56  1  0  0  0
 48 65  1  0  0  0
 48120  1  0  0  0
 49 50  1  0  0  0
 49 53  1  0  0  0
 49 64  1  0  0  0
 49121  1  0  0  0
 50 51  1  0  0  0
 50122  1  0  0  0
 50123  1  0  0  0
 51 52  1  0  0  0
 51124  1  0  0  0
 51125  1  0  0  0
 52126  1  0  0  0
 52127  1  0  0  0
 53 54  1  0  0  0
 54 55  2  0  0  0
 54128  1  0  0  0
 55 57  1  0  0  0
 55129  1  0  0  0
 56 69  2  0  0  0
 57 58  2  0  0  0
 57130  1  0  0  0
 58131  1  0  0  0
 59 60  1  0  0  0
 59 61  1  0  0  0
 59 62  1  0  0  0
 60132  1  0  0  0
 60133  1  0  0  0
 60134  1  0  0  0
 61135  1  0  0  0
 61136  1  0  0  0
 61137  1  0  0  0
 62138  1  0  0  0
 62139  1  0  0  0
 62140  1  0  0  0
 63 65  1  0  0  0
 63141  1  0  0  0
 63142  1  0  0  0
 63143  1  0  0  0
 64144  1  0  0  0
 65145  1  0  0  0
 68 80  1  0  0  0
 71 72  2  0  0  0
 71 75  1  0  0  0
 71146  1  0  0  0
 72 73  1  0  0  0
 72 82  1  0  0  0
 73 76  2  0  0  0
 73 81  1  0  0  0
 74 75  2  0  0  0
 74 76  1  0  0  0
 74 83  1  0  0  0
 75 85  1  0  0  0
 76 86  1  0  0  0
 77 78  1  0  0  0
 77 82  1  0  0  0
 77 84  2  0  0  0
 78 81  1  0  0  0
 78147  1  0  0  0
 78148  1  0  0  0
 79 80  1  0  0  0
 79 82  1  0  0  0
 79149  1  0  0  0
 79150  1  0  0  0
 80151  1  0  0  0
 80152  1  0  0  0
 81153  1  0  0  0
 83154  1  0  0  0
M  ISO  4   1 100  68 101  80 101  83 100
M  END
> <chiral flag>
0

> <version>
0

> <s_m_source_file>
/data/baiqing/PycharmProjects/Reinvent-master-3.2/result/LINK_invent/BTK/process_docking_weight1_custom_product_contain_oxygen_bond_distance_aromatic_linkinvent_7_9_3/rearranged_h_0006.sdf

> <i_m_source_file_index>
36

> <r_mmod_Potential_Energy-OPLS-2005>
495.964050292969

> <r_mmod_Stretch_Energy-OPLS-2005>
230.712432861328

> <r_mmod_Bend_Energy-OPLS-2005>
274.653961181641

> <r_mmod_Torsional_Energy-OPLS-2005>
272.198638916016

> <r_mmod_Improper_Torsional_Energy-OPLS-2005>
9.56392765045166

> <r_mmod_Van_der_Waal_Energy-OPLS-2005>
165.748947143555

> <r_mmod_Electrostatic_Energy-OPLS-2005>
-375.952880859375

> <r_mmod_Solvation_Energy-OPLS-2005>
-236.569808959961

> <b_mmod_Minimization_Converged-OPLS-2005>
0

> <r_mmod_RMS_Derivative-OPLS-2005>
1.21135246753693

$$$$
37
                    3D
 Structure written by MMmdl.
176186  0  0  1  0            999 V2000
  -30.6298  -14.6931   20.5188 C   0  0  0  0  0  0
  -30.4305  -12.4357   19.4666 C   0  0  0  0  0  0
  -29.5061  -12.5139   18.2321 C   0  0  0  0  0  0
  -28.0336  -12.3351   18.6472 C   0  0  0  0  0  0
  -27.6454  -13.2241   19.8580 C   0  0  2  0  0  0
  -28.6850  -13.1208   20.9941 C   0  0  0  0  0  0
  -25.2521  -13.8185   20.5691 C   0  0  0  0  0  0
  -24.1799  -13.0434   20.9186 C   0  0  0  0  0  0
  -24.6383  -11.6909   20.8736 C   0  0  0  0  0  0
  -23.9061  -10.4288   21.0400 C   0  0  0  0  0  0
  -24.3615   -9.4208   21.9181 C   0  0  0  0  0  0
  -23.6289   -8.2244   22.0757 C   0  0  0  0  0  0
  -22.4273   -8.0281   21.3545 C   0  0  0  0  0  0
  -21.9909   -9.0250   20.4643 C   0  0  0  0  0  0
  -22.7236  -10.2128   20.3048 C   0  0  0  0  0  0
  -21.6852   -6.0735   22.5280 C   0  0  0  0  0  0
  -21.4015   -6.5639   23.8213 C   0  0  0  0  0  0
  -21.3655   -5.6794   24.9175 C   0  0  0  0  0  0
  -21.6041   -4.3055   24.7227 C   0  0  0  0  0  0
  -21.8821   -3.8148   23.4347 C   0  0  0  0  0  0
  -21.9193   -4.6964   22.3403 C   0  0  0  0  0  0
  -22.7823  -13.5223   21.1853 C   0  0  0  0  0  0
  -22.1660   -4.2152   21.0980 F   0  0  0  0  0  0
  -21.5627   -3.4541   25.7737 F   0  0  0  0  0  0
  -29.9956  -13.4742   20.4296 N   0  0  0  0  0  0
  -26.2944  -12.9374   20.3295 N   0  0  0  0  0  0
  -25.9312  -11.6523   20.5750 N   0  0  0  0  0  0
  -22.0468  -12.8205   22.0402 N   0  0  0  0  0  0
  -25.4237  -15.1911   20.4141 N   0  0  0  0  0  0
  -31.7550  -14.8444   20.0379 O   0  0  0  0  0  0
  -21.6637   -6.8880   21.4240 O   0  0  0  0  0  0
  -22.3508  -14.5535   20.6715 O   0  0  0  0  0  0
  -24.6312  -31.8551   23.1986 C   0  0  0  0  0  0
  -25.9140  -32.4753   23.8323 C   0  0  1  0  0  0
  -27.2183  -27.2640   20.1212 C   0  0  0  0  0  0
  -25.5943  -33.8555   24.2249 N   0  0  0  0  0  0
  -23.4271  -30.4792   21.5422 C   0  0  2  0  0  0
  -24.8749  -28.9298   20.1078 C   0  0  0  0  0  0
  -22.7496  -29.4603   22.4904 C   0  0  0  0  0  0
  -18.0294  -28.1383   22.8471 C   0  0  0  0  0  0
  -24.1488  -36.7281   23.2639 C   0  0  0  0  0  0
  -25.9727  -30.7698   21.3772 C   0  0  0  0  0  0
  -26.0470  -29.3927   20.7184 C   0  0  0  0  0  0
  -27.2219  -28.5724   20.7148 C   0  0  0  0  0  0
  -26.0212  -26.8754   19.4746 C   0  0  0  0  0  0
  -24.8670  -27.6793   19.4754 C   0  0  0  0  0  0
  -23.6445  -29.8141   20.1580 C   0  0  0  0  0  0
  -25.4116  -36.3064   24.0323 C   0  0  1  0  0  0
  -20.5893  -28.3699   23.1261 C   0  0  2  0  0  0
  -20.6780  -26.9419   22.5397 C   0  0  0  0  0  0
  -19.5755  -26.6391   21.5199 C   0  0  0  0  0  0
  -18.1932  -26.7924   22.1616 C   0  0  0  0  0  0
  -19.1547  -28.8857   23.2856 C   0  0  0  0  0  0
  -18.9476  -30.1452   23.8885 C   0  0  0  0  0  0
  -17.6476  -30.6583   24.0564 C   0  0  0  0  0  0
  -25.9059  -34.9436   23.5083 C   0  0  0  0  0  0
  -16.5366  -29.9082   23.6335 C   0  0  0  0  0  0
  -16.7280  -28.6504   23.0344 C   0  0  0  0  0  0
  -26.4514  -31.6576   25.0703 C   0  0  0  0  0  0
  -25.3735  -31.3721   26.1418 C   0  0  0  0  0  0
  -27.0377  -30.3000   24.6181 C   0  0  0  0  0  0
  -27.6065  -32.4315   25.7479 C   0  0  0  0  0  0
  -27.5572  -37.1791   24.8463 C   0  0  0  0  0  0
  -21.4208  -29.3048   22.3651 N   0  0  0  0  0  0
  -26.4288  -37.3766   23.9408 N   0  0  0  0  0  0
  -24.6963  -31.0519   22.0963 N   0  0  0  0  0  0
  -23.4196  -28.8124   23.2988 O   0  0  0  0  0  0
  -28.3094  -26.3622   20.1870 O   0  0  0  0  0  0
  -26.5630  -34.8916   22.4649 O   0  0  0  0  0  0
  -23.5461  -32.1380   23.7287 O   0  0  0  0  0  0
  -33.0076  -17.1085   14.6739 C   0  0  0  0  0  0
  -32.4949  -16.1346   15.5510 C   0  0  0  0  0  0
  -33.2314  -18.4208   15.1335 C   0  0  0  0  0  0
  -32.1989  -16.4738   16.8856 C   0  0  0  0  0  0
  -32.9390  -18.7598   16.4695 C   0  0  0  0  0  0
  -32.4130  -17.7900   17.3517 C   0  0  0  0  0  0
  -28.6022  -21.7600   18.8108 C   0  0  0  0  0  0
  -29.4260  -21.1360   20.9262 C   0  0  0  0  0  0
  -30.2409  -19.7998   18.2208 C   0  0  0  0  0  0
  -28.8910  -20.2204   18.8148 C   0  0  1  0  0  0
  -29.0225  -19.7430   20.2595 C   0  0  1  0  0  0
  -29.9853  -18.4323   20.2211 C   0  0  1  0  0  0
  -30.0789  -15.9902   22.4900 C   0  0  0  0  0  0
  -32.0440  -18.1636   18.7832 C   0  0  0  0  0  0
  -29.2937  -16.9661   20.3365 C   0  0  0  0  0  0
  -29.0974  -23.7285   20.4051 C   0  0  0  0  0  0
  -28.0484  -24.8905   19.9913 C   0  0  0  0  0  0
  -29.9475  -15.7806   21.0470 N   0  0  0  0  0  0
  -28.6771  -22.2500   20.2124 N   0  3  1  0  0  0
  -30.6054  -18.5137   18.8672 N   0  3  2  0  0  0
  -31.4718  -12.5586   19.1642 H   0  0  0  0  0  0
  -30.3734  -11.4480   19.9265 H   0  0  0  0  0  0
  -29.7833  -11.7515   17.5028 H   0  0  0  0  0  0
  -29.6340  -13.4757   17.7329 H   0  0  0  0  0  0
  -27.8913  -11.2842   18.9029 H   0  0  0  0  0  0
  -27.3730  -12.5329   17.8025 H   0  0  0  0  0  0
  -27.6531  -14.2529   19.4979 H   0  0  0  0  0  0
  -28.7090  -12.1116   21.4079 H   0  0  0  0  0  0
  -28.4051  -13.7776   21.8176 H   0  0  0  0  0  0
  -25.2757   -9.5686   22.4756 H   0  0  0  0  0  0
  -23.9997   -7.4639   22.7482 H   0  0  0  0  0  0
  -21.0844   -8.8761   19.8949 H   0  0  0  0  0  0
  -22.3693  -10.9662   19.6157 H   0  0  0  0  0  0
  -21.2010   -7.6147   23.9718 H   0  0  0  0  0  0
  -21.1471   -6.0523   25.9078 H   0  0  0  0  0  0
  -22.0604   -2.7612   23.2847 H   0  0  0  0  0  0
  -22.4075  -11.9854   22.4766 H   0  0  0  0  0  0
  -21.1087  -13.1228   22.2622 H   0  0  0  0  0  0
  -24.6591  -15.8470   20.5338 H   0  0  0  0  0  0
  -26.2831  -15.6320   20.1146 H   0  0  0  0  0  0
  -26.7191  -32.5410   23.1050 H   0  0  0  0  0  0
  -25.0084  -33.9688   25.0391 H   0  0  0  0  0  0
  -22.7240  -31.3016   21.3959 H   0  0  0  0  0  0
  -23.3756  -35.9604   23.3286 H   0  0  0  0  0  0
  -24.3586  -36.8928   22.2057 H   0  0  0  0  0  0
  -23.7231  -37.6471   23.6684 H   0  0  0  0  0  0
  -26.1043  -31.5296   20.6058 H   0  0  0  0  0  0
  -26.8529  -30.8238   22.0060 H   0  0  0  0  0  0
  -28.1166  -28.9198   21.2128 H   0  0  0  0  0  0
  -25.9347  -25.9246   18.9712 H   0  0  0  0  0  0
  -23.9692  -27.3212   18.9897 H   0  0  0  0  0  0
  -23.7621  -30.5899   19.4005 H   0  0  0  0  0  0
  -22.7643  -29.2436   19.8571 H   0  0  0  0  0  0
  -25.1288  -36.1913   25.0816 H   0  0  0  0  0  0
  -20.9989  -28.3291   24.1382 H   0  0  0  0  0  0
  -20.5698  -26.2311   23.3601 H   0  0  0  0  0  0
  -21.6640  -26.7447   22.1177 H   0  0  0  0  0  0
  -19.6924  -25.6305   21.1217 H   0  0  0  0  0  0
  -19.6690  -27.3214   20.6736 H   0  0  0  0  0  0
  -17.4197  -26.6676   21.4016 H   0  0  0  0  0  0
  -18.0330  -26.0066   22.9016 H   0  0  0  0  0  0
  -19.7955  -30.7255   24.2267 H   0  0  0  0  0  0
  -17.5037  -31.6268   24.5157 H   0  0  0  0  0  0
  -15.5364  -30.2974   23.7679 H   0  0  0  0  0  0
  -15.8682  -28.0831   22.7049 H   0  0  0  0  0  0
  -24.5914  -30.7072   25.7734 H   0  0  0  0  0  0
  -24.8919  -32.2890   26.4829 H   0  0  0  0  0  0
  -25.8039  -30.8901   27.0205 H   0  0  0  0  0  0
  -26.2961  -29.6721   24.1227 H   0  0  0  0  0  0
  -27.4102  -29.7287   25.4695 H   0  0  0  0  0  0
  -27.8815  -30.4284   23.9393 H   0  0  0  0  0  0
  -27.2690  -33.3650   26.1996 H   0  0  0  0  0  0
  -28.3912  -32.6821   25.0326 H   0  0  0  0  0  0
  -28.0688  -31.8471   26.5446 H   0  0  0  0  0  0
  -28.2570  -38.0101   24.7518 H   0  0  0  0  0  0
  -28.1081  -36.2632   24.6279 H   0  0  0  0  0  0
  -27.2287  -37.1417   25.8862 H   0  0  0  0  0  0
  -20.9397  -29.8803   21.6878 H   0  0  0  0  0  0
  -26.0164  -38.2835   24.1430 H   0  0  0  0  0  0
  -33.2300  -16.8489   13.6477 H   0  0  0  0  0  0
  -32.3247  -15.1257   15.1978 H   0  0  0  0  0  0
  -33.6231  -19.1690   14.4575 H   0  0  0  0  0  0
  -31.8011  -15.7148   17.5447 H   0  0  0  0  0  0
  -33.1106  -19.7731   16.8059 H   0  0  0  0  0  0
  -27.6106  -21.9721   18.4091 H   0  0  0  0  0  0
  -29.3179  -22.2857   18.1768 H   0  0  0  0  0  0
  -30.4980  -21.3078   20.8179 H   0  0  0  0  0  0
  -29.2118  -21.1437   21.9957 H   0  0  0  0  0  0
  -31.0024  -20.5462   18.4520 H   0  0  0  0  0  0
  -30.1981  -19.7098   17.1339 H   0  0  0  0  0  0
  -28.0925  -19.6757   18.3079 H   0  0  0  0  0  0
  -28.0407  -19.4655   20.6441 H   0  0  0  0  0  0
  -30.7374  -18.5428   21.0042 H   0  0  0  0  0  0
  -29.3524  -16.7084   22.8716 H   0  0  0  0  0  0
  -31.0754  -16.3663   22.7246 H   0  0  0  0  0  0
  -29.9344  -15.0631   23.0473 H   0  0  0  0  0  0
  -32.6668  -18.9843   19.1421 H   0  0  0  0  0  0
  -32.2614  -17.3152   19.4314 H   0  0  0  0  0  0
  -28.9871  -16.6268   19.3455 H   0  0  0  0  0  0
  -28.3416  -17.1080   20.8494 H   0  0  0  0  0  0
  -29.3258  -23.8609   21.4631 H   0  0  0  0  0  0
  -30.0382  -23.8929   19.8780 H   0  0  0  0  0  0
  -27.1260  -24.6574   20.5240 H   0  0  0  0  0  0
  -27.8308  -24.7514   18.9323 H   0  0  0  0  0  0
  -27.7362  -22.1806   20.5751 H   0  0  0  0  0  0
  -30.1337  -17.8061   18.3252 H   0  0  0  0  0  0
  1 25  1  0  0  0
  1 30  2  0  0  0
  1 88  1  0  0  0
  2  3  1  0  0  0
  2 25  1  0  0  0
  2 91  1  0  0  0
  2 92  1  0  0  0
  3  4  1  0  0  0
  3 93  1  0  0  0
  3 94  1  0  0  0
  4  5  1  0  0  0
  4 95  1  0  0  0
  4 96  1  0  0  0
  5  6  1  0  0  0
  5 26  1  0  0  0
  5 97  1  0  0  0
  6 25  1  0  0  0
  6 98  1  0  0  0
  6 99  1  0  0  0
  7  8  2  0  0  0
  7 26  1  0  0  0
  7 29  1  0  0  0
  8  9  1  0  0  0
  8 22  1  0  0  0
  9 10  1  0  0  0
  9 27  2  0  0  0
 10 11  2  0  0  0
 10 15  1  0  0  0
 11 12  1  0  0  0
 11100  1  0  0  0
 12 13  2  0  0  0
 12101  1  0  0  0
 13 14  1  0  0  0
 13 31  1  0  0  0
 14 15  2  0  0  0
 14102  1  0  0  0
 15103  1  0  0  0
 16 17  2  0  0  0
 16 21  1  0  0  0
 16 31  1  0  0  0
 17 18  1  0  0  0
 17104  1  0  0  0
 18 19  2  0  0  0
 18105  1  0  0  0
 19 20  1  0  0  0
 19 24  1  0  0  0
 20 21  2  0  0  0
 20106  1  0  0  0
 21 23  1  0  0  0
 22 28  1  0  0  0
 22 32  2  0  0  0
 26 27  1  0  0  0
 28107  1  0  0  0
 28108  1  0  0  0
 29109  1  0  0  0
 29110  1  0  0  0
 33 34  1  0  0  0
 33 66  1  0  0  0
 33 70  2  0  0  0
 34 36  1  0  0  0
 34 59  1  0  0  0
 34111  1  0  0  0
 35 44  2  0  0  0
 35 45  1  0  0  0
 35 68  1  0  0  0
 36 56  1  0  0  0
 36112  1  0  0  0
 37 39  1  0  0  0
 37 47  1  0  0  0
 37 66  1  0  0  0
 37113  1  0  0  0
 38 43  2  0  0  0
 38 46  1  0  0  0
 38 47  1  0  0  0
 39 64  1  0  0  0
 39 67  2  0  0  0
 40 52  1  0  0  0
 40 53  2  0  0  0
 40 58  1  0  0  0
 41114  1  0  0  0
 41115  1  0  0  0
 41116  1  0  0  0
 41 48  1  0  0  0
 42 43  1  0  0  0
 42 66  1  0  0  0
 42117  1  0  0  0
 42118  1  0  0  0
 43 44  1  0  0  0
 44119  1  0  0  0
 45 46  2  0  0  0
 45120  1  0  0  0
 46121  1  0  0  0
 47122  1  0  0  0
 47123  1  0  0  0
 48 56  1  0  0  0
 48 65  1  0  0  0
 48124  1  0  0  0
 49 50  1  0  0  0
 49 53  1  0  0  0
 49 64  1  0  0  0
 49125  1  0  0  0
 50 51  1  0  0  0
 50126  1  0  0  0
 50127  1  0  0  0
 51 52  1  0  0  0
 51128  1  0  0  0
 51129  1  0  0  0
 52130  1  0  0  0
 52131  1  0  0  0
 53 54  1  0  0  0
 54 55  2  0  0  0
 54132  1  0  0  0
 55 57  1  0  0  0
 55133  1  0  0  0
 56 69  2  0  0  0
 57 58  2  0  0  0
 57134  1  0  0  0
 58135  1  0  0  0
 59 60  1  0  0  0
 59 61  1  0  0  0
 59 62  1  0  0  0
 60136  1  0  0  0
 60137  1  0  0  0
 60138  1  0  0  0
 61139  1  0  0  0
 61140  1  0  0  0
 61141  1  0  0  0
 62142  1  0  0  0
 62143  1  0  0  0
 62144  1  0  0  0
 63 65  1  0  0  0
 63145  1  0  0  0
 63146  1  0  0  0
 63147  1  0  0  0
 64148  1  0  0  0
 65149  1  0  0  0
 68 87  1  0  0  0
 71 72  2  0  0  0
 71 73  1  0  0  0
 71150  1  0  0  0
 72 74  1  0  0  0
 72151  1  0  0  0
 73 75  2  0  0  0
 73152  1  0  0  0
 74 76  2  0  0  0
 74153  1  0  0  0
 75 76  1  0  0  0
 75154  1  0  0  0
 76 84  1  0  0  0
 77 89  1  0  0  0
 77155  1  0  0  0
 77156  1  0  0  0
 77 80  1  0  0  0
 78 89  1  0  0  0
 78157  1  0  0  0
 78158  1  0  0  0
 78 81  1  0  0  0
 79 80  1  0  0  0
 79 90  1  0  0  0
 79159  1  0  0  0
 79160  1  0  0  0
 80 81  1  0  0  0
 80161  1  0  0  0
 81 82  1  0  0  0
 81162  1  0  0  0
 82 85  1  0  0  0
 82 90  1  0  0  0
 82163  1  0  0  0
 83 88  1  0  0  0
 83164  1  0  0  0
 83165  1  0  0  0
 83166  1  0  0  0
 84167  1  0  0  0
 84168  1  0  0  0
 84 90  1  0  0  0
 85 88  1  0  0  0
 85169  1  0  0  0
 85170  1  0  0  0
 86 87  1  0  0  0
 86171  1  0  0  0
 86172  1  0  0  0
 86 89  1  0  0  0
 87173  1  0  0  0
 87174  1  0  0  0
 89175  1  0  0  0
 90176  1  0  0  0
M  CHG  2  89   1  90   1
M  ISO  4   1 100  68 101  87 101  88 100
M  END
> <chiral flag>
0

> <version>
0

> <s_m_source_file>
/data/baiqing/PycharmProjects/Reinvent-master-3.2/result/LINK_invent/BTK/process_docking_weight1_custom_product_contain_oxygen_bond_distance_aromatic_linkinvent_7_9_3/rearranged_h_0006.sdf

> <i_m_source_file_index>
37

> <r_mmod_Potential_Energy-OPLS-2005>
237.176498413086

> <r_mmod_Stretch_Energy-OPLS-2005>
123.894355773926

> <r_mmod_Bend_Energy-OPLS-2005>
222.330612182617

> <r_mmod_Torsional_Energy-OPLS-2005>
464.76416015625

> <r_mmod_Improper_Torsional_Energy-OPLS-2005>
3.0642261505127

> <r_mmod_Van_der_Waal_Energy-OPLS-2005>
119.96949005127

> <r_mmod_Electrostatic_Energy-OPLS-2005>
152.474166870117

> <r_mmod_Solvation_Energy-OPLS-2005>
-922.264587402344

> <b_mmod_Minimization_Converged-OPLS-2005>
0

> <r_mmod_RMS_Derivative-OPLS-2005>
1.32101309299469

$$$$
38
                    3D
 Structure written by MMmdl.
168178  0  0  1  0            999 V2000
  -30.6951  -14.4393   20.6142 C   0  0  0  0  0  0
  -30.4263  -12.2985   19.4154 C   0  0  0  0  0  0
  -29.4949  -12.5168   18.2046 C   0  0  0  0  0  0
  -28.0156  -12.3739   18.6149 C   0  0  0  0  0  0
  -27.6654  -13.2008   19.8812 C   0  0  2  0  0  0
  -28.7016  -12.9452   20.9984 C   0  0  0  0  0  0
  -25.2593  -13.8148   20.5668 C   0  0  0  0  0  0
  -24.1835  -13.0429   20.9158 C   0  0  0  0  0  0
  -24.6380  -11.6897   20.8711 C   0  0  0  0  0  0
  -23.9046  -10.4284   21.0390 C   0  0  0  0  0  0
  -24.3606   -9.4205   21.9170 C   0  0  0  0  0  0
  -23.6287   -8.2237   22.0746 C   0  0  0  0  0  0
  -22.4267   -8.0271   21.3543 C   0  0  0  0  0  0
  -21.9894   -9.0237   20.4642 C   0  0  0  0  0  0
  -22.7216  -10.2121   20.3044 C   0  0  0  0  0  0
  -21.6853   -6.0726   22.5273 C   0  0  0  0  0  0
  -21.4013   -6.5632   23.8208 C   0  0  0  0  0  0
  -21.3662   -5.6788   24.9170 C   0  0  0  0  0  0
  -21.6044   -4.3048   24.7220 C   0  0  0  0  0  0
  -21.8820   -3.8140   23.4342 C   0  0  0  0  0  0
  -21.9193   -4.6957   22.3399 C   0  0  0  0  0  0
  -22.7860  -13.5234   21.1833 C   0  0  0  0  0  0
  -22.1661   -4.2143   21.0978 F   0  0  0  0  0  0
  -21.5630   -3.4534   25.7735 F   0  0  0  0  0  0
  -30.0409  -13.2565   20.4633 N   0  0  0  0  0  0
  -26.3033  -12.9307   20.3375 N   0  0  0  0  0  0
  -25.9307  -11.6471   20.5747 N   0  0  0  0  0  0
  -22.0511  -12.8224   22.0400 N   0  0  0  0  0  0
  -25.4319  -15.1865   20.4099 N   0  0  0  0  0  0
  -31.7810  -14.6806   20.0752 O   0  0  0  0  0  0
  -21.6638   -6.8865   21.4237 O   0  0  0  0  0  0
  -22.3540  -14.5546   20.6697 O   0  0  0  0  0  0
  -24.6127  -31.8682   23.2118 C   0  0  0  0  0  0
  -25.9034  -32.4818   23.8403 C   0  0  1  0  0  0
  -27.2419  -27.4548   20.0981 C   0  0  0  0  0  0
  -25.5897  -33.8617   24.2337 N   0  0  0  0  0  0
  -23.4002  -30.4901   21.5506 C   0  0  2  0  0  0
  -24.8495  -28.9494   20.1230 C   0  0  0  0  0  0
  -22.7382  -29.4670   22.5010 C   0  0  0  0  0  0
  -18.0259  -28.1375   22.8488 C   0  0  0  0  0  0
  -24.1494  -36.7322   23.2629 C   0  0  0  0  0  0
  -25.9263  -30.8370   21.3634 C   0  0  0  0  0  0
  -26.0058  -29.4696   20.7192 C   0  0  0  0  0  0
  -27.2067  -28.7277   20.7067 C   0  0  0  0  0  0
  -26.0745  -26.9378   19.5041 C   0  0  0  0  0  0
  -24.8759  -27.6786   19.5178 C   0  0  0  0  0  0
  -23.6091  -29.8143   20.1679 C   0  0  0  0  0  0
  -25.4102  -36.3110   24.0341 C   0  0  1  0  0  0
  -20.5845  -28.3666   23.1323 C   0  0  2  0  0  0
  -20.6756  -26.9402   22.5425 C   0  0  0  0  0  0
  -19.5743  -26.6385   21.5215 C   0  0  0  0  0  0
  -18.1912  -26.7924   22.1610 C   0  0  0  0  0  0
  -19.1506  -28.8833   23.2904 C   0  0  0  0  0  0
  -18.9436  -30.1440   23.8917 C   0  0  0  0  0  0
  -17.6439  -30.6585   24.0563 C   0  0  0  0  0  0
  -25.9034  -34.9474   23.5142 C   0  0  0  0  0  0
  -16.5332  -29.9088   23.6326 C   0  0  0  0  0  0
  -16.7248  -28.6503   23.0348 C   0  0  0  0  0  0
  -26.4465  -31.6581   25.0716 C   0  0  0  0  0  0
  -25.3750  -31.3689   26.1488 C   0  0  0  0  0  0
  -27.0255  -30.3006   24.6083 C   0  0  0  0  0  0
  -27.6091  -32.4261   25.7437 C   0  0  0  0  0  0
  -27.5607  -37.1774   24.8429 C   0  0  0  0  0  0
  -21.4112  -29.3034   22.3732 N   0  0  0  0  0  0
  -26.4277  -37.3809   23.9441 N   0  0  0  0  0  0
  -24.6644  -31.0797   22.1009 N   0  0  0  0  0  0
  -23.4156  -28.8222   23.3058 O   0  0  0  0  0  0
  -28.4171  -26.7543   20.0000 O   0  0  0  0  0  0
  -26.5592  -34.8921   22.4701 O   0  0  0  0  0  0
  -23.5327  -32.1435   23.7526 O   0  0  0  0  0  0
  -28.5545  -19.0247   27.2350 C   0  0  0  0  0  0
  -28.5315  -17.6166   27.2555 C   0  0  0  0  0  0
  -28.8824  -19.7062   26.0470 C   0  0  0  0  0  0
  -28.8308  -16.8889   26.0877 C   0  0  0  0  0  0
  -30.5911  -18.8770   20.1814 C   0  0  0  0  0  0
  -30.5183  -17.4714   20.1899 C   0  0  0  0  0  0
  -29.5452  -19.6561   23.6946 C   0  0  0  0  0  0
  -29.4703  -16.8474   23.7277 C   0  0  0  0  0  0
  -29.1935  -18.9805   24.8777 C   0  0  0  0  0  0
  -29.1631  -17.5679   24.8968 C   0  0  0  0  0  0
  -29.8869  -18.9434   22.5175 C   0  0  0  0  0  0
  -29.8314  -17.5153   22.5309 C   0  0  0  0  0  0
  -30.2974  -19.6285   21.3386 C   0  0  0  0  0  0
  -30.1596  -16.7713   21.3641 C   0  0  0  0  0  0
  -30.5357  -21.1453   21.2990 C   0  0  0  0  0  0
  -28.5756  -24.3549   20.5163 C   0  0  0  0  0  0
  -29.4576  -23.3749   21.3274 C   0  0  0  0  0  0
  -28.6829  -25.8091   21.0337 C   0  0  0  0  0  0
  -30.0453  -15.3449   21.3676 N   0  0  0  0  0  0
  -29.3548  -21.9518   20.9082 N   0  3  0  0  0  0
  -31.4707  -12.4055   19.1169 H   0  0  0  0  0  0
  -30.3303  -11.2785   19.7908 H   0  0  0  0  0  0
  -29.7326  -11.8032   17.4145 H   0  0  0  0  0  0
  -29.6646  -13.5088   17.7828 H   0  0  0  0  0  0
  -27.8246  -11.3157   18.7994 H   0  0  0  0  0  0
  -27.3650  -12.6590   17.7871 H   0  0  0  0  0  0
  -27.7206  -14.2543   19.6055 H   0  0  0  0  0  0
  -28.6704  -11.8990   21.3064 H   0  0  0  0  0  0
  -28.4483  -13.5102   21.8959 H   0  0  0  0  0  0
  -25.2758   -9.5685   22.4731 H   0  0  0  0  0  0
  -24.0003   -7.4630   22.7460 H   0  0  0  0  0  0
  -21.0824   -8.8743   19.8949 H   0  0  0  0  0  0
  -22.3666  -10.9653   19.6144 H   0  0  0  0  0  0
  -21.2003   -7.6142   23.9710 H   0  0  0  0  0  0
  -21.1484   -6.0518   25.9075 H   0  0  0  0  0  0
  -22.0598   -2.7603   23.2842 H   0  0  0  0  0  0
  -22.4131  -11.9888   22.4795 H   0  0  0  0  0  0
  -21.1128  -13.1245   22.2618 H   0  0  0  0  0  0
  -24.6672  -15.8434   20.5210 H   0  0  0  0  0  0
  -26.2937  -15.6293   20.1157 H   0  0  0  0  0  0
  -26.7106  -32.5533   23.1168 H   0  0  0  0  0  0
  -25.0035  -33.9778   25.0471 H   0  0  0  0  0  0
  -22.6889  -31.3065   21.4059 H   0  0  0  0  0  0
  -23.3785  -35.9622   23.3200 H   0  0  0  0  0  0
  -24.3626  -36.9035   22.2065 H   0  0  0  0  0  0
  -23.7198  -37.6479   23.6701 H   0  0  0  0  0  0
  -26.0345  -31.6001   20.5920 H   0  0  0  0  0  0
  -26.8160  -30.8939   21.9790 H   0  0  0  0  0  0
  -28.1065  -29.1323   21.1482 H   0  0  0  0  0  0
  -26.1015  -25.9716   19.0205 H   0  0  0  0  0  0
  -23.9872  -27.2716   19.0553 H   0  0  0  0  0  0
  -23.7101  -30.5840   19.4015 H   0  0  0  0  0  0
  -22.7356  -29.2274   19.8770 H   0  0  0  0  0  0
  -25.1265  -36.1962   25.0828 H   0  0  0  0  0  0
  -20.9924  -28.3239   24.1449 H   0  0  0  0  0  0
  -20.5662  -26.2276   23.3617 H   0  0  0  0  0  0
  -21.6629  -26.7453   22.1214 H   0  0  0  0  0  0
  -19.6912  -25.6301   21.1239 H   0  0  0  0  0  0
  -19.6694  -27.3202   20.6755 H   0  0  0  0  0  0
  -17.4190  -26.6692   21.3996 H   0  0  0  0  0  0
  -18.0291  -26.0044   22.8982 H   0  0  0  0  0  0
  -19.7915  -30.7251   24.2293 H   0  0  0  0  0  0
  -17.4995  -31.6263   24.5168 H   0  0  0  0  0  0
  -15.5338  -30.3001   23.7649 H   0  0  0  0  0  0
  -15.8640  -28.0841   22.7053 H   0  0  0  0  0  0
  -24.5904  -30.7051   25.7832 H   0  0  0  0  0  0
  -24.8957  -32.2839   26.4978 H   0  0  0  0  0  0
  -25.8116  -30.8822   27.0221 H   0  0  0  0  0  0
  -26.2756  -29.6770   24.1194 H   0  0  0  0  0  0
  -27.4059  -29.7247   25.4534 H   0  0  0  0  0  0
  -27.8599  -30.4290   23.9184 H   0  0  0  0  0  0
  -27.2774  -33.3582   26.2019 H   0  0  0  0  0  0
  -28.3882  -32.6769   25.0223 H   0  0  0  0  0  0
  -28.0765  -31.8352   26.5323 H   0  0  0  0  0  0
  -28.2530  -38.0164   24.7629 H   0  0  0  0  0  0
  -28.1201  -36.2715   24.6048 H   0  0  0  0  0  0
  -27.2358  -37.1156   25.8829 H   0  0  0  0  0  0
  -20.9282  -29.8736   21.6931 H   0  0  0  0  0  0
  -26.0169  -38.2873   24.1530 H   0  0  0  0  0  0
  -28.3248  -19.5825   28.1330 H   0  0  0  0  0  0
  -28.2832  -17.0941   28.1690 H   0  0  0  0  0  0
  -28.8998  -20.7874   26.0415 H   0  0  0  0  0  0
  -28.8070  -15.8080   26.1143 H   0  0  0  0  0  0
  -30.9028  -19.3758   19.2738 H   0  0  0  0  0  0
  -30.7463  -16.9401   19.2766 H   0  0  0  0  0  0
  -29.5505  -20.7342   23.7241 H   0  0  0  0  0  0
  -29.4443  -15.7689   23.7724 H   0  0  0  0  0  0
  -31.3405  -21.3597   20.5942 H   0  0  0  0  0  0
  -30.9260  -21.4788   22.2603 H   0  0  0  0  0  0
  -27.5314  -24.0420   20.5298 H   0  0  0  0  0  0
  -28.8945  -24.3262   19.4738 H   0  0  0  0  0  0
  -29.2159  -23.4432   22.3890 H   0  0  0  0  0  0
  -30.4962  -23.6956   21.2279 H   0  0  0  0  0  0
  -29.7029  -26.0052   21.3658 H   0  0  0  0  0  0
  -28.0462  -25.9602   21.9082 H   0  0  0  0  0  0
  -29.2821  -14.9706   21.9097 H   0  0  0  0  0  0
  -28.5259  -21.5462   21.3106 H   0  0  0  0  0  0
  -29.2677  -21.8960   19.9067 H   0  0  0  0  0  0
  1 25  1  0  0  0
  1 30  2  0  0  0
  1 89  1  0  0  0
  2  3  1  0  0  0
  2 25  1  0  0  0
  2 91  1  0  0  0
  2 92  1  0  0  0
  3  4  1  0  0  0
  3 93  1  0  0  0
  3 94  1  0  0  0
  4  5  1  0  0  0
  4 95  1  0  0  0
  4 96  1  0  0  0
  5  6  1  0  0  0
  5 26  1  0  0  0
  5 97  1  0  0  0
  6 25  1  0  0  0
  6 98  1  0  0  0
  6 99  1  0  0  0
  7  8  2  0  0  0
  7 26  1  0  0  0
  7 29  1  0  0  0
  8  9  1  0  0  0
  8 22  1  0  0  0
  9 10  1  0  0  0
  9 27  2  0  0  0
 10 11  2  0  0  0
 10 15  1  0  0  0
 11 12  1  0  0  0
 11100  1  0  0  0
 12 13  2  0  0  0
 12101  1  0  0  0
 13 14  1  0  0  0
 13 31  1  0  0  0
 14 15  2  0  0  0
 14102  1  0  0  0
 15103  1  0  0  0
 16 17  2  0  0  0
 16 21  1  0  0  0
 16 31  1  0  0  0
 17 18  1  0  0  0
 17104  1  0  0  0
 18 19  2  0  0  0
 18105  1  0  0  0
 19 20  1  0  0  0
 19 24  1  0  0  0
 20 21  2  0  0  0
 20106  1  0  0  0
 21 23  1  0  0  0
 22 28  1  0  0  0
 22 32  2  0  0  0
 26 27  1  0  0  0
 28107  1  0  0  0
 28108  1  0  0  0
 29109  1  0  0  0
 29110  1  0  0  0
 33 34  1  0  0  0
 33 66  1  0  0  0
 33 70  2  0  0  0
 34 36  1  0  0  0
 34 59  1  0  0  0
 34111  1  0  0  0
 35 44  2  0  0  0
 35 45  1  0  0  0
 35 68  1  0  0  0
 36 56  1  0  0  0
 36112  1  0  0  0
 37 39  1  0  0  0
 37 47  1  0  0  0
 37 66  1  0  0  0
 37113  1  0  0  0
 38 43  2  0  0  0
 38 46  1  0  0  0
 38 47  1  0  0  0
 39 64  1  0  0  0
 39 67  2  0  0  0
 40 52  1  0  0  0
 40 53  2  0  0  0
 40 58  1  0  0  0
 41114  1  0  0  0
 41115  1  0  0  0
 41116  1  0  0  0
 41 48  1  0  0  0
 42 43  1  0  0  0
 42 66  1  0  0  0
 42117  1  0  0  0
 42118  1  0  0  0
 43 44  1  0  0  0
 44119  1  0  0  0
 45 46  2  0  0  0
 45120  1  0  0  0
 46121  1  0  0  0
 47122  1  0  0  0
 47123  1  0  0  0
 48 56  1  0  0  0
 48 65  1  0  0  0
 48124  1  0  0  0
 49 50  1  0  0  0
 49 53  1  0  0  0
 49 64  1  0  0  0
 49125  1  0  0  0
 50 51  1  0  0  0
 50126  1  0  0  0
 50127  1  0  0  0
 51 52  1  0  0  0
 51128  1  0  0  0
 51129  1  0  0  0
 52130  1  0  0  0
 52131  1  0  0  0
 53 54  1  0  0  0
 54 55  2  0  0  0
 54132  1  0  0  0
 55 57  1  0  0  0
 55133  1  0  0  0
 56 69  2  0  0  0
 57 58  2  0  0  0
 57134  1  0  0  0
 58135  1  0  0  0
 59 60  1  0  0  0
 59 61  1  0  0  0
 59 62  1  0  0  0
 60136  1  0  0  0
 60137  1  0  0  0
 60138  1  0  0  0
 61139  1  0  0  0
 61140  1  0  0  0
 61141  1  0  0  0
 62142  1  0  0  0
 62143  1  0  0  0
 62144  1  0  0  0
 63 65  1  0  0  0
 63145  1  0  0  0
 63146  1  0  0  0
 63147  1  0  0  0
 64148  1  0  0  0
 65149  1  0  0  0
 68 88  1  0  0  0
 71 72  2  0  0  0
 71 73  1  0  0  0
 71150  1  0  0  0
 72 74  1  0  0  0
 72151  1  0  0  0
 73 79  2  0  0  0
 73152  1  0  0  0
 74 80  2  0  0  0
 74153  1  0  0  0
 75 76  1  0  0  0
 75 83  2  0  0  0
 75154  1  0  0  0
 76 84  2  0  0  0
 76155  1  0  0  0
 77 79  1  0  0  0
 77 81  2  0  0  0
 77156  1  0  0  0
 78 80  1  0  0  0
 78 82  2  0  0  0
 78157  1  0  0  0
 79 80  1  0  0  0
 81 82  1  0  0  0
 81 83  1  0  0  0
 82 84  1  0  0  0
 83 85  1  0  0  0
 84 89  1  0  0  0
 85 90  1  0  0  0
 85158  1  0  0  0
 85159  1  0  0  0
 86 87  1  0  0  0
 86 88  1  0  0  0
 86160  1  0  0  0
 86161  1  0  0  0
 87 90  1  0  0  0
 87162  1  0  0  0
 87163  1  0  0  0
 88164  1  0  0  0
 88165  1  0  0  0
 89166  1  0  0  0
 90167  1  0  0  0
 90168  1  0  0  0
M  CHG  1  90   1
M  ISO  4   1 100  68 101  88 101  89 100
M  END
> <chiral flag>
0

> <version>
0

> <s_m_source_file>
/data/baiqing/PycharmProjects/Reinvent-master-3.2/result/LINK_invent/BTK/process_docking_weight1_custom_product_contain_oxygen_bond_distance_aromatic_linkinvent_7_9_3/rearranged_h_0006.sdf

> <i_m_source_file_index>
38

> <r_mmod_Potential_Energy-OPLS-2005>
-227.407638549805

> <r_mmod_Stretch_Energy-OPLS-2005>
40.1186828613281

> <r_mmod_Bend_Energy-OPLS-2005>
93.3717498779297

> <r_mmod_Torsional_Energy-OPLS-2005>
242.415771484375

> <r_mmod_Improper_Torsional_Energy-OPLS-2005>
2.92751693725586

> <r_mmod_Van_der_Waal_Energy-OPLS-2005>
188.058349609375

> <r_mmod_Electrostatic_Energy-OPLS-2005>
-315.7646484375

> <r_mmod_Solvation_Energy-OPLS-2005>
-486.936004638672

> <b_mmod_Minimization_Converged-OPLS-2005>
0

> <r_mmod_RMS_Derivative-OPLS-2005>
1.2655200958252

$$$$
39
                    3D
 Structure written by MMmdl.
160169  0  0  1  0            999 V2000
  -30.5766  -14.9925   20.3658 C   0  0  0  0  0  0
  -30.4448  -12.6276   19.4525 C   0  0  0  0  0  0
  -29.5058  -12.5370   18.2306 C   0  0  0  0  0  0
  -28.0473  -12.3152   18.6717 C   0  0  0  0  0  0
  -27.6282  -13.2464   19.8366 C   0  0  2  0  0  0
  -28.6931  -13.3220   20.9503 C   0  0  0  0  0  0
  -25.2505  -13.8178   20.5782 C   0  0  0  0  0  0
  -24.1804  -13.0404   20.9231 C   0  0  0  0  0  0
  -24.6433  -11.6894   20.8799 C   0  0  0  0  0  0
  -23.9109  -10.4279   21.0445 C   0  0  0  0  0  0
  -24.3652   -9.4178   21.9204 C   0  0  0  0  0  0
  -23.6307   -8.2232   22.0768 C   0  0  0  0  0  0
  -22.4288   -8.0286   21.3557 C   0  0  0  0  0  0
  -21.9946   -9.0266   20.4653 C   0  0  0  0  0  0
  -22.7296  -10.2134   20.3063 C   0  0  0  0  0  0
  -21.6841   -6.0733   22.5294 C   0  0  0  0  0  0
  -21.3998   -6.5650   23.8220 C   0  0  0  0  0  0
  -21.3660   -5.6807   24.9187 C   0  0  0  0  0  0
  -21.6047   -4.3074   24.7252 C   0  0  0  0  0  0
  -21.8811   -3.8149   23.4378 C   0  0  0  0  0  0
  -21.9195   -4.6954   22.3426 C   0  0  0  0  0  0
  -22.7824  -13.5170   21.1894 C   0  0  0  0  0  0
  -22.1653   -4.2137   21.1005 F   0  0  0  0  0  0
  -21.5633   -3.4556   25.7763 F   0  0  0  0  0  0
  -29.9502  -13.7427   20.3123 N   0  0  0  0  0  0
  -26.2948  -12.9396   20.3364 N   0  0  0  0  0  0
  -25.9375  -11.6532   20.5795 N   0  0  0  0  0  0
  -22.0470  -12.8150   22.0455 N   0  0  0  0  0  0
  -25.4166  -15.1915   20.4240 N   0  0  0  0  0  0
  -31.8033  -14.9947   20.2356 O   0  0  0  0  0  0
  -21.6646   -6.8878   21.4254 O   0  0  0  0  0  0
  -22.3503  -14.5484   20.6752 O   0  0  0  0  0  0
  -24.6436  -31.8422   23.1850 C   0  0  0  0  0  0
  -25.9204  -32.4674   23.8262 C   0  0  1  0  0  0
  -27.2240  -27.1277   20.1449 C   0  0  0  0  0  0
  -25.5979  -33.8484   24.2195 N   0  0  0  0  0  0
  -23.4473  -30.4602   21.5291 C   0  0  2  0  0  0
  -24.9021  -28.8871   20.1053 C   0  0  0  0  0  0
  -22.7567  -29.4538   22.4838 C   0  0  0  0  0  0
  -18.0302  -28.1383   22.8487 C   0  0  0  0  0  0
  -24.1493  -36.7231   23.2635 C   0  0  0  0  0  0
  -26.0019  -30.7151   21.3828 C   0  0  0  0  0  0
  -26.0754  -29.3219   20.7326 C   0  0  0  0  0  0
  -27.2345  -28.4554   20.7415 C   0  0  0  0  0  0
  -26.0297  -26.8051   19.4641 C   0  0  0  0  0  0
  -24.8919  -27.6428   19.4548 C   0  0  0  0  0  0
  -23.6749  -29.7856   20.1490 C   0  0  0  0  0  0
  -25.4112  -36.3014   24.0325 C   0  0  1  0  0  0
  -20.5922  -28.3703   23.1232 C   0  0  2  0  0  0
  -20.6785  -26.9401   22.5405 C   0  0  0  0  0  0
  -19.5750  -26.6375   21.5220 C   0  0  0  0  0  0
  -18.1931  -26.7925   22.1634 C   0  0  0  0  0  0
  -19.1565  -28.8867   23.2852 C   0  0  0  0  0  0
  -18.9491  -30.1471   23.8859 C   0  0  0  0  0  0
  -17.6483  -30.6571   24.0587 C   0  0  0  0  0  0
  -25.9078  -34.9400   23.5065 C   0  0  0  0  0  0
  -16.5374  -29.9070   23.6343 C   0  0  0  0  0  0
  -16.7293  -28.6503   23.0337 C   0  0  0  0  0  0
  -26.4532  -31.6519   25.0692 C   0  0  0  0  0  0
  -25.3716  -31.3693   26.1375 C   0  0  0  0  0  0
  -27.0391  -30.2911   24.6242 C   0  0  0  0  0  0
  -27.6091  -32.4248   25.7467 C   0  0  0  0  0  0
  -27.5549  -37.1755   24.8472 C   0  0  0  0  0  0
  -21.4260  -29.3051   22.3613 N   0  0  0  0  0  0
  -26.4257  -37.3749   23.9436 N   0  0  0  0  0  0
  -24.7168  -31.0283   22.0876 N   0  0  0  0  0  0
  -23.4225  -28.8074   23.2968 O   0  0  0  0  0  0
  -28.2760  -26.1341   20.2325 O   0  0  0  0  0  0
  -26.5662  -34.8914   22.4632 O   0  0  0  0  0  0
  -23.5553  -32.1297   23.7057 O   0  0  0  0  0  0
  -27.1555  -18.7800   21.0439 C   0  0  0  0  0  0
  -27.2902  -18.4261   19.5464 C   0  0  0  0  0  0
  -29.2190  -16.6878   19.0561 C   0  0  0  0  0  0
  -30.1273  -17.6259   20.9598 C   0  0  0  0  0  0
  -27.9357  -20.0629   21.4533 C   0  0  0  0  0  0
  -28.7550  -18.2005   19.1055 C   0  0  2  0  0  0
  -29.7120  -18.9453   20.0392 C   0  0  1  0  0  0
  -28.9156  -23.2453   20.4438 C   0  0  0  0  0  0
  -28.9244  -21.6660   19.7898 C   0  0  0  0  0  0
  -28.0908  -24.6191   19.8633 C   0  0  0  0  0  0
  -29.8483  -16.2353   20.3201 N   0  0  0  0  0  0
  -29.1626  -20.3277   20.6394 N   0  3  1  0  0  0
  -31.4657  -12.8013   19.1075 H   0  0  0  0  0  0
  -30.4658  -11.6811   19.9935 H   0  0  0  0  0  0
  -29.8231  -11.7344   17.5624 H   0  0  0  0  0  0
  -29.5729  -13.4578   17.6489 H   0  0  0  0  0  0
  -27.9597  -11.2747   18.9845 H   0  0  0  0  0  0
  -27.3690  -12.4411   17.8267 H   0  0  0  0  0  0
  -27.5616  -14.2348   19.3943 H   0  0  0  0  0  0
  -28.8088  -12.3637   21.4572 H   0  0  0  0  0  0
  -28.3982  -14.0470   21.7096 H   0  0  0  0  0  0
  -25.2796   -9.5634   22.4785 H   0  0  0  0  0  0
  -23.9991   -7.4639   22.7529 H   0  0  0  0  0  0
  -21.0851   -8.8805   19.8989 H   0  0  0  0  0  0
  -22.3767  -10.9673   19.6172 H   0  0  0  0  0  0
  -21.1951   -7.6158   23.9695 H   0  0  0  0  0  0
  -21.1486   -6.0557   25.9083 H   0  0  0  0  0  0
  -22.0579   -2.7615   23.2887 H   0  0  0  0  0  0
  -22.4060  -11.9759   22.4764 H   0  0  0  0  0  0
  -21.1093  -13.1172   22.2680 H   0  0  0  0  0  0
  -24.6508  -15.8440   20.5431 H   0  0  0  0  0  0
  -26.2852  -15.6392   20.1619 H   0  0  0  0  0  0
  -26.7267  -32.5295   23.0998 H   0  0  0  0  0  0
  -25.0207  -33.9630   25.0394 H   0  0  0  0  0  0
  -22.7496  -31.2854   21.3712 H   0  0  0  0  0  0
  -23.3773  -35.9547   23.3260 H   0  0  0  0  0  0
  -24.3586  -36.8869   22.2054 H   0  0  0  0  0  0
  -23.7221  -37.6409   23.6684 H   0  0  0  0  0  0
  -26.1472  -31.4635   20.6016 H   0  0  0  0  0  0
  -26.8793  -30.7787   22.0167 H   0  0  0  0  0  0
  -28.1228  -28.7831   21.2648 H   0  0  0  0  0  0
  -25.9377  -25.8653   18.9416 H   0  0  0  0  0  0
  -24.0011  -27.3062   18.9408 H   0  0  0  0  0  0
  -23.8020  -30.5590   19.3896 H   0  0  0  0  0  0
  -22.7948  -29.2191   19.8442 H   0  0  0  0  0  0
  -25.1276  -36.1841   25.0820 H   0  0  0  0  0  0
  -21.0041  -28.3294   24.1342 H   0  0  0  0  0  0
  -20.5680  -26.2320   23.3630 H   0  0  0  0  0  0
  -21.6634  -26.7389   22.1192 H   0  0  0  0  0  0
  -19.6913  -25.6296   21.1210 H   0  0  0  0  0  0
  -19.6658  -27.3242   20.6799 H   0  0  0  0  0  0
  -17.4194  -26.6702   21.4035 H   0  0  0  0  0  0
  -18.0297  -26.0047   22.9011 H   0  0  0  0  0  0
  -19.7981  -30.7306   24.2164 H   0  0  0  0  0  0
  -17.5043  -31.6242   24.5204 H   0  0  0  0  0  0
  -15.5372  -30.2970   23.7664 H   0  0  0  0  0  0
  -15.8710  -28.0840   22.7013 H   0  0  0  0  0  0
  -24.6029  -30.6876   25.7711 H   0  0  0  0  0  0
  -24.8758  -32.2853   26.4612 H   0  0  0  0  0  0
  -25.8011  -30.9039   27.0255 H   0  0  0  0  0  0
  -26.3009  -29.6635   24.1235 H   0  0  0  0  0  0
  -27.3992  -29.7197   25.4810 H   0  0  0  0  0  0
  -27.8924  -30.4140   23.9561 H   0  0  0  0  0  0
  -27.2754  -33.3644   26.1886 H   0  0  0  0  0  0
  -28.3977  -32.6606   25.0309 H   0  0  0  0  0  0
  -28.0660  -31.8423   26.5483 H   0  0  0  0  0  0
  -28.2546  -38.0076   24.7528 H   0  0  0  0  0  0
  -28.1042  -36.2589   24.6254 H   0  0  0  0  0  0
  -27.2260  -37.1331   25.8875 H   0  0  0  0  0  0
  -20.9445  -29.8806   21.6846 H   0  0  0  0  0  0
  -26.0095  -38.2797   24.1487 H   0  0  0  0  0  0
  -27.4791  -17.9319   21.6453 H   0  0  0  0  0  0
  -26.1035  -18.8956   21.3074 H   0  0  0  0  0  0
  -26.8771  -19.2530   18.9658 H   0  0  0  0  0  0
  -26.6789  -17.5610   19.2924 H   0  0  0  0  0  0
  -29.9819  -16.5911   18.2795 H   0  0  0  0  0  0
  -28.4118  -16.0365   18.7351 H   0  0  0  0  0  0
  -29.5954  -17.6469   21.9092 H   0  0  0  0  0  0
  -31.1797  -17.6855   21.2375 H   0  0  0  0  0  0
  -28.2168  -20.0099   22.5065 H   0  0  0  0  0  0
  -27.2570  -20.9134   21.3894 H   0  0  0  0  0  0
  -28.8492  -18.6050   18.0962 H   0  0  0  0  0  0
  -30.6002  -19.2076   19.4608 H   0  0  0  0  0  0
  -29.9676  -23.5354   20.4950 H   0  0  0  0  0  0
  -28.6176  -23.1449   21.4883 H   0  0  0  0  0  0
  -29.6510  -21.6613   18.9764 H   0  0  0  0  0  0
  -27.9748  -21.5253   19.2723 H   0  0  0  0  0  0
  -27.0458  -24.3899   20.0689 H   0  0  0  0  0  0
  -28.1731  -24.5979   18.7764 H   0  0  0  0  0  0
  -29.8767  -20.5999   21.2992 H   0  0  0  0  0  0
  1 25  1  0  0  0
  1 30  2  0  0  0
  1 81  1  0  0  0
  2  3  1  0  0  0
  2 25  1  0  0  0
  2 83  1  0  0  0
  2 84  1  0  0  0
  3  4  1  0  0  0
  3 85  1  0  0  0
  3 86  1  0  0  0
  4  5  1  0  0  0
  4 87  1  0  0  0
  4 88  1  0  0  0
  5  6  1  0  0  0
  5 26  1  0  0  0
  5 89  1  0  0  0
  6 25  1  0  0  0
  6 90  1  0  0  0
  6 91  1  0  0  0
  7  8  2  0  0  0
  7 26  1  0  0  0
  7 29  1  0  0  0
  8  9  1  0  0  0
  8 22  1  0  0  0
  9 10  1  0  0  0
  9 27  2  0  0  0
 10 11  2  0  0  0
 10 15  1  0  0  0
 11 12  1  0  0  0
 11 92  1  0  0  0
 12 13  2  0  0  0
 12 93  1  0  0  0
 13 14  1  0  0  0
 13 31  1  0  0  0
 14 15  2  0  0  0
 14 94  1  0  0  0
 15 95  1  0  0  0
 16 17  2  0  0  0
 16 21  1  0  0  0
 16 31  1  0  0  0
 17 18  1  0  0  0
 17 96  1  0  0  0
 18 19  2  0  0  0
 18 97  1  0  0  0
 19 20  1  0  0  0
 19 24  1  0  0  0
 20 21  2  0  0  0
 20 98  1  0  0  0
 21 23  1  0  0  0
 22 28  1  0  0  0
 22 32  2  0  0  0
 26 27  1  0  0  0
 28 99  1  0  0  0
 28100  1  0  0  0
 29101  1  0  0  0
 29102  1  0  0  0
 33 34  1  0  0  0
 33 66  1  0  0  0
 33 70  2  0  0  0
 34 36  1  0  0  0
 34 59  1  0  0  0
 34103  1  0  0  0
 35 44  2  0  0  0
 35 45  1  0  0  0
 35 68  1  0  0  0
 36 56  1  0  0  0
 36104  1  0  0  0
 37 39  1  0  0  0
 37 47  1  0  0  0
 37 66  1  0  0  0
 37105  1  0  0  0
 38 43  2  0  0  0
 38 46  1  0  0  0
 38 47  1  0  0  0
 39 64  1  0  0  0
 39 67  2  0  0  0
 40 52  1  0  0  0
 40 53  2  0  0  0
 40 58  1  0  0  0
 41106  1  0  0  0
 41107  1  0  0  0
 41108  1  0  0  0
 41 48  1  0  0  0
 42 43  1  0  0  0
 42 66  1  0  0  0
 42109  1  0  0  0
 42110  1  0  0  0
 43 44  1  0  0  0
 44111  1  0  0  0
 45 46  2  0  0  0
 45112  1  0  0  0
 46113  1  0  0  0
 47114  1  0  0  0
 47115  1  0  0  0
 48 56  1  0  0  0
 48 65  1  0  0  0
 48116  1  0  0  0
 49 50  1  0  0  0
 49 53  1  0  0  0
 49 64  1  0  0  0
 49117  1  0  0  0
 50 51  1  0  0  0
 50118  1  0  0  0
 50119  1  0  0  0
 51 52  1  0  0  0
 51120  1  0  0  0
 51121  1  0  0  0
 52122  1  0  0  0
 52123  1  0  0  0
 53 54  1  0  0  0
 54 55  2  0  0  0
 54124  1  0  0  0
 55 57  1  0  0  0
 55125  1  0  0  0
 56 69  2  0  0  0
 57 58  2  0  0  0
 57126  1  0  0  0
 58127  1  0  0  0
 59 60  1  0  0  0
 59 61  1  0  0  0
 59 62  1  0  0  0
 60128  1  0  0  0
 60129  1  0  0  0
 60130  1  0  0  0
 61131  1  0  0  0
 61132  1  0  0  0
 61133  1  0  0  0
 62134  1  0  0  0
 62135  1  0  0  0
 62136  1  0  0  0
 63 65  1  0  0  0
 63137  1  0  0  0
 63138  1  0  0  0
 63139  1  0  0  0
 64140  1  0  0  0
 65141  1  0  0  0
 68 80  1  0  0  0
 71 72  1  0  0  0
 71 75  1  0  0  0
 71142  1  0  0  0
 71143  1  0  0  0
 72144  1  0  0  0
 72145  1  0  0  0
 72 76  1  0  0  0
 73 76  1  0  0  0
 73 81  1  0  0  0
 73146  1  0  0  0
 73147  1  0  0  0
 74 81  1  0  0  0
 74148  1  0  0  0
 74149  1  0  0  0
 74 77  1  0  0  0
 75 82  1  0  0  0
 75150  1  0  0  0
 75151  1  0  0  0
 76 77  1  0  0  0
 76152  1  0  0  0
 77 82  1  0  0  0
 77153  1  0  0  0
 78 79  1  0  0  0
 78 80  1  0  0  0
 78154  1  0  0  0
 78155  1  0  0  0
 79156  1  0  0  0
 79157  1  0  0  0
 79 82  1  0  0  0
 80158  1  0  0  0
 80159  1  0  0  0
 82160  1  0  0  0
M  CHG  1  82   1
M  ISO  4   1 100  68 101  80 101  81 100
M  END
> <chiral flag>
0

> <version>
0

> <s_m_source_file>
/data/baiqing/PycharmProjects/Reinvent-master-3.2/result/LINK_invent/BTK/process_docking_weight1_custom_product_contain_oxygen_bond_distance_aromatic_linkinvent_7_9_3/rearranged_h_0006.sdf

> <i_m_source_file_index>
39

> <r_mmod_Potential_Energy-OPLS-2005>
751.335021972656

> <r_mmod_Stretch_Energy-OPLS-2005>
291.528991699219

> <r_mmod_Bend_Energy-OPLS-2005>
309.997009277344

> <r_mmod_Torsional_Energy-OPLS-2005>
433.729522705078

> <r_mmod_Improper_Torsional_Energy-OPLS-2005>
8.45697498321533

> <r_mmod_Van_der_Waal_Energy-OPLS-2005>
116.836479187012

> <r_mmod_Electrostatic_Energy-OPLS-2005>
-183.674743652344

> <r_mmod_Solvation_Energy-OPLS-2005>
-442.409393310547

> <b_mmod_Minimization_Converged-OPLS-2005>
0

> <r_mmod_RMS_Derivative-OPLS-2005>
4.26256418228149

$$$$
40
                    3D
 Structure written by MMmdl.
146154  0  0  1  0            999 V2000
  -30.4115  -15.2360   20.3782 C   0  0  0  0  0  0
  -30.4481  -12.7847   19.5253 C   0  0  0  0  0  0
  -29.5392  -12.5763   18.2863 C   0  0  0  0  0  0
  -28.0839  -12.3050   18.7091 C   0  0  0  0  0  0
  -27.6174  -13.2684   19.8287 C   0  0  2  0  0  0
  -28.6520  -13.4066   20.9660 C   0  0  0  0  0  0
  -25.2410  -13.8235   20.5726 C   0  0  0  0  0  0
  -24.1757  -13.0435   20.9256 C   0  0  0  0  0  0
  -24.6402  -11.6929   20.8762 C   0  0  0  0  0  0
  -23.9092  -10.4292   21.0408 C   0  0  0  0  0  0
  -24.3635   -9.4205   21.9186 C   0  0  0  0  0  0
  -23.6303   -8.2243   22.0755 C   0  0  0  0  0  0
  -22.4285   -8.0283   21.3545 C   0  0  0  0  0  0
  -21.9926   -9.0258   20.4646 C   0  0  0  0  0  0
  -22.7262  -10.2133   20.3057 C   0  0  0  0  0  0
  -21.6856   -6.0738   22.5279 C   0  0  0  0  0  0
  -21.4016   -6.5641   23.8212 C   0  0  0  0  0  0
  -21.3660   -5.6793   24.9174 C   0  0  0  0  0  0
  -21.6044   -4.3056   24.7224 C   0  0  0  0  0  0
  -21.8819   -3.8148   23.4345 C   0  0  0  0  0  0
  -21.9193   -4.6965   22.3402 C   0  0  0  0  0  0
  -22.7775  -13.5193   21.1903 C   0  0  0  0  0  0
  -22.1662   -4.2150   21.0979 F   0  0  0  0  0  0
  -21.5628   -3.4539   25.7737 F   0  0  0  0  0  0
  -29.8901  -13.9137   20.3521 N   0  0  0  0  0  0
  -26.2837  -12.9497   20.3215 N   0  0  0  0  0  0
  -25.9337  -11.6609   20.5720 N   0  0  0  0  0  0
  -22.0430  -12.8175   22.0455 N   0  0  0  0  0  0
  -25.4038  -15.1969   20.4127 N   0  0  0  0  0  0
  -31.6257  -15.2922   20.1320 O   0  0  0  0  0  0
  -21.6644   -6.8883   21.4242 O   0  0  0  0  0  0
  -22.3456  -14.5496   20.6744 O   0  0  0  0  0  0
  -24.6599  -31.8252   23.1717 C   0  0  0  0  0  0
  -25.9291  -32.4596   23.8175 C   0  0  1  0  0  0
  -27.2227  -26.9453   20.1894 C   0  0  0  0  0  0
  -25.5969  -33.8410   24.2082 N   0  0  0  0  0  0
  -23.4743  -30.4358   21.5198 C   0  0  2  0  0  0
  -24.9285  -28.8210   20.1157 C   0  0  0  0  0  0
  -22.7652  -29.4446   22.4789 C   0  0  0  0  0  0
  -18.0319  -28.1410   22.8469 C   0  0  0  0  0  0
  -24.1494  -36.7211   23.2650 C   0  0  0  0  0  0
  -26.0410  -30.6352   21.4018 C   0  0  0  0  0  0
  -26.1083  -29.2238   20.7538 C   0  0  0  0  0  0
  -27.2475  -28.3037   20.7717 C   0  0  0  0  0  0
  -26.0181  -26.6905   19.4983 C   0  0  0  0  0  0
  -24.9062  -27.5730   19.4704 C   0  0  0  0  0  0
  -23.7142  -29.7481   20.1469 C   0  0  0  0  0  0
  -25.4137  -36.2973   24.0300 C   0  0  1  0  0  0
  -20.5943  -28.3750   23.1196 C   0  0  2  0  0  0
  -20.6796  -26.9435   22.5405 C   0  0  0  0  0  0
  -19.5771  -26.6379   21.5216 C   0  0  0  0  0  0
  -18.1952  -26.7944   22.1623 C   0  0  0  0  0  0
  -19.1580  -28.8901   23.2820 C   0  0  0  0  0  0
  -18.9493  -30.1492   23.8854 C   0  0  0  0  0  0
  -17.6487  -30.6600   24.0557 C   0  0  0  0  0  0
  -25.9095  -34.9354   23.5012 C   0  0  0  0  0  0
  -16.5377  -29.9089   23.6344 C   0  0  0  0  0  0
  -16.7301  -28.6509   23.0362 C   0  0  0  0  0  0
  -26.4553  -31.6537   25.0698 C   0  0  0  0  0  0
  -25.3684  -31.3786   26.1357 C   0  0  0  0  0  0
  -27.0451  -30.2907   24.6421 C   0  0  0  0  0  0
  -27.6047  -32.4345   25.7498 C   0  0  0  0  0  0
  -27.5563  -37.1775   24.8476 C   0  0  0  0  0  0
  -21.4324  -29.3041   22.3541 N   0  0  0  0  0  0
  -26.4288  -37.3700   23.9393 N   0  0  0  0  0  0
  -24.7460  -30.9928   22.0847 N   0  0  0  0  0  0
  -23.4208  -28.8021   23.3029 O   0  0  0  0  0  0
  -28.2587  -25.8777   20.2125 O   0  0  0  0  0  0
  -26.5705  -34.8886   22.4608 O   0  0  0  0  0  0
  -23.5674  -32.1218   23.6818 O   0  0  0  0  0  0
  -28.0770  -20.3125   20.6106 C   0  0  0  0  0  0
  -28.2727  -18.8348   20.6575 C   0  0  0  0  0  0
  -30.4901  -19.0659   20.1263 C   0  0  0  0  0  0
  -29.0793  -21.3247   20.3118 C   0  0  0  0  0  0
  -29.4903  -18.0508   20.4259 C   0  0  0  0  0  0
  -30.3028  -20.5464   20.0773 C   0  0  0  0  0  0
  -29.0269  -23.0813   20.2873 C   0  0  0  0  0  0
  -29.5522  -16.4316   20.5083 N   0  0  0  0  0  0
  -27.8750  -24.2284   20.2741 N   0  0  0  0  0  0
  -31.4112  -21.2681   19.7859 F   0  0  0  0  0  0
  -31.4662  -12.9987   19.1970 H   0  0  0  0  0  0
  -30.5164  -11.8690   20.1148 H   0  0  0  0  0  0
  -29.9126  -11.7546   17.6736 H   0  0  0  0  0  0
  -29.5747  -13.4679   17.6585 H   0  0  0  0  0  0
  -28.0311  -11.2762   19.0674 H   0  0  0  0  0  0
  -27.4171  -12.3641   17.8481 H   0  0  0  0  0  0
  -27.5435  -14.2440   19.3472 H   0  0  0  0  0  0
  -28.8109  -12.4568   21.4787 H   0  0  0  0  0  0
  -28.2968  -14.1096   21.7211 H   0  0  0  0  0  0
  -25.2777   -9.5679   22.4765 H   0  0  0  0  0  0
  -24.0008   -7.4635   22.7477 H   0  0  0  0  0  0
  -21.0857   -8.8783   19.8951 H   0  0  0  0  0  0
  -22.3723  -10.9675   19.6167 H   0  0  0  0  0  0
  -21.2010   -7.6149   23.9717 H   0  0  0  0  0  0
  -21.1482   -6.0522   25.9077 H   0  0  0  0  0  0
  -22.0598   -2.7610   23.2845 H   0  0  0  0  0  0
  -22.4059  -11.9840   22.4841 H   0  0  0  0  0  0
  -21.1043  -13.1184   22.2661 H   0  0  0  0  0  0
  -24.6236  -15.8381   20.5082 H   0  0  0  0  0  0
  -26.2233  -15.6315   20.0105 H   0  0  0  0  0  0
  -26.7358  -32.5141   23.0889 H   0  0  0  0  0  0
  -25.0068  -33.9492   25.0200 H   0  0  0  0  0  0
  -22.7866  -31.2665   21.3481 H   0  0  0  0  0  0
  -23.3754  -35.9547   23.3323 H   0  0  0  0  0  0
  -24.3558  -36.8842   22.2062 H   0  0  0  0  0  0
  -23.7264  -37.6410   23.6696 H   0  0  0  0  0  0
  -26.2181  -31.3735   20.6186 H   0  0  0  0  0  0
  -26.9027  -30.6955   22.0546 H   0  0  0  0  0  0
  -28.1447  -28.6119   21.2895 H   0  0  0  0  0  0
  -25.9133  -25.7382   18.9981 H   0  0  0  0  0  0
  -24.0108  -27.2596   18.9514 H   0  0  0  0  0  0
  -23.8689  -30.5148   19.3868 H   0  0  0  0  0  0
  -22.8246  -29.2006   19.8306 H   0  0  0  0  0  0
  -25.1340  -36.1779   25.0794 H   0  0  0  0  0  0
  -21.0030  -28.3358   24.1319 H   0  0  0  0  0  0
  -20.5680  -26.2369   23.3643 H   0  0  0  0  0  0
  -21.6660  -26.7414   22.1210 H   0  0  0  0  0  0
  -19.6931  -25.6279   21.1274 H   0  0  0  0  0  0
  -19.6711  -27.3167   20.6729 H   0  0  0  0  0  0
  -17.4221  -26.6687   21.4027 H   0  0  0  0  0  0
  -18.0347  -26.0098   22.9032 H   0  0  0  0  0  0
  -19.7969  -30.7320   24.2202 H   0  0  0  0  0  0
  -17.5039  -31.6276   24.5167 H   0  0  0  0  0  0
  -15.5376  -30.2977   23.7695 H   0  0  0  0  0  0
  -15.8701  -28.0813   22.7102 H   0  0  0  0  0  0
  -24.5880  -30.7118   25.7669 H   0  0  0  0  0  0
  -24.8857  -32.2987   26.4660 H   0  0  0  0  0  0
  -25.7919  -30.9036   27.0216 H   0  0  0  0  0  0
  -26.3118  -29.6581   24.1407 H   0  0  0  0  0  0
  -27.3972  -29.7270   25.5071 H   0  0  0  0  0  0
  -27.9061  -30.4096   23.9840 H   0  0  0  0  0  0
  -27.2617  -33.3690   26.1950 H   0  0  0  0  0  0
  -28.3922  -32.6832   25.0372 H   0  0  0  0  0  0
  -28.0642  -31.8555   26.5518 H   0  0  0  0  0  0
  -28.2603  -38.0046   24.7459 H   0  0  0  0  0  0
  -28.1035  -36.2569   24.6391 H   0  0  0  0  0  0
  -27.2265  -37.1524   25.8877 H   0  0  0  0  0  0
  -20.9575  -29.8722   21.6665 H   0  0  0  0  0  0
  -26.0142  -38.2769   24.1361 H   0  0  0  0  0  0
  -27.0829  -20.6747   20.8318 H   0  0  0  0  0  0
  -27.3873  -18.2646   20.9024 H   0  0  0  0  0  0
  -31.4875  -18.7080   19.9168 H   0  0  0  0  0  0
  -29.6395  -23.3299   19.4203 H   0  0  0  0  0  0
  -29.6521  -23.3551   21.1378 H   0  0  0  0  0  0
  -28.6295  -16.0752   20.7059 H   0  0  0  0  0  0
  -27.3230  -24.1215   21.1210 H   0  0  0  0  0  0
  1 25  1  0  0  0
  1 30  2  0  0  0
  1 78  1  0  0  0
  2  3  1  0  0  0
  2 25  1  0  0  0
  2 81  1  0  0  0
  2 82  1  0  0  0
  3  4  1  0  0  0
  3 83  1  0  0  0
  3 84  1  0  0  0
  4  5  1  0  0  0
  4 85  1  0  0  0
  4 86  1  0  0  0
  5  6  1  0  0  0
  5 26  1  0  0  0
  5 87  1  0  0  0
  6 25  1  0  0  0
  6 88  1  0  0  0
  6 89  1  0  0  0
  7  8  2  0  0  0
  7 26  1  0  0  0
  7 29  1  0  0  0
  8  9  1  0  0  0
  8 22  1  0  0  0
  9 10  1  0  0  0
  9 27  2  0  0  0
 10 11  2  0  0  0
 10 15  1  0  0  0
 11 12  1  0  0  0
 11 90  1  0  0  0
 12 13  2  0  0  0
 12 91  1  0  0  0
 13 14  1  0  0  0
 13 31  1  0  0  0
 14 15  2  0  0  0
 14 92  1  0  0  0
 15 93  1  0  0  0
 16 17  2  0  0  0
 16 21  1  0  0  0
 16 31  1  0  0  0
 17 18  1  0  0  0
 17 94  1  0  0  0
 18 19  2  0  0  0
 18 95  1  0  0  0
 19 20  1  0  0  0
 19 24  1  0  0  0
 20 21  2  0  0  0
 20 96  1  0  0  0
 21 23  1  0  0  0
 22 28  1  0  0  0
 22 32  2  0  0  0
 26 27  1  0  0  0
 28 97  1  0  0  0
 28 98  1  0  0  0
 29 99  1  0  0  0
 29100  1  0  0  0
 33 34  1  0  0  0
 33 66  1  0  0  0
 33 70  2  0  0  0
 34 36  1  0  0  0
 34 59  1  0  0  0
 34101  1  0  0  0
 35 44  2  0  0  0
 35 45  1  0  0  0
 35 68  1  0  0  0
 36 56  1  0  0  0
 36102  1  0  0  0
 37 39  1  0  0  0
 37 47  1  0  0  0
 37 66  1  0  0  0
 37103  1  0  0  0
 38 43  2  0  0  0
 38 46  1  0  0  0
 38 47  1  0  0  0
 39 64  1  0  0  0
 39 67  2  0  0  0
 40 52  1  0  0  0
 40 53  2  0  0  0
 40 58  1  0  0  0
 41104  1  0  0  0
 41105  1  0  0  0
 41106  1  0  0  0
 41 48  1  0  0  0
 42 43  1  0  0  0
 42 66  1  0  0  0
 42107  1  0  0  0
 42108  1  0  0  0
 43 44  1  0  0  0
 44109  1  0  0  0
 45 46  2  0  0  0
 45110  1  0  0  0
 46111  1  0  0  0
 47112  1  0  0  0
 47113  1  0  0  0
 48 56  1  0  0  0
 48 65  1  0  0  0
 48114  1  0  0  0
 49 50  1  0  0  0
 49 53  1  0  0  0
 49 64  1  0  0  0
 49115  1  0  0  0
 50 51  1  0  0  0
 50116  1  0  0  0
 50117  1  0  0  0
 51 52  1  0  0  0
 51118  1  0  0  0
 51119  1  0  0  0
 52120  1  0  0  0
 52121  1  0  0  0
 53 54  1  0  0  0
 54 55  2  0  0  0
 54122  1  0  0  0
 55 57  1  0  0  0
 55123  1  0  0  0
 56 69  2  0  0  0
 57 58  2  0  0  0
 57124  1  0  0  0
 58125  1  0  0  0
 59 60  1  0  0  0
 59 61  1  0  0  0
 59 62  1  0  0  0
 60126  1  0  0  0
 60127  1  0  0  0
 60128  1  0  0  0
 61129  1  0  0  0
 61130  1  0  0  0
 61131  1  0  0  0
 62132  1  0  0  0
 62133  1  0  0  0
 62134  1  0  0  0
 63 65  1  0  0  0
 63135  1  0  0  0
 63136  1  0  0  0
 63137  1  0  0  0
 64138  1  0  0  0
 65139  1  0  0  0
 68 79  1  0  0  0
 71 72  2  0  0  0
 71 74  1  0  0  0
 71140  1  0  0  0
 72 75  1  0  0  0
 72141  1  0  0  0
 73 75  2  0  0  0
 73 76  1  0  0  0
 73142  1  0  0  0
 74 76  2  0  0  0
 74 77  1  0  0  0
 75 78  1  0  0  0
 76 80  1  0  0  0
 77 79  1  0  0  0
 77143  1  0  0  0
 77144  1  0  0  0
 78145  1  0  0  0
 79146  1  0  0  0
M  ISO  4   1 100  68 101  78 100  79 101
M  END
> <chiral flag>
0

> <version>
0

> <s_m_source_file>
/data/baiqing/PycharmProjects/Reinvent-master-3.2/result/LINK_invent/BTK/process_docking_weight1_custom_product_contain_oxygen_bond_distance_aromatic_linkinvent_7_9_3/rearranged_h_0006.sdf

> <i_m_source_file_index>
40

> <r_mmod_Potential_Energy-OPLS-2005>
1131.50427246094

> <r_mmod_Stretch_Energy-OPLS-2005>
494.5185546875

> <r_mmod_Bend_Energy-OPLS-2005>
431.97265625

> <r_mmod_Torsional_Energy-OPLS-2005>
213.545684814453

> <r_mmod_Improper_Torsional_Energy-OPLS-2005>
3.83938789367676

> <r_mmod_Van_der_Waal_Energy-OPLS-2005>
127.036819458008

> <r_mmod_Electrostatic_Energy-OPLS-2005>
-344.446197509766

> <r_mmod_Solvation_Energy-OPLS-2005>
-220.450500488281

> <b_mmod_Minimization_Converged-OPLS-2005>
0

> <r_mmod_RMS_Derivative-OPLS-2005>
0.236234650015831

$$$$
41
                    3D
 Structure written by MMmdl.
176186  0  0  1  0            999 V2000
  -30.7053  -14.4768   20.5017 C   0  0  0  0  0  0
  -30.4186  -12.2935   19.4151 C   0  0  0  0  0  0
  -29.4857  -12.4806   18.1995 C   0  0  0  0  0  0
  -28.0072  -12.3577   18.6158 C   0  0  0  0  0  0
  -27.6565  -13.1991   19.8741 C   0  0  2  0  0  0
  -28.7109  -13.0176   20.9925 C   0  0  0  0  0  0
  -25.2569  -13.8131   20.5692 C   0  0  0  0  0  0
  -24.1823  -13.0411   20.9195 C   0  0  0  0  0  0
  -24.6390  -11.6877   20.8779 C   0  0  0  0  0  0
  -23.9045  -10.4277   21.0415 C   0  0  0  0  0  0
  -24.3595   -9.4182   21.9176 C   0  0  0  0  0  0
  -23.6288   -8.2216   22.0737 C   0  0  0  0  0  0
  -22.4280   -8.0258   21.3525 C   0  0  0  0  0  0
  -21.9911   -9.0225   20.4624 C   0  0  0  0  0  0
  -22.7231  -10.2112   20.3040 C   0  0  0  0  0  0
  -21.6858   -6.0726   22.5277 C   0  0  0  0  0  0
  -21.4020   -6.5622   23.8212 C   0  0  0  0  0  0
  -21.3660   -5.6772   24.9167 C   0  0  0  0  0  0
  -21.6052   -4.3044   24.7227 C   0  0  0  0  0  0
  -21.8823   -3.8137   23.4352 C   0  0  0  0  0  0
  -21.9196   -4.6954   22.3408 C   0  0  0  0  0  0
  -22.7843  -13.5207   21.1836 C   0  0  0  0  0  0
  -22.1651   -4.2142   21.0985 F   0  0  0  0  0  0
  -21.5642   -3.4527   25.7742 F   0  0  0  0  0  0
  -30.0351  -13.2975   20.4168 N   0  0  0  0  0  0
  -26.3017  -12.9283   20.3433 N   0  0  0  0  0  0
  -25.9320  -11.6456   20.5837 N   0  0  0  0  0  0
  -22.0463  -12.8213   22.0394 N   0  0  0  0  0  0
  -25.4257  -15.1855   20.4059 N   0  0  0  0  0  0
  -31.8870  -14.6035   20.1672 O   0  0  0  0  0  0
  -21.6638   -6.8860   21.4232 O   0  0  0  0  0  0
  -22.3523  -14.5495   20.6660 O   0  0  0  0  0  0
  -24.6140  -31.8691   23.2114 C   0  0  0  0  0  0
  -25.9029  -32.4832   23.8416 C   0  0  1  0  0  0
  -27.2473  -27.4623   20.0871 C   0  0  0  0  0  0
  -25.5885  -33.8636   24.2342 N   0  0  0  0  0  0
  -23.4025  -30.4911   21.5513 C   0  0  2  0  0  0
  -24.8537  -28.9603   20.1172 C   0  0  0  0  0  0
  -22.7407  -29.4654   22.5002 C   0  0  0  0  0  0
  -18.0274  -28.1381   22.8492 C   0  0  0  0  0  0
  -24.1471  -36.7299   23.2639 C   0  0  0  0  0  0
  -25.9285  -30.8442   21.3614 C   0  0  0  0  0  0
  -26.0127  -29.4813   20.7070 C   0  0  0  0  0  0
  -27.2169  -28.7432   20.6895 C   0  0  0  0  0  0
  -26.0675  -26.9448   19.5176 C   0  0  0  0  0  0
  -24.8735  -27.6886   19.5209 C   0  0  0  0  0  0
  -23.6124  -29.8218   20.1666 C   0  0  0  0  0  0
  -25.4092  -36.3121   24.0345 C   0  0  1  0  0  0
  -20.5863  -28.3662   23.1318 C   0  0  2  0  0  0
  -20.6757  -26.9397   22.5424 C   0  0  0  0  0  0
  -19.5741  -26.6385   21.5212 C   0  0  0  0  0  0
  -18.1913  -26.7930   22.1613 C   0  0  0  0  0  0
  -19.1520  -28.8839   23.2902 C   0  0  0  0  0  0
  -18.9449  -30.1441   23.8918 C   0  0  0  0  0  0
  -17.6452  -30.6580   24.0574 C   0  0  0  0  0  0
  -25.9026  -34.9479   23.5140 C   0  0  0  0  0  0
  -16.5346  -29.9090   23.6329 C   0  0  0  0  0  0
  -16.7260  -28.6506   23.0348 C   0  0  0  0  0  0
  -26.4460  -31.6601   25.0729 C   0  0  0  0  0  0
  -25.3734  -31.3684   26.1479 C   0  0  0  0  0  0
  -27.0301  -30.3058   24.6084 C   0  0  0  0  0  0
  -27.6037  -32.4318   25.7496 C   0  0  0  0  0  0
  -27.5578  -37.1797   24.8458 C   0  0  0  0  0  0
  -21.4145  -29.3031   22.3732 N   0  0  0  0  0  0
  -26.4276  -37.3803   23.9427 N   0  0  0  0  0  0
  -24.6664  -31.0818   22.1007 N   0  0  0  0  0  0
  -23.4184  -28.8209   23.3053 O   0  0  0  0  0  0
  -28.3548  -26.6482   20.0465 O   0  0  0  0  0  0
  -26.5596  -34.8932   22.4712 O   0  0  0  0  0  0
  -23.5330  -32.1433   23.7511 O   0  0  0  0  0  0
  -31.4330  -21.8167   19.9144 C   0  0  0  0  0  0
  -31.0703  -20.5192   20.3382 C   0  0  0  0  0  0
  -29.2699  -22.0659   18.8405 C   0  0  0  0  0  0
  -30.5500  -22.5830   19.1243 C   0  0  0  0  0  0
  -29.8185  -19.9650   19.9841 C   0  0  0  0  0  0
  -28.9038  -20.7679   19.2518 C   0  0  0  0  0  0
  -30.7376  -25.0220   16.3418 C   0  0  0  0  0  0
  -31.1809  -23.6965   16.9445 C   0  0  0  0  0  0
  -30.1257  -17.6509   19.0901 C   0  0  0  0  0  0
  -29.9917  -17.8613   21.5599 C   0  0  0  0  0  0
  -29.6404  -16.2013   19.1617 C   0  0  0  0  0  0
  -29.5781  -16.3650   21.6684 C   0  0  0  0  0  0
  -29.6664  -25.4968   17.3182 C   0  0  0  0  0  0
  -29.5239  -18.4772   20.2268 C   0  0  0  0  0  0
  -31.0181  -23.8828   18.4652 C   0  0  1  0  0  0
  -27.5475  -20.2402   18.8121 C   0  0  0  0  0  0
  -30.6318  -26.1037   19.5538 C   0  0  0  0  0  0
  -29.6293  -27.2433   19.8524 C   0  0  0  0  0  0
  -29.9003  -15.5654   20.4680 N   0  0  0  0  0  0
  -30.0882  -25.0329   18.6645 N   0  3  1  0  0  0
  -31.4607  -12.3902   19.1045 H   0  0  0  0  0  0
  -30.3173  -11.2889   19.8287 H   0  0  0  0  0  0
  -29.7179  -11.7424   17.4316 H   0  0  0  0  0  0
  -29.6616  -13.4542   17.7391 H   0  0  0  0  0  0
  -27.8050  -11.3022   18.8037 H   0  0  0  0  0  0
  -27.3606  -12.6441   17.7860 H   0  0  0  0  0  0
  -27.6735  -14.2395   19.5665 H   0  0  0  0  0  0
  -28.6875  -11.9995   21.3850 H   0  0  0  0  0  0
  -28.4972  -13.6786   21.8355 H   0  0  0  0  0  0
  -25.2741   -9.5671   22.4748 H   0  0  0  0  0  0
  -24.0014   -7.4605   22.7450 H   0  0  0  0  0  0
  -21.0850   -8.8728   19.8923 H   0  0  0  0  0  0
  -22.3688  -10.9634   19.6146 H   0  0  0  0  0  0
  -21.1997   -7.6130   23.9721 H   0  0  0  0  0  0
  -21.1482   -6.0493   25.9069 H   0  0  0  0  0  0
  -22.0617   -2.7606   23.2850 H   0  0  0  0  0  0
  -22.4072  -11.9912   22.4860 H   0  0  0  0  0  0
  -21.1048  -13.1202   22.2508 H   0  0  0  0  0  0
  -24.6536  -15.8358   20.5083 H   0  0  0  0  0  0
  -26.2858  -15.6345   20.1179 H   0  0  0  0  0  0
  -26.7111  -32.5558   23.1197 H   0  0  0  0  0  0
  -25.0041  -33.9803   25.0488 H   0  0  0  0  0  0
  -22.6901  -31.3069   21.4103 H   0  0  0  0  0  0
  -23.3751  -35.9614   23.3294 H   0  0  0  0  0  0
  -24.3572  -36.8921   22.2056 H   0  0  0  0  0  0
  -23.7198  -37.6489   23.6656 H   0  0  0  0  0  0
  -26.0383  -31.6126   20.5955 H   0  0  0  0  0  0
  -26.8163  -30.8996   21.9788 H   0  0  0  0  0  0
  -28.1019  -29.1532   21.1549 H   0  0  0  0  0  0
  -26.0760  -25.9625   19.0663 H   0  0  0  0  0  0
  -23.9812  -27.2765   19.0715 H   0  0  0  0  0  0
  -23.7187  -30.5963   19.4063 H   0  0  0  0  0  0
  -22.7385  -29.2389   19.8702 H   0  0  0  0  0  0
  -25.1271  -36.1978   25.0836 H   0  0  0  0  0  0
  -20.9948  -28.3219   24.1441 H   0  0  0  0  0  0
  -20.5645  -26.2268   23.3615 H   0  0  0  0  0  0
  -21.6632  -26.7427   22.1221 H   0  0  0  0  0  0
  -19.6898  -25.6297   21.1232 H   0  0  0  0  0  0
  -19.6691  -27.3209   20.6751 H   0  0  0  0  0  0
  -17.4195  -26.6701   21.3999 H   0  0  0  0  0  0
  -18.0291  -26.0059   22.8990 H   0  0  0  0  0  0
  -19.7934  -30.7257   24.2292 H   0  0  0  0  0  0
  -17.5009  -31.6262   24.5170 H   0  0  0  0  0  0
  -15.5347  -30.2996   23.7646 H   0  0  0  0  0  0
  -15.8654  -28.0832   22.7051 H   0  0  0  0  0  0
  -24.5922  -30.7016   25.7804 H   0  0  0  0  0  0
  -24.8907  -32.2829   26.4934 H   0  0  0  0  0  0
  -25.8093  -30.8850   27.0229 H   0  0  0  0  0  0
  -26.2847  -29.6814   24.1144 H   0  0  0  0  0  0
  -27.4099  -29.7288   25.4523 H   0  0  0  0  0  0
  -27.8658  -30.4398   23.9215 H   0  0  0  0  0  0
  -27.2664  -33.3617   26.2083 H   0  0  0  0  0  0
  -28.3842  -32.6878   25.0318 H   0  0  0  0  0  0
  -28.0705  -31.8434   26.5403 H   0  0  0  0  0  0
  -28.2570  -38.0121   24.7566 H   0  0  0  0  0  0
  -28.1108  -36.2664   24.6207 H   0  0  0  0  0  0
  -27.2318  -37.1347   25.8865 H   0  0  0  0  0  0
  -20.9303  -29.8747   21.6948 H   0  0  0  0  0  0
  -26.0162  -38.2873   24.1482 H   0  0  0  0  0  0
  -32.4228  -22.1877   20.1428 H   0  0  0  0  0  0
  -31.7966  -19.9246   20.8756 H   0  0  0  0  0  0
  -28.5861  -22.6372   18.2301 H   0  0  0  0  0  0
  -30.3607  -24.9160   15.3239 H   0  0  0  0  0  0
  -31.5714  -25.7248   16.3251 H   0  0  0  0  0  0
  -32.1953  -23.4126   16.6613 H   0  0  0  0  0  0
  -30.5148  -22.9151   16.5751 H   0  0  0  0  0  0
  -29.8388  -18.0729   18.1262 H   0  0  0  0  0  0
  -31.2158  -17.6895   19.1278 H   0  0  0  0  0  0
  -31.0749  -17.9387   21.6624 H   0  0  0  0  0  0
  -29.5647  -18.4181   22.3954 H   0  0  0  0  0  0
  -30.1045  -15.6446   18.3439 H   0  0  0  0  0  0
  -28.5697  -16.1767   18.9672 H   0  0  0  0  0  0
  -28.5002  -16.2983   21.8295 H   0  0  0  0  0  0
  -30.0402  -15.9280   22.5544 H   0  0  0  0  0  0
  -28.7192  -25.0103   17.0808 H   0  0  0  0  0  0
  -29.4926  -26.5688   17.2384 H   0  0  0  0  0  0
  -28.4444  -18.3389   20.2152 H   0  0  0  0  0  0
  -31.9961  -24.1478   18.8688 H   0  0  0  0  0  0
  -27.0194  -20.9666   18.1942 H   0  0  0  0  0  0
  -26.9184  -20.0208   19.6749 H   0  0  0  0  0  0
  -27.6590  -19.3310   18.2208 H   0  0  0  0  0  0
  -30.9113  -25.6389   20.4999 H   0  0  0  0  0  0
  -31.5461  -26.5220   19.1314 H   0  0  0  0  0  0
  -29.5906  -27.9552   19.0265 H   0  0  0  0  0  0
  -29.9432  -27.7958   20.7388 H   0  0  0  0  0  0
  -29.2637  -24.6803   19.1302 H   0  0  0  0  0  0
  1 25  1  0  0  0
  1 30  2  0  0  0
  1 89  1  0  0  0
  2  3  1  0  0  0
  2 25  1  0  0  0
  2 91  1  0  0  0
  2 92  1  0  0  0
  3  4  1  0  0  0
  3 93  1  0  0  0
  3 94  1  0  0  0
  4  5  1  0  0  0
  4 95  1  0  0  0
  4 96  1  0  0  0
  5  6  1  0  0  0
  5 26  1  0  0  0
  5 97  1  0  0  0
  6 25  1  0  0  0
  6 98  1  0  0  0
  6 99  1  0  0  0
  7  8  2  0  0  0
  7 26  1  0  0  0
  7 29  1  0  0  0
  8  9  1  0  0  0
  8 22  1  0  0  0
  9 10  1  0  0  0
  9 27  2  0  0  0
 10 11  2  0  0  0
 10 15  1  0  0  0
 11 12  1  0  0  0
 11100  1  0  0  0
 12 13  2  0  0  0
 12101  1  0  0  0
 13 14  1  0  0  0
 13 31  1  0  0  0
 14 15  2  0  0  0
 14102  1  0  0  0
 15103  1  0  0  0
 16 17  2  0  0  0
 16 21  1  0  0  0
 16 31  1  0  0  0
 17 18  1  0  0  0
 17104  1  0  0  0
 18 19  2  0  0  0
 18105  1  0  0  0
 19 20  1  0  0  0
 19 24  1  0  0  0
 20 21  2  0  0  0
 20106  1  0  0  0
 21 23  1  0  0  0
 22 28  1  0  0  0
 22 32  2  0  0  0
 26 27  1  0  0  0
 28107  1  0  0  0
 28108  1  0  0  0
 29109  1  0  0  0
 29110  1  0  0  0
 33 34  1  0  0  0
 33 66  1  0  0  0
 33 70  2  0  0  0
 34 36  1  0  0  0
 34 59  1  0  0  0
 34111  1  0  0  0
 35 44  2  0  0  0
 35 45  1  0  0  0
 35 68  1  0  0  0
 36 56  1  0  0  0
 36112  1  0  0  0
 37 39  1  0  0  0
 37 47  1  0  0  0
 37 66  1  0  0  0
 37113  1  0  0  0
 38 43  2  0  0  0
 38 46  1  0  0  0
 38 47  1  0  0  0
 39 64  1  0  0  0
 39 67  2  0  0  0
 40 52  1  0  0  0
 40 53  2  0  0  0
 40 58  1  0  0  0
 41114  1  0  0  0
 41115  1  0  0  0
 41116  1  0  0  0
 41 48  1  0  0  0
 42 43  1  0  0  0
 42 66  1  0  0  0
 42117  1  0  0  0
 42118  1  0  0  0
 43 44  1  0  0  0
 44119  1  0  0  0
 45 46  2  0  0  0
 45120  1  0  0  0
 46121  1  0  0  0
 47122  1  0  0  0
 47123  1  0  0  0
 48 56  1  0  0  0
 48 65  1  0  0  0
 48124  1  0  0  0
 49 50  1  0  0  0
 49 53  1  0  0  0
 49 64  1  0  0  0
 49125  1  0  0  0
 50 51  1  0  0  0
 50126  1  0  0  0
 50127  1  0  0  0
 51 52  1  0  0  0
 51128  1  0  0  0
 51129  1  0  0  0
 52130  1  0  0  0
 52131  1  0  0  0
 53 54  1  0  0  0
 54 55  2  0  0  0
 54132  1  0  0  0
 55 57  1  0  0  0
 55133  1  0  0  0
 56 69  2  0  0  0
 57 58  2  0  0  0
 57134  1  0  0  0
 58135  1  0  0  0
 59 60  1  0  0  0
 59 61  1  0  0  0
 59 62  1  0  0  0
 60136  1  0  0  0
 60137  1  0  0  0
 60138  1  0  0  0
 61139  1  0  0  0
 61140  1  0  0  0
 61141  1  0  0  0
 62142  1  0  0  0
 62143  1  0  0  0
 62144  1  0  0  0
 63 65  1  0  0  0
 63145  1  0  0  0
 63146  1  0  0  0
 63147  1  0  0  0
 64148  1  0  0  0
 65149  1  0  0  0
 68 88  1  0  0  0
 71 72  2  0  0  0
 71 74  1  0  0  0
 71150  1  0  0  0
 72 75  1  0  0  0
 72151  1  0  0  0
 73 74  2  0  0  0
 73 76  1  0  0  0
 73152  1  0  0  0
 74 85  1  0  0  0
 75 76  2  0  0  0
 75 84  1  0  0  0
 76 86  1  0  0  0
 77 78  1  0  0  0
 77 83  1  0  0  0
 77153  1  0  0  0
 77154  1  0  0  0
 78 85  1  0  0  0
 78155  1  0  0  0
 78156  1  0  0  0
 79 81  1  0  0  0
 79 84  1  0  0  0
 79157  1  0  0  0
 79158  1  0  0  0
 80 82  1  0  0  0
 80 84  1  0  0  0
 80159  1  0  0  0
 80160  1  0  0  0
 81 89  1  0  0  0
 81161  1  0  0  0
 81162  1  0  0  0
 82 89  1  0  0  0
 82163  1  0  0  0
 82164  1  0  0  0
 83 90  1  0  0  0
 83165  1  0  0  0
 83166  1  0  0  0
 84167  1  0  0  0
 85 90  1  0  0  0
 85168  1  0  0  0
 86169  1  0  0  0
 86170  1  0  0  0
 86171  1  0  0  0
 87 88  1  0  0  0
 87172  1  0  0  0
 87173  1  0  0  0
 87 90  1  0  0  0
 88174  1  0  0  0
 88175  1  0  0  0
 90176  1  0  0  0
M  CHG  1  90   1
M  ISO  4   1 100  68 101  88 101  89 100
M  END
> <chiral flag>
0

> <version>
0

> <s_m_source_file>
/data/baiqing/PycharmProjects/Reinvent-master-3.2/result/LINK_invent/BTK/process_docking_weight1_custom_product_contain_oxygen_bond_distance_aromatic_linkinvent_7_9_3/rearranged_h_0006.sdf

> <i_m_source_file_index>
41

> <r_mmod_Potential_Energy-OPLS-2005>
170.191604614258

> <r_mmod_Stretch_Energy-OPLS-2005>
38.7967529296875

> <r_mmod_Bend_Energy-OPLS-2005>
125.511024475098

> <r_mmod_Torsional_Energy-OPLS-2005>
426.289337158203

> <r_mmod_Improper_Torsional_Energy-OPLS-2005>
17.8356838226318

> <r_mmod_Van_der_Waal_Energy-OPLS-2005>
148.239730834961

> <r_mmod_Electrostatic_Energy-OPLS-2005>
-215.193862915039

> <r_mmod_Solvation_Energy-OPLS-2005>
-387.702423095703

> <b_mmod_Minimization_Converged-OPLS-2005>
0

> <r_mmod_RMS_Derivative-OPLS-2005>
2.60003781318665

$$$$
42
                    3D
 Structure written by MMmdl.
160168  0  0  1  0            999 V2000
  -30.5872  -14.7523   20.4565 C   0  0  0  0  0  0
  -30.4410  -12.4565   19.4722 C   0  0  0  0  0  0
  -29.5166  -12.4825   18.2348 C   0  0  0  0  0  0
  -28.0423  -12.3023   18.6519 C   0  0  0  0  0  0
  -27.6401  -13.2196   19.8361 C   0  0  2  0  0  0
  -28.6825  -13.1649   20.9730 C   0  0  0  0  0  0
  -25.2535  -13.8163   20.5665 C   0  0  0  0  0  0
  -24.1820  -13.0435   20.9231 C   0  0  0  0  0  0
  -24.6385  -11.6908   20.8781 C   0  0  0  0  0  0
  -23.9064  -10.4294   21.0423 C   0  0  0  0  0  0
  -24.3622   -9.4205   21.9193 C   0  0  0  0  0  0
  -23.6297   -8.2244   22.0753 C   0  0  0  0  0  0
  -22.4285   -8.0283   21.3541 C   0  0  0  0  0  0
  -21.9924   -9.0248   20.4634 C   0  0  0  0  0  0
  -22.7251  -10.2127   20.3044 C   0  0  0  0  0  0
  -21.6835   -6.0746   22.5290 C   0  0  0  0  0  0
  -21.4002   -6.5642   23.8235 C   0  0  0  0  0  0
  -21.3660   -5.6786   24.9191 C   0  0  0  0  0  0
  -21.6043   -4.3052   24.7221 C   0  0  0  0  0  0
  -21.8822   -3.8150   23.4338 C   0  0  0  0  0  0
  -21.9195   -4.6975   22.3399 C   0  0  0  0  0  0
  -22.7845  -13.5233   21.1879 C   0  0  0  0  0  0
  -22.1660   -4.2172   21.0972 F   0  0  0  0  0  0
  -21.5635   -3.4519   25.7725 F   0  0  0  0  0  0
  -29.9801  -13.5219   20.3892 N   0  0  0  0  0  0
  -26.2928  -12.9339   20.3194 N   0  0  0  0  0  0
  -25.9305  -11.6504   20.5730 N   0  0  0  0  0  0
  -22.0441  -12.8238   22.0400 N   0  0  0  0  0  0
  -25.4197  -15.1881   20.4009 N   0  0  0  0  0  0
  -31.7895  -14.8512   20.1866 O   0  0  0  0  0  0
  -21.6628   -6.8894   21.4254 O   0  0  0  0  0  0
  -22.3557  -14.5535   20.6706 O   0  0  0  0  0  0
  -24.6291  -31.8556   23.1924 C   0  0  0  0  0  0
  -25.9133  -32.4741   23.8256 C   0  0  1  0  0  0
  -27.2179  -27.2711   20.1216 C   0  0  0  0  0  0
  -25.5951  -33.8551   24.2183 N   0  0  0  0  0  0
  -23.4236  -30.4724   21.5377 C   0  0  2  0  0  0
  -24.8674  -28.9149   20.1053 C   0  0  0  0  0  0
  -22.7501  -29.4584   22.4945 C   0  0  0  0  0  0
  -18.0268  -28.1396   22.8490 C   0  0  0  0  0  0
  -24.1491  -36.7272   23.2631 C   0  0  0  0  0  0
  -25.9646  -30.7699   21.3658 C   0  0  0  0  0  0
  -26.0365  -29.3909   20.7153 C   0  0  0  0  0  0
  -27.2121  -28.5796   20.7142 C   0  0  0  0  0  0
  -26.0283  -26.8569   19.4858 C   0  0  0  0  0  0
  -24.8698  -27.6599   19.4782 C   0  0  0  0  0  0
  -23.6364  -29.7961   20.1556 C   0  0  0  0  0  0
  -25.4120  -36.3054   24.0305 C   0  0  1  0  0  0
  -20.5882  -28.3676   23.1316 C   0  0  2  0  0  0
  -20.6775  -26.9400   22.5421 C   0  0  0  0  0  0
  -19.5728  -26.6392   21.5234 C   0  0  0  0  0  0
  -18.1908  -26.7944   22.1634 C   0  0  0  0  0  0
  -19.1530  -28.8861   23.2876 C   0  0  0  0  0  0
  -18.9445  -30.1481   23.8850 C   0  0  0  0  0  0
  -17.6444  -30.6578   24.0571 C   0  0  0  0  0  0
  -25.9071  -34.9443   23.5041 C   0  0  0  0  0  0
  -16.5334  -29.9075   23.6357 C   0  0  0  0  0  0
  -16.7259  -28.6518   23.0341 C   0  0  0  0  0  0
  -26.4502  -31.6574   25.0633 C   0  0  0  0  0  0
  -25.3711  -31.3785   26.1339 C   0  0  0  0  0  0
  -27.0364  -30.2992   24.6103 C   0  0  0  0  0  0
  -27.6027  -32.4346   25.7438 C   0  0  0  0  0  0
  -27.5581  -37.1780   24.8439 C   0  0  0  0  0  0
  -21.4206  -29.3033   22.3725 N   0  0  0  0  0  0
  -26.4265  -37.3777   23.9406 N   0  0  0  0  0  0
  -24.6914  -31.0550   22.0872 N   0  0  0  0  0  0
  -23.4221  -28.8132   23.3039 O   0  0  0  0  0  0
  -28.3386  -26.4219   20.2112 O   0  0  0  0  0  0
  -26.5610  -34.8938   22.4587 O   0  0  0  0  0  0
  -23.5462  -32.1367   23.7266 O   0  0  0  0  0  0
  -31.2774  -17.7440   21.2590 C   0  0  0  0  0  0
  -31.5259  -19.0987   21.5691 C   0  0  0  0  0  0
  -29.0880  -18.3904   20.4467 C   0  0  0  0  0  0
  -29.3334  -19.8019   20.7316 C   0  0  0  0  0  0
  -30.0416  -17.3233   20.7200 C   0  0  0  0  0  0
  -30.5638  -20.1167   21.3520 C   0  0  0  0  0  0
  -28.2800  -20.9900   20.5507 C   0  0  0  0  0  0
  -28.1357  -23.6847   20.5390 C   0  0  0  0  0  0
  -28.4093  -25.0224   19.6703 C   0  0  0  0  0  0
  -31.8266  -21.7566   22.6142 C   0  0  0  0  0  0
  -31.5711  -23.1460   23.2083 C   0  0  0  0  0  0
  -29.7621  -15.8693   20.5582 N   0  0  0  0  0  0
  -28.7513  -22.3596   20.0306 N   0  3  0  0  0  0
  -30.7484  -21.4287   21.7407 O   0  0  0  0  0  0
  -31.5366  -24.0735   22.2478 F   0  0  0  0  0  0
  -31.4793  -12.5985   19.1689 H   0  0  0  0  0  0
  -30.3977  -11.4856   19.9693 H   0  0  0  0  0  0
  -29.8060  -11.6946   17.5382 H   0  0  0  0  0  0
  -29.6343  -13.4246   17.6992 H   0  0  0  0  0  0
  -27.9158  -11.2588   18.9416 H   0  0  0  0  0  0
  -27.3803  -12.4604   17.7991 H   0  0  0  0  0  0
  -27.6316  -14.2332   19.4361 H   0  0  0  0  0  0
  -28.7242  -12.1700   21.4184 H   0  0  0  0  0  0
  -28.4110  -13.8488   21.7782 H   0  0  0  0  0  0
  -25.2764   -9.5682   22.4777 H   0  0  0  0  0  0
  -24.0005   -7.4628   22.7458 H   0  0  0  0  0  0
  -21.0871   -8.8759   19.8929 H   0  0  0  0  0  0
  -22.3718  -10.9659   19.6147 H   0  0  0  0  0  0
  -21.1971   -7.6147   23.9750 H   0  0  0  0  0  0
  -21.1477   -6.0500   25.9107 H   0  0  0  0  0  0
  -22.0591   -2.7614   23.2807 H   0  0  0  0  0  0
  -22.4001  -11.9889   22.4807 H   0  0  0  0  0  0
  -21.1051  -13.1296   22.2538 H   0  0  0  0  0  0
  -24.6343  -15.8247   20.4877 H   0  0  0  0  0  0
  -26.2402  -15.6245   20.0020 H   0  0  0  0  0  0
  -26.7204  -32.5354   23.1011 H   0  0  0  0  0  0
  -25.0218  -33.9690   25.0408 H   0  0  0  0  0  0
  -22.7135  -31.2902   21.3910 H   0  0  0  0  0  0
  -23.3766  -35.9587   23.3244 H   0  0  0  0  0  0
  -24.3603  -36.8924   22.2051 H   0  0  0  0  0  0
  -23.7231  -37.6448   23.6691 H   0  0  0  0  0  0
  -26.0939  -31.5228   20.5884 H   0  0  0  0  0  0
  -26.8501  -30.8251   21.9891 H   0  0  0  0  0  0
  -28.1051  -28.9413   21.2062 H   0  0  0  0  0  0
  -25.9545  -25.8918   19.0079 H   0  0  0  0  0  0
  -23.9742  -27.2885   18.9957 H   0  0  0  0  0  0
  -23.7540  -30.5626   19.3889 H   0  0  0  0  0  0
  -22.7565  -29.2199   19.8586 H   0  0  0  0  0  0
  -25.1329  -36.1863   25.0809 H   0  0  0  0  0  0
  -20.9957  -28.3213   24.1446 H   0  0  0  0  0  0
  -20.5719  -26.2270   23.3611 H   0  0  0  0  0  0
  -21.6644  -26.7463   22.1190 H   0  0  0  0  0  0
  -19.6859  -25.6303   21.1235 H   0  0  0  0  0  0
  -19.6659  -27.3250   20.6799 H   0  0  0  0  0  0
  -17.4223  -26.6738   21.3994 H   0  0  0  0  0  0
  -18.0223  -26.0075   22.9010 H   0  0  0  0  0  0
  -19.7918  -30.7331   24.2179 H   0  0  0  0  0  0
  -17.4986  -31.6244   24.5195 H   0  0  0  0  0  0
  -15.5327  -30.2947   23.7727 H   0  0  0  0  0  0
  -15.8668  -28.0845   22.7024 H   0  0  0  0  0  0
  -24.5886  -30.7118   25.7696 H   0  0  0  0  0  0
  -24.8894  -32.2998   26.4621 H   0  0  0  0  0  0
  -25.8005  -30.9062   27.0179 H   0  0  0  0  0  0
  -26.2953  -29.6713   24.1126 H   0  0  0  0  0  0
  -27.4077  -29.7266   25.4612 H   0  0  0  0  0  0
  -27.8812  -30.4277   23.9324 H   0  0  0  0  0  0
  -27.2577  -33.3676   26.1927 H   0  0  0  0  0  0
  -28.3897  -32.6851   25.0309 H   0  0  0  0  0  0
  -28.0615  -31.8499   26.5417 H   0  0  0  0  0  0
  -28.2560  -38.0121   24.7590 H   0  0  0  0  0  0
  -28.1119  -36.2661   24.6167 H   0  0  0  0  0  0
  -27.2307  -37.1310   25.8837 H   0  0  0  0  0  0
  -20.9386  -29.8777   21.6951 H   0  0  0  0  0  0
  -26.0113  -38.2821   24.1455 H   0  0  0  0  0  0
  -32.0521  -17.0287   21.4925 H   0  0  0  0  0  0
  -32.4787  -19.3292   22.0177 H   0  0  0  0  0  0
  -28.1230  -18.1236   20.0392 H   0  0  0  0  0  0
  -27.8227  -21.1444   21.5276 H   0  0  0  0  0  0
  -27.4661  -20.6464   19.9101 H   0  0  0  0  0  0
  -27.0587  -23.5663   20.6609 H   0  0  0  0  0  0
  -28.5248  -23.8431   21.5450 H   0  0  0  0  0  0
  -27.8580  -24.9529   18.7332 H   0  0  0  0  0  0
  -29.4481  -24.9435   19.3502 H   0  0  0  0  0  0
  -31.9068  -21.0384   23.4325 H   0  0  0  0  0  0
  -32.7636  -21.7557   22.0573 H   0  0  0  0  0  0
  -32.3617  -23.4186   23.9075 H   0  0  0  0  0  0
  -30.6256  -23.1808   23.7488 H   0  0  0  0  0  0
  -28.7817  -15.6342   20.5375 H   0  0  0  0  0  0
  -28.6720  -22.3266   19.0254 H   0  0  0  0  0  0
  -29.7360  -22.3964   20.2475 H   0  0  0  0  0  0
  1 25  1  0  0  0
  1 30  2  0  0  0
  1 82  1  0  0  0
  2  3  1  0  0  0
  2 25  1  0  0  0
  2 86  1  0  0  0
  2 87  1  0  0  0
  3  4  1  0  0  0
  3 88  1  0  0  0
  3 89  1  0  0  0
  4  5  1  0  0  0
  4 90  1  0  0  0
  4 91  1  0  0  0
  5  6  1  0  0  0
  5 26  1  0  0  0
  5 92  1  0  0  0
  6 25  1  0  0  0
  6 93  1  0  0  0
  6 94  1  0  0  0
  7  8  2  0  0  0
  7 26  1  0  0  0
  7 29  1  0  0  0
  8  9  1  0  0  0
  8 22  1  0  0  0
  9 10  1  0  0  0
  9 27  2  0  0  0
 10 11  2  0  0  0
 10 15  1  0  0  0
 11 12  1  0  0  0
 11 95  1  0  0  0
 12 13  2  0  0  0
 12 96  1  0  0  0
 13 14  1  0  0  0
 13 31  1  0  0  0
 14 15  2  0  0  0
 14 97  1  0  0  0
 15 98  1  0  0  0
 16 17  2  0  0  0
 16 21  1  0  0  0
 16 31  1  0  0  0
 17 18  1  0  0  0
 17 99  1  0  0  0
 18 19  2  0  0  0
 18100  1  0  0  0
 19 20  1  0  0  0
 19 24  1  0  0  0
 20 21  2  0  0  0
 20101  1  0  0  0
 21 23  1  0  0  0
 22 28  1  0  0  0
 22 32  2  0  0  0
 26 27  1  0  0  0
 28102  1  0  0  0
 28103  1  0  0  0
 29104  1  0  0  0
 29105  1  0  0  0
 33 34  1  0  0  0
 33 66  1  0  0  0
 33 70  2  0  0  0
 34 36  1  0  0  0
 34 59  1  0  0  0
 34106  1  0  0  0
 35 44  2  0  0  0
 35 45  1  0  0  0
 35 68  1  0  0  0
 36 56  1  0  0  0
 36107  1  0  0  0
 37 39  1  0  0  0
 37 47  1  0  0  0
 37 66  1  0  0  0
 37108  1  0  0  0
 38 43  2  0  0  0
 38 46  1  0  0  0
 38 47  1  0  0  0
 39 64  1  0  0  0
 39 67  2  0  0  0
 40 52  1  0  0  0
 40 53  2  0  0  0
 40 58  1  0  0  0
 41109  1  0  0  0
 41110  1  0  0  0
 41111  1  0  0  0
 41 48  1  0  0  0
 42 43  1  0  0  0
 42 66  1  0  0  0
 42112  1  0  0  0
 42113  1  0  0  0
 43 44  1  0  0  0
 44114  1  0  0  0
 45 46  2  0  0  0
 45115  1  0  0  0
 46116  1  0  0  0
 47117  1  0  0  0
 47118  1  0  0  0
 48 56  1  0  0  0
 48 65  1  0  0  0
 48119  1  0  0  0
 49 50  1  0  0  0
 49 53  1  0  0  0
 49 64  1  0  0  0
 49120  1  0  0  0
 50 51  1  0  0  0
 50121  1  0  0  0
 50122  1  0  0  0
 51 52  1  0  0  0
 51123  1  0  0  0
 51124  1  0  0  0
 52125  1  0  0  0
 52126  1  0  0  0
 53 54  1  0  0  0
 54 55  2  0  0  0
 54127  1  0  0  0
 55 57  1  0  0  0
 55128  1  0  0  0
 56 69  2  0  0  0
 57 58  2  0  0  0
 57129  1  0  0  0
 58130  1  0  0  0
 59 60  1  0  0  0
 59 61  1  0  0  0
 59 62  1  0  0  0
 60131  1  0  0  0
 60132  1  0  0  0
 60133  1  0  0  0
 61134  1  0  0  0
 61135  1  0  0  0
 61136  1  0  0  0
 62137  1  0  0  0
 62138  1  0  0  0
 62139  1  0  0  0
 63 65  1  0  0  0
 63140  1  0  0  0
 63141  1  0  0  0
 63142  1  0  0  0
 64143  1  0  0  0
 65144  1  0  0  0
 68 79  1  0  0  0
 71 72  2  0  0  0
 71 75  1  0  0  0
 71145  1  0  0  0
 72 76  1  0  0  0
 72146  1  0  0  0
 73 74  1  0  0  0
 73 75  2  0  0  0
 73147  1  0  0  0
 74 76  2  0  0  0
 74 77  1  0  0  0
 75 82  1  0  0  0
 76 84  1  0  0  0
 77 83  1  0  0  0
 77148  1  0  0  0
 77149  1  0  0  0
 78 79  1  0  0  0
 78 83  1  0  0  0
 78150  1  0  0  0
 78151  1  0  0  0
 79152  1  0  0  0
 79153  1  0  0  0
 80 81  1  0  0  0
 80 84  1  0  0  0
 80154  1  0  0  0
 80155  1  0  0  0
 81 85  1  0  0  0
 81156  1  0  0  0
 81157  1  0  0  0
 82158  1  0  0  0
 83159  1  0  0  0
 83160  1  0  0  0
M  CHG  1  83   1
M  ISO  4   1 100  68 101  79 101  82 100
M  END
> <chiral flag>
0

> <version>
0

> <s_m_source_file>
/data/baiqing/PycharmProjects/Reinvent-master-3.2/result/LINK_invent/BTK/process_docking_weight1_custom_product_contain_oxygen_bond_distance_aromatic_linkinvent_7_9_3/rearranged_h_0006.sdf

> <i_m_source_file_index>
42

> <r_mmod_Potential_Energy-OPLS-2005>
-32.7503471374512

> <r_mmod_Stretch_Energy-OPLS-2005>
120.630195617676

> <r_mmod_Bend_Energy-OPLS-2005>
180.790176391602

> <r_mmod_Torsional_Energy-OPLS-2005>
215.201919555664

> <r_mmod_Improper_Torsional_Energy-OPLS-2005>
7.43651390075684

> <r_mmod_Van_der_Waal_Energy-OPLS-2005>
140.353912353516

> <r_mmod_Electrostatic_Energy-OPLS-2005>
-337.736267089844

> <r_mmod_Solvation_Energy-OPLS-2005>
-445.201873779297

> <b_mmod_Minimization_Converged-OPLS-2005>
0

> <r_mmod_RMS_Derivative-OPLS-2005>
4.03649520874023

$$$$
43
                    3D
 Structure written by MMmdl.
159168  0  0  1  0            999 V2000
  -29.4019  -15.8634   20.5456 C   0  0  0  0  0  0
  -30.2678  -13.3671   19.6559 C   0  0  0  0  0  0
  -29.5272  -12.7531   18.4158 C   0  0  0  0  0  0
  -28.1284  -12.2516   18.8047 C   0  0  0  0  0  0
  -27.5030  -13.2355   19.8100 C   0  0  2  0  0  0
  -28.3895  -13.5145   21.0164 C   0  0  0  0  0  0
  -25.1927  -13.8055   20.5618 C   0  0  0  0  0  0
  -24.1378  -13.0313   20.9340 C   0  0  0  0  0  0
  -24.6004  -11.6797   20.8802 C   0  0  0  0  0  0
  -23.8807  -10.4207   21.0486 C   0  0  0  0  0  0
  -24.3479   -9.4169   21.9229 C   0  0  0  0  0  0
  -23.6225   -8.2177   22.0773 C   0  0  0  0  0  0
  -22.4215   -8.0194   21.3557 C   0  0  0  0  0  0
  -21.9789   -9.0134   20.4662 C   0  0  0  0  0  0
  -22.7040  -10.2037   20.3088 C   0  0  0  0  0  0
  -21.6827   -6.0688   22.5290 C   0  0  0  0  0  0
  -21.3999   -6.5618   23.8214 C   0  0  0  0  0  0
  -21.3648   -5.6781   24.9182 C   0  0  0  0  0  0
  -21.6038   -4.3045   24.7243 C   0  0  0  0  0  0
  -21.8820   -3.8126   23.4373 C   0  0  0  0  0  0
  -21.9191   -4.6926   22.3422 C   0  0  0  0  0  0
  -22.7495  -13.5186   21.2027 C   0  0  0  0  0  0
  -22.1663   -4.2118   21.0998 F   0  0  0  0  0  0
  -21.5627   -3.4530   25.7760 F   0  0  0  0  0  0
  -29.3818  -14.3842   20.4441 N   0  0  0  0  0  0
  -26.1998  -12.9102   20.2744 N   0  0  0  0  0  0
  -25.8803  -11.6298   20.5494 N   0  0  0  0  0  0
  -22.0134  -12.8187   22.0566 N   0  0  0  0  0  0
  -25.3712  -15.1798   20.4036 N   0  0  0  0  0  0
  -30.6306  -16.0799   20.3032 O   0  0  0  0  0  0
  -21.6601   -6.8798   21.4249 O   0  0  0  0  0  0
  -22.3292  -14.5527   20.6849 O   0  0  0  0  0  0
  -24.6636  -31.9140   23.2012 C   0  0  0  0  0  0
  -25.9455  -32.4993   23.8402 C   0  0  1  0  0  0
  -26.9529  -27.2346   20.1534 C   0  0  0  0  0  0
  -25.6242  -33.8740   24.2427 N   0  0  0  0  0  0
  -23.4653  -30.5612   21.5622 C   0  0  2  0  0  0
  -24.8251  -29.0422   20.0588 C   0  0  0  0  0  0
  -22.9819  -29.4975   22.5410 C   0  0  0  0  0  0
  -18.3557  -27.7278   22.4876 C   0  0  0  0  0  0
  -24.1505  -36.7301   23.2610 C   0  0  0  0  0  0
  -26.0022  -30.7997   21.3878 C   0  0  0  0  0  0
  -26.0093  -29.4322   20.7076 C   0  0  0  0  0  0
  -27.0993  -28.5147   20.7734 C   0  0  0  0  0  0
  -25.8728  -27.0164   19.2967 C   0  0  0  0  0  0
  -24.7641  -27.8521   19.3357 C   0  0  0  0  0  0
  -23.6192  -29.9377   20.1581 C   0  0  0  0  0  0
  -25.4134  -36.3178   24.0341 C   0  0  1  0  0  0
  -21.1963  -28.2056   23.4137 C   0  0  2  0  0  0
  -22.1954  -26.4949   23.1739 C   0  0  0  0  0  0
  -19.8765  -24.7524   21.6267 C   0  0  0  0  0  0
  -18.3818  -26.0962   21.6850 C   0  0  0  0  0  0
  -19.4943  -28.5486   23.1639 C   0  0  0  0  0  0
  -19.1254  -29.8103   23.7768 C   0  0  0  0  0  0
  -17.8148  -30.3204   23.8914 C   0  0  0  0  0  0
  -25.9159  -34.9570   23.5138 C   0  0  0  0  0  0
  -16.7645  -29.5531   23.3777 C   0  0  0  0  0  0
  -17.0424  -28.3219   22.7087 C   0  0  0  0  0  0
  -26.4641  -31.6622   25.0727 C   0  0  0  0  0  0
  -25.3721  -31.3674   26.1272 C   0  0  0  0  0  0
  -27.0489  -30.3046   24.6192 C   0  0  0  0  0  0
  -27.6202  -32.4247   25.7616 C   0  0  0  0  0  0
  -27.5648  -37.1760   24.8418 C   0  0  0  0  0  0
  -21.7023  -29.2301   22.5431 N   0  0  0  0  0  0
  -26.4274  -37.3922   23.9501 N   0  0  0  0  0  0
  -24.7298  -31.1387   22.0805 N   0  0  0  0  0  0
  -23.7450  -28.9306   23.3220 O   0  0  0  0  0  0
  -27.5929  -26.0543   20.5165 O   0  0  0  0  0  0
  -26.5642  -34.9048   22.4660 O   0  0  0  0  0  0
  -23.5767  -32.1855   23.7400 O   0  0  0  0  0  0
  -25.7508  -18.9071   21.2457 C   0  0  0  0  0  0
  -27.4839  -20.0728   20.8391 C   0  0  0  0  0  0
  -24.8646  -20.2287   21.3841 C   0  0  0  0  0  0
  -26.5961  -21.3892   20.9694 C   0  0  0  0  0  0
  -22.0767  -25.5682   20.9678 C   0  0  0  0  0  0
  -20.8031  -26.6947   21.5268 C   0  0  0  0  0  0
  -22.0108  -23.9061   22.9912 C   0  0  0  0  0  0
  -27.2297  -18.5590   20.9346 C   0  0  0  0  0  0
  -25.1117  -21.7493   21.2522 C   0  0  0  0  0  0
  -22.8062  -24.1934   21.6776 C   0  0  0  0  0  0
  -20.0949  -25.9887   23.4076 C   0  0  0  0  0  0
  -20.8510  -24.6108   23.8283 C   0  0  0  0  0  0
  -25.1503  -24.2742   20.5193 C   0  0  0  0  0  0
  -26.6653  -24.8659   20.9583 C   0  0  0  0  0  0
  -28.1297  -16.9206   20.7874 N   0  0  0  0  0  0
  -24.2484  -23.2691   21.2899 N   0  0  0  0  0  0
  -19.1852  -26.3892   24.3489 F   0  0  0  0  0  0
  -20.4709  -24.0237   24.9861 F   0  0  0  0  0  0
  -31.1710  -13.8681   19.3074 H   0  0  0  0  0  0
  -30.6286  -12.5781   20.3184 H   0  0  0  0  0  0
  -30.1178  -11.9512   17.9720 H   0  0  0  0  0  0
  -29.4198  -13.5243   17.6520 H   0  0  0  0  0  0
  -28.2399  -11.2753   19.2782 H   0  0  0  0  0  0
  -27.4964  -12.1098   17.9270 H   0  0  0  0  0  0
  -27.3686  -14.1488   19.2279 H   0  0  0  0  0  0
  -28.7798  -12.6070   21.4804 H   0  0  0  0  0  0
  -27.8511  -14.0587   21.7938 H   0  0  0  0  0  0
  -25.2617   -9.5688   22.4800 H   0  0  0  0  0  0
  -23.9936   -7.4574   22.7491 H   0  0  0  0  0  0
  -21.0717   -8.8635   19.8981 H   0  0  0  0  0  0
  -22.3488  -10.9583   19.6212 H   0  0  0  0  0  0
  -21.1991   -7.6126   23.9703 H   0  0  0  0  0  0
  -21.1464   -6.0521   25.9077 H   0  0  0  0  0  0
  -22.0610   -2.7591   23.2881 H   0  0  0  0  0  0
  -22.3699  -11.9825   22.4951 H   0  0  0  0  0  0
  -21.0790  -13.1293   22.2808 H   0  0  0  0  0  0
  -24.5088  -15.7147   20.4183 H   0  0  0  0  0  0
  -25.9738  -15.4847   19.6506 H   0  0  0  0  0  0
  -26.7537  -32.5646   23.1142 H   0  0  0  0  0  0
  -25.0326  -33.9827   25.0529 H   0  0  0  0  0  0
  -22.6998  -31.3394   21.4975 H   0  0  0  0  0  0
  -23.3896  -35.9493   23.3127 H   0  0  0  0  0  0
  -24.3629  -36.9082   22.2053 H   0  0  0  0  0  0
  -23.7061  -37.6375   23.6720 H   0  0  0  0  0  0
  -26.1976  -31.5626   20.6328 H   0  0  0  0  0  0
  -26.8659  -30.7975   22.0425 H   0  0  0  0  0  0
  -27.9572  -28.7200   21.4016 H   0  0  0  0  0  0
  -25.7827  -26.1039   18.7291 H   0  0  0  0  0  0
  -23.8619  -27.5806   18.8048 H   0  0  0  0  0  0
  -23.7330  -30.7322   19.4202 H   0  0  0  0  0  0
  -22.7139  -29.3911   19.8827 H   0  0  0  0  0  0
  -25.1271  -36.2006   25.0821 H   0  0  0  0  0  0
  -21.3982  -28.5201   24.4418 H   0  0  0  0  0  0
  -22.5284  -26.2013   24.1775 H   0  0  0  0  0  0
  -23.1687  -26.6644   22.6982 H   0  0  0  0  0  0
  -19.5151  -23.8109   22.0622 H   0  0  0  0  0  0
  -20.0237  -24.4614   20.5782 H   0  0  0  0  0  0
  -18.1123  -26.2913   20.6465 H   0  0  0  0  0  0
  -17.5117  -25.5689   22.0774 H   0  0  0  0  0  0
  -19.9102  -30.4026   24.2299 H   0  0  0  0  0  0
  -17.6249  -31.2621   24.3905 H   0  0  0  0  0  0
  -15.7466  -29.9070   23.4737 H   0  0  0  0  0  0
  -16.1864  -27.7854   22.3170 H   0  0  0  0  0  0
  -24.5865  -30.7250   25.7273 H   0  0  0  0  0  0
  -24.8990  -32.2825   26.4840 H   0  0  0  0  0  0
  -25.7818  -30.8499   26.9951 H   0  0  0  0  0  0
  -26.3113  -29.6814   24.1149 H   0  0  0  0  0  0
  -27.4092  -29.7279   25.4713 H   0  0  0  0  0  0
  -27.9027  -30.4305   23.9538 H   0  0  0  0  0  0
  -27.2850  -33.3478   26.2365 H   0  0  0  0  0  0
  -28.4013  -32.6926   25.0476 H   0  0  0  0  0  0
  -28.0916  -31.8228   26.5402 H   0  0  0  0  0  0
  -28.2456  -38.0274   24.7944 H   0  0  0  0  0  0
  -28.1377  -36.2875   24.5691 H   0  0  0  0  0  0
  -27.2428  -37.0710   25.8798 H   0  0  0  0  0  0
  -21.0596  -29.7446   21.9579 H   0  0  0  0  0  0
  -26.0154  -38.2935   24.1790 H   0  0  0  0  0  0
  -25.1502  -18.0189   21.4211 H   0  0  0  0  0  0
  -28.5239  -20.3031   20.6404 H   0  0  0  0  0  0
  -23.8341  -19.9868   21.6180 H   0  0  0  0  0  0
  -27.2206  -22.2617   20.8304 H   0  0  0  0  0  0
  -22.5060  -25.8510   20.0197 H   0  0  0  0  0  0
  -20.4793  -27.5478   20.9482 H   0  0  0  0  0  0
  -22.3773  -23.0302   23.5105 H   0  0  0  0  0  0
  -25.2008  -23.8505   19.5135 H   0  0  0  0  0  0
  -24.5467  -25.1664   20.3702 H   0  0  0  0  0  0
  -26.1495  -25.6156   21.5548 H   0  0  0  0  0  0
  -26.9120  -24.6910   19.9094 H   0  0  0  0  0  0
  -27.3897  -16.2434   20.9398 H   0  0  0  0  0  0
  1 25  1  0  0  0
  1 30  2  0  0  0
  1 85  1  0  0  0
  2  3  1  0  0  0
  2 25  1  0  0  0
  2 89  1  0  0  0
  2 90  1  0  0  0
  3  4  1  0  0  0
  3 91  1  0  0  0
  3 92  1  0  0  0
  4  5  1  0  0  0
  4 93  1  0  0  0
  4 94  1  0  0  0
  5  6  1  0  0  0
  5 26  1  0  0  0
  5 95  1  0  0  0
  6 25  1  0  0  0
  6 96  1  0  0  0
  6 97  1  0  0  0
  7  8  2  0  0  0
  7 26  1  0  0  0
  7 29  1  0  0  0
  8  9  1  0  0  0
  8 22  1  0  0  0
  9 10  1  0  0  0
  9 27  2  0  0  0
 10 11  2  0  0  0
 10 15  1  0  0  0
 11 12  1  0  0  0
 11 98  1  0  0  0
 12 13  2  0  0  0
 12 99  1  0  0  0
 13 14  1  0  0  0
 13 31  1  0  0  0
 14 15  2  0  0  0
 14100  1  0  0  0
 15101  1  0  0  0
 16 17  2  0  0  0
 16 21  1  0  0  0
 16 31  1  0  0  0
 17 18  1  0  0  0
 17102  1  0  0  0
 18 19  2  0  0  0
 18103  1  0  0  0
 19 20  1  0  0  0
 19 24  1  0  0  0
 20 21  2  0  0  0
 20104  1  0  0  0
 21 23  1  0  0  0
 22 28  1  0  0  0
 22 32  2  0  0  0
 26 27  1  0  0  0
 28105  1  0  0  0
 28106  1  0  0  0
 29107  1  0  0  0
 29108  1  0  0  0
 33 34  1  0  0  0
 33 66  1  0  0  0
 33 70  2  0  0  0
 34 36  1  0  0  0
 34 59  1  0  0  0
 34109  1  0  0  0
 35 44  2  0  0  0
 35 45  1  0  0  0
 35 68  1  0  0  0
 36 56  1  0  0  0
 36110  1  0  0  0
 37 39  1  0  0  0
 37 47  1  0  0  0
 37 66  1  0  0  0
 37111  1  0  0  0
 38 43  2  0  0  0
 38 46  1  0  0  0
 38 47  1  0  0  0
 39 64  1  0  0  0
 39 67  2  0  0  0
 40 52  1  0  0  0
 40 53  2  0  0  0
 40 58  1  0  0  0
 41112  1  0  0  0
 41113  1  0  0  0
 41114  1  0  0  0
 41 48  1  0  0  0
 42 43  1  0  0  0
 42 66  1  0  0  0
 42115  1  0  0  0
 42116  1  0  0  0
 43 44  1  0  0  0
 44117  1  0  0  0
 45 46  2  0  0  0
 45118  1  0  0  0
 46119  1  0  0  0
 47120  1  0  0  0
 47121  1  0  0  0
 48 56  1  0  0  0
 48 65  1  0  0  0
 48122  1  0  0  0
 49 50  1  0  0  0
 49 53  1  0  0  0
 49 64  1  0  0  0
 49123  1  0  0  0
 50 51  1  0  0  0
 50124  1  0  0  0
 50125  1  0  0  0
 51 52  1  0  0  0
 51126  1  0  0  0
 51127  1  0  0  0
 52128  1  0  0  0
 52129  1  0  0  0
 53 54  1  0  0  0
 54 55  2  0  0  0
 54130  1  0  0  0
 55 57  1  0  0  0
 55131  1  0  0  0
 56 69  2  0  0  0
 57 58  2  0  0  0
 57132  1  0  0  0
 58133  1  0  0  0
 59 60  1  0  0  0
 59 61  1  0  0  0
 59 62  1  0  0  0
 60134  1  0  0  0
 60135  1  0  0  0
 60136  1  0  0  0
 61137  1  0  0  0
 61138  1  0  0  0
 61139  1  0  0  0
 62140  1  0  0  0
 62141  1  0  0  0
 62142  1  0  0  0
 63 65  1  0  0  0
 63143  1  0  0  0
 63144  1  0  0  0
 63145  1  0  0  0
 64146  1  0  0  0
 65147  1  0  0  0
 68 84  1  0  0  0
 71 73  2  0  0  0
 71 78  1  0  0  0
 71148  1  0  0  0
 72 74  1  0  0  0
 72 78  2  0  0  0
 72149  1  0  0  0
 73 79  1  0  0  0
 73150  1  0  0  0
 74 79  2  0  0  0
 74151  1  0  0  0
 75 76  2  0  0  0
 75 80  1  0  0  0
 75152  1  0  0  0
 76 81  1  0  0  0
 76153  1  0  0  0
 77 80  2  0  0  0
 77 82  1  0  0  0
 77154  1  0  0  0
 78 85  1  0  0  0
 79 86  1  0  0  0
 80 86  1  0  0  0
 81 82  2  0  0  0
 81 87  1  0  0  0
 82 88  1  0  0  0
 83 84  1  0  0  0
 83 86  1  0  0  0
 83155  1  0  0  0
 83156  1  0  0  0
 84157  1  0  0  0
 84158  1  0  0  0
 85159  1  0  0  0
M  ISO  4   1 100  68 101  84 101  85 100
M  END
> <chiral flag>
0

> <version>
0

> <s_m_source_file>
/data/baiqing/PycharmProjects/Reinvent-master-3.2/result/LINK_invent/BTK/process_docking_weight1_custom_product_contain_oxygen_bond_distance_aromatic_linkinvent_7_9_3/rearranged_h_0006.sdf

> <i_m_source_file_index>
43

> <r_mmod_Potential_Energy-OPLS-2005>
13594.595703125

> <r_mmod_Stretch_Energy-OPLS-2005>
7579.9189453125

> <r_mmod_Bend_Energy-OPLS-2005>
1410.97399902344

> <r_mmod_Torsional_Energy-OPLS-2005>
297.608093261719

> <r_mmod_Improper_Torsional_Energy-OPLS-2005>
11.6384925842285

> <r_mmod_Van_der_Waal_Energy-OPLS-2005>
2612.30590820312

> <r_mmod_Electrostatic_Energy-OPLS-2005>
-415.896911621094

> <r_mmod_Solvation_Energy-OPLS-2005>
-203.201690673828

> <b_mmod_Minimization_Converged-OPLS-2005>
0

> <r_mmod_RMS_Derivative-OPLS-2005>
11.0149583816528

$$$$
44
                    3D
 Structure written by MMmdl.
154162  0  0  1  0            999 V2000
  -30.5893  -14.7692   20.4654 C   0  0  0  0  0  0
  -30.4409  -12.4731   19.4703 C   0  0  0  0  0  0
  -29.5130  -12.5149   18.2350 C   0  0  0  0  0  0
  -28.0397  -12.3314   18.6501 C   0  0  0  0  0  0
  -27.6429  -13.2307   19.8506 C   0  0  2  0  0  0
  -28.6887  -13.1616   20.9848 C   0  0  0  0  0  0
  -25.2517  -13.8192   20.5692 C   0  0  0  0  0  0
  -24.1808  -13.0438   20.9208 C   0  0  0  0  0  0
  -24.6398  -11.6916   20.8746 C   0  0  0  0  0  0
  -23.9073  -10.4293   21.0407 C   0  0  0  0  0  0
  -24.3623   -9.4207   21.9185 C   0  0  0  0  0  0
  -23.6296   -8.2243   22.0755 C   0  0  0  0  0  0
  -22.4277   -8.0282   21.3545 C   0  0  0  0  0  0
  -21.9914   -9.0256   20.4647 C   0  0  0  0  0  0
  -22.7245  -10.2134   20.3057 C   0  0  0  0  0  0
  -21.6854   -6.0737   22.5280 C   0  0  0  0  0  0
  -21.4014   -6.5640   23.8213 C   0  0  0  0  0  0
  -21.3659   -5.6793   24.9175 C   0  0  0  0  0  0
  -21.6044   -4.3056   24.7226 C   0  0  0  0  0  0
  -21.8819   -3.8148   23.4347 C   0  0  0  0  0  0
  -21.9193   -4.6964   22.3403 C   0  0  0  0  0  0
  -22.7829  -13.5219   21.1869 C   0  0  0  0  0  0
  -22.1661   -4.2150   21.0981 F   0  0  0  0  0  0
  -21.5629   -3.4539   25.7738 F   0  0  0  0  0  0
  -29.9870  -13.5299   20.4042 N   0  0  0  0  0  0
  -26.2944  -12.9396   20.3277 N   0  0  0  0  0  0
  -25.9329  -11.6540   20.5746 N   0  0  0  0  0  0
  -22.0476  -12.8208   22.0426 N   0  0  0  0  0  0
  -25.4196  -15.1917   20.4101 N   0  0  0  0  0  0
  -31.7761  -14.8909   20.1500 O   0  0  0  0  0  0
  -21.6641   -6.8879   21.4241 O   0  0  0  0  0  0
  -22.3511  -14.5525   20.6717 O   0  0  0  0  0  0
  -24.6351  -31.8535   23.1973 C   0  0  0  0  0  0
  -25.9163  -32.4744   23.8327 C   0  0  1  0  0  0
  -27.2160  -27.2325   20.1284 C   0  0  0  0  0  0
  -25.5945  -33.8547   24.2245 N   0  0  0  0  0  0
  -23.4326  -30.4777   21.5422 C   0  0  2  0  0  0
  -24.8787  -28.9238   20.1119 C   0  0  0  0  0  0
  -22.7521  -29.4600   22.4904 C   0  0  0  0  0  0
  -18.0297  -28.1390   22.8484 C   0  0  0  0  0  0
  -24.1490  -36.7278   23.2641 C   0  0  0  0  0  0
  -25.9830  -30.7578   21.3820 C   0  0  0  0  0  0
  -26.0548  -29.3792   20.7213 C   0  0  0  0  0  0
  -27.2268  -28.5487   20.7148 C   0  0  0  0  0  0
  -26.0110  -26.8577   19.4889 C   0  0  0  0  0  0
  -24.8643  -27.6721   19.4840 C   0  0  0  0  0  0
  -23.6522  -29.8146   20.1584 C   0  0  0  0  0  0
  -25.4118  -36.3063   24.0324 C   0  0  1  0  0  0
  -20.5904  -28.3708   23.1257 C   0  0  2  0  0  0
  -20.6785  -26.9422   22.5403 C   0  0  0  0  0  0
  -19.5757  -26.6384   21.5211 C   0  0  0  0  0  0
  -18.1939  -26.7931   22.1625 C   0  0  0  0  0  0
  -19.1551  -28.8866   23.2865 C   0  0  0  0  0  0
  -18.9470  -30.1464   23.8887 C   0  0  0  0  0  0
  -17.6469  -30.6590   24.0562 C   0  0  0  0  0  0
  -25.9062  -34.9434   23.5087 C   0  0  0  0  0  0
  -16.5360  -29.9085   23.6333 C   0  0  0  0  0  0
  -16.7282  -28.6503   23.0356 C   0  0  0  0  0  0
  -26.4514  -31.6579   25.0730 C   0  0  0  0  0  0
  -25.3721  -31.3741   26.1438 C   0  0  0  0  0  0
  -27.0369  -30.2989   24.6248 C   0  0  0  0  0  0
  -27.6057  -32.4330   25.7509 C   0  0  0  0  0  0
  -27.5578  -37.1796   24.8466 C   0  0  0  0  0  0
  -21.4225  -29.3052   22.3644 N   0  0  0  0  0  0
  -26.4290  -37.3764   23.9408 N   0  0  0  0  0  0
  -24.7030  -31.0478   22.0964 N   0  0  0  0  0  0
  -23.4207  -28.8135   23.3010 O   0  0  0  0  0  0
  -28.2969  -26.3066   20.1807 O   0  0  0  0  0  0
  -26.5636  -34.8912   22.4658 O   0  0  0  0  0  0
  -23.5492  -32.1371   23.7249 O   0  0  0  0  0  0
  -28.7377  -18.1406   17.1683 C   0  0  0  0  0  0
  -28.5502  -19.5206   17.0922 C   0  0  0  0  0  0
  -29.1895  -17.5703   18.3649 C   0  0  0  0  0  0
  -28.7892  -20.3179   18.2195 C   0  0  0  0  0  0
  -29.4478  -18.3264   19.5389 C   0  0  0  0  0  0
  -29.1969  -19.7961   19.4783 C   0  0  0  0  0  0
  -30.0241  -17.4040   20.7030 C   0  0  0  0  0  0
  -29.0614  -23.5952   20.2908 C   0  0  0  0  0  0
  -27.9879  -24.8191   20.1502 C   0  0  0  0  0  0
  -28.5117  -22.0671   20.4870 C   0  0  0  0  0  0
  -29.7795  -15.8768   20.6875 N   0  0  0  0  0  0
  -29.3480  -20.7969   20.4839 O   0  0  0  0  0  0
  -31.4789  -12.6144   19.1644 H   0  0  0  0  0  0
  -30.4012  -11.4952   19.9527 H   0  0  0  0  0  0
  -29.7992  -11.7424   17.5200 H   0  0  0  0  0  0
  -29.6319  -13.4690   17.7187 H   0  0  0  0  0  0
  -27.9014  -11.2825   18.9147 H   0  0  0  0  0  0
  -27.3808  -12.5194   17.8016 H   0  0  0  0  0  0
  -27.6362  -14.2522   19.4697 H   0  0  0  0  0  0
  -28.7315  -12.1596   21.4140 H   0  0  0  0  0  0
  -28.4191  -13.8313   21.8030 H   0  0  0  0  0  0
  -25.2767   -9.5682   22.4760 H   0  0  0  0  0  0
  -24.0004   -7.4633   22.7473 H   0  0  0  0  0  0
  -21.0846   -8.8775   19.8952 H   0  0  0  0  0  0
  -22.3704  -10.9673   19.6167 H   0  0  0  0  0  0
  -21.2006   -7.6148   23.9717 H   0  0  0  0  0  0
  -21.1482   -6.0524   25.9078 H   0  0  0  0  0  0
  -22.0598   -2.7610   23.2848 H   0  0  0  0  0  0
  -22.4095  -11.9868   22.4811 H   0  0  0  0  0  0
  -21.1094  -13.1231   22.2637 H   0  0  0  0  0  0
  -24.6473  -15.8406   20.5156 H   0  0  0  0  0  0
  -26.2571  -15.6329   20.0529 H   0  0  0  0  0  0
  -26.7229  -32.5381   23.1064 H   0  0  0  0  0  0
  -25.0083  -33.9681   25.0384 H   0  0  0  0  0  0
  -22.7307  -31.3014   21.3960 H   0  0  0  0  0  0
  -23.3753  -35.9609   23.3300 H   0  0  0  0  0  0
  -24.3579  -36.8908   22.2056 H   0  0  0  0  0  0
  -23.7242  -37.6476   23.6670 H   0  0  0  0  0  0
  -26.1281  -31.5184   20.6137 H   0  0  0  0  0  0
  -26.8581  -30.8039   22.0187 H   0  0  0  0  0  0
  -28.1257  -28.8935   21.2064 H   0  0  0  0  0  0
  -25.9092  -25.9083   18.9890 H   0  0  0  0  0  0
  -23.9652  -27.3183   18.9981 H   0  0  0  0  0  0
  -23.7813  -30.5921   19.4047 H   0  0  0  0  0  0
  -22.7689  -29.2524   19.8498 H   0  0  0  0  0  0
  -25.1300  -36.1907   25.0816 H   0  0  0  0  0  0
  -20.9996  -28.3289   24.1378 H   0  0  0  0  0  0
  -20.5686  -26.2320   23.3613 H   0  0  0  0  0  0
  -21.6651  -26.7442   22.1197 H   0  0  0  0  0  0
  -19.6920  -25.6292   21.1249 H   0  0  0  0  0  0
  -19.6691  -27.3187   20.6734 H   0  0  0  0  0  0
  -17.4207  -26.6675   21.4030 H   0  0  0  0  0  0
  -18.0342  -26.0074   22.9024 H   0  0  0  0  0  0
  -19.7945  -30.7283   24.2252 H   0  0  0  0  0  0
  -17.5022  -31.6269   24.5165 H   0  0  0  0  0  0
  -15.5359  -30.2985   23.7662 H   0  0  0  0  0  0
  -15.8683  -28.0816   22.7080 H   0  0  0  0  0  0
  -24.5902  -30.7086   25.7762 H   0  0  0  0  0  0
  -24.8905  -32.2915   26.4834 H   0  0  0  0  0  0
  -25.8023  -30.8936   27.0234 H   0  0  0  0  0  0
  -26.2969  -29.6726   24.1252 H   0  0  0  0  0  0
  -27.4013  -29.7265   25.4788 H   0  0  0  0  0  0
  -27.8862  -30.4250   23.9529 H   0  0  0  0  0  0
  -27.2657  -33.3639   26.2060 H   0  0  0  0  0  0
  -28.3881  -32.6878   25.0348 H   0  0  0  0  0  0
  -28.0709  -31.8474   26.5449 H   0  0  0  0  0  0
  -28.2593  -38.0095   24.7510 H   0  0  0  0  0  0
  -28.1075  -36.2625   24.6297 H   0  0  0  0  0  0
  -27.2296  -37.1451   25.8870 H   0  0  0  0  0  0
  -20.9416  -29.8777   21.6847 H   0  0  0  0  0  0
  -26.0166  -38.2838   24.1404 H   0  0  0  0  0  0
  -28.5610  -17.5187   16.3011 H   0  0  0  0  0  0
  -28.2310  -19.9748   16.1641 H   0  0  0  0  0  0
  -29.3579  -16.5044   18.3444 H   0  0  0  0  0  0
  -28.6623  -21.3794   18.0706 H   0  0  0  0  0  0
  -29.6310  -17.7880   21.6447 H   0  0  0  0  0  0
  -31.1008  -17.5732   20.7461 H   0  0  0  0  0  0
  -29.7217  -23.8179   21.1289 H   0  0  0  0  0  0
  -29.7002  -23.6146   19.4080 H   0  0  0  0  0  0
  -27.2284  -24.6553   20.9160 H   0  0  0  0  0  0
  -27.4999  -24.6111   19.1998 H   0  0  0  0  0  0
  -27.6369  -21.9403   19.8499 H   0  0  0  0  0  0
  -28.0628  -22.0627   21.4805 H   0  0  0  0  0  0
  -28.8261  -15.6254   20.8984 H   0  0  0  0  0  0
  1 25  1  0  0  0
  1 30  2  0  0  0
  1 81  1  0  0  0
  2  3  1  0  0  0
  2 25  1  0  0  0
  2 83  1  0  0  0
  2 84  1  0  0  0
  3  4  1  0  0  0
  3 85  1  0  0  0
  3 86  1  0  0  0
  4  5  1  0  0  0
  4 87  1  0  0  0
  4 88  1  0  0  0
  5  6  1  0  0  0
  5 26  1  0  0  0
  5 89  1  0  0  0
  6 25  1  0  0  0
  6 90  1  0  0  0
  6 91  1  0  0  0
  7  8  2  0  0  0
  7 26  1  0  0  0
  7 29  1  0  0  0
  8  9  1  0  0  0
  8 22  1  0  0  0
  9 10  1  0  0  0
  9 27  2  0  0  0
 10 11  2  0  0  0
 10 15  1  0  0  0
 11 12  1  0  0  0
 11 92  1  0  0  0
 12 13  2  0  0  0
 12 93  1  0  0  0
 13 14  1  0  0  0
 13 31  1  0  0  0
 14 15  2  0  0  0
 14 94  1  0  0  0
 15 95  1  0  0  0
 16 17  2  0  0  0
 16 21  1  0  0  0
 16 31  1  0  0  0
 17 18  1  0  0  0
 17 96  1  0  0  0
 18 19  2  0  0  0
 18 97  1  0  0  0
 19 20  1  0  0  0
 19 24  1  0  0  0
 20 21  2  0  0  0
 20 98  1  0  0  0
 21 23  1  0  0  0
 22 28  1  0  0  0
 22 32  2  0  0  0
 26 27  1  0  0  0
 28 99  1  0  0  0
 28100  1  0  0  0
 29101  1  0  0  0
 29102  1  0  0  0
 33 34  1  0  0  0
 33 66  1  0  0  0
 33 70  2  0  0  0
 34 36  1  0  0  0
 34 59  1  0  0  0
 34103  1  0  0  0
 35 44  2  0  0  0
 35 45  1  0  0  0
 35 68  1  0  0  0
 36 56  1  0  0  0
 36104  1  0  0  0
 37 39  1  0  0  0
 37 47  1  0  0  0
 37 66  1  0  0  0
 37105  1  0  0  0
 38 43  2  0  0  0
 38 46  1  0  0  0
 38 47  1  0  0  0
 39 64  1  0  0  0
 39 67  2  0  0  0
 40 52  1  0  0  0
 40 53  2  0  0  0
 40 58  1  0  0  0
 41106  1  0  0  0
 41107  1  0  0  0
 41108  1  0  0  0
 41 48  1  0  0  0
 42 43  1  0  0  0
 42 66  1  0  0  0
 42109  1  0  0  0
 42110  1  0  0  0
 43 44  1  0  0  0
 44111  1  0  0  0
 45 46  2  0  0  0
 45112  1  0  0  0
 46113  1  0  0  0
 47114  1  0  0  0
 47115  1  0  0  0
 48 56  1  0  0  0
 48 65  1  0  0  0
 48116  1  0  0  0
 49 50  1  0  0  0
 49 53  1  0  0  0
 49 64  1  0  0  0
 49117  1  0  0  0
 50 51  1  0  0  0
 50118  1  0  0  0
 50119  1  0  0  0
 51 52  1  0  0  0
 51120  1  0  0  0
 51121  1  0  0  0
 52122  1  0  0  0
 52123  1  0  0  0
 53 54  1  0  0  0
 54 55  2  0  0  0
 54124  1  0  0  0
 55 57  1  0  0  0
 55125  1  0  0  0
 56 69  2  0  0  0
 57 58  2  0  0  0
 57126  1  0  0  0
 58127  1  0  0  0
 59 60  1  0  0  0
 59 61  1  0  0  0
 59 62  1  0  0  0
 60128  1  0  0  0
 60129  1  0  0  0
 60130  1  0  0  0
 61131  1  0  0  0
 61132  1  0  0  0
 61133  1  0  0  0
 62134  1  0  0  0
 62135  1  0  0  0
 62136  1  0  0  0
 63 65  1  0  0  0
 63137  1  0  0  0
 63138  1  0  0  0
 63139  1  0  0  0
 64140  1  0  0  0
 65141  1  0  0  0
 68 79  1  0  0  0
 71 72  2  0  0  0
 71 73  1  0  0  0
 71142  1  0  0  0
 72 74  1  0  0  0
 72143  1  0  0  0
 73 75  2  0  0  0
 73144  1  0  0  0
 74 76  2  0  0  0
 74145  1  0  0  0
 75 76  1  0  0  0
 75 77  1  0  0  0
 76 82  1  0  0  0
 77 81  1  0  0  0
 77146  1  0  0  0
 77147  1  0  0  0
 78 79  1  0  0  0
 78 80  1  0  0  0
 78148  1  0  0  0
 78149  1  0  0  0
 79150  1  0  0  0
 79151  1  0  0  0
 80 82  1  0  0  0
 80152  1  0  0  0
 80153  1  0  0  0
 81154  1  0  0  0
M  ISO  4   1 100  68 101  79 101  81 100
M  END
> <chiral flag>
0

> <version>
0

> <s_m_source_file>
/data/baiqing/PycharmProjects/Reinvent-master-3.2/result/LINK_invent/BTK/process_docking_weight1_custom_product_contain_oxygen_bond_distance_aromatic_linkinvent_7_9_3/rearranged_h_0006.sdf

> <i_m_source_file_index>
44

> <r_mmod_Potential_Energy-OPLS-2005>
218.607238769531

> <r_mmod_Stretch_Energy-OPLS-2005>
159.231979370117

> <r_mmod_Bend_Energy-OPLS-2005>
215.129379272461

> <r_mmod_Torsional_Energy-OPLS-2005>
207.5615234375

> <r_mmod_Improper_Torsional_Energy-OPLS-2005>
4.57007026672363

> <r_mmod_Van_der_Waal_Energy-OPLS-2005>
148.345428466797

> <r_mmod_Electrostatic_Energy-OPLS-2005>
-397.745849609375

> <r_mmod_Solvation_Energy-OPLS-2005>
-218.712951660156

> <b_mmod_Minimization_Converged-OPLS-2005>
0

> <r_mmod_RMS_Derivative-OPLS-2005>
0.181448921561241

$$$$
45
                    3D
 Structure written by MMmdl.
175185  0  0  1  0            999 V2000
  -30.6908  -14.6509   20.3600 C   0  0  0  0  0  0
  -30.4298  -12.3613   19.4612 C   0  0  0  0  0  0
  -29.5036  -12.3433   18.2283 C   0  0  0  0  0  0
  -28.0230  -12.2281   18.6530 C   0  0  0  0  0  0
  -27.6263  -13.1561   19.8302 C   0  0  2  0  0  0
  -28.6943  -13.1904   20.9473 C   0  0  0  0  0  0
  -25.2576  -13.7993   20.5767 C   0  0  0  0  0  0
  -24.1783  -13.0357   20.9265 C   0  0  0  0  0  0
  -24.6278  -11.6806   20.8836 C   0  0  0  0  0  0
  -23.8946  -10.4242   21.0474 C   0  0  0  0  0  0
  -24.3536   -9.4160   21.9228 C   0  0  0  0  0  0
  -23.6240   -8.2189   22.0765 C   0  0  0  0  0  0
  -22.4234   -8.0238   21.3542 C   0  0  0  0  0  0
  -21.9845   -9.0211   20.4652 C   0  0  0  0  0  0
  -22.7148  -10.2101   20.3092 C   0  0  0  0  0  0
  -21.6835   -6.0709   22.5276 C   0  0  0  0  0  0
  -21.3996   -6.5618   23.8207 C   0  0  0  0  0  0
  -21.3659   -5.6778   24.9175 C   0  0  0  0  0  0
  -21.6053   -4.3041   24.7232 C   0  0  0  0  0  0
  -21.8823   -3.8129   23.4353 C   0  0  0  0  0  0
  -21.9190   -4.6942   22.3408 C   0  0  0  0  0  0
  -22.7831  -13.5236   21.1880 C   0  0  0  0  0  0
  -22.1658   -4.2129   21.0987 F   0  0  0  0  0  0
  -21.5637   -3.4528   25.7744 F   0  0  0  0  0  0
  -29.9952  -13.4713   20.3255 N   0  0  0  0  0  0
  -26.2880  -12.9008   20.3347 N   0  0  0  0  0  0
  -25.9180  -11.6257   20.5892 N   0  0  0  0  0  0
  -22.0410  -12.8284   22.0426 N   0  0  0  0  0  0
  -25.4374  -15.1721   20.4192 N   0  0  0  0  0  0
  -31.9192  -14.6653   20.2941 O   0  0  0  0  0  0
  -21.6606   -6.8837   21.4233 O   0  0  0  0  0  0
  -22.3575  -14.5552   20.6694 O   0  0  0  0  0  0
  -24.6167  -31.8654   23.2070 C   0  0  0  0  0  0
  -25.9050  -32.4811   23.8377 C   0  0  1  0  0  0
  -27.2438  -27.4064   20.1137 C   0  0  0  0  0  0
  -25.5897  -33.8611   24.2309 N   0  0  0  0  0  0
  -23.4070  -30.4865   21.5480 C   0  0  2  0  0  0
  -24.8555  -28.9447   20.1194 C   0  0  0  0  0  0
  -22.7421  -29.4644   22.4984 C   0  0  0  0  0  0
  -18.0273  -28.1380   22.8494 C   0  0  0  0  0  0
  -24.1487  -36.7313   23.2639 C   0  0  0  0  0  0
  -25.9370  -30.8248   21.3620 C   0  0  0  0  0  0
  -26.0164  -29.4557   20.7115 C   0  0  0  0  0  0
  -27.2123  -28.6972   20.6977 C   0  0  0  0  0  0
  -26.0600  -26.9129   19.5173 C   0  0  0  0  0  0
  -24.8741  -27.6743   19.5174 C   0  0  0  0  0  0
  -23.6174  -29.8132   20.1651 C   0  0  0  0  0  0
  -25.4109  -36.3106   24.0334 C   0  0  1  0  0  0
  -20.5865  -28.3664   23.1318 C   0  0  2  0  0  0
  -20.6762  -26.9400   22.5419 C   0  0  0  0  0  0
  -19.5742  -26.6385   21.5215 C   0  0  0  0  0  0
  -18.1921  -26.7928   22.1625 C   0  0  0  0  0  0
  -19.1523  -28.8839   23.2903 C   0  0  0  0  0  0
  -18.9451  -30.1446   23.8911 C   0  0  0  0  0  0
  -17.6454  -30.6587   24.0566 C   0  0  0  0  0  0
  -25.9036  -34.9471   23.5119 C   0  0  0  0  0  0
  -16.5344  -29.9091   23.6327 C   0  0  0  0  0  0
  -16.7261  -28.6506   23.0348 C   0  0  0  0  0  0
  -26.4473  -31.6600   25.0715 C   0  0  0  0  0  0
  -25.3733  -31.3715   26.1460 C   0  0  0  0  0  0
  -27.0307  -30.3041   24.6103 C   0  0  0  0  0  0
  -27.6048  -32.4318   25.7479 C   0  0  0  0  0  0
  -27.5581  -37.1810   24.8464 C   0  0  0  0  0  0
  -21.4147  -29.3030   22.3726 N   0  0  0  0  0  0
  -26.4295  -37.3790   23.9407 N   0  0  0  0  0  0
  -24.6721  -31.0733   22.0976 N   0  0  0  0  0  0
  -23.4180  -28.8192   23.3041 O   0  0  0  0  0  0
  -28.4270  -26.6842   20.1181 O   0  0  0  0  0  0
  -26.5602  -34.8927   22.4684 O   0  0  0  0  0  0
  -23.5352  -32.1415   23.7449 O   0  0  0  0  0  0
  -32.2994  -23.3539   20.1435 C   0  0  0  0  0  0
  -33.5710  -22.7684   20.0429 C   0  0  0  0  0  0
  -32.6520  -20.6851   20.8556 C   0  0  0  0  0  0
  -31.3603  -21.2553   21.0089 C   0  0  0  0  0  0
  -31.1629  -22.6268   20.5997 C   0  0  0  0  0  0
  -33.7453  -21.4260   20.3886 C   0  0  0  0  0  0
  -30.5380  -17.7122   21.8023 C   0  0  0  0  0  0
  -29.8078  -21.2419   23.9116 C   0  0  0  0  0  0
  -30.3466  -19.9340   24.4959 C   0  0  0  0  0  0
  -29.4018  -17.2482   18.2443 C   0  0  0  0  0  0
  -29.2220  -20.9824   22.5202 C   0  0  0  0  0  0
  -29.7566  -18.1143   19.4053 C   0  0  0  0  0  0
  -31.3252  -19.2864   23.5090 C   0  0  0  0  0  0
  -29.1442  -15.9262   18.9325 C   0  0  0  0  0  0
  -30.2382  -20.3216   21.5477 C   0  0  2  0  0  0
  -30.5938  -17.2088   20.3225 C   0  0  2  0  0  0
  -28.3713  -25.2443   20.2596 C   0  0  0  0  0  0
  -29.8029  -24.6404   20.2630 C   0  0  0  0  0  0
  -30.6918  -19.0286   22.1907 N   0  0  0  0  0  0
  -30.0163  -15.8290   20.1186 N   0  0  0  0  0  0
  -30.4695  -16.8203   22.6566 O   0  0  0  0  0  0
  -29.9062  -23.2365   20.6171 O   0  0  0  0  0  0
  -34.9621  -20.8446   20.2724 F   0  0  0  0  0  0
  -31.4714  -12.4593   19.1470 H   0  0  0  0  0  0
  -30.3643  -11.4184   20.0059 H   0  0  0  0  0  0
  -29.7597  -11.4879   17.6016 H   0  0  0  0  0  0
  -29.6756  -13.2054   17.5910 H   0  0  0  0  0  0
  -27.8621  -11.1907   18.9473 H   0  0  0  0  0  0
  -27.3695  -12.3971   17.7962 H   0  0  0  0  0  0
  -27.5385  -14.1157   19.3654 H   0  0  0  0  0  0
  -28.7308  -12.2423   21.4856 H   0  0  0  0  0  0
  -28.4510  -13.9603   21.6809 H   0  0  0  0  0  0
  -25.2672   -9.5648   22.4807 H   0  0  0  0  0  0
  -23.9955   -7.4580   22.7473 H   0  0  0  0  0  0
  -21.0778   -8.8725   19.8958 H   0  0  0  0  0  0
  -22.3607  -10.9653   19.6214 H   0  0  0  0  0  0
  -21.1967   -7.6124   23.9699 H   0  0  0  0  0  0
  -21.1484   -6.0511   25.9076 H   0  0  0  0  0  0
  -22.0606   -2.7592   23.2860 H   0  0  0  0  0  0
  -22.3961  -11.9945   22.4872 H   0  0  0  0  0  0
  -21.1038  -13.1372   22.2577 H   0  0  0  0  0  0
  -24.6789  -15.8335   20.5452 H   0  0  0  0  0  0
  -26.3060  -15.6114   20.1469 H   0  0  0  0  0  0
  -26.7121  -32.5518   23.1141 H   0  0  0  0  0  0
  -25.0051  -33.9773   25.0458 H   0  0  0  0  0  0
  -22.6968  -31.3036   21.4045 H   0  0  0  0  0  0
  -23.3745  -35.9651   23.3312 H   0  0  0  0  0  0
  -24.3579  -36.8919   22.2052 H   0  0  0  0  0  0
  -23.7245  -37.6522   23.6649 H   0  0  0  0  0  0
  -26.0486  -31.5887   20.5915 H   0  0  0  0  0  0
  -26.8246  -30.8814   21.9805 H   0  0  0  0  0  0
  -28.1100  -29.0917   21.1532 H   0  0  0  0  0  0
  -26.0366  -25.9451   19.0393 H   0  0  0  0  0  0
  -23.9815  -27.2746   19.0558 H   0  0  0  0  0  0
  -23.7266  -30.5845   19.4016 H   0  0  0  0  0  0
  -22.7419  -29.2314   19.8705 H   0  0  0  0  0  0
  -25.1289  -36.1971   25.0827 H   0  0  0  0  0  0
  -20.9955  -28.3227   24.1440 H   0  0  0  0  0  0
  -20.5665  -26.2270   23.3606 H   0  0  0  0  0  0
  -21.6633  -26.7445   22.1210 H   0  0  0  0  0  0
  -19.6904  -25.6300   21.1238 H   0  0  0  0  0  0
  -19.6689  -27.3202   20.6752 H   0  0  0  0  0  0
  -17.4194  -26.6677   21.4024 H   0  0  0  0  0  0
  -18.0322  -26.0067   22.9017 H   0  0  0  0  0  0
  -19.7928  -30.7257   24.2285 H   0  0  0  0  0  0
  -17.5012  -31.6269   24.5162 H   0  0  0  0  0  0
  -15.5346  -30.2996   23.7647 H   0  0  0  0  0  0
  -15.8660  -28.0832   22.7054 H   0  0  0  0  0  0
  -24.5898  -30.7075   25.7790 H   0  0  0  0  0  0
  -24.8936  -32.2875   26.4916 H   0  0  0  0  0  0
  -25.8077  -30.8870   27.0214 H   0  0  0  0  0  0
  -26.2857  -29.6800   24.1156 H   0  0  0  0  0  0
  -27.4074  -29.7283   25.4567 H   0  0  0  0  0  0
  -27.8691  -30.4359   23.9259 H   0  0  0  0  0  0
  -27.2672  -33.3609   26.2083 H   0  0  0  0  0  0
  -28.3846  -32.6893   25.0299 H   0  0  0  0  0  0
  -28.0732  -31.8426   26.5373 H   0  0  0  0  0  0
  -28.2605  -38.0100   24.7505 H   0  0  0  0  0  0
  -28.1070  -36.2632   24.6296 H   0  0  0  0  0  0
  -27.2299  -37.1469   25.8867 H   0  0  0  0  0  0
  -20.9312  -29.8746   21.6942 H   0  0  0  0  0  0
  -26.0186  -38.2871   24.1401 H   0  0  0  0  0  0
  -32.2422  -24.3860   19.8374 H   0  0  0  0  0  0
  -34.4098  -23.3465   19.6842 H   0  0  0  0  0  0
  -32.8428  -19.6507   21.0954 H   0  0  0  0  0  0
  -30.6076  -21.9813   23.8421 H   0  0  0  0  0  0
  -29.0507  -21.6646   24.5722 H   0  0  0  0  0  0
  -29.5261  -19.2478   24.7103 H   0  0  0  0  0  0
  -30.8476  -20.1275   25.4453 H   0  0  0  0  0  0
  -30.2515  -17.1637   17.5643 H   0  0  0  0  0  0
  -28.5448  -17.6120   17.6747 H   0  0  0  0  0  0
  -28.7763  -21.8889   22.1208 H   0  0  0  0  0  0
  -28.3750  -20.3030   22.6351 H   0  0  0  0  0  0
  -28.8213  -18.4126   19.8826 H   0  0  0  0  0  0
  -30.3056  -18.9915   19.0608 H   0  0  0  0  0  0
  -31.7543  -18.3904   23.9606 H   0  0  0  0  0  0
  -32.1801  -19.9498   23.3800 H   0  0  0  0  0  0
  -29.2170  -15.1140   18.2193 H   0  0  0  0  0  0
  -28.1230  -16.0117   19.2966 H   0  0  0  0  0  0
  -29.6174  -20.1637   20.6820 H   0  0  0  0  0  0
  -31.6345  -17.2207   19.9954 H   0  0  0  0  0  0
  -27.8645  -24.9974   21.1934 H   0  0  0  0  0  0
  -27.8074  -24.7836   19.4490 H   0  0  0  0  0  0
  -30.4121  -25.2168   20.9611 H   0  0  0  0  0  0
  -30.2090  -24.7987   19.2630 H   0  0  0  0  0  0
  1 25  1  0  0  0
  1 30  2  0  0  0
  1 90  1  0  0  0
  2  3  1  0  0  0
  2 25  1  0  0  0
  2 94  1  0  0  0
  2 95  1  0  0  0
  3  4  1  0  0  0
  3 96  1  0  0  0
  3 97  1  0  0  0
  4  5  1  0  0  0
  4 98  1  0  0  0
  4 99  1  0  0  0
  5  6  1  0  0  0
  5 26  1  0  0  0
  5100  1  0  0  0
  6 25  1  0  0  0
  6101  1  0  0  0
  6102  1  0  0  0
  7  8  2  0  0  0
  7 26  1  0  0  0
  7 29  1  0  0  0
  8  9  1  0  0  0
  8 22  1  0  0  0
  9 10  1  0  0  0
  9 27  2  0  0  0
 10 11  2  0  0  0
 10 15  1  0  0  0
 11 12  1  0  0  0
 11103  1  0  0  0
 12 13  2  0  0  0
 12104  1  0  0  0
 13 14  1  0  0  0
 13 31  1  0  0  0
 14 15  2  0  0  0
 14105  1  0  0  0
 15106  1  0  0  0
 16 17  2  0  0  0
 16 21  1  0  0  0
 16 31  1  0  0  0
 17 18  1  0  0  0
 17107  1  0  0  0
 18 19  2  0  0  0
 18108  1  0  0  0
 19 20  1  0  0  0
 19 24  1  0  0  0
 20 21  2  0  0  0
 20109  1  0  0  0
 21 23  1  0  0  0
 22 28  1  0  0  0
 22 32  2  0  0  0
 26 27  1  0  0  0
 28110  1  0  0  0
 28111  1  0  0  0
 29112  1  0  0  0
 29113  1  0  0  0
 33 34  1  0  0  0
 33 66  1  0  0  0
 33 70  2  0  0  0
 34 36  1  0  0  0
 34 59  1  0  0  0
 34114  1  0  0  0
 35 44  2  0  0  0
 35 45  1  0  0  0
 35 68  1  0  0  0
 36 56  1  0  0  0
 36115  1  0  0  0
 37 39  1  0  0  0
 37 47  1  0  0  0
 37 66  1  0  0  0
 37116  1  0  0  0
 38 43  2  0  0  0
 38 46  1  0  0  0
 38 47  1  0  0  0
 39 64  1  0  0  0
 39 67  2  0  0  0
 40 52  1  0  0  0
 40 53  2  0  0  0
 40 58  1  0  0  0
 41117  1  0  0  0
 41118  1  0  0  0
 41119  1  0  0  0
 41 48  1  0  0  0
 42 43  1  0  0  0
 42 66  1  0  0  0
 42120  1  0  0  0
 42121  1  0  0  0
 43 44  1  0  0  0
 44122  1  0  0  0
 45 46  2  0  0  0
 45123  1  0  0  0
 46124  1  0  0  0
 47125  1  0  0  0
 47126  1  0  0  0
 48 56  1  0  0  0
 48 65  1  0  0  0
 48127  1  0  0  0
 49 50  1  0  0  0
 49 53  1  0  0  0
 49 64  1  0  0  0
 49128  1  0  0  0
 50 51  1  0  0  0
 50129  1  0  0  0
 50130  1  0  0  0
 51 52  1  0  0  0
 51131  1  0  0  0
 51132  1  0  0  0
 52133  1  0  0  0
 52134  1  0  0  0
 53 54  1  0  0  0
 54 55  2  0  0  0
 54135  1  0  0  0
 55 57  1  0  0  0
 55136  1  0  0  0
 56 69  2  0  0  0
 57 58  2  0  0  0
 57137  1  0  0  0
 58138  1  0  0  0
 59 60  1  0  0  0
 59 61  1  0  0  0
 59 62  1  0  0  0
 60139  1  0  0  0
 60140  1  0  0  0
 60141  1  0  0  0
 61142  1  0  0  0
 61143  1  0  0  0
 61144  1  0  0  0
 62145  1  0  0  0
 62146  1  0  0  0
 62147  1  0  0  0
 63 65  1  0  0  0
 63148  1  0  0  0
 63149  1  0  0  0
 63150  1  0  0  0
 64151  1  0  0  0
 65152  1  0  0  0
 68 87  1  0  0  0
 71 72  2  0  0  0
 71 75  1  0  0  0
 71153  1  0  0  0
 72 76  1  0  0  0
 72154  1  0  0  0
 73 74  1  0  0  0
 73 76  2  0  0  0
 73155  1  0  0  0
 74 75  2  0  0  0
 74 85  1  0  0  0
 75 92  1  0  0  0
 76 93  1  0  0  0
 77 89  1  0  0  0
 77 91  2  0  0  0
 77 86  1  0  0  0
 78 79  1  0  0  0
 78 81  1  0  0  0
 78156  1  0  0  0
 78157  1  0  0  0
 79 83  1  0  0  0
 79158  1  0  0  0
 79159  1  0  0  0
 80 82  1  0  0  0
 80 84  1  0  0  0
 80160  1  0  0  0
 80161  1  0  0  0
 81 85  1  0  0  0
 81162  1  0  0  0
 81163  1  0  0  0
 82 86  1  0  0  0
 82164  1  0  0  0
 82165  1  0  0  0
 83 89  1  0  0  0
 83166  1  0  0  0
 83167  1  0  0  0
 84 90  1  0  0  0
 84168  1  0  0  0
 84169  1  0  0  0
 85 89  1  0  0  0
 85170  1  0  0  0
 86 90  1  0  0  0
 86171  1  0  0  0
 87 88  1  0  0  0
 87172  1  0  0  0
 87173  1  0  0  0
 88 92  1  0  0  0
 88174  1  0  0  0
 88175  1  0  0  0
M  ISO  4   1 100  68 101  87 101  90 100
M  END
> <chiral flag>
0

> <version>
0

> <s_m_source_file>
/data/baiqing/PycharmProjects/Reinvent-master-3.2/result/LINK_invent/BTK/process_docking_weight1_custom_product_contain_oxygen_bond_distance_aromatic_linkinvent_7_9_3/rearranged_h_0006.sdf

> <i_m_source_file_index>
45

> <r_mmod_Potential_Energy-OPLS-2005>
341.888610839844

> <r_mmod_Stretch_Energy-OPLS-2005>
75.0624008178711

> <r_mmod_Bend_Energy-OPLS-2005>
183.621017456055

> <r_mmod_Torsional_Energy-OPLS-2005>
386.693695068359

> <r_mmod_Improper_Torsional_Energy-OPLS-2005>
13.0488004684448

> <r_mmod_Van_der_Waal_Energy-OPLS-2005>
189.378173828125

> <r_mmod_Electrostatic_Energy-OPLS-2005>
-355.38232421875

> <r_mmod_Solvation_Energy-OPLS-2005>
-211.03434753418

> <b_mmod_Minimization_Converged-OPLS-2005>
0

> <r_mmod_RMS_Derivative-OPLS-2005>
1.2236270904541

$$$$
46
                    3D
 Structure written by MMmdl.
156165  0  0  1  0            999 V2000
  -30.6843  -14.7836   20.4720 C   0  0  0  0  0  0
  -30.4075  -12.4963   19.4794 C   0  0  0  0  0  0
  -29.4970  -12.5075   18.2360 C   0  0  0  0  0  0
  -28.0293  -12.3187   18.6548 C   0  0  0  0  0  0
  -27.6276  -13.2387   19.8378 C   0  0  2  0  0  0
  -28.6757  -13.2366   20.9744 C   0  0  0  0  0  0
  -25.2445  -13.8194   20.5697 C   0  0  0  0  0  0
  -24.1758  -13.0439   20.9213 C   0  0  0  0  0  0
  -24.6357  -11.6916   20.8741 C   0  0  0  0  0  0
  -23.9042  -10.4294   21.0391 C   0  0  0  0  0  0
  -24.3600   -9.4214   21.9169 C   0  0  0  0  0  0
  -23.6284   -8.2248   22.0754 C   0  0  0  0  0  0
  -22.4267   -8.0273   21.3551 C   0  0  0  0  0  0
  -21.9895   -9.0240   20.4652 C   0  0  0  0  0  0
  -22.7214  -10.2123   20.3047 C   0  0  0  0  0  0
  -21.6855   -6.0722   22.5265 C   0  0  0  0  0  0
  -21.4024   -6.5632   23.8196 C   0  0  0  0  0  0
  -21.3662   -5.6785   24.9159 C   0  0  0  0  0  0
  -21.6044   -4.3048   24.7210 C   0  0  0  0  0  0
  -21.8822   -3.8137   23.4334 C   0  0  0  0  0  0
  -21.9200   -4.6951   22.3389 C   0  0  0  0  0  0
  -22.7780  -13.5219   21.1853 C   0  0  0  0  0  0
  -22.1671   -4.2138   21.0966 F   0  0  0  0  0  0
  -21.5621   -3.4539   25.7730 F   0  0  0  0  0  0
  -29.9636  -13.6022   20.3737 N   0  0  0  0  0  0
  -26.2870  -12.9423   20.3255 N   0  0  0  0  0  0
  -25.9288  -11.6561   20.5748 N   0  0  0  0  0  0
  -22.0419  -12.8232   22.0406 N   0  0  0  0  0  0
  -25.4078  -15.1920   20.4083 N   0  0  0  0  0  0
  -31.8856  -14.7202   20.1890 O   0  0  0  0  0  0
  -21.6643   -6.8867   21.4235 O   0  0  0  0  0  0
  -22.3471  -14.5527   20.6688 O   0  0  0  0  0  0
  -24.6344  -31.8524   23.1964 C   0  0  0  0  0  0
  -25.9153  -32.4730   23.8342 C   0  0  1  0  0  0
  -27.2092  -27.2316   20.1580 C   0  0  0  0  0  0
  -25.5944  -33.8538   24.2251 N   0  0  0  0  0  0
  -23.4342  -30.4755   21.5393 C   0  0  2  0  0  0
  -24.8853  -28.9255   20.1050 C   0  0  0  0  0  0
  -22.7510  -29.4593   22.4861 C   0  0  0  0  0  0
  -18.0292  -28.1371   22.8469 C   0  0  0  0  0  0
  -24.1495  -36.7279   23.2642 C   0  0  0  0  0  0
  -25.9830  -30.7559   21.3856 C   0  0  0  0  0  0
  -26.0560  -29.3779   20.7284 C   0  0  0  0  0  0
  -27.2247  -28.5453   20.7445 C   0  0  0  0  0  0
  -26.0318  -26.8704   19.4711 C   0  0  0  0  0  0
  -24.8807  -27.6819   19.4585 C   0  0  0  0  0  0
  -23.6550  -29.8139   20.1543 C   0  0  0  0  0  0
  -25.4112  -36.3049   24.0329 C   0  0  1  0  0  0
  -20.5894  -28.3711   23.1219 C   0  0  2  0  0  0
  -20.6763  -26.9417   22.5385 C   0  0  0  0  0  0
  -19.5746  -26.6369   21.5186 C   0  0  0  0  0  0
  -18.1934  -26.7918   22.1608 C   0  0  0  0  0  0
  -19.1541  -28.8855   23.2853 C   0  0  0  0  0  0
  -18.9461  -30.1438   23.8912 C   0  0  0  0  0  0
  -17.6459  -30.6577   24.0558 C   0  0  0  0  0  0
  -25.9059  -34.9420   23.5086 C   0  0  0  0  0  0
  -16.5348  -29.9065   23.6337 C   0  0  0  0  0  0
  -16.7282  -28.6477   23.0371 C   0  0  0  0  0  0
  -26.4530  -31.6569   25.0746 C   0  0  0  0  0  0
  -25.3748  -31.3705   26.1461 C   0  0  0  0  0  0
  -27.0386  -30.2978   24.6279 C   0  0  0  0  0  0
  -27.6089  -32.4311   25.7520 C   0  0  0  0  0  0
  -27.5574  -37.1792   24.8464 C   0  0  0  0  0  0
  -21.4211  -29.3061   22.3602 N   0  0  0  0  0  0
  -26.4283  -37.3746   23.9405 N   0  0  0  0  0  0
  -24.7028  -31.0461   22.0966 N   0  0  0  0  0  0
  -23.4183  -28.8129   23.2979 O   0  0  0  0  0  0
  -28.2302  -26.2486   20.2448 O   0  0  0  0  0  0
  -26.5645  -34.8902   22.4661 O   0  0  0  0  0  0
  -23.5480  -32.1379   23.7218 O   0  0  0  0  0  0
  -28.2880  -22.5617   21.8613 C   0  0  0  0  0  0
  -28.9611  -22.8729   19.6000 C   0  0  0  0  0  0
  -28.6250  -21.1661   21.7948 C   0  0  0  0  0  0
  -29.3024  -21.4682   19.5348 C   0  0  0  0  0  0
  -28.4344  -23.4838   20.7757 C   0  0  0  0  0  0
  -29.1381  -20.5482   20.6209 C   0  0  0  0  0  0
  -30.5913  -18.6304   21.3143 C   0  0  0  0  0  0
  -28.3943  -18.1182   20.6883 C   0  0  0  0  0  0
  -31.1094  -17.2037   20.8838 C   0  0  0  0  0  0
  -28.7677  -16.5754   20.4454 C   0  0  0  0  0  0
  -27.8006  -24.9603   20.9154 C   0  0  0  0  0  0
  -29.4636  -19.1263   20.5181 N   0  0  0  0  0  0
  -30.1419  -16.0608   20.7483 N   0  0  0  0  0  0
  -31.4481  -12.5878   19.1660 H   0  0  0  0  0  0
  -30.3423  -11.5377   19.9947 H   0  0  0  0  0  0
  -29.7933  -11.7234   17.5372 H   0  0  0  0  0  0
  -29.6106  -13.4521   17.7018 H   0  0  0  0  0  0
  -27.8952  -11.2735   18.9369 H   0  0  0  0  0  0
  -27.3701  -12.4880   17.8023 H   0  0  0  0  0  0
  -27.5966  -14.2409   19.4138 H   0  0  0  0  0  0
  -28.7306  -12.2546   21.4463 H   0  0  0  0  0  0
  -28.4030  -13.9346   21.7656 H   0  0  0  0  0  0
  -25.2737   -9.5714   22.4741 H   0  0  0  0  0  0
  -23.9994   -7.4664   22.7496 H   0  0  0  0  0  0
  -21.0816   -8.8753   19.8977 H   0  0  0  0  0  0
  -22.3648  -10.9658   19.6163 H   0  0  0  0  0  0
  -21.2021   -7.6142   23.9695 H   0  0  0  0  0  0
  -21.1488   -6.0515   25.9063 H   0  0  0  0  0  0
  -22.0604   -2.7598   23.2828 H   0  0  0  0  0  0
  -22.4055  -11.9907   22.4808 H   0  0  0  0  0  0
  -21.1052  -13.1300   22.2631 H   0  0  0  0  0  0
  -24.6321  -15.8376   20.5073 H   0  0  0  0  0  0
  -26.2469  -15.6287   20.0536 H   0  0  0  0  0  0
  -26.7219  -32.5381   23.1084 H   0  0  0  0  0  0
  -25.0083  -33.9684   25.0394 H   0  0  0  0  0  0
  -22.7340  -31.3012   21.3942 H   0  0  0  0  0  0
  -23.3735  -35.9631   23.3287 H   0  0  0  0  0  0
  -24.3594  -36.8923   22.2061 H   0  0  0  0  0  0
  -23.7282  -37.6486   23.6689 H   0  0  0  0  0  0
  -26.1266  -31.5106   20.6123 H   0  0  0  0  0  0
  -26.8569  -30.8047   22.0229 H   0  0  0  0  0  0
  -28.1125  -28.8832   21.2611 H   0  0  0  0  0  0
  -25.9890  -25.9162   18.9661 H   0  0  0  0  0  0
  -23.9909  -27.3395   18.9489 H   0  0  0  0  0  0
  -23.7749  -30.5956   19.4025 H   0  0  0  0  0  0
  -22.7744  -29.2480   19.8455 H   0  0  0  0  0  0
  -25.1279  -36.1906   25.0821 H   0  0  0  0  0  0
  -21.0001  -28.3312   24.1330 H   0  0  0  0  0  0
  -20.5610  -26.2344   23.3603 H   0  0  0  0  0  0
  -21.6633  -26.7392   22.1220 H   0  0  0  0  0  0
  -19.6898  -25.6269   21.1238 H   0  0  0  0  0  0
  -19.6675  -27.3154   20.6689 H   0  0  0  0  0  0
  -17.4188  -26.6646   21.4024 H   0  0  0  0  0  0
  -18.0367  -26.0063   22.9014 H   0  0  0  0  0  0
  -19.7938  -30.7231   24.2308 H   0  0  0  0  0  0
  -17.5022  -31.6277   24.5110 H   0  0  0  0  0  0
  -15.5346  -30.2965   23.7653 H   0  0  0  0  0  0
  -15.8685  -28.0776   22.7094 H   0  0  0  0  0  0
  -24.5942  -30.7047   25.7769 H   0  0  0  0  0  0
  -24.8915  -32.2852   26.4899 H   0  0  0  0  0  0
  -25.8061  -30.8876   27.0242 H   0  0  0  0  0  0
  -26.2974  -29.6712   24.1308 H   0  0  0  0  0  0
  -27.4036  -29.7268   25.4833 H   0  0  0  0  0  0
  -27.8882  -30.4201   23.9552 H   0  0  0  0  0  0
  -27.2706  -33.3616   26.2090 H   0  0  0  0  0  0
  -28.3909  -32.6861   25.0351 H   0  0  0  0  0  0
  -28.0776  -31.8458   26.5450 H   0  0  0  0  0  0
  -28.2571  -38.0104   24.7498 H   0  0  0  0  0  0
  -28.1081  -36.2631   24.6277 H   0  0  0  0  0  0
  -27.2305  -37.1428   25.8873 H   0  0  0  0  0  0
  -20.9376  -29.8826   21.6848 H   0  0  0  0  0  0
  -26.0157  -38.2820   24.1383 H   0  0  0  0  0  0
  -27.8538  -22.9196   22.7851 H   0  0  0  0  0  0
  -29.0704  -23.4784   18.7112 H   0  0  0  0  0  0
  -28.4578  -20.5587   22.6732 H   0  0  0  0  0  0
  -29.6810  -21.0849   18.5985 H   0  0  0  0  0  0
  -31.4135  -19.3463   21.2495 H   0  0  0  0  0  0
  -30.3010  -18.6031   22.3671 H   0  0  0  0  0  0
  -28.0131  -18.2167   21.7079 H   0  0  0  0  0  0
  -27.5545  -18.3854   20.0444 H   0  0  0  0  0  0
  -31.8983  -16.9164   21.5824 H   0  0  0  0  0  0
  -31.6091  -17.3189   19.9201 H   0  0  0  0  0  0
  -28.5896  -16.3605   19.3920 H   0  0  0  0  0  0
  -28.0427  -15.9835   20.9988 H   0  0  0  0  0  0
  -27.8439  -25.1923   21.9811 H   0  0  0  0  0  0
  -26.7431  -24.7778   20.7306 H   0  0  0  0  0  0
  1 25  1  0  0  0
  1 30  2  0  0  0
  1 83  1  0  0  0
  2  3  1  0  0  0
  2 25  1  0  0  0
  2 84  1  0  0  0
  2 85  1  0  0  0
  3  4  1  0  0  0
  3 86  1  0  0  0
  3 87  1  0  0  0
  4  5  1  0  0  0
  4 88  1  0  0  0
  4 89  1  0  0  0
  5  6  1  0  0  0
  5 26  1  0  0  0
  5 90  1  0  0  0
  6 25  1  0  0  0
  6 91  1  0  0  0
  6 92  1  0  0  0
  7  8  2  0  0  0
  7 26  1  0  0  0
  7 29  1  0  0  0
  8  9  1  0  0  0
  8 22  1  0  0  0
  9 10  1  0  0  0
  9 27  2  0  0  0
 10 11  2  0  0  0
 10 15  1  0  0  0
 11 12  1  0  0  0
 11 93  1  0  0  0
 12 13  2  0  0  0
 12 94  1  0  0  0
 13 14  1  0  0  0
 13 31  1  0  0  0
 14 15  2  0  0  0
 14 95  1  0  0  0
 15 96  1  0  0  0
 16 17  2  0  0  0
 16 21  1  0  0  0
 16 31  1  0  0  0
 17 18  1  0  0  0
 17 97  1  0  0  0
 18 19  2  0  0  0
 18 98  1  0  0  0
 19 20  1  0  0  0
 19 24  1  0  0  0
 20 21  2  0  0  0
 20 99  1  0  0  0
 21 23  1  0  0  0
 22 28  1  0  0  0
 22 32  2  0  0  0
 26 27  1  0  0  0
 28100  1  0  0  0
 28101  1  0  0  0
 29102  1  0  0  0
 29103  1  0  0  0
 33 34  1  0  0  0
 33 66  1  0  0  0
 33 70  2  0  0  0
 34 36  1  0  0  0
 34 59  1  0  0  0
 34104  1  0  0  0
 35 44  2  0  0  0
 35 45  1  0  0  0
 35 68  1  0  0  0
 36 56  1  0  0  0
 36105  1  0  0  0
 37 39  1  0  0  0
 37 47  1  0  0  0
 37 66  1  0  0  0
 37106  1  0  0  0
 38 43  2  0  0  0
 38 46  1  0  0  0
 38 47  1  0  0  0
 39 64  1  0  0  0
 39 67  2  0  0  0
 40 52  1  0  0  0
 40 53  2  0  0  0
 40 58  1  0  0  0
 41107  1  0  0  0
 41108  1  0  0  0
 41109  1  0  0  0
 41 48  1  0  0  0
 42 43  1  0  0  0
 42 66  1  0  0  0
 42110  1  0  0  0
 42111  1  0  0  0
 43 44  1  0  0  0
 44112  1  0  0  0
 45 46  2  0  0  0
 45113  1  0  0  0
 46114  1  0  0  0
 47115  1  0  0  0
 47116  1  0  0  0
 48 56  1  0  0  0
 48 65  1  0  0  0
 48117  1  0  0  0
 49 50  1  0  0  0
 49 53  1  0  0  0
 49 64  1  0  0  0
 49118  1  0  0  0
 50 51  1  0  0  0
 50119  1  0  0  0
 50120  1  0  0  0
 51 52  1  0  0  0
 51121  1  0  0  0
 51122  1  0  0  0
 52123  1  0  0  0
 52124  1  0  0  0
 53 54  1  0  0  0
 54 55  2  0  0  0
 54125  1  0  0  0
 55 57  1  0  0  0
 55126  1  0  0  0
 56 69  2  0  0  0
 57 58  2  0  0  0
 57127  1  0  0  0
 58128  1  0  0  0
 59 60  1  0  0  0
 59 61  1  0  0  0
 59 62  1  0  0  0
 60129  1  0  0  0
 60130  1  0  0  0
 60131  1  0  0  0
 61132  1  0  0  0
 61133  1  0  0  0
 61134  1  0  0  0
 62135  1  0  0  0
 62136  1  0  0  0
 62137  1  0  0  0
 63 65  1  0  0  0
 63138  1  0  0  0
 63139  1  0  0  0
 63140  1  0  0  0
 64141  1  0  0  0
 65142  1  0  0  0
 68 81  1  0  0  0
 71 73  2  0  0  0
 71 75  1  0  0  0
 71143  1  0  0  0
 72 74  1  0  0  0
 72 75  2  0  0  0
 72144  1  0  0  0
 73 76  1  0  0  0
 73145  1  0  0  0
 74 76  2  0  0  0
 74146  1  0  0  0
 75 81  1  0  0  0
 76 82  1  0  0  0
 77 79  1  0  0  0
 77 82  1  0  0  0
 77147  1  0  0  0
 77148  1  0  0  0
 78 80  1  0  0  0
 78 82  1  0  0  0
 78149  1  0  0  0
 78150  1  0  0  0
 79 83  1  0  0  0
 79151  1  0  0  0
 79152  1  0  0  0
 80 83  1  0  0  0
 80153  1  0  0  0
 80154  1  0  0  0
 81155  1  0  0  0
 81156  1  0  0  0
M  ISO  4   1 100  68 101  81 101  83 100
M  END
> <chiral flag>
0

> <version>
0

> <s_m_source_file>
/data/baiqing/PycharmProjects/Reinvent-master-3.2/result/LINK_invent/BTK/process_docking_weight1_custom_product_contain_oxygen_bond_distance_aromatic_linkinvent_7_9_3/rearranged_h_0006.sdf

> <i_m_source_file_index>
46

> <r_mmod_Potential_Energy-OPLS-2005>
457.782806396484

> <r_mmod_Stretch_Energy-OPLS-2005>
130.995407104492

> <r_mmod_Bend_Energy-OPLS-2005>
226.774215698242

> <r_mmod_Torsional_Energy-OPLS-2005>
374.123565673828

> <r_mmod_Improper_Torsional_Energy-OPLS-2005>
10.2664794921875

> <r_mmod_Van_der_Waal_Energy-OPLS-2005>
148.20539855957

> <r_mmod_Electrostatic_Energy-OPLS-2005>
-330.761962890625

> <r_mmod_Solvation_Energy-OPLS-2005>
-219.315383911133

> <b_mmod_Minimization_Converged-OPLS-2005>
0

> <r_mmod_RMS_Derivative-OPLS-2005>
2.44658398628235

$$$$
47
                    3D
 Structure written by MMmdl.
178189  0  0  1  0            999 V2000
  -30.7194  -14.4139   20.5750 C   0  0  0  0  0  0
  -30.4094  -12.2723   19.4191 C   0  0  0  0  0  0
  -29.4852  -12.4986   18.2066 C   0  0  0  0  0  0
  -28.0076  -12.3605   18.6195 C   0  0  0  0  0  0
  -27.6592  -13.2010   19.8766 C   0  0  2  0  0  0
  -28.6951  -12.9672   20.9982 C   0  0  0  0  0  0
  -25.2558  -13.8157   20.5670 C   0  0  0  0  0  0
  -24.1806  -13.0457   20.9197 C   0  0  0  0  0  0
  -24.6334  -11.6913   20.8717 C   0  0  0  0  0  0
  -23.9006  -10.4303   21.0395 C   0  0  0  0  0  0
  -24.3581   -9.4228   21.9182 C   0  0  0  0  0  0
  -23.6287   -8.2242   22.0736 C   0  0  0  0  0  0
  -22.4269   -8.0262   21.3525 C   0  0  0  0  0  0
  -21.9892   -9.0227   20.4625 C   0  0  0  0  0  0
  -22.7181  -10.2129   20.3050 C   0  0  0  0  0  0
  -21.6854   -6.0731   22.5277 C   0  0  0  0  0  0
  -21.4004   -6.5635   23.8212 C   0  0  0  0  0  0
  -21.3673   -5.6789   24.9176 C   0  0  0  0  0  0
  -21.6042   -4.3054   24.7225 C   0  0  0  0  0  0
  -21.8825   -3.8144   23.4350 C   0  0  0  0  0  0
  -21.9188   -4.6956   22.3401 C   0  0  0  0  0  0
  -22.7826  -13.5239   21.1881 C   0  0  0  0  0  0
  -22.1662   -4.2142   21.0981 F   0  0  0  0  0  0
  -21.5639   -3.4534   25.7742 F   0  0  0  0  0  0
  -30.0347  -13.2480   20.4504 N   0  0  0  0  0  0
  -26.2986  -12.9323   20.3366 N   0  0  0  0  0  0
  -25.9261  -11.6484   20.5765 N   0  0  0  0  0  0
  -22.0470  -12.8212   22.0434 N   0  0  0  0  0  0
  -25.4322  -15.1877   20.4054 N   0  0  0  0  0  0
  -31.8282  -14.6017   20.0648 O   0  0  0  0  0  0
  -21.6632   -6.8861   21.4237 O   0  0  0  0  0  0
  -22.3517  -14.5559   20.6762 O   0  0  0  0  0  0
  -24.6076  -31.8668   23.2102 C   0  0  0  0  0  0
  -25.8999  -32.4810   23.8383 C   0  0  1  0  0  0
  -27.2631  -27.4970   20.0678 C   0  0  0  0  0  0
  -25.5866  -33.8614   24.2305 N   0  0  0  0  0  0
  -23.3946  -30.4835   21.5500 C   0  0  2  0  0  0
  -24.8496  -28.9513   20.1135 C   0  0  0  0  0  0
  -22.7373  -29.4603   22.5011 C   0  0  0  0  0  0
  -18.0223  -28.1367   22.8442 C   0  0  0  0  0  0
  -24.1490  -36.7319   23.2637 C   0  0  0  0  0  0
  -25.9136  -30.8515   21.3528 C   0  0  0  0  0  0
  -26.0028  -29.4897   20.6983 C   0  0  0  0  0  0
  -27.2134  -28.7690   20.6724 C   0  0  0  0  0  0
  -26.0979  -26.9530   19.4872 C   0  0  0  0  0  0
  -24.8878  -27.6780   19.5093 C   0  0  0  0  0  0
  -23.6013  -29.8044   20.1677 C   0  0  0  0  0  0
  -25.4112  -36.3116   24.0318 C   0  0  1  0  0  0
  -20.5812  -28.3635   23.1333 C   0  0  2  0  0  0
  -20.6733  -26.9372   22.5419 C   0  0  0  0  0  0
  -19.5741  -26.6365   21.5174 C   0  0  0  0  0  0
  -18.1897  -26.7907   22.1577 C   0  0  0  0  0  0
  -19.1471  -28.8815   23.2875 C   0  0  0  0  0  0
  -18.9439  -30.1420   23.8902 C   0  0  0  0  0  0
  -17.6462  -30.6604   24.0547 C   0  0  0  0  0  0
  -25.9017  -34.9472   23.5121 C   0  0  0  0  0  0
  -16.5331  -29.9106   23.6343 C   0  0  0  0  0  0
  -16.7213  -28.6510   23.0351 C   0  0  0  0  0  0
  -26.4464  -31.6569   25.0672 C   0  0  0  0  0  0
  -25.3770  -31.3675   26.1467 C   0  0  0  0  0  0
  -27.0297  -30.3023   24.5988 C   0  0  0  0  0  0
  -27.6015  -32.4296   25.7459 C   0  0  0  0  0  0
  -27.5592  -37.1814   24.8465 C   0  0  0  0  0  0
  -21.4099  -29.3028   22.3780 N   0  0  0  0  0  0
  -26.4313  -37.3777   23.9384 N   0  0  0  0  0  0
  -24.6545  -31.0788   22.0982 N   0  0  0  0  0  0
  -23.4173  -28.8116   23.3013 O   0  0  0  0  0  0
  -28.4487  -26.8074   20.0555 O   0  0  0  0  0  0
  -26.5595  -34.8935   22.4688 O   0  0  0  0  0  0
  -23.5295  -32.1394   23.7547 O   0  0  0  0  0  0
  -31.0504  -18.8120   19.9893 C   0  0  0  0  0  0
  -30.7271  -24.0821   25.9559 C   0  0  0  0  0  0
  -30.5523  -17.4891   20.0034 C   0  0  0  0  0  0
  -31.4001  -22.9819   26.5229 C   0  0  0  0  0  0
  -30.8584  -17.3413   22.4434 C   0  0  0  0  0  0
  -31.7414  -23.5903   23.7945 C   0  0  0  0  0  0
  -31.4716  -19.3553   21.2150 C   0  0  0  0  0  0
  -31.3665  -18.6473   22.3969 C   0  0  0  0  0  0
  -30.8764  -24.3777   24.5806 C   0  0  0  0  0  0
  -32.4253  -22.4997   24.3657 C   0  0  0  0  0  0
  -30.4845  -16.7464   21.2181 C   0  0  0  0  0  0
  -32.2475  -22.1890   25.7299 C   0  0  0  0  0  0
  -32.1412  -20.6536   21.4717 C   0  0  0  0  0  0
  -31.9426  -19.4775   23.5071 C   0  0  0  0  0  0
  -26.6251  -25.6167   24.1725 C   0  0  0  0  0  0
  -26.6795  -25.9482   22.6937 C   0  0  0  0  0  0
  -27.7970  -24.6509   24.3460 C   0  0  0  0  0  0
  -28.1877  -25.9813   22.3785 C   0  0  2  0  0  0
  -33.2866  -21.6239   23.4830 C   0  0  0  0  0  0
  -30.0991  -25.5144   23.9286 C   0  0  0  0  0  0
  -28.5125  -25.6540   20.8939 C   0  0  0  0  0  0
  -32.4753  -20.6422   22.7786 N   0  0  0  0  0  0
  -30.0704  -15.3966   21.2164 N   0  0  0  0  0  0
  -28.8199  -25.0314   23.3384 N   0  3  1  0  0  0
  -32.3772  -21.5218   20.6260 O   0  0  0  0  0  0
  -32.8638  -21.1122   26.2731 F   0  0  0  0  0  0
  -31.4563  -12.3551   19.1206 H   0  0  0  0  0  0
  -30.2917  -11.2605   19.8104 H   0  0  0  0  0  0
  -29.7196  -11.7833   17.4176 H   0  0  0  0  0  0
  -29.6560  -13.4908   17.7853 H   0  0  0  0  0  0
  -27.8196  -11.3039   18.8175 H   0  0  0  0  0  0
  -27.3547  -12.6310   17.7889 H   0  0  0  0  0  0
  -27.7096  -14.2508   19.5860 H   0  0  0  0  0  0
  -28.6511  -11.9310   21.3381 H   0  0  0  0  0  0
  -28.4574  -13.5683   21.8778 H   0  0  0  0  0  0
  -25.2728   -9.5713   22.4754 H   0  0  0  0  0  0
  -24.0008   -7.4627   22.7441 H   0  0  0  0  0  0
  -21.0839   -8.8727   19.8916 H   0  0  0  0  0  0
  -22.3633  -10.9665   19.6160 H   0  0  0  0  0  0
  -21.1988   -7.6142   23.9715 H   0  0  0  0  0  0
  -21.1498   -6.0519   25.9083 H   0  0  0  0  0  0
  -22.0592   -2.7605   23.2849 H   0  0  0  0  0  0
  -22.4106  -11.9875   22.4810 H   0  0  0  0  0  0
  -21.1078  -13.1214   22.2641 H   0  0  0  0  0  0
  -24.6691  -15.8496   20.4915 H   0  0  0  0  0  0
  -26.2938  -15.6149   20.0901 H   0  0  0  0  0  0
  -26.7087  -32.5557   23.1157 H   0  0  0  0  0  0
  -25.0091  -33.9751   25.0515 H   0  0  0  0  0  0
  -22.6797  -31.2959   21.4075 H   0  0  0  0  0  0
  -23.3748  -35.9671   23.3312 H   0  0  0  0  0  0
  -24.3598  -36.8913   22.2057 H   0  0  0  0  0  0
  -23.7269  -37.6524   23.6671 H   0  0  0  0  0  0
  -26.0158  -31.6237   20.5875 H   0  0  0  0  0  0
  -26.8036  -30.9095   21.9700 H   0  0  0  0  0  0
  -28.1063  -29.1756   21.1282 H   0  0  0  0  0  0
  -26.1294  -25.9837   19.0134 H   0  0  0  0  0  0
  -24.0020  -27.2493   19.0593 H   0  0  0  0  0  0
  -23.6957  -30.5723   19.4010 H   0  0  0  0  0  0
  -22.7319  -29.2092   19.8841 H   0  0  0  0  0  0
  -25.1310  -36.1971   25.0811 H   0  0  0  0  0  0
  -20.9859  -28.3220   24.1459 H   0  0  0  0  0  0
  -20.5614  -26.2248   23.3603 H   0  0  0  0  0  0
  -21.6629  -26.7455   22.1214 H   0  0  0  0  0  0
  -19.6950  -25.6245   21.1244 H   0  0  0  0  0  0
  -19.6734  -27.3162   20.6679 H   0  0  0  0  0  0
  -17.4159  -26.6595   21.3963 H   0  0  0  0  0  0
  -18.0323  -26.0072   22.9002 H   0  0  0  0  0  0
  -19.7939  -30.7170   24.2323 H   0  0  0  0  0  0
  -17.5051  -31.6303   24.5136 H   0  0  0  0  0  0
  -15.5333  -30.3051   23.7687 H   0  0  0  0  0  0
  -15.8571  -28.0848   22.7120 H   0  0  0  0  0  0
  -24.5896  -30.7062   25.7846 H   0  0  0  0  0  0
  -24.9030  -32.2843   26.4990 H   0  0  0  0  0  0
  -25.8140  -30.8820   27.0187 H   0  0  0  0  0  0
  -26.2815  -29.6749   24.1145 H   0  0  0  0  0  0
  -27.4219  -29.7284   25.4374 H   0  0  0  0  0  0
  -27.8567  -30.4351   23.9011 H   0  0  0  0  0  0
  -27.2583  -33.3562   26.2073 H   0  0  0  0  0  0
  -28.3817  -32.6888   25.0300 H   0  0  0  0  0  0
  -28.0697  -31.8417   26.5356 H   0  0  0  0  0  0
  -28.2595  -38.0119   24.7504 H   0  0  0  0  0  0
  -28.1069  -36.2632   24.6290 H   0  0  0  0  0  0
  -27.2293  -37.1463   25.8861 H   0  0  0  0  0  0
  -20.9258  -29.8825   21.7049 H   0  0  0  0  0  0
  -26.0203  -38.2851   24.1410 H   0  0  0  0  0  0
  -31.1415  -19.3699   19.0675 H   0  0  0  0  0  0
  -30.0821  -24.6809   26.5837 H   0  0  0  0  0  0
  -30.2555  -17.0326   19.0687 H   0  0  0  0  0  0
  -31.2591  -22.7305   27.5645 H   0  0  0  0  0  0
  -30.8199  -16.7931   23.3747 H   0  0  0  0  0  0
  -31.8757  -23.8112   22.7431 H   0  0  0  0  0  0
  -32.7242  -18.9458   24.0474 H   0  0  0  0  0  0
  -31.1585  -19.7774   24.2031 H   0  0  0  0  0  0
  -25.6698  -25.1898   24.4758 H   0  0  0  0  0  0
  -26.7917  -26.5212   24.7630 H   0  0  0  0  0  0
  -26.1656  -26.8855   22.4786 H   0  0  0  0  0  0
  -26.1828  -25.1594   22.1259 H   0  0  0  0  0  0
  -27.4780  -23.6289   24.1392 H   0  0  0  0  0  0
  -28.1592  -24.6722   25.3705 H   0  0  0  0  0  0
  -28.5644  -26.9843   22.5994 H   0  0  0  0  0  0
  -34.0351  -21.1064   24.0854 H   0  0  0  0  0  0
  -33.8459  -22.2454   22.7819 H   0  0  0  0  0  0
  -30.7281  -25.9418   23.1435 H   0  0  0  0  0  0
  -29.9190  -26.3164   24.6456 H   0  0  0  0  0  0
  -27.8822  -24.8523   20.5066 H   0  0  0  0  0  0
  -29.5380  -25.2959   20.8097 H   0  0  0  0  0  0
  -29.2193  -15.1593   21.7044 H   0  0  0  0  0  0
  -29.0480  -24.1847   22.8362 H   0  0  0  0  0  0
  1 25  1  0  0  0
  1 30  2  0  0  0
  1 93  1  0  0  0
  2  3  1  0  0  0
  2 25  1  0  0  0
  2 97  1  0  0  0
  2 98  1  0  0  0
  3  4  1  0  0  0
  3 99  1  0  0  0
  3100  1  0  0  0
  4  5  1  0  0  0
  4101  1  0  0  0
  4102  1  0  0  0
  5  6  1  0  0  0
  5 26  1  0  0  0
  5103  1  0  0  0
  6 25  1  0  0  0
  6104  1  0  0  0
  6105  1  0  0  0
  7  8  2  0  0  0
  7 26  1  0  0  0
  7 29  1  0  0  0
  8  9  1  0  0  0
  8 22  1  0  0  0
  9 10  1  0  0  0
  9 27  2  0  0  0
 10 11  2  0  0  0
 10 15  1  0  0  0
 11 12  1  0  0  0
 11106  1  0  0  0
 12 13  2  0  0  0
 12107  1  0  0  0
 13 14  1  0  0  0
 13 31  1  0  0  0
 14 15  2  0  0  0
 14108  1  0  0  0
 15109  1  0  0  0
 16 17  2  0  0  0
 16 21  1  0  0  0
 16 31  1  0  0  0
 17 18  1  0  0  0
 17110  1  0  0  0
 18 19  2  0  0  0
 18111  1  0  0  0
 19 20  1  0  0  0
 19 24  1  0  0  0
 20 21  2  0  0  0
 20112  1  0  0  0
 21 23  1  0  0  0
 22 28  1  0  0  0
 22 32  2  0  0  0
 26 27  1  0  0  0
 28113  1  0  0  0
 28114  1  0  0  0
 29115  1  0  0  0
 29116  1  0  0  0
 33 34  1  0  0  0
 33 66  1  0  0  0
 33 70  2  0  0  0
 34 36  1  0  0  0
 34 59  1  0  0  0
 34117  1  0  0  0
 35 44  2  0  0  0
 35 45  1  0  0  0
 35 68  1  0  0  0
 36 56  1  0  0  0
 36118  1  0  0  0
 37 39  1  0  0  0
 37 47  1  0  0  0
 37 66  1  0  0  0
 37119  1  0  0  0
 38 43  2  0  0  0
 38 46  1  0  0  0
 38 47  1  0  0  0
 39 64  1  0  0  0
 39 67  2  0  0  0
 40 52  1  0  0  0
 40 53  2  0  0  0
 40 58  1  0  0  0
 41120  1  0  0  0
 41121  1  0  0  0
 41122  1  0  0  0
 41 48  1  0  0  0
 42 43  1  0  0  0
 42 66  1  0  0  0
 42123  1  0  0  0
 42124  1  0  0  0
 43 44  1  0  0  0
 44125  1  0  0  0
 45 46  2  0  0  0
 45126  1  0  0  0
 46127  1  0  0  0
 47128  1  0  0  0
 47129  1  0  0  0
 48 56  1  0  0  0
 48 65  1  0  0  0
 48130  1  0  0  0
 49 50  1  0  0  0
 49 53  1  0  0  0
 49 64  1  0  0  0
 49131  1  0  0  0
 50 51  1  0  0  0
 50132  1  0  0  0
 50133  1  0  0  0
 51 52  1  0  0  0
 51134  1  0  0  0
 51135  1  0  0  0
 52136  1  0  0  0
 52137  1  0  0  0
 53 54  1  0  0  0
 54 55  2  0  0  0
 54138  1  0  0  0
 55 57  1  0  0  0
 55139  1  0  0  0
 56 69  2  0  0  0
 57 58  2  0  0  0
 57140  1  0  0  0
 58141  1  0  0  0
 59 60  1  0  0  0
 59 61  1  0  0  0
 59 62  1  0  0  0
 60142  1  0  0  0
 60143  1  0  0  0
 60144  1  0  0  0
 61145  1  0  0  0
 61146  1  0  0  0
 61147  1  0  0  0
 62148  1  0  0  0
 62149  1  0  0  0
 62150  1  0  0  0
 63 65  1  0  0  0
 63151  1  0  0  0
 63152  1  0  0  0
 63153  1  0  0  0
 64154  1  0  0  0
 65155  1  0  0  0
 68 91  1  0  0  0
 71 73  2  0  0  0
 71 77  1  0  0  0
 71156  1  0  0  0
 72 74  2  0  0  0
 72 79  1  0  0  0
 72157  1  0  0  0
 73 81  1  0  0  0
 73158  1  0  0  0
 74 82  1  0  0  0
 74159  1  0  0  0
 75 78  1  0  0  0
 75 81  2  0  0  0
 75160  1  0  0  0
 76 79  2  0  0  0
 76 80  1  0  0  0
 76161  1  0  0  0
 77 78  2  0  0  0
 77 83  1  0  0  0
 78 84  1  0  0  0
 79 90  1  0  0  0
 80 82  2  0  0  0
 80 89  1  0  0  0
 81 93  1  0  0  0
 82 96  1  0  0  0
 83 92  1  0  0  0
 83 95  2  0  0  0
 84 92  1  0  0  0
 84162  1  0  0  0
 84163  1  0  0  0
 85 86  1  0  0  0
 85 87  1  0  0  0
 85164  1  0  0  0
 85165  1  0  0  0
 86 88  1  0  0  0
 86166  1  0  0  0
 86167  1  0  0  0
 87 94  1  0  0  0
 87168  1  0  0  0
 87169  1  0  0  0
 88 91  1  0  0  0
 88 94  1  0  0  0
 88170  1  0  0  0
 89 92  1  0  0  0
 89171  1  0  0  0
 89172  1  0  0  0
 90173  1  0  0  0
 90174  1  0  0  0
 90 94  1  0  0  0
 91175  1  0  0  0
 91176  1  0  0  0
 93177  1  0  0  0
 94178  1  0  0  0
M  CHG  1  94   1
M  ISO  4   1 100  68 101  91 101  93 100
M  END
> <chiral flag>
0

> <version>
0

> <s_m_source_file>
/data/baiqing/PycharmProjects/Reinvent-master-3.2/result/LINK_invent/BTK/process_docking_weight1_custom_product_contain_oxygen_bond_distance_aromatic_linkinvent_7_9_3/rearranged_h_0006.sdf

> <i_m_source_file_index>
47

> <r_mmod_Potential_Energy-OPLS-2005>
24.9715366363525

> <r_mmod_Stretch_Energy-OPLS-2005>
37.1745719909668

> <r_mmod_Bend_Energy-OPLS-2005>
177.638854980469

> <r_mmod_Torsional_Energy-OPLS-2005>
327.615356445312

> <r_mmod_Improper_Torsional_Energy-OPLS-2005>
3.27760577201843

> <r_mmod_Van_der_Waal_Energy-OPLS-2005>
153.587295532227

> <r_mmod_Electrostatic_Energy-OPLS-2005>
-238.120101928711

> <r_mmod_Solvation_Energy-OPLS-2005>
-445.575347900391

> <b_mmod_Minimization_Converged-OPLS-2005>
0

> <r_mmod_RMS_Derivative-OPLS-2005>
3.99397206306458

$$$$
48
                    3D
 Structure written by MMmdl.
158167  0  0  1  0            999 V2000
  -30.7381  -14.6344   20.5285 C   0  0  0  0  0  0
  -30.4115  -12.4005   19.4729 C   0  0  0  0  0  0
  -29.5001  -12.5082   18.2350 C   0  0  0  0  0  0
  -28.0244  -12.3616   18.6437 C   0  0  0  0  0  0
  -27.6492  -13.2418   19.8665 C   0  0  2  0  0  0
  -28.6950  -13.1404   20.9987 C   0  0  0  0  0  0
  -25.2512  -13.8232   20.5731 C   0  0  0  0  0  0
  -24.1809  -13.0455   20.9211 C   0  0  0  0  0  0
  -24.6420  -11.6938   20.8758 C   0  0  0  0  0  0
  -23.9099  -10.4300   21.0410 C   0  0  0  0  0  0
  -24.3634   -9.4206   21.9195 C   0  0  0  0  0  0
  -23.6299   -8.2250   22.0765 C   0  0  0  0  0  0
  -22.4285   -8.0282   21.3548 C   0  0  0  0  0  0
  -21.9929   -9.0264   20.4647 C   0  0  0  0  0  0
  -22.7271  -10.2141   20.3063 C   0  0  0  0  0  0
  -21.6859   -6.0739   22.5270 C   0  0  0  0  0  0
  -21.4019   -6.5637   23.8206 C   0  0  0  0  0  0
  -21.3660   -5.6790   24.9167 C   0  0  0  0  0  0
  -21.6046   -4.3053   24.7215 C   0  0  0  0  0  0
  -21.8816   -3.8148   23.4334 C   0  0  0  0  0  0
  -21.9190   -4.6966   22.3395 C   0  0  0  0  0  0
  -22.7813  -13.5214   21.1847 C   0  0  0  0  0  0
  -22.1659   -4.2156   21.0971 F   0  0  0  0  0  0
  -21.5633   -3.4536   25.7726 F   0  0  0  0  0  0
  -30.0120  -13.4650   20.4275 N   0  0  0  0  0  0
  -26.2980  -12.9478   20.3376 N   0  0  0  0  0  0
  -25.9361  -11.6600   20.5801 N   0  0  0  0  0  0
  -22.0452  -12.8207   22.0396 N   0  0  0  0  0  0
  -25.4160  -15.1966   20.4166 N   0  0  0  0  0  0
  -31.8616  -14.6762   20.0192 O   0  0  0  0  0  0
  -21.6651   -6.8884   21.4234 O   0  0  0  0  0  0
  -22.3491  -14.5512   20.6682 O   0  0  0  0  0  0
  -24.6292  -31.8578   23.2021 C   0  0  0  0  0  0
  -25.9135  -32.4762   23.8346 C   0  0  1  0  0  0
  -27.2168  -27.3076   20.1118 C   0  0  0  0  0  0
  -25.5950  -33.8562   24.2269 N   0  0  0  0  0  0
  -23.4213  -30.4845   21.5450 C   0  0  2  0  0  0
  -24.8676  -28.9457   20.1089 C   0  0  0  0  0  0
  -22.7494  -29.4607   22.4914 C   0  0  0  0  0  0
  -18.0293  -28.1371   22.8468 C   0  0  0  0  0  0
  -24.1494  -36.7292   23.2634 C   0  0  0  0  0  0
  -25.9670  -30.7852   21.3771 C   0  0  0  0  0  0
  -26.0396  -29.4146   20.7164 C   0  0  0  0  0  0
  -27.2183  -28.6068   20.7090 C   0  0  0  0  0  0
  -26.0197  -26.9047   19.4726 C   0  0  0  0  0  0
  -24.8606  -27.6967   19.4788 C   0  0  0  0  0  0
  -23.6355  -29.8243   20.1599 C   0  0  0  0  0  0
  -25.4117  -36.3067   24.0315 C   0  0  1  0  0  0
  -20.5895  -28.3678   23.1277 C   0  0  2  0  0  0
  -20.6790  -26.9395   22.5410 C   0  0  0  0  0  0
  -19.5767  -26.6359   21.5217 C   0  0  0  0  0  0
  -18.1933  -26.7916   22.1600 C   0  0  0  0  0  0
  -19.1544  -28.8845   23.2866 C   0  0  0  0  0  0
  -18.9472  -30.1463   23.8870 C   0  0  0  0  0  0
  -17.6466  -30.6577   24.0570 C   0  0  0  0  0  0
  -25.9048  -34.9439   23.5083 C   0  0  0  0  0  0
  -16.5358  -29.9074   23.6348 C   0  0  0  0  0  0
  -16.7281  -28.6502   23.0335 C   0  0  0  0  0  0
  -26.4515  -31.6582   25.0722 C   0  0  0  0  0  0
  -25.3736  -31.3738   26.1445 C   0  0  0  0  0  0
  -27.0375  -30.2999   24.6193 C   0  0  0  0  0  0
  -27.6063  -32.4338   25.7492 C   0  0  0  0  0  0
  -27.5590  -37.1795   24.8455 C   0  0  0  0  0  0
  -21.4195  -29.3044   22.3694 N   0  0  0  0  0  0
  -26.4288  -37.3766   23.9409 N   0  0  0  0  0  0
  -24.6909  -31.0586   22.0982 N   0  0  0  0  0  0
  -23.4216  -28.8134   23.2980 O   0  0  0  0  0  0
  -28.3141  -26.4255   20.1734 O   0  0  0  0  0  0
  -26.5607  -34.8916   22.4647 O   0  0  0  0  0  0
  -23.5453  -32.1370   23.7357 O   0  0  0  0  0  0
  -28.7433  -18.7763   20.9151 C   0  0  0  0  0  0
  -30.2857  -20.9868   20.1057 C   0  0  0  0  0  0
  -30.0890  -18.5263   20.5525 C   0  0  0  0  0  0
  -28.9513  -21.2447   20.5021 C   0  0  0  0  0  0
  -28.1938  -20.0958   20.8858 C   0  0  0  0  0  0
  -30.8280  -19.6689   20.1172 C   0  0  0  0  0  0
  -30.8631  -16.9166   23.0939 C   0  0  0  0  0  0
  -31.7697  -17.3216   21.9422 C   0  0  0  0  0  0
  -29.9622  -15.8233   22.4956 C   0  0  0  0  0  0
  -30.8500  -17.1492   20.7279 C   0  0  1  0  0  0
  -28.0133  -24.9777   20.0178 C   0  0  0  0  0  0
  -29.0299  -23.7991   20.3536 C   0  0  0  0  0  0
  -30.1858  -15.8075   21.0363 N   0  0  0  0  0  0
  -28.3325  -22.5158   20.5174 O   0  0  0  0  0  0
  -26.9035  -20.2625   21.2611 F   0  0  0  0  0  0
  -32.1170  -19.5091   19.7302 F   0  0  0  0  0  0
  -31.4575  -12.4635   19.1690 H   0  0  0  0  0  0
  -30.3096  -11.4185   19.9372 H   0  0  0  0  0  0
  -29.7612  -11.7398   17.5064 H   0  0  0  0  0  0
  -29.6578  -13.4678   17.7409 H   0  0  0  0  0  0
  -27.8515  -11.3109   18.8775 H   0  0  0  0  0  0
  -27.3746  -12.5972   17.7997 H   0  0  0  0  0  0
  -27.6572  -14.2756   19.5195 H   0  0  0  0  0  0
  -28.7052  -12.1366   21.4266 H   0  0  0  0  0  0
  -28.4249  -13.8083   21.8148 H   0  0  0  0  0  0
  -25.2775   -9.5684   22.4774 H   0  0  0  0  0  0
  -24.0006   -7.4643   22.7492 H   0  0  0  0  0  0
  -21.0870   -8.8783   19.8945 H   0  0  0  0  0  0
  -22.3733  -10.9684   19.6173 H   0  0  0  0  0  0
  -21.2016   -7.6147   23.9713 H   0  0  0  0  0  0
  -21.1489   -6.0522   25.9072 H   0  0  0  0  0  0
  -22.0595   -2.7608   23.2834 H   0  0  0  0  0  0
  -22.4069  -11.9888   22.4822 H   0  0  0  0  0  0
  -21.1050  -13.1213   22.2562 H   0  0  0  0  0  0
  -24.6483  -15.8466   20.5481 H   0  0  0  0  0  0
  -26.2633  -15.6438   20.0911 H   0  0  0  0  0  0
  -26.7207  -32.5415   23.1092 H   0  0  0  0  0  0
  -25.0199  -33.9727   25.0486 H   0  0  0  0  0  0
  -22.7148  -31.3058   21.4040 H   0  0  0  0  0  0
  -23.3756  -35.9624   23.3270 H   0  0  0  0  0  0
  -24.3591  -36.8935   22.2056 H   0  0  0  0  0  0
  -23.7243  -37.6479   23.6683 H   0  0  0  0  0  0
  -26.1024  -31.5477   20.6088 H   0  0  0  0  0  0
  -26.8488  -30.8290   22.0061 H   0  0  0  0  0  0
  -28.1146  -28.9582   21.2002 H   0  0  0  0  0  0
  -25.9338  -25.9538   18.9706 H   0  0  0  0  0  0
  -23.9641  -27.3349   18.9949 H   0  0  0  0  0  0
  -23.7500  -30.6017   19.4041 H   0  0  0  0  0  0
  -22.7550  -29.2527   19.8577 H   0  0  0  0  0  0
  -25.1289  -36.1915   25.0800 H   0  0  0  0  0  0
  -21.0001  -28.3262   24.1390 H   0  0  0  0  0  0
  -20.5717  -26.2267   23.3601 H   0  0  0  0  0  0
  -21.6656  -26.7430   22.1181 H   0  0  0  0  0  0
  -19.6931  -25.6270   21.1241 H   0  0  0  0  0  0
  -19.6726  -27.3185   20.6764 H   0  0  0  0  0  0
  -17.4217  -26.6703   21.3984 H   0  0  0  0  0  0
  -18.0304  -26.0043   22.8974 H   0  0  0  0  0  0
  -19.7952  -30.7308   24.2179 H   0  0  0  0  0  0
  -17.5012  -31.6247   24.5184 H   0  0  0  0  0  0
  -15.5362  -30.2964   23.7685 H   0  0  0  0  0  0
  -15.8673  -28.0840   22.7028 H   0  0  0  0  0  0
  -24.5967  -30.6998   25.7811 H   0  0  0  0  0  0
  -24.8861  -32.2905   26.4782 H   0  0  0  0  0  0
  -25.8058  -30.9022   27.0278 H   0  0  0  0  0  0
  -26.2970  -29.6715   24.1229 H   0  0  0  0  0  0
  -27.4102  -29.7276   25.4698 H   0  0  0  0  0  0
  -27.8804  -30.4282   23.9396 H   0  0  0  0  0  0
  -27.2684  -33.3693   26.1975 H   0  0  0  0  0  0
  -28.3931  -32.6814   25.0347 H   0  0  0  0  0  0
  -28.0651  -31.8505   26.5487 H   0  0  0  0  0  0
  -28.2573  -38.0129   24.7547 H   0  0  0  0  0  0
  -28.1128  -36.2661   24.6229 H   0  0  0  0  0  0
  -27.2308  -37.1369   25.8854 H   0  0  0  0  0  0
  -20.9377  -29.8783   21.6916 H   0  0  0  0  0  0
  -26.0163  -38.2827   24.1447 H   0  0  0  0  0  0
  -28.1245  -17.9583   21.2532 H   0  0  0  0  0  0
  -30.9229  -21.7968   19.7886 H   0  0  0  0  0  0
  -30.2571  -17.7698   23.4048 H   0  0  0  0  0  0
  -31.4300  -16.5820   23.9635 H   0  0  0  0  0  0
  -32.6109  -16.6295   21.8767 H   0  0  0  0  0  0
  -32.1911  -18.3207   22.0575 H   0  0  0  0  0  0
  -28.9127  -16.0153   22.7196 H   0  0  0  0  0  0
  -30.2161  -14.8678   22.9639 H   0  0  0  0  0  0
  -31.4524  -17.0635   19.8209 H   0  0  0  0  0  0
  -27.1323  -24.7743   20.6294 H   0  0  0  0  0  0
  -27.7194  -24.8083   18.9818 H   0  0  0  0  0  0
  -29.5548  -24.0191   21.2840 H   0  0  0  0  0  0
  -29.7828  -23.7385   19.5680 H   0  0  0  0  0  0
  1 25  1  0  0  0
  1 30  2  0  0  0
  1 83  1  0  0  0
  2  3  1  0  0  0
  2 25  1  0  0  0
  2 87  1  0  0  0
  2 88  1  0  0  0
  3  4  1  0  0  0
  3 89  1  0  0  0
  3 90  1  0  0  0
  4  5  1  0  0  0
  4 91  1  0  0  0
  4 92  1  0  0  0
  5  6  1  0  0  0
  5 26  1  0  0  0
  5 93  1  0  0  0
  6 25  1  0  0  0
  6 94  1  0  0  0
  6 95  1  0  0  0
  7  8  2  0  0  0
  7 26  1  0  0  0
  7 29  1  0  0  0
  8  9  1  0  0  0
  8 22  1  0  0  0
  9 10  1  0  0  0
  9 27  2  0  0  0
 10 11  2  0  0  0
 10 15  1  0  0  0
 11 12  1  0  0  0
 11 96  1  0  0  0
 12 13  2  0  0  0
 12 97  1  0  0  0
 13 14  1  0  0  0
 13 31  1  0  0  0
 14 15  2  0  0  0
 14 98  1  0  0  0
 15 99  1  0  0  0
 16 17  2  0  0  0
 16 21  1  0  0  0
 16 31  1  0  0  0
 17 18  1  0  0  0
 17100  1  0  0  0
 18 19  2  0  0  0
 18101  1  0  0  0
 19 20  1  0  0  0
 19 24  1  0  0  0
 20 21  2  0  0  0
 20102  1  0  0  0
 21 23  1  0  0  0
 22 28  1  0  0  0
 22 32  2  0  0  0
 26 27  1  0  0  0
 28103  1  0  0  0
 28104  1  0  0  0
 29105  1  0  0  0
 29106  1  0  0  0
 33 34  1  0  0  0
 33 66  1  0  0  0
 33 70  2  0  0  0
 34 36  1  0  0  0
 34 59  1  0  0  0
 34107  1  0  0  0
 35 44  2  0  0  0
 35 45  1  0  0  0
 35 68  1  0  0  0
 36 56  1  0  0  0
 36108  1  0  0  0
 37 39  1  0  0  0
 37 47  1  0  0  0
 37 66  1  0  0  0
 37109  1  0  0  0
 38 43  2  0  0  0
 38 46  1  0  0  0
 38 47  1  0  0  0
 39 64  1  0  0  0
 39 67  2  0  0  0
 40 52  1  0  0  0
 40 53  2  0  0  0
 40 58  1  0  0  0
 41110  1  0  0  0
 41111  1  0  0  0
 41112  1  0  0  0
 41 48  1  0  0  0
 42 43  1  0  0  0
 42 66  1  0  0  0
 42113  1  0  0  0
 42114  1  0  0  0
 43 44  1  0  0  0
 44115  1  0  0  0
 45 46  2  0  0  0
 45116  1  0  0  0
 46117  1  0  0  0
 47118  1  0  0  0
 47119  1  0  0  0
 48 56  1  0  0  0
 48 65  1  0  0  0
 48120  1  0  0  0
 49 50  1  0  0  0
 49 53  1  0  0  0
 49 64  1  0  0  0
 49121  1  0  0  0
 50 51  1  0  0  0
 50122  1  0  0  0
 50123  1  0  0  0
 51 52  1  0  0  0
 51124  1  0  0  0
 51125  1  0  0  0
 52126  1  0  0  0
 52127  1  0  0  0
 53 54  1  0  0  0
 54 55  2  0  0  0
 54128  1  0  0  0
 55 57  1  0  0  0
 55129  1  0  0  0
 56 69  2  0  0  0
 57 58  2  0  0  0
 57130  1  0  0  0
 58131  1  0  0  0
 59 60  1  0  0  0
 59 61  1  0  0  0
 59 62  1  0  0  0
 60132  1  0  0  0
 60133  1  0  0  0
 60134  1  0  0  0
 61135  1  0  0  0
 61136  1  0  0  0
 61137  1  0  0  0
 62138  1  0  0  0
 62139  1  0  0  0
 62140  1  0  0  0
 63 65  1  0  0  0
 63141  1  0  0  0
 63142  1  0  0  0
 63143  1  0  0  0
 64144  1  0  0  0
 65145  1  0  0  0
 68 81  1  0  0  0
 71 73  2  0  0  0
 71 75  1  0  0  0
 71146  1  0  0  0
 72 74  1  0  0  0
 72 76  2  0  0  0
 72147  1  0  0  0
 73 76  1  0  0  0
 73 80  1  0  0  0
 74 75  2  0  0  0
 74 84  1  0  0  0
 75 85  1  0  0  0
 76 86  1  0  0  0
 77 78  1  0  0  0
 77 79  1  0  0  0
 77148  1  0  0  0
 77149  1  0  0  0
 78 80  1  0  0  0
 78150  1  0  0  0
 78151  1  0  0  0
 79 83  1  0  0  0
 79152  1  0  0  0
 79153  1  0  0  0
 80 83  1  0  0  0
 80154  1  0  0  0
 81 82  1  0  0  0
 81155  1  0  0  0
 81156  1  0  0  0
 82 84  1  0  0  0
 82157  1  0  0  0
 82158  1  0  0  0
M  ISO  4   1 100  68 101  81 101  83 100
M  END
> <chiral flag>
0

> <version>
0

> <s_m_source_file>
/data/baiqing/PycharmProjects/Reinvent-master-3.2/result/LINK_invent/BTK/process_docking_weight1_custom_product_contain_oxygen_bond_distance_aromatic_linkinvent_7_9_3/rearranged_h_0006.sdf

> <i_m_source_file_index>
48

> <r_mmod_Potential_Energy-OPLS-2005>
373.239105224609

> <r_mmod_Stretch_Energy-OPLS-2005>
94.0114898681641

> <r_mmod_Bend_Energy-OPLS-2005>
211.141967773438

> <r_mmod_Torsional_Energy-OPLS-2005>
310.185638427734

> <r_mmod_Improper_Torsional_Energy-OPLS-2005>
9.13155746459961

> <r_mmod_Van_der_Waal_Energy-OPLS-2005>
157.167053222656

> <r_mmod_Electrostatic_Energy-OPLS-2005>
-271.280395507812

> <r_mmod_Solvation_Energy-OPLS-2005>
-191.148162841797

> <b_mmod_Minimization_Converged-OPLS-2005>
0

> <r_mmod_RMS_Derivative-OPLS-2005>
2.44385695457458

$$$$
49
                    3D
 Structure written by MMmdl.
172182  0  0  1  0            999 V2000
  -30.6894  -14.7261   20.4253 C   0  0  0  0  0  0
  -30.4286  -12.4395   19.4505 C   0  0  0  0  0  0
  -29.4905  -12.4571   18.2192 C   0  0  0  0  0  0
  -28.0282  -12.2357   18.6561 C   0  0  0  0  0  0
  -27.6227  -13.1575   19.8229 C   0  0  2  0  0  0
  -28.6918  -13.2123   20.9525 C   0  0  0  0  0  0
  -25.2520  -13.7940   20.5696 C   0  0  0  0  0  0
  -24.1764  -13.0291   20.9287 C   0  0  0  0  0  0
  -24.6308  -11.6757   20.8886 C   0  0  0  0  0  0
  -23.8976  -10.4174   21.0545 C   0  0  0  0  0  0
  -24.3560   -9.4069   21.9268 C   0  0  0  0  0  0
  -23.6219   -8.2117   22.0767 C   0  0  0  0  0  0
  -22.4214   -8.0192   21.3541 C   0  0  0  0  0  0
  -21.9898   -9.0180   20.4660 C   0  0  0  0  0  0
  -22.7209  -10.2068   20.3112 C   0  0  0  0  0  0
  -21.6799   -6.0683   22.5272 C   0  0  0  0  0  0
  -21.3976   -6.5625   23.8206 C   0  0  0  0  0  0
  -21.3659   -5.6811   24.9187 C   0  0  0  0  0  0
  -21.6053   -4.3065   24.7279 C   0  0  0  0  0  0
  -21.8818   -3.8123   23.4397 C   0  0  0  0  0  0
  -21.9162   -4.6905   22.3434 C   0  0  0  0  0  0
  -22.7799  -13.5145   21.1938 C   0  0  0  0  0  0
  -22.1646   -4.2070   21.1014 F   0  0  0  0  0  0
  -21.5654   -3.4587   25.7826 F   0  0  0  0  0  0
  -29.9997  -13.5308   20.3534 N   0  0  0  0  0  0
  -26.2848  -12.8975   20.3289 N   0  0  0  0  0  0
  -25.9201  -11.6217   20.5898 N   0  0  0  0  0  0
  -22.0419  -12.8114   22.0495 N   0  0  0  0  0  0
  -25.4218  -15.1639   20.3960 N   0  0  0  0  0  0
  -31.9069  -14.7457   20.2372 O   0  0  0  0  0  0
  -21.6563   -6.8798   21.4226 O   0  0  0  0  0  0
  -22.3520  -14.5484   20.6820 O   0  0  0  0  0  0
  -24.6160  -31.8626   23.2010 C   0  0  0  0  0  0
  -25.9012  -32.4804   23.8358 C   0  0  1  0  0  0
  -27.2551  -27.3617   20.1289 C   0  0  0  0  0  0
  -25.5854  -33.8607   24.2284 N   0  0  0  0  0  0
  -23.4136  -30.4744   21.5445 C   0  0  2  0  0  0
  -24.8704  -28.9344   20.1066 C   0  0  0  0  0  0
  -22.7455  -29.4580   22.4992 C   0  0  0  0  0  0
  -18.0266  -28.1354   22.8490 C   0  0  0  0  0  0
  -24.1494  -36.7301   23.2645 C   0  0  0  0  0  0
  -25.9464  -30.8080   21.3693 C   0  0  0  0  0  0
  -26.0283  -29.4366   20.7112 C   0  0  0  0  0  0
  -27.2152  -28.6580   20.7161 C   0  0  0  0  0  0
  -26.0786  -26.9004   19.4924 C   0  0  0  0  0  0
  -24.8978  -27.6739   19.4848 C   0  0  0  0  0  0
  -23.6265  -29.7979   20.1615 C   0  0  0  0  0  0
  -25.4126  -36.3111   24.0334 C   0  0  1  0  0  0
  -20.5866  -28.3637   23.1324 C   0  0  2  0  0  0
  -20.6747  -26.9367   22.5434 C   0  0  0  0  0  0
  -19.5728  -26.6354   21.5226 C   0  0  0  0  0  0
  -18.1902  -26.7897   22.1631 C   0  0  0  0  0  0
  -19.1517  -28.8818   23.2898 C   0  0  0  0  0  0
  -18.9444  -30.1435   23.8890 C   0  0  0  0  0  0
  -17.6442  -30.6567   24.0549 C   0  0  0  0  0  0
  -25.9050  -34.9472   23.5129 C   0  0  0  0  0  0
  -16.5335  -29.9068   23.6316 C   0  0  0  0  0  0
  -16.7255  -28.6480   23.0355 C   0  0  0  0  0  0
  -26.4424  -31.6609   25.0722 C   0  0  0  0  0  0
  -25.3671  -31.3725   26.1454 C   0  0  0  0  0  0
  -27.0252  -30.3042   24.6130 C   0  0  0  0  0  0
  -27.5989  -32.4352   25.7487 C   0  0  0  0  0  0
  -27.5589  -37.1810   24.8459 C   0  0  0  0  0  0
  -21.4172  -29.2993   22.3739 N   0  0  0  0  0  0
  -26.4305  -37.3794   23.9399 N   0  0  0  0  0  0
  -24.6754  -31.0675   22.0942 N   0  0  0  0  0  0
  -23.4216  -28.8141   23.3057 O   0  0  0  0  0  0
  -28.4019  -26.5757   20.2956 O   0  0  0  0  0  0
  -26.5636  -34.8923   22.4710 O   0  0  0  0  0  0
  -23.5337  -32.1412   23.7355 O   0  0  0  0  0  0
  -27.6901  -19.4414   18.1845 C   0  0  0  0  0  0
  -27.7884  -18.0537   18.3334 C   0  0  0  0  0  0
  -28.4688  -20.2939   18.9873 C   0  0  0  0  0  0
  -33.4476  -21.9922   20.1291 C   0  0  0  0  0  0
  -32.2688  -22.7186   18.1206 C   0  0  0  0  0  0
  -34.5163  -21.5284   19.3366 C   0  0  0  0  0  0
  -33.3369  -22.2480   17.3267 C   0  0  0  0  0  0
  -28.7106  -17.5550   19.2627 C   0  0  0  0  0  0
  -29.5484  -18.3508   20.0266 C   0  0  0  0  0  0
  -32.3142  -22.5849   19.5272 C   0  0  0  0  0  0
  -29.3999  -19.8032   19.9477 C   0  0  0  0  0  0
  -34.4593  -21.6500   17.9338 C   0  0  0  0  0  0
  -28.8568  -16.1113   19.5939 C   0  0  0  0  0  0
  -30.4518  -17.3433   20.8109 C   0  0  0  0  0  0
  -31.1881  -23.1335   20.3968 C   0  0  0  0  0  0
  -30.0994  -20.8872   20.8274 C   0  0  0  0  0  0
  -27.9537  -24.1630   20.2248 C   0  0  0  0  0  0
  -28.8466  -23.1514   21.0678 C   0  0  0  0  0  0
  -29.9825  -15.9226   20.5000 N   0  0  0  0  0  0
  -28.5290  -25.3293   19.5009 N   0  0  0  0  0  0
  -29.9259  -22.3441   20.3700 N   0  3  1  0  0  0
  -35.7570  -21.0694   16.9572 Cl  0  0  0  0  0  0
  -31.4674  -12.5411   19.1309 H   0  0  0  0  0  0
  -30.3674  -11.4817   19.9681 H   0  0  0  0  0  0
  -29.7811  -11.6839   17.5098 H   0  0  0  0  0  0
  -29.5785  -13.4013   17.6851 H   0  0  0  0  0  0
  -27.9140  -11.1894   18.9447 H   0  0  0  0  0  0
  -27.3568  -12.3906   17.8098 H   0  0  0  0  0  0
  -27.5232  -14.0941   19.3046 H   0  0  0  0  0  0
  -28.7409  -12.2616   21.4838 H   0  0  0  0  0  0
  -28.4238  -13.9630   21.6994 H   0  0  0  0  0  0
  -25.2700   -9.5506   22.4865 H   0  0  0  0  0  0
  -23.9898   -7.4502   22.7501 H   0  0  0  0  0  0
  -21.0818   -8.8745   19.8971 H   0  0  0  0  0  0
  -22.3693  -10.9652   19.6249 H   0  0  0  0  0  0
  -21.1957   -7.6146   23.9670 H   0  0  0  0  0  0
  -21.1509   -6.0571   25.9093 H   0  0  0  0  0  0
  -22.0606   -2.7574   23.2940 H   0  0  0  0  0  0
  -22.4050  -11.9710   22.4754 H   0  0  0  0  0  0
  -21.1055  -13.1110   22.2876 H   0  0  0  0  0  0
  -24.6508  -15.8160   20.4898 H   0  0  0  0  0  0
  -26.2639  -15.5909   20.0317 H   0  0  0  0  0  0
  -26.7085  -32.5503   23.1130 H   0  0  0  0  0  0
  -24.9976  -33.9791   25.0401 H   0  0  0  0  0  0
  -22.7013  -31.2891   21.3979 H   0  0  0  0  0  0
  -23.3772  -35.9612   23.3301 H   0  0  0  0  0  0
  -24.3573  -36.8934   22.2057 H   0  0  0  0  0  0
  -23.7222  -37.6487   23.6677 H   0  0  0  0  0  0
  -26.0761  -31.5769   20.6064 H   0  0  0  0  0  0
  -26.8260  -30.8585   21.9983 H   0  0  0  0  0  0
  -28.0987  -29.0332   21.2127 H   0  0  0  0  0  0
  -26.0426  -25.9271   19.0304 H   0  0  0  0  0  0
  -24.0088  -27.2854   19.0072 H   0  0  0  0  0  0
  -23.7225  -30.5678   19.3946 H   0  0  0  0  0  0
  -22.7546  -29.2072   19.8736 H   0  0  0  0  0  0
  -25.1302  -36.1983   25.0816 H   0  0  0  0  0  0
  -20.9934  -28.3195   24.1456 H   0  0  0  0  0  0
  -20.5633  -26.2235   23.3625 H   0  0  0  0  0  0
  -21.6620  -26.7383   22.1240 H   0  0  0  0  0  0
  -19.6879  -25.6275   21.1230 H   0  0  0  0  0  0
  -19.6651  -27.3173   20.6762 H   0  0  0  0  0  0
  -17.4172  -26.6656   21.4031 H   0  0  0  0  0  0
  -18.0278  -26.0046   22.9020 H   0  0  0  0  0  0
  -19.7924  -30.7247   24.2262 H   0  0  0  0  0  0
  -17.4997  -31.6240   24.5149 H   0  0  0  0  0  0
  -15.5331  -30.2960   23.7639 H   0  0  0  0  0  0
  -15.8660  -28.0780   22.7094 H   0  0  0  0  0  0
  -24.5838  -30.7087   25.7774 H   0  0  0  0  0  0
  -24.8863  -32.2879   26.4905 H   0  0  0  0  0  0
  -25.8006  -30.8878   27.0210 H   0  0  0  0  0  0
  -26.2807  -29.6847   24.1119 H   0  0  0  0  0  0
  -27.3920  -29.7238   25.4601 H   0  0  0  0  0  0
  -27.8687  -30.4333   23.9351 H   0  0  0  0  0  0
  -27.2586  -33.3651   26.2050 H   0  0  0  0  0  0
  -28.3790  -32.6924   25.0315 H   0  0  0  0  0  0
  -28.0655  -31.8496   26.5414 H   0  0  0  0  0  0
  -28.2605  -38.0117   24.7531 H   0  0  0  0  0  0
  -28.1104  -36.2648   24.6272 H   0  0  0  0  0  0
  -27.2305  -37.1429   25.8864 H   0  0  0  0  0  0
  -20.9352  -29.8733   21.6953 H   0  0  0  0  0  0
  -26.0206  -38.2872   24.1394 H   0  0  0  0  0  0
  -26.9848  -19.8532   17.4796 H   0  0  0  0  0  0
  -27.1545  -17.3930   17.7584 H   0  0  0  0  0  0
  -28.3008  -21.3485   18.8343 H   0  0  0  0  0  0
  -33.5123  -21.8990   21.2036 H   0  0  0  0  0  0
  -31.4266  -23.1922   17.6365 H   0  0  0  0  0  0
  -35.3837  -21.0843   19.8050 H   0  0  0  0  0  0
  -33.2994  -22.3534   16.2499 H   0  0  0  0  0  0
  -28.9571  -15.5422   18.6705 H   0  0  0  0  0  0
  -27.9561  -15.8743   20.1477 H   0  0  0  0  0  0
  -30.3939  -17.5201   21.8851 H   0  0  0  0  0  0
  -31.4916  -17.4755   20.5061 H   0  0  0  0  0  0
  -30.9840  -24.1505   20.0588 H   0  0  0  0  0  0
  -31.5334  -23.2304   21.4281 H   0  0  0  0  0  0
  -31.1535  -20.6177   20.8689 H   0  0  0  0  0  0
  -29.7381  -20.7787   21.8513 H   0  0  0  0  0  0
  -27.1754  -24.5472   20.8873 H   0  0  0  0  0  0
  -27.4077  -23.5812   19.4800 H   0  0  0  0  0  0
  -28.1350  -22.4351   21.4807 H   0  0  0  0  0  0
  -29.2563  -23.6501   21.9461 H   0  0  0  0  0  0
  -27.9779  -25.5112   18.6662 H   0  0  0  0  0  0
  -29.6633  -22.2861   19.3995 H   0  0  0  0  0  0
  1 25  1  0  0  0
  1 30  2  0  0  0
  1 89  1  0  0  0
  2  3  1  0  0  0
  2 25  1  0  0  0
  2 93  1  0  0  0
  2 94  1  0  0  0
  3  4  1  0  0  0
  3 95  1  0  0  0
  3 96  1  0  0  0
  4  5  1  0  0  0
  4 97  1  0  0  0
  4 98  1  0  0  0
  5  6  1  0  0  0
  5 26  1  0  0  0
  5 99  1  0  0  0
  6 25  1  0  0  0
  6100  1  0  0  0
  6101  1  0  0  0
  7  8  2  0  0  0
  7 26  1  0  0  0
  7 29  1  0  0  0
  8  9  1  0  0  0
  8 22  1  0  0  0
  9 10  1  0  0  0
  9 27  2  0  0  0
 10 11  2  0  0  0
 10 15  1  0  0  0
 11 12  1  0  0  0
 11102  1  0  0  0
 12 13  2  0  0  0
 12103  1  0  0  0
 13 14  1  0  0  0
 13 31  1  0  0  0
 14 15  2  0  0  0
 14104  1  0  0  0
 15105  1  0  0  0
 16 17  2  0  0  0
 16 21  1  0  0  0
 16 31  1  0  0  0
 17 18  1  0  0  0
 17106  1  0  0  0
 18 19  2  0  0  0
 18107  1  0  0  0
 19 20  1  0  0  0
 19 24  1  0  0  0
 20 21  2  0  0  0
 20108  1  0  0  0
 21 23  1  0  0  0
 22 28  1  0  0  0
 22 32  2  0  0  0
 26 27  1  0  0  0
 28109  1  0  0  0
 28110  1  0  0  0
 29111  1  0  0  0
 29112  1  0  0  0
 33 34  1  0  0  0
 33 66  1  0  0  0
 33 70  2  0  0  0
 34 36  1  0  0  0
 34 59  1  0  0  0
 34113  1  0  0  0
 35 44  2  0  0  0
 35 45  1  0  0  0
 35 68  1  0  0  0
 36 56  1  0  0  0
 36114  1  0  0  0
 37 39  1  0  0  0
 37 47  1  0  0  0
 37 66  1  0  0  0
 37115  1  0  0  0
 38 43  2  0  0  0
 38 46  1  0  0  0
 38 47  1  0  0  0
 39 64  1  0  0  0
 39 67  2  0  0  0
 40 52  1  0  0  0
 40 53  2  0  0  0
 40 58  1  0  0  0
 41116  1  0  0  0
 41117  1  0  0  0
 41118  1  0  0  0
 41 48  1  0  0  0
 42 43  1  0  0  0
 42 66  1  0  0  0
 42119  1  0  0  0
 42120  1  0  0  0
 43 44  1  0  0  0
 44121  1  0  0  0
 45 46  2  0  0  0
 45122  1  0  0  0
 46123  1  0  0  0
 47124  1  0  0  0
 47125  1  0  0  0
 48 56  1  0  0  0
 48 65  1  0  0  0
 48126  1  0  0  0
 49 50  1  0  0  0
 49 53  1  0  0  0
 49 64  1  0  0  0
 49127  1  0  0  0
 50 51  1  0  0  0
 50128  1  0  0  0
 50129  1  0  0  0
 51 52  1  0  0  0
 51130  1  0  0  0
 51131  1  0  0  0
 52132  1  0  0  0
 52133  1  0  0  0
 53 54  1  0  0  0
 54 55  2  0  0  0
 54134  1  0  0  0
 55 57  1  0  0  0
 55135  1  0  0  0
 56 69  2  0  0  0
 57 58  2  0  0  0
 57136  1  0  0  0
 58137  1  0  0  0
 59 60  1  0  0  0
 59 61  1  0  0  0
 59 62  1  0  0  0
 60138  1  0  0  0
 60139  1  0  0  0
 60140  1  0  0  0
 61141  1  0  0  0
 61142  1  0  0  0
 61143  1  0  0  0
 62144  1  0  0  0
 62145  1  0  0  0
 62146  1  0  0  0
 63 65  1  0  0  0
 63147  1  0  0  0
 63148  1  0  0  0
 63149  1  0  0  0
 64150  1  0  0  0
 65151  1  0  0  0
 68 90  1  0  0  0
 71 72  2  0  0  0
 71 73  1  0  0  0
 71152  1  0  0  0
 72 78  1  0  0  0
 72153  1  0  0  0
 73 81  2  0  0  0
 73154  1  0  0  0
 74 76  2  0  0  0
 74 80  1  0  0  0
 74155  1  0  0  0
 75 77  1  0  0  0
 75 80  2  0  0  0
 75156  1  0  0  0
 76 82  1  0  0  0
 76157  1  0  0  0
 77 82  2  0  0  0
 77158  1  0  0  0
 78 79  2  0  0  0
 78 83  1  0  0  0
 79 81  1  0  0  0
 79 84  1  0  0  0
 80 85  1  0  0  0
 81 86  1  0  0  0
 82 92  1  0  0  0
 83 89  1  0  0  0
 83159  1  0  0  0
 83160  1  0  0  0
 84 89  1  0  0  0
 84161  1  0  0  0
 84162  1  0  0  0
 85163  1  0  0  0
 85164  1  0  0  0
 85 91  1  0  0  0
 86 91  1  0  0  0
 86165  1  0  0  0
 86166  1  0  0  0
 87 88  1  0  0  0
 87 90  1  0  0  0
 87167  1  0  0  0
 87168  1  0  0  0
 88 91  1  0  0  0
 88169  1  0  0  0
 88170  1  0  0  0
 90171  1  0  0  0
 91172  1  0  0  0
M  CHG  1  91   1
M  ISO  4   1 100  68 101  89 100  90 101
M  END
> <chiral flag>
0

> <version>
0

> <s_m_source_file>
/data/baiqing/PycharmProjects/Reinvent-master-3.2/result/LINK_invent/BTK/process_docking_weight1_custom_product_contain_oxygen_bond_distance_aromatic_linkinvent_7_9_3/rearranged_h_0006.sdf

> <i_m_source_file_index>
49

> <r_mmod_Potential_Energy-OPLS-2005>
112.420539855957

> <r_mmod_Stretch_Energy-OPLS-2005>
93.1366348266602

> <r_mmod_Bend_Energy-OPLS-2005>
234.881408691406

> <r_mmod_Torsional_Energy-OPLS-2005>
266.388854980469

> <r_mmod_Improper_Torsional_Energy-OPLS-2005>
7.60077810287476

> <r_mmod_Van_der_Waal_Energy-OPLS-2005>
163.632019042969

> <r_mmod_Electrostatic_Energy-OPLS-2005>
-270.469268798828

> <r_mmod_Solvation_Energy-OPLS-2005>
-457.837860107422

> <b_mmod_Minimization_Converged-OPLS-2005>
0

> <r_mmod_RMS_Derivative-OPLS-2005>
4.58584070205688

$$$$
50
                    3D
 Structure written by MMmdl.
162171  0  0  1  0            999 V2000
  -30.7135  -14.5047   20.5680 C   0  0  0  0  0  0
  -30.4189  -12.3305   19.4314 C   0  0  0  0  0  0
  -29.4939  -12.5074   18.2108 C   0  0  0  0  0  0
  -28.0162  -12.3661   18.6240 C   0  0  0  0  0  0
  -27.6587  -13.2163   19.8729 C   0  0  2  0  0  0
  -28.7016  -13.0346   20.9977 C   0  0  0  0  0  0
  -25.2578  -13.8180   20.5705 C   0  0  0  0  0  0
  -24.1831  -13.0447   20.9184 C   0  0  0  0  0  0
  -24.6395  -11.6913   20.8741 C   0  0  0  0  0  0
  -23.9057  -10.4297   21.0399 C   0  0  0  0  0  0
  -24.3612   -9.4212   21.9180 C   0  0  0  0  0  0
  -23.6293   -8.2245   22.0754 C   0  0  0  0  0  0
  -22.4274   -8.0280   21.3546 C   0  0  0  0  0  0
  -21.9902   -9.0249   20.4646 C   0  0  0  0  0  0
  -22.7224  -10.2130   20.3056 C   0  0  0  0  0  0
  -21.6857   -6.0729   22.5278 C   0  0  0  0  0  0
  -21.4010   -6.5638   23.8208 C   0  0  0  0  0  0
  -21.3661   -5.6791   24.9174 C   0  0  0  0  0  0
  -21.6053   -4.3054   24.7224 C   0  0  0  0  0  0
  -21.8820   -3.8142   23.4347 C   0  0  0  0  0  0
  -21.9192   -4.6959   22.3400 C   0  0  0  0  0  0
  -22.7853  -13.5240   21.1844 C   0  0  0  0  0  0
  -22.1666   -4.2148   21.0979 F   0  0  0  0  0  0
  -21.5632   -3.4538   25.7737 F   0  0  0  0  0  0
  -30.0265  -13.3356   20.4354 N   0  0  0  0  0  0
  -26.3019  -12.9367   20.3377 N   0  0  0  0  0  0
  -25.9329  -11.6517   20.5776 N   0  0  0  0  0  0
  -22.0484  -12.8242   22.0397 N   0  0  0  0  0  0
  -25.4310  -15.1898   20.4122 N   0  0  0  0  0  0
  -31.8459  -14.6541   20.1018 O   0  0  0  0  0  0
  -21.6647   -6.8872   21.4237 O   0  0  0  0  0  0
  -22.3538  -14.5548   20.6686 O   0  0  0  0  0  0
  -24.6179  -31.8653   23.2091 C   0  0  0  0  0  0
  -25.9055  -32.4815   23.8396 C   0  0  1  0  0  0
  -27.2246  -27.4084   20.1066 C   0  0  0  0  0  0
  -25.5896  -33.8611   24.2324 N   0  0  0  0  0  0
  -23.4067  -30.4892   21.5503 C   0  0  2  0  0  0
  -24.8534  -28.9547   20.1121 C   0  0  0  0  0  0
  -22.7427  -29.4634   22.4977 C   0  0  0  0  0  0
  -18.0270  -28.1376   22.8496 C   0  0  0  0  0  0
  -24.1485  -36.7316   23.2638 C   0  0  0  0  0  0
  -25.9385  -30.8253   21.3645 C   0  0  0  0  0  0
  -26.0166  -29.4587   20.7101 C   0  0  0  0  0  0
  -27.2093  -28.6941   20.7001 C   0  0  0  0  0  0
  -26.0488  -26.9263   19.4957 C   0  0  0  0  0  0
  -24.8661  -27.6901   19.4994 C   0  0  0  0  0  0
  -23.6160  -29.8240   20.1643 C   0  0  0  0  0  0
  -25.4107  -36.3117   24.0337 C   0  0  1  0  0  0
  -20.5866  -28.3660   23.1324 C   0  0  2  0  0  0
  -20.6768  -26.9394   22.5426 C   0  0  0  0  0  0
  -19.5750  -26.6387   21.5219 C   0  0  0  0  0  0
  -18.1923  -26.7923   22.1623 C   0  0  0  0  0  0
  -19.1522  -28.8838   23.2905 C   0  0  0  0  0  0
  -18.9447  -30.1445   23.8914 C   0  0  0  0  0  0
  -17.6449  -30.6586   24.0566 C   0  0  0  0  0  0
  -25.9037  -34.9472   23.5134 C   0  0  0  0  0  0
  -16.5341  -29.9088   23.6324 C   0  0  0  0  0  0
  -16.7256  -28.6500   23.0356 C   0  0  0  0  0  0
  -26.4477  -31.6602   25.0733 C   0  0  0  0  0  0
  -25.3735  -31.3694   26.1478 C   0  0  0  0  0  0
  -27.0303  -30.3048   24.6106 C   0  0  0  0  0  0
  -27.6064  -32.4317   25.7481 C   0  0  0  0  0  0
  -27.5581  -37.1815   24.8466 C   0  0  0  0  0  0
  -21.4147  -29.3025   22.3725 N   0  0  0  0  0  0
  -26.4296  -37.3806   23.9406 N   0  0  0  0  0  0
  -24.6731  -31.0747   22.0996 N   0  0  0  0  0  0
  -23.4190  -28.8167   23.3020 O   0  0  0  0  0  0
  -28.3526  -26.6114   20.1250 O   0  0  0  0  0  0
  -26.5607  -34.8927   22.4699 O   0  0  0  0  0  0
  -23.5368  -32.1393   23.7484 O   0  0  0  0  0  0
  -28.2357  -19.1456   23.2989 C   0  0  0  0  0  0
  -28.1562  -20.2755   22.4632 C   0  0  0  0  0  0
  -29.6291  -19.1861   20.8607 C   0  0  0  0  0  0
  -29.0405  -18.0473   22.9386 C   0  0  0  0  0  0
  -29.7122  -18.0342   21.6971 C   0  0  0  0  0  0
  -28.8811  -20.3362   21.2493 C   0  0  0  0  0  0
  -29.2642  -16.9049   23.9162 C   0  0  0  0  0  0
  -30.7340  -16.4139   23.9510 C   0  0  0  0  0  0
  -31.5617  -16.7278   22.6795 C   0  0  0  0  0  0
  -30.6812  -16.8650   21.4200 C   0  0  1  0  0  0
  -28.6446  -24.0674   20.1515 C   0  0  0  0  0  0
  -28.4469  -22.7998   21.0421 C   0  0  0  0  0  0
  -28.2034  -25.3787   20.8736 C   0  0  0  0  0  0
  -28.8929  -21.5164   20.4611 N   0  0  0  0  0  0
  -30.0647  -15.5457   21.1384 N   0  0  0  0  0  0
  -31.4631  -12.4240   19.1275 H   0  0  0  0  0  0
  -30.3211  -11.3260   19.8472 H   0  0  0  0  0  0
  -29.7396  -11.7731   17.4416 H   0  0  0  0  0  0
  -29.6585  -13.4881   17.7622 H   0  0  0  0  0  0
  -27.8302  -11.3107   18.8261 H   0  0  0  0  0  0
  -27.3661  -12.6361   17.7909 H   0  0  0  0  0  0
  -27.6923  -14.2609   19.5613 H   0  0  0  0  0  0
  -28.6850  -12.0113   21.3744 H   0  0  0  0  0  0
  -28.4633  -13.6668   21.8544 H   0  0  0  0  0  0
  -25.2753   -9.5700   22.4759 H   0  0  0  0  0  0
  -24.0010   -7.4636   22.7473 H   0  0  0  0  0  0
  -21.0834   -8.8752   19.8954 H   0  0  0  0  0  0
  -22.3668  -10.9667   19.6173 H   0  0  0  0  0  0
  -21.2001   -7.6145   23.9712 H   0  0  0  0  0  0
  -21.1491   -6.0523   25.9079 H   0  0  0  0  0  0
  -22.0601   -2.7607   23.2845 H   0  0  0  0  0  0
  -22.4090  -11.9909   22.4808 H   0  0  0  0  0  0
  -21.1100  -13.1276   22.2582 H   0  0  0  0  0  0
  -24.6692  -15.8487   20.5313 H   0  0  0  0  0  0
  -26.2904  -15.6295   20.1068 H   0  0  0  0  0  0
  -26.7123  -32.5528   23.1158 H   0  0  0  0  0  0
  -25.0050  -33.9760   25.0476 H   0  0  0  0  0  0
  -22.6984  -31.3087   21.4132 H   0  0  0  0  0  0
  -23.3752  -35.9649   23.3315 H   0  0  0  0  0  0
  -24.3570  -36.8924   22.2053 H   0  0  0  0  0  0
  -23.7238  -37.6522   23.6639 H   0  0  0  0  0  0
  -26.0526  -31.5905   20.5959 H   0  0  0  0  0  0
  -26.8268  -30.8808   21.9822 H   0  0  0  0  0  0
  -28.1077  -29.0711   21.1696 H   0  0  0  0  0  0
  -26.0459  -25.9515   19.0285 H   0  0  0  0  0  0
  -23.9715  -27.2978   19.0358 H   0  0  0  0  0  0
  -23.7237  -30.6010   19.4070 H   0  0  0  0  0  0
  -22.7394  -29.2456   19.8671 H   0  0  0  0  0  0
  -25.1289  -36.1990   25.0834 H   0  0  0  0  0  0
  -20.9948  -28.3219   24.1449 H   0  0  0  0  0  0
  -20.5685  -26.2249   23.3600 H   0  0  0  0  0  0
  -21.6635  -26.7443   22.1214 H   0  0  0  0  0  0
  -19.6909  -25.6304   21.1238 H   0  0  0  0  0  0
  -19.6709  -27.3202   20.6758 H   0  0  0  0  0  0
  -17.4196  -26.6674   21.4019 H   0  0  0  0  0  0
  -18.0321  -26.0060   22.9015 H   0  0  0  0  0  0
  -19.7924  -30.7260   24.2290 H   0  0  0  0  0  0
  -17.5003  -31.6267   24.5165 H   0  0  0  0  0  0
  -15.5343  -30.3004   23.7640 H   0  0  0  0  0  0
  -15.8649  -28.0826   22.7079 H   0  0  0  0  0  0
  -24.5924  -30.7029   25.7804 H   0  0  0  0  0  0
  -24.8901  -32.2837   26.4938 H   0  0  0  0  0  0
  -25.8098  -30.8856   27.0231 H   0  0  0  0  0  0
  -26.2838  -29.6815   24.1172 H   0  0  0  0  0  0
  -27.4089  -29.7290   25.4563 H   0  0  0  0  0  0
  -27.8670  -30.4383   23.9244 H   0  0  0  0  0  0
  -27.2709  -33.3620   26.2083 H   0  0  0  0  0  0
  -28.3857  -32.6879   25.0284 H   0  0  0  0  0  0
  -28.0749  -31.8416   26.5374 H   0  0  0  0  0  0
  -28.2621  -38.0095   24.7517 H   0  0  0  0  0  0
  -28.1062  -36.2632   24.6298 H   0  0  0  0  0  0
  -27.2287  -37.1477   25.8866 H   0  0  0  0  0  0
  -20.9296  -29.8743   21.6953 H   0  0  0  0  0  0
  -26.0192  -38.2888   24.1413 H   0  0  0  0  0  0
  -27.7091  -19.1498   24.2428 H   0  0  0  0  0  0
  -27.5529  -21.1042   22.8032 H   0  0  0  0  0  0
  -30.1981  -19.2053   19.9422 H   0  0  0  0  0  0
  -28.6100  -16.0865   23.6130 H   0  0  0  0  0  0
  -28.9437  -17.1919   24.9183 H   0  0  0  0  0  0
  -30.7436  -15.3429   24.1579 H   0  0  0  0  0  0
  -31.2451  -16.8783   24.7948 H   0  0  0  0  0  0
  -32.3415  -15.9772   22.5454 H   0  0  0  0  0  0
  -32.0938  -17.6699   22.8248 H   0  0  0  0  0  0
  -31.3117  -17.1475   20.5736 H   0  0  0  0  0  0
  -28.0726  -23.9604   19.2292 H   0  0  0  0  0  0
  -29.6919  -24.1564   19.8622 H   0  0  0  0  0  0
  -27.3852  -22.7201   21.2820 H   0  0  0  0  0  0
  -28.9707  -22.9498   21.9886 H   0  0  0  0  0  0
  -27.1786  -25.2463   21.2265 H   0  0  0  0  0  0
  -28.7984  -25.4926   21.7801 H   0  0  0  0  0  0
  -29.5307  -21.5543   19.6692 H   0  0  0  0  0  0
  -29.1194  -15.3964   21.4533 H   0  0  0  0  0  0
  1 25  1  0  0  0
  1 30  2  0  0  0
  1 85  1  0  0  0
  2  3  1  0  0  0
  2 25  1  0  0  0
  2 86  1  0  0  0
  2 87  1  0  0  0
  3  4  1  0  0  0
  3 88  1  0  0  0
  3 89  1  0  0  0
  4  5  1  0  0  0
  4 90  1  0  0  0
  4 91  1  0  0  0
  5  6  1  0  0  0
  5 26  1  0  0  0
  5 92  1  0  0  0
  6 25  1  0  0  0
  6 93  1  0  0  0
  6 94  1  0  0  0
  7  8  2  0  0  0
  7 26  1  0  0  0
  7 29  1  0  0  0
  8  9  1  0  0  0
  8 22  1  0  0  0
  9 10  1  0  0  0
  9 27  2  0  0  0
 10 11  2  0  0  0
 10 15  1  0  0  0
 11 12  1  0  0  0
 11 95  1  0  0  0
 12 13  2  0  0  0
 12 96  1  0  0  0
 13 14  1  0  0  0
 13 31  1  0  0  0
 14 15  2  0  0  0
 14 97  1  0  0  0
 15 98  1  0  0  0
 16 17  2  0  0  0
 16 21  1  0  0  0
 16 31  1  0  0  0
 17 18  1  0  0  0
 17 99  1  0  0  0
 18 19  2  0  0  0
 18100  1  0  0  0
 19 20  1  0  0  0
 19 24  1  0  0  0
 20 21  2  0  0  0
 20101  1  0  0  0
 21 23  1  0  0  0
 22 28  1  0  0  0
 22 32  2  0  0  0
 26 27  1  0  0  0
 28102  1  0  0  0
 28103  1  0  0  0
 29104  1  0  0  0
 29105  1  0  0  0
 33 34  1  0  0  0
 33 66  1  0  0  0
 33 70  2  0  0  0
 34 36  1  0  0  0
 34 59  1  0  0  0
 34106  1  0  0  0
 35 44  2  0  0  0
 35 45  1  0  0  0
 35 68  1  0  0  0
 36 56  1  0  0  0
 36107  1  0  0  0
 37 39  1  0  0  0
 37 47  1  0  0  0
 37 66  1  0  0  0
 37108  1  0  0  0
 38 43  2  0  0  0
 38 46  1  0  0  0
 38 47  1  0  0  0
 39 64  1  0  0  0
 39 67  2  0  0  0
 40 52  1  0  0  0
 40 53  2  0  0  0
 40 58  1  0  0  0
 41109  1  0  0  0
 41110  1  0  0  0
 41111  1  0  0  0
 41 48  1  0  0  0
 42 43  1  0  0  0
 42 66  1  0  0  0
 42112  1  0  0  0
 42113  1  0  0  0
 43 44  1  0  0  0
 44114  1  0  0  0
 45 46  2  0  0  0
 45115  1  0  0  0
 46116  1  0  0  0
 47117  1  0  0  0
 47118  1  0  0  0
 48 56  1  0  0  0
 48 65  1  0  0  0
 48119  1  0  0  0
 49 50  1  0  0  0
 49 53  1  0  0  0
 49 64  1  0  0  0
 49120  1  0  0  0
 50 51  1  0  0  0
 50121  1  0  0  0
 50122  1  0  0  0
 51 52  1  0  0  0
 51123  1  0  0  0
 51124  1  0  0  0
 52125  1  0  0  0
 52126  1  0  0  0
 53 54  1  0  0  0
 54 55  2  0  0  0
 54127  1  0  0  0
 55 57  1  0  0  0
 55128  1  0  0  0
 56 69  2  0  0  0
 57 58  2  0  0  0
 57129  1  0  0  0
 58130  1  0  0  0
 59 60  1  0  0  0
 59 61  1  0  0  0
 59 62  1  0  0  0
 60131  1  0  0  0
 60132  1  0  0  0
 60133  1  0  0  0
 61134  1  0  0  0
 61135  1  0  0  0
 61136  1  0  0  0
 62137  1  0  0  0
 62138  1  0  0  0
 62139  1  0  0  0
 63 65  1  0  0  0
 63140  1  0  0  0
 63141  1  0  0  0
 63142  1  0  0  0
 64143  1  0  0  0
 65144  1  0  0  0
 68 83  1  0  0  0
 71 72  2  0  0  0
 71 74  1  0  0  0
 71145  1  0  0  0
 72 76  1  0  0  0
 72146  1  0  0  0
 73 75  1  0  0  0
 73 76  2  0  0  0
 73147  1  0  0  0
 74 75  2  0  0  0
 74 77  1  0  0  0
 75 80  1  0  0  0
 76 84  1  0  0  0
 77 78  1  0  0  0
 77148  1  0  0  0
 77149  1  0  0  0
 78 79  1  0  0  0
 78150  1  0  0  0
 78151  1  0  0  0
 79 80  1  0  0  0
 79152  1  0  0  0
 79153  1  0  0  0
 80 85  1  0  0  0
 80154  1  0  0  0
 81 82  1  0  0  0
 81 83  1  0  0  0
 81155  1  0  0  0
 81156  1  0  0  0
 82 84  1  0  0  0
 82157  1  0  0  0
 82158  1  0  0  0
 83159  1  0  0  0
 83160  1  0  0  0
 84161  1  0  0  0
 85162  1  0  0  0
M  ISO  4   1 100  68 101  83 101  85 100
M  END
> <chiral flag>
0

> <version>
0

> <s_m_source_file>
/data/baiqing/PycharmProjects/Reinvent-master-3.2/result/LINK_invent/BTK/process_docking_weight1_custom_product_contain_oxygen_bond_distance_aromatic_linkinvent_7_9_3/rearranged_h_0006.sdf

> <i_m_source_file_index>
50

> <r_mmod_Potential_Energy-OPLS-2005>
-67.7199859619141

> <r_mmod_Stretch_Energy-OPLS-2005>
46.6595268249512

> <r_mmod_Bend_Energy-OPLS-2005>
108.70930480957

> <r_mmod_Torsional_Energy-OPLS-2005>
232.403594970703

> <r_mmod_Improper_Torsional_Energy-OPLS-2005>
5.12160730361938

> <r_mmod_Van_der_Waal_Energy-OPLS-2005>
157.589279174805

> <r_mmod_Electrostatic_Energy-OPLS-2005>
-425.119171142578

> <r_mmod_Solvation_Energy-OPLS-2005>
-211.715286254883

> <b_mmod_Minimization_Converged-OPLS-2005>
0

> <r_mmod_RMS_Derivative-OPLS-2005>
1.27706730365753

$$$$
51
                    3D
 Structure written by MMmdl.
191201  0  0  1  0            999 V2000
  -30.7465  -14.3505   20.6455 C   0  0  0  0  0  0
  -30.4151  -12.2618   19.3879 C   0  0  0  0  0  0
  -29.4802  -12.5232   18.1906 C   0  0  0  0  0  0
  -28.0003  -12.3944   18.6048 C   0  0  0  0  0  0
  -27.6662  -13.1986   19.8912 C   0  0  2  0  0  0
  -28.7084  -12.9056   20.9956 C   0  0  0  0  0  0
  -25.2472  -13.8070   20.5567 C   0  0  0  0  0  0
  -24.1752  -13.0339   20.9083 C   0  0  0  0  0  0
  -24.6361  -11.6847   20.8707 C   0  0  0  0  0  0
  -23.9035  -10.4242   21.0390 C   0  0  0  0  0  0
  -24.3591   -9.4175   21.9187 C   0  0  0  0  0  0
  -23.6276   -8.2211   22.0752 C   0  0  0  0  0  0
  -22.4267   -8.0249   21.3538 C   0  0  0  0  0  0
  -21.9894   -9.0212   20.4638 C   0  0  0  0  0  0
  -22.7210  -10.2091   20.3039 C   0  0  0  0  0  0
  -21.6841   -6.0735   22.5287 C   0  0  0  0  0  0
  -21.3998   -6.5634   23.8221 C   0  0  0  0  0  0
  -21.3659   -5.6785   24.9184 C   0  0  0  0  0  0
  -21.6044   -4.3050   24.7231 C   0  0  0  0  0  0
  -21.8813   -3.8146   23.4346 C   0  0  0  0  0  0
  -21.9176   -4.6965   22.3408 C   0  0  0  0  0  0
  -22.7788  -13.5143   21.1803 C   0  0  0  0  0  0
  -22.1641   -4.2162   21.0985 F   0  0  0  0  0  0
  -21.5644   -3.4530   25.7743 F   0  0  0  0  0  0
  -30.0533  -13.1990   20.4616 N   0  0  0  0  0  0
  -26.3016  -12.9294   20.3465 N   0  0  0  0  0  0
  -25.9310  -11.6444   20.5825 N   0  0  0  0  0  0
  -22.0477  -12.8137   22.0404 N   0  0  0  0  0  0
  -25.3928  -15.1756   20.3881 N   0  0  0  0  0  0
  -31.8100  -14.6074   20.0695 O   0  0  0  0  0  0
  -21.6610   -6.8875   21.4249 O   0  0  0  0  0  0
  -22.3463  -14.5455   20.6685 O   0  0  0  0  0  0
  -24.6057  -31.8717   23.2142 C   0  0  0  0  0  0
  -25.9006  -32.4841   23.8426 C   0  0  1  0  0  0
  -27.2854  -27.5200   20.0824 C   0  0  0  0  0  0
  -25.5879  -33.8632   24.2366 N   0  0  0  0  0  0
  -23.3923  -30.4896   21.5516 C   0  0  2  0  0  0
  -24.8458  -28.9567   20.1268 C   0  0  0  0  0  0
  -22.7387  -29.4654   22.5046 C   0  0  0  0  0  0
  -18.0251  -28.1342   22.8484 C   0  0  0  0  0  0
  -24.1473  -36.7357   23.2646 C   0  0  0  0  0  0
  -25.9078  -30.8608   21.3579 C   0  0  0  0  0  0
  -25.9924  -29.4954   20.7181 C   0  0  0  0  0  0
  -27.2010  -28.7825   20.7128 C   0  0  0  0  0  0
  -26.1067  -26.9677   19.5279 C   0  0  0  0  0  0
  -24.8921  -27.6802   19.5399 C   0  0  0  0  0  0
  -23.6036  -29.8123   20.1681 C   0  0  0  0  0  0
  -25.4072  -36.3112   24.0359 C   0  0  1  0  0  0
  -20.5834  -28.3623   23.1331 C   0  0  2  0  0  0
  -20.6718  -26.9374   22.5407 C   0  0  0  0  0  0
  -19.5718  -26.6349   21.5197 C   0  0  0  0  0  0
  -18.1897  -26.7886   22.1617 C   0  0  0  0  0  0
  -19.1509  -28.8798   23.2910 C   0  0  0  0  0  0
  -18.9446  -30.1400   23.8938 C   0  0  0  0  0  0
  -17.6458  -30.6563   24.0557 C   0  0  0  0  0  0
  -25.9018  -34.9477   23.5166 C   0  0  0  0  0  0
  -16.5346  -29.9071   23.6306 C   0  0  0  0  0  0
  -16.7238  -28.6474   23.0332 C   0  0  0  0  0  0
  -26.4452  -31.6616   25.0745 C   0  0  0  0  0  0
  -25.3719  -31.3735   26.1511 C   0  0  0  0  0  0
  -27.0294  -30.3066   24.6122 C   0  0  0  0  0  0
  -27.6034  -32.4353   25.7466 C   0  0  0  0  0  0
  -27.5559  -37.1827   24.8446 C   0  0  0  0  0  0
  -21.4118  -29.3034   22.3801 N   0  0  0  0  0  0
  -26.4251  -37.3795   23.9415 N   0  0  0  0  0  0
  -24.6514  -31.0893   22.1001 N   0  0  0  0  0  0
  -23.4211  -28.8214   23.3055 O   0  0  0  0  0  0
  -28.4710  -26.8198   19.9615 O   0  0  0  0  0  0
  -26.5578  -34.8916   22.4725 O   0  0  0  0  0  0
  -23.5279  -32.1414   23.7599 O   0  0  0  0  0  0
  -29.0396  -25.6287   14.0357 C   0  0  0  0  0  0
  -30.0907  -25.8712   14.9379 C   0  0  0  0  0  0
  -30.7369  -18.7375   20.3456 C   0  0  0  0  0  0
  -31.0276  -17.4472   20.8232 C   0  0  0  0  0  0
  -27.8675  -24.9893   14.4731 C   0  0  0  0  0  0
  -28.3497  -18.2692   20.4895 C   0  0  0  0  0  0
  -29.9902  -25.4709   16.2890 C   0  0  0  0  0  0
  -28.8084  -24.8050   16.7244 C   0  0  0  0  0  0
  -29.4012  -19.1497   20.1479 C   0  0  0  0  0  0
  -29.9698  -16.5598   21.1118 C   0  0  0  0  0  0
  -27.7414  -24.5766   15.8203 C   0  0  0  0  0  0
  -28.6407  -16.9918   20.9925 C   0  0  0  0  0  0
  -27.8564  -21.0451   19.8896 C   0  0  0  0  0  0
  -29.7378  -20.7090   18.3125 C   0  0  0  0  0  0
  -27.9455  -22.5598   19.6683 C   0  0  0  0  0  0
  -29.8293  -22.2244   18.0849 C   0  0  0  0  0  0
  -23.9365  -24.0437   17.6252 C   0  0  0  0  0  0
  -28.6055  -24.3578   18.1690 C   0  0  0  0  0  0
  -31.1557  -25.7956   17.2281 C   0  0  0  0  0  0
  -24.3336  -23.2539   16.3711 C   0  0  0  0  0  0
  -30.8881  -26.8498   19.5102 C   0  0  0  0  0  0
  -25.4319  -23.9407   15.5474 C   0  0  0  0  0  0
  -29.6904  -27.5564   20.1729 C   0  0  0  0  0  0
  -29.1511  -20.4259   19.6217 N   0  0  0  0  0  0
  -30.1743  -15.2174   21.4844 N   0  0  0  0  0  0
  -28.5281  -22.8974   18.3406 N   0  3  0  0  0  0
  -30.8694  -27.0064   18.0287 N   0  3  0  0  0  0
  -26.6256  -23.9378   16.3212 O   0  0  0  0  0  0
  -27.6429  -16.1502   21.3361 F   0  0  0  0  0  0
  -31.4581  -12.3563   19.0831 H   0  0  0  0  0  0
  -30.3050  -11.2336   19.7365 H   0  0  0  0  0  0
  -29.7008  -11.8264   17.3815 H   0  0  0  0  0  0
  -29.6616  -13.5215   17.7897 H   0  0  0  0  0  0
  -27.7878  -11.3359   18.7600 H   0  0  0  0  0  0
  -27.3521  -12.7132   17.7861 H   0  0  0  0  0  0
  -27.7302  -14.2567   19.6350 H   0  0  0  0  0  0
  -28.6621  -11.8513   21.2730 H   0  0  0  0  0  0
  -28.4681  -13.4452   21.9132 H   0  0  0  0  0  0
  -25.2740   -9.5662   22.4757 H   0  0  0  0  0  0
  -23.9987   -7.4612   22.7455 H   0  0  0  0  0  0
  -21.0839   -8.8713   19.8945 H   0  0  0  0  0  0
  -22.3671  -10.9617   19.6131 H   0  0  0  0  0  0
  -21.1975   -7.6141   23.9735 H   0  0  0  0  0  0
  -21.1488   -6.0512   25.9089 H   0  0  0  0  0  0
  -22.0586   -2.7606   23.2837 H   0  0  0  0  0  0
  -22.4144  -11.9782   22.4736 H   0  0  0  0  0  0
  -21.1079  -13.1105   22.2628 H   0  0  0  0  0  0
  -24.6386  -15.7986   20.6517 H   0  0  0  0  0  0
  -26.3096  -15.6047   20.4955 H   0  0  0  0  0  0
  -26.7118  -32.5611   23.1239 H   0  0  0  0  0  0
  -24.9957  -33.9763   25.0455 H   0  0  0  0  0  0
  -22.6771  -31.3015   21.4094 H   0  0  0  0  0  0
  -23.3682  -35.9745   23.3304 H   0  0  0  0  0  0
  -24.3602  -36.8994   22.2066 H   0  0  0  0  0  0
  -23.7269  -37.6587   23.6662 H   0  0  0  0  0  0
  -26.0091  -31.6253   20.5839 H   0  0  0  0  0  0
  -26.7966  -30.9254   21.9740 H   0  0  0  0  0  0
  -28.0579  -29.2360   21.1893 H   0  0  0  0  0  0
  -26.1089  -25.9943   19.0688 H   0  0  0  0  0  0
  -24.0071  -27.2406   19.1011 H   0  0  0  0  0  0
  -23.7087  -30.5803   19.4007 H   0  0  0  0  0  0
  -22.7330  -29.2203   19.8774 H   0  0  0  0  0  0
  -25.1224  -36.1987   25.0851 H   0  0  0  0  0  0
  -20.9894  -28.3128   24.1451 H   0  0  0  0  0  0
  -20.5532  -26.2260   23.3584 H   0  0  0  0  0  0
  -21.6589  -26.7335   22.1260 H   0  0  0  0  0  0
  -19.6867  -25.6244   21.1240 H   0  0  0  0  0  0
  -19.6670  -27.3136   20.6708 H   0  0  0  0  0  0
  -17.4163  -26.6622   21.4015 H   0  0  0  0  0  0
  -18.0306  -26.0016   22.9003 H   0  0  0  0  0  0
  -19.7936  -30.7183   24.2343 H   0  0  0  0  0  0
  -17.5022  -31.6241   24.5158 H   0  0  0  0  0  0
  -15.5355  -30.3006   23.7578 H   0  0  0  0  0  0
  -15.8617  -28.0804   22.7041 H   0  0  0  0  0  0
  -24.5824  -30.7179   25.7832 H   0  0  0  0  0  0
  -24.8997  -32.2914   26.5006 H   0  0  0  0  0  0
  -25.8028  -30.8808   27.0236 H   0  0  0  0  0  0
  -26.2843  -29.6836   24.1175 H   0  0  0  0  0  0
  -27.4052  -29.7321   25.4601 H   0  0  0  0  0  0
  -27.8686  -30.4392   23.9295 H   0  0  0  0  0  0
  -27.2620  -33.3600   26.2122 H   0  0  0  0  0  0
  -28.3766  -32.7024   25.0251 H   0  0  0  0  0  0
  -28.0806  -31.8461   26.5301 H   0  0  0  0  0  0
  -28.2556  -38.0138   24.7477 H   0  0  0  0  0  0
  -28.1082  -36.2671   24.6252 H   0  0  0  0  0  0
  -27.2330  -37.1483   25.8870 H   0  0  0  0  0  0
  -20.9280  -29.8877   21.7126 H   0  0  0  0  0  0
  -26.0149  -38.2883   24.1414 H   0  0  0  0  0  0
  -29.1310  -25.9323   13.0008 H   0  0  0  0  0  0
  -30.9815  -26.3678   14.5757 H   0  0  0  0  0  0
  -31.5578  -19.4064   20.1292 H   0  0  0  0  0  0
  -32.0566  -17.1395   20.9443 H   0  0  0  0  0  0
  -27.0845  -24.8145   13.7504 H   0  0  0  0  0  0
  -27.3127  -18.5373   20.3522 H   0  0  0  0  0  0
  -27.0949  -20.6118   19.2373 H   0  0  0  0  0  0
  -27.5468  -20.8562   20.9188 H   0  0  0  0  0  0
  -30.7324  -20.2734   18.2031 H   0  0  0  0  0  0
  -29.1208  -20.2516   17.5364 H   0  0  0  0  0  0
  -28.5656  -22.9975   20.4542 H   0  0  0  0  0  0
  -26.9539  -23.0021   19.7744 H   0  0  0  0  0  0
  -30.1666  -22.4251   17.0665 H   0  0  0  0  0  0
  -30.5875  -22.6364   18.7515 H   0  0  0  0  0  0
  -23.1369  -23.5376   18.1679 H   0  0  0  0  0  0
  -23.5809  -25.0428   17.3689 H   0  0  0  0  0  0
  -24.7788  -24.1502   18.3082 H   0  0  0  0  0  0
  -27.6756  -24.7979   18.5084 H   0  0  0  0  0  0
  -29.3602  -24.7354   18.8442 H   0  0  0  0  0  0
  -32.0507  -25.9934   16.6363 H   0  0  0  0  0  0
  -31.4116  -24.9327   17.8416 H   0  0  0  0  0  0
  -23.4507  -23.1176   15.7448 H   0  0  0  0  0  0
  -24.6645  -22.2520   16.6527 H   0  0  0  0  0  0
  -30.9306  -25.8129   19.8385 H   0  0  0  0  0  0
  -31.8131  -27.3006   19.8758 H   0  0  0  0  0  0
  -25.1414  -24.9643   15.3003 H   0  0  0  0  0  0
  -25.5786  -23.3935   14.6154 H   0  0  0  0  0  0
  -29.6317  -28.5714   19.7739 H   0  0  0  0  0  0
  -29.8724  -27.6427   21.2461 H   0  0  0  0  0  0
  -29.3785  -14.8104   21.9558 H   0  0  0  0  0  0
  -27.8728  -22.5624   17.6480 H   0  0  0  0  0  0
  -29.9723  -27.3598   17.7399 H   0  0  0  0  0  0
  -31.5489  -27.7066   17.7662 H   0  0  0  0  0  0
  1 25  1  0  0  0
  1 30  2  0  0  0
  1 95  1  0  0  0
  2  3  1  0  0  0
  2 25  1  0  0  0
  2100  1  0  0  0
  2101  1  0  0  0
  3  4  1  0  0  0
  3102  1  0  0  0
  3103  1  0  0  0
  4  5  1  0  0  0
  4104  1  0  0  0
  4105  1  0  0  0
  5  6  1  0  0  0
  5 26  1  0  0  0
  5106  1  0  0  0
  6 25  1  0  0  0
  6107  1  0  0  0
  6108  1  0  0  0
  7  8  2  0  0  0
  7 26  1  0  0  0
  7 29  1  0  0  0
  8  9  1  0  0  0
  8 22  1  0  0  0
  9 10  1  0  0  0
  9 27  2  0  0  0
 10 11  2  0  0  0
 10 15  1  0  0  0
 11 12  1  0  0  0
 11109  1  0  0  0
 12 13  2  0  0  0
 12110  1  0  0  0
 13 14  1  0  0  0
 13 31  1  0  0  0
 14 15  2  0  0  0
 14111  1  0  0  0
 15112  1  0  0  0
 16 17  2  0  0  0
 16 21  1  0  0  0
 16 31  1  0  0  0
 17 18  1  0  0  0
 17113  1  0  0  0
 18 19  2  0  0  0
 18114  1  0  0  0
 19 20  1  0  0  0
 19 24  1  0  0  0
 20 21  2  0  0  0
 20115  1  0  0  0
 21 23  1  0  0  0
 22 28  1  0  0  0
 22 32  2  0  0  0
 26 27  1  0  0  0
 28116  1  0  0  0
 28117  1  0  0  0
 29118  1  0  0  0
 29119  1  0  0  0
 33 34  1  0  0  0
 33 66  1  0  0  0
 33 70  2  0  0  0
 34 36  1  0  0  0
 34 59  1  0  0  0
 34120  1  0  0  0
 35 44  2  0  0  0
 35 45  1  0  0  0
 35 68  1  0  0  0
 36 56  1  0  0  0
 36121  1  0  0  0
 37 39  1  0  0  0
 37 47  1  0  0  0
 37 66  1  0  0  0
 37122  1  0  0  0
 38 43  2  0  0  0
 38 46  1  0  0  0
 38 47  1  0  0  0
 39 64  1  0  0  0
 39 67  2  0  0  0
 40 52  1  0  0  0
 40 53  2  0  0  0
 40 58  1  0  0  0
 41123  1  0  0  0
 41124  1  0  0  0
 41125  1  0  0  0
 41 48  1  0  0  0
 42 43  1  0  0  0
 42 66  1  0  0  0
 42126  1  0  0  0
 42127  1  0  0  0
 43 44  1  0  0  0
 44128  1  0  0  0
 45 46  2  0  0  0
 45129  1  0  0  0
 46130  1  0  0  0
 47131  1  0  0  0
 47132  1  0  0  0
 48 56  1  0  0  0
 48 65  1  0  0  0
 48133  1  0  0  0
 49 50  1  0  0  0
 49 53  1  0  0  0
 49 64  1  0  0  0
 49134  1  0  0  0
 50 51  1  0  0  0
 50135  1  0  0  0
 50136  1  0  0  0
 51 52  1  0  0  0
 51137  1  0  0  0
 51138  1  0  0  0
 52139  1  0  0  0
 52140  1  0  0  0
 53 54  1  0  0  0
 54 55  2  0  0  0
 54141  1  0  0  0
 55 57  1  0  0  0
 55142  1  0  0  0
 56 69  2  0  0  0
 57 58  2  0  0  0
 57143  1  0  0  0
 58144  1  0  0  0
 59 60  1  0  0  0
 59 61  1  0  0  0
 59 62  1  0  0  0
 60145  1  0  0  0
 60146  1  0  0  0
 60147  1  0  0  0
 61148  1  0  0  0
 61149  1  0  0  0
 61150  1  0  0  0
 62151  1  0  0  0
 62152  1  0  0  0
 62153  1  0  0  0
 63 65  1  0  0  0
 63154  1  0  0  0
 63155  1  0  0  0
 63156  1  0  0  0
 64157  1  0  0  0
 65158  1  0  0  0
 68 93  1  0  0  0
 71 72  2  0  0  0
 71 75  1  0  0  0
 71159  1  0  0  0
 72 77  1  0  0  0
 72160  1  0  0  0
 73 74  2  0  0  0
 73 79  1  0  0  0
 73161  1  0  0  0
 74 80  1  0  0  0
 74162  1  0  0  0
 75 81  2  0  0  0
 75163  1  0  0  0
 76 79  2  0  0  0
 76 82  1  0  0  0
 76164  1  0  0  0
 77 78  2  0  0  0
 77 89  1  0  0  0
 78 81  1  0  0  0
 78 88  1  0  0  0
 79 94  1  0  0  0
 80 82  2  0  0  0
 80 95  1  0  0  0
 81 98  1  0  0  0
 82 99  1  0  0  0
 83 85  1  0  0  0
 83 94  1  0  0  0
 83165  1  0  0  0
 83166  1  0  0  0
 84 86  1  0  0  0
 84 94  1  0  0  0
 84167  1  0  0  0
 84168  1  0  0  0
 85 96  1  0  0  0
 85169  1  0  0  0
 85170  1  0  0  0
 86 96  1  0  0  0
 86171  1  0  0  0
 86172  1  0  0  0
 87 90  1  0  0  0
 87173  1  0  0  0
 87174  1  0  0  0
 87175  1  0  0  0
 88176  1  0  0  0
 88177  1  0  0  0
 88 96  1  0  0  0
 89 97  1  0  0  0
 89178  1  0  0  0
 89179  1  0  0  0
 90 92  1  0  0  0
 90180  1  0  0  0
 90181  1  0  0  0
 91 93  1  0  0  0
 91 97  1  0  0  0
 91182  1  0  0  0
 91183  1  0  0  0
 92 98  1  0  0  0
 92184  1  0  0  0
 92185  1  0  0  0
 93186  1  0  0  0
 93187  1  0  0  0
 95188  1  0  0  0
 96189  1  0  0  0
 97190  1  0  0  0
 97191  1  0  0  0
M  CHG  2  96   1  97   1
M  ISO  4   1 100  68 101  93 101  95 100
M  END
> <chiral flag>
0

> <version>
0

> <s_m_source_file>
/data/baiqing/PycharmProjects/Reinvent-master-3.2/result/LINK_invent/BTK/process_docking_weight1_custom_product_contain_oxygen_bond_distance_aromatic_linkinvent_7_9_3/rearranged_h_0006.sdf

> <i_m_source_file_index>
51

> <r_mmod_Potential_Energy-OPLS-2005>
-310.896636962891

> <r_mmod_Stretch_Energy-OPLS-2005>
38.3932189941406

> <r_mmod_Bend_Energy-OPLS-2005>
115.687889099121

> <r_mmod_Torsional_Energy-OPLS-2005>
307.213745117188

> <r_mmod_Improper_Torsional_Energy-OPLS-2005>
11.2054309844971

> <r_mmod_Van_der_Waal_Energy-OPLS-2005>
189.731002807617

> <r_mmod_Electrostatic_Energy-OPLS-2005>
-91.1547241210938

> <r_mmod_Solvation_Energy-OPLS-2005>
-889.764770507812

> <b_mmod_Minimization_Converged-OPLS-2005>
0

> <r_mmod_RMS_Derivative-OPLS-2005>
3.71446084976196

$$$$
52
                    3D
 Structure written by MMmdl.
154162  0  0  1  0            999 V2000
  -30.6367  -14.6362   20.5158 C   0  0  0  0  0  0
  -30.4284  -12.3900   19.4808 C   0  0  0  0  0  0
  -29.5117  -12.4715   18.2375 C   0  0  0  0  0  0
  -28.0347  -12.3006   18.6398 C   0  0  0  0  0  0
  -27.6431  -13.2023   19.8376 C   0  0  2  0  0  0
  -28.6673  -13.0904   20.9771 C   0  0  0  0  0  0
  -25.2585  -13.8144   20.5648 C   0  0  0  0  0  0
  -24.1839  -13.0440   20.9158 C   0  0  0  0  0  0
  -24.6365  -11.6902   20.8698 C   0  0  0  0  0  0
  -23.9025  -10.4298   21.0383 C   0  0  0  0  0  0
  -24.3596   -9.4225   21.9159 C   0  0  0  0  0  0
  -23.6282   -8.2254   22.0726 C   0  0  0  0  0  0
  -22.4264   -8.0272   21.3530 C   0  0  0  0  0  0
  -21.9898   -9.0241   20.4629 C   0  0  0  0  0  0
  -22.7203  -10.2138   20.3025 C   0  0  0  0  0  0
  -21.6861   -6.0733   22.5283 C   0  0  0  0  0  0
  -21.4010   -6.5650   23.8208 C   0  0  0  0  0  0
  -21.3653   -5.6811   24.9172 C   0  0  0  0  0  0
  -21.6047   -4.3072   24.7238 C   0  0  0  0  0  0
  -21.8831   -3.8157   23.4358 C   0  0  0  0  0  0
  -21.9200   -4.6961   22.3406 C   0  0  0  0  0  0
  -22.7889  -13.5248   21.1897 C   0  0  0  0  0  0
  -22.1679   -4.2142   21.0987 F   0  0  0  0  0  0
  -21.5623   -3.4556   25.7755 F   0  0  0  0  0  0
  -29.9865  -13.4326   20.4326 N   0  0  0  0  0  0
  -26.2921  -12.9271   20.3148 N   0  0  0  0  0  0
  -25.9258  -11.6447   20.5641 N   0  0  0  0  0  0
  -22.0567  -12.8147   22.0408 N   0  0  0  0  0  0
  -25.4431  -15.1850   20.4134 N   0  0  0  0  0  0
  -31.8138  -14.7421   20.1618 O   0  0  0  0  0  0
  -21.6645   -6.8864   21.4233 O   0  0  0  0  0  0
  -22.3549  -14.5573   20.6801 O   0  0  0  0  0  0
  -24.6247  -31.8605   23.1976 C   0  0  0  0  0  0
  -25.9108  -32.4752   23.8318 C   0  0  1  0  0  0
  -27.2267  -27.3375   20.1341 C   0  0  0  0  0  0
  -25.5933  -33.8554   24.2267 N   0  0  0  0  0  0
  -23.4160  -30.4834   21.5362 C   0  0  2  0  0  0
  -24.8668  -28.9364   20.1090 C   0  0  0  0  0  0
  -22.7453  -29.4652   22.4887 C   0  0  0  0  0  0
  -18.0323  -28.1351   22.8495 C   0  0  0  0  0  0
  -24.1510  -36.7304   23.2626 C   0  0  0  0  0  0
  -25.9530  -30.8035   21.3583 C   0  0  0  0  0  0
  -26.0315  -29.4272   20.7143 C   0  0  0  0  0  0
  -27.2180  -28.6388   20.7181 C   0  0  0  0  0  0
  -26.0471  -26.8961   19.4983 C   0  0  0  0  0  0
  -24.8767  -27.6774   19.4886 C   0  0  0  0  0  0
  -23.6285  -29.8090   20.1539 C   0  0  0  0  0  0
  -25.4114  -36.3056   24.0317 C   0  0  1  0  0  0
  -20.5910  -28.3712   23.1269 C   0  0  2  0  0  0
  -20.6828  -26.9451   22.5402 C   0  0  0  0  0  0
  -19.5807  -26.6403   21.5203 C   0  0  0  0  0  0
  -18.1964  -26.7923   22.1568 C   0  0  0  0  0  0
  -19.1554  -28.8845   23.2886 C   0  0  0  0  0  0
  -18.9469  -30.1437   23.8927 C   0  0  0  0  0  0
  -17.6466  -30.6567   24.0561 C   0  0  0  0  0  0
  -25.9057  -34.9431   23.5089 C   0  0  0  0  0  0
  -16.5385  -29.9053   23.6278 C   0  0  0  0  0  0
  -16.7302  -28.6457   23.0328 C   0  0  0  0  0  0
  -26.4515  -31.6527   25.0650 C   0  0  0  0  0  0
  -25.3760  -31.3667   26.1380 C   0  0  0  0  0  0
  -27.0324  -30.2942   24.6041 C   0  0  0  0  0  0
  -27.6074  -32.4238   25.7437 C   0  0  0  0  0  0
  -27.5572  -37.1804   24.8470 C   0  0  0  0  0  0
  -21.4175  -29.3079   22.3658 N   0  0  0  0  0  0
  -26.4297  -37.3735   23.9392 N   0  0  0  0  0  0
  -24.6821  -31.0673   22.0882 N   0  0  0  0  0  0
  -23.4215  -28.8220   23.2987 O   0  0  0  0  0  0
  -28.3387  -26.4927   20.1609 O   0  0  0  0  0  0
  -26.5636  -34.8906   22.4663 O   0  0  0  0  0  0
  -23.5418  -32.1379   23.7344 O   0  0  0  0  0  0
  -27.9843  -17.4504   24.0996 C   0  0  0  0  0  0
  -28.6103  -16.2003   24.1324 C   0  0  0  0  0  0
  -28.1076  -18.2526   22.9529 C   0  0  0  0  0  0
  -29.2894  -15.7321   22.9985 C   0  0  0  0  0  0
  -28.8323  -17.8411   21.7969 C   0  0  0  0  0  0
  -29.3511  -16.4729   21.7886 C   0  0  0  0  0  0
  -28.7925  -22.5412   20.7666 C   0  0  0  0  0  0
  -28.9596  -18.8904   20.6715 C   0  0  0  0  0  0
  -28.8862  -23.9062   20.0207 C   0  0  0  0  0  0
  -28.1370  -25.1302   20.7006 C   0  0  0  0  0  0
  -28.9039  -21.3580   20.2178 N   0  0  0  0  0  0
  -29.8929  -15.7871   20.6259 N   0  0  0  0  0  0
  -28.8680  -20.2145   21.0324 N   0  0  0  0  0  0
  -29.1655  -18.5339   19.5068 O   0  0  0  0  0  0
  -31.4743  -12.5081   19.1844 H   0  0  0  0  0  0
  -30.3661  -11.4056   19.9452 H   0  0  0  0  0  0
  -29.7895  -11.7013   17.5164 H   0  0  0  0  0  0
  -29.6548  -13.4261   17.7314 H   0  0  0  0  0  0
  -27.8955  -11.2536   18.9101 H   0  0  0  0  0  0
  -27.3758  -12.4775   17.7892 H   0  0  0  0  0  0
  -27.6592  -14.2306   19.4737 H   0  0  0  0  0  0
  -28.6789  -12.0855   21.4002 H   0  0  0  0  0  0
  -28.3502  -13.7447   21.7800 H   0  0  0  0  0  0
  -25.2757   -9.5727   22.4709 H   0  0  0  0  0  0
  -24.0030   -7.4649   22.7434 H   0  0  0  0  0  0
  -21.0837   -8.8736   19.8916 H   0  0  0  0  0  0
  -22.3647  -10.9659   19.6110 H   0  0  0  0  0  0
  -21.1992   -7.6160   23.9704 H   0  0  0  0  0  0
  -21.1452   -6.0539   25.9071 H   0  0  0  0  0  0
  -22.0606   -2.7614   23.2867 H   0  0  0  0  0  0
  -22.4252  -11.9762   22.4650 H   0  0  0  0  0  0
  -21.1174  -13.1070   22.2728 H   0  0  0  0  0  0
  -24.7035  -15.8613   20.5619 H   0  0  0  0  0  0
  -26.3215  -15.6078   20.1392 H   0  0  0  0  0  0
  -26.7191  -32.5463   23.1095 H   0  0  0  0  0  0
  -25.0073  -33.9719   25.0407 H   0  0  0  0  0  0
  -22.7088  -31.3010   21.3868 H   0  0  0  0  0  0
  -23.3714  -35.9699   23.3295 H   0  0  0  0  0  0
  -24.3626  -36.8916   22.2046 H   0  0  0  0  0  0
  -23.7348  -37.6541   23.6654 H   0  0  0  0  0  0
  -26.0665  -31.5555   20.5754 H   0  0  0  0  0  0
  -26.8407  -30.8727   21.9751 H   0  0  0  0  0  0
  -28.1085  -29.0124   21.2065 H   0  0  0  0  0  0
  -26.0225  -25.9291   19.0166 H   0  0  0  0  0  0
  -23.9877  -27.2970   19.0041 H   0  0  0  0  0  0
  -23.7353  -30.5733   19.3826 H   0  0  0  0  0  0
  -22.7521  -29.2261   19.8646 H   0  0  0  0  0  0
  -25.1297  -36.1894   25.0805 H   0  0  0  0  0  0
  -21.0017  -28.3346   24.1393 H   0  0  0  0  0  0
  -20.5793  -26.2341   23.3628 H   0  0  0  0  0  0
  -21.6675  -26.7501   22.1157 H   0  0  0  0  0  0
  -19.7006  -25.6327   21.1206 H   0  0  0  0  0  0
  -19.6770  -27.3237   20.6749 H   0  0  0  0  0  0
  -17.4287  -26.6810   21.3887 H   0  0  0  0  0  0
  -18.0252  -25.9974   22.8828 H   0  0  0  0  0  0
  -19.7925  -30.7278   24.2330 H   0  0  0  0  0  0
  -17.4969  -31.6254   24.5138 H   0  0  0  0  0  0
  -15.5390  -30.2967   23.7545 H   0  0  0  0  0  0
  -15.8738  -28.0776   22.6972 H   0  0  0  0  0  0
  -24.5965  -30.6959   25.7733 H   0  0  0  0  0  0
  -24.8897  -32.2832   26.4739 H   0  0  0  0  0  0
  -25.8102  -30.8913   27.0185 H   0  0  0  0  0  0
  -26.2845  -29.6683   24.1126 H   0  0  0  0  0  0
  -27.4121  -29.7181   25.4499 H   0  0  0  0  0  0
  -27.8692  -30.4202   23.9149 H   0  0  0  0  0  0
  -27.2676  -33.3542   26.1999 H   0  0  0  0  0  0
  -28.3911  -32.6778   25.0280 H   0  0  0  0  0  0
  -28.0707  -31.8347   26.5372 H   0  0  0  0  0  0
  -28.2591  -38.0088   24.7428 H   0  0  0  0  0  0
  -28.1056  -36.2606   24.6377 H   0  0  0  0  0  0
  -27.2291  -37.1549   25.8876 H   0  0  0  0  0  0
  -20.9341  -29.8727   21.6798 H   0  0  0  0  0  0
  -26.0164  -38.2815   24.1318 H   0  0  0  0  0  0
  -27.4223  -17.7989   24.9587 H   0  0  0  0  0  0
  -28.5491  -15.5851   25.0194 H   0  0  0  0  0  0
  -27.6147  -19.2133   22.9876 H   0  0  0  0  0  0
  -29.7348  -14.7520   23.0768 H   0  0  0  0  0  0
  -28.6698  -22.6111   21.8493 H   0  0  0  0  0  0
  -28.5364  -23.7842   18.9956 H   0  0  0  0  0  0
  -29.9400  -24.1719   19.9390 H   0  0  0  0  0  0
  -28.4548  -25.1756   21.7438 H   0  0  0  0  0  0
  -27.0772  -24.8805   20.7493 H   0  0  0  0  0  0
  -30.1357  -16.4406   19.8954 H   0  0  0  0  0  0
  -28.7460  -20.4041   22.0180 H   0  0  0  0  0  0
  1 25  1  0  0  0
  1 30  2  0  0  0
  1 82  1  0  0  0
  2  3  1  0  0  0
  2 25  1  0  0  0
  2 85  1  0  0  0
  2 86  1  0  0  0
  3  4  1  0  0  0
  3 87  1  0  0  0
  3 88  1  0  0  0
  4  5  1  0  0  0
  4 89  1  0  0  0
  4 90  1  0  0  0
  5  6  1  0  0  0
  5 26  1  0  0  0
  5 91  1  0  0  0
  6 25  1  0  0  0
  6 92  1  0  0  0
  6 93  1  0  0  0
  7  8  2  0  0  0
  7 26  1  0  0  0
  7 29  1  0  0  0
  8  9  1  0  0  0
  8 22  1  0  0  0
  9 10  1  0  0  0
  9 27  2  0  0  0
 10 11  2  0  0  0
 10 15  1  0  0  0
 11 12  1  0  0  0
 11 94  1  0  0  0
 12 13  2  0  0  0
 12 95  1  0  0  0
 13 14  1  0  0  0
 13 31  1  0  0  0
 14 15  2  0  0  0
 14 96  1  0  0  0
 15 97  1  0  0  0
 16 17  2  0  0  0
 16 21  1  0  0  0
 16 31  1  0  0  0
 17 18  1  0  0  0
 17 98  1  0  0  0
 18 19  2  0  0  0
 18 99  1  0  0  0
 19 20  1  0  0  0
 19 24  1  0  0  0
 20 21  2  0  0  0
 20100  1  0  0  0
 21 23  1  0  0  0
 22 28  1  0  0  0
 22 32  2  0  0  0
 26 27  1  0  0  0
 28101  1  0  0  0
 28102  1  0  0  0
 29103  1  0  0  0
 29104  1  0  0  0
 33 34  1  0  0  0
 33 66  1  0  0  0
 33 70  2  0  0  0
 34 36  1  0  0  0
 34 59  1  0  0  0
 34105  1  0  0  0
 35 44  2  0  0  0
 35 45  1  0  0  0
 35 68  1  0  0  0
 36 56  1  0  0  0
 36106  1  0  0  0
 37 39  1  0  0  0
 37 47  1  0  0  0
 37 66  1  0  0  0
 37107  1  0  0  0
 38 43  2  0  0  0
 38 46  1  0  0  0
 38 47  1  0  0  0
 39 64  1  0  0  0
 39 67  2  0  0  0
 40 52  1  0  0  0
 40 53  2  0  0  0
 40 58  1  0  0  0
 41108  1  0  0  0
 41109  1  0  0  0
 41110  1  0  0  0
 41 48  1  0  0  0
 42 43  1  0  0  0
 42 66  1  0  0  0
 42111  1  0  0  0
 42112  1  0  0  0
 43 44  1  0  0  0
 44113  1  0  0  0
 45 46  2  0  0  0
 45114  1  0  0  0
 46115  1  0  0  0
 47116  1  0  0  0
 47117  1  0  0  0
 48 56  1  0  0  0
 48 65  1  0  0  0
 48118  1  0  0  0
 49 50  1  0  0  0
 49 53  1  0  0  0
 49 64  1  0  0  0
 49119  1  0  0  0
 50 51  1  0  0  0
 50120  1  0  0  0
 50121  1  0  0  0
 51 52  1  0  0  0
 51122  1  0  0  0
 51123  1  0  0  0
 52124  1  0  0  0
 52125  1  0  0  0
 53 54  1  0  0  0
 54 55  2  0  0  0
 54126  1  0  0  0
 55 57  1  0  0  0
 55127  1  0  0  0
 56 69  2  0  0  0
 57 58  2  0  0  0
 57128  1  0  0  0
 58129  1  0  0  0
 59 60  1  0  0  0
 59 61  1  0  0  0
 59 62  1  0  0  0
 60130  1  0  0  0
 60131  1  0  0  0
 60132  1  0  0  0
 61133  1  0  0  0
 61134  1  0  0  0
 61135  1  0  0  0
 62136  1  0  0  0
 62137  1  0  0  0
 62138  1  0  0  0
 63 65  1  0  0  0
 63139  1  0  0  0
 63140  1  0  0  0
 63141  1  0  0  0
 64142  1  0  0  0
 65143  1  0  0  0
 68 80  1  0  0  0
 71 72  2  0  0  0
 71 73  1  0  0  0
 71144  1  0  0  0
 72 74  1  0  0  0
 72145  1  0  0  0
 73 75  2  0  0  0
 73146  1  0  0  0
 74 76  2  0  0  0
 74147  1  0  0  0
 75 76  1  0  0  0
 75 78  1  0  0  0
 76 82  1  0  0  0
 77 79  1  0  0  0
 77 81  2  0  0  0
 77148  1  0  0  0
 78 83  1  0  0  0
 78 84  2  0  0  0
 79 80  1  0  0  0
 79149  1  0  0  0
 79150  1  0  0  0
 80151  1  0  0  0
 80152  1  0  0  0
 81 83  1  0  0  0
 82153  1  0  0  0
 83154  1  0  0  0
M  ISO  4   1 100  68 101  80 101  82 100
M  END
> <chiral flag>
0

> <version>
0

> <s_m_source_file>
/data/baiqing/PycharmProjects/Reinvent-master-3.2/result/LINK_invent/BTK/process_docking_weight1_custom_product_contain_oxygen_bond_distance_aromatic_linkinvent_7_9_3/rearranged_h_0006.sdf

> <i_m_source_file_index>
52

> <r_mmod_Potential_Energy-OPLS-2005>
160.646881103516

> <r_mmod_Stretch_Energy-OPLS-2005>
82.8525848388672

> <r_mmod_Bend_Energy-OPLS-2005>
143.089797973633

> <r_mmod_Torsional_Energy-OPLS-2005>
278.676574707031

> <r_mmod_Improper_Torsional_Energy-OPLS-2005>
12.5493726730347

> <r_mmod_Van_der_Waal_Energy-OPLS-2005>
146.764389038086

> <r_mmod_Electrostatic_Energy-OPLS-2005>
-319.603729248047

> <r_mmod_Solvation_Energy-OPLS-2005>
-230.948806762695

> <b_mmod_Minimization_Converged-OPLS-2005>
0

> <r_mmod_RMS_Derivative-OPLS-2005>
4.15739917755127

$$$$
53
                    3D
 Structure written by MMmdl.
151159  0  0  1  0            999 V2000
  -30.6215  -14.6467   20.4927 C   0  0  0  0  0  0
  -30.4407  -12.3957   19.4503 C   0  0  0  0  0  0
  -29.5080  -12.5074   18.2234 C   0  0  0  0  0  0
  -28.0310  -12.3448   18.6369 C   0  0  0  0  0  0
  -27.6531  -13.2179   19.8634 C   0  0  2  0  0  0
  -28.7004  -13.0767   20.9916 C   0  0  0  0  0  0
  -25.2552  -13.8167   20.5692 C   0  0  0  0  0  0
  -24.1817  -13.0425   20.9166 C   0  0  0  0  0  0
  -24.6396  -11.6902   20.8726 C   0  0  0  0  0  0
  -23.9065  -10.4286   21.0398 C   0  0  0  0  0  0
  -24.3615   -9.4205   21.9181 C   0  0  0  0  0  0
  -23.6291   -8.2241   22.0754 C   0  0  0  0  0  0
  -22.4273   -8.0278   21.3545 C   0  0  0  0  0  0
  -21.9906   -9.0250   20.4646 C   0  0  0  0  0  0
  -22.7236  -10.2128   20.3050 C   0  0  0  0  0  0
  -21.6852   -6.0733   22.5280 C   0  0  0  0  0  0
  -21.4013   -6.5637   23.8213 C   0  0  0  0  0  0
  -21.3660   -5.6791   24.9175 C   0  0  0  0  0  0
  -21.6045   -4.3053   24.7225 C   0  0  0  0  0  0
  -21.8819   -3.8144   23.4346 C   0  0  0  0  0  0
  -21.9192   -4.6961   22.3403 C   0  0  0  0  0  0
  -22.7841  -13.5220   21.1842 C   0  0  0  0  0  0
  -22.1662   -4.2147   21.0981 F   0  0  0  0  0  0
  -21.5630   -3.4537   25.7739 F   0  0  0  0  0  0
  -30.0151  -13.4189   20.4251 N   0  0  0  0  0  0
  -26.2995  -12.9359   20.3338 N   0  0  0  0  0  0
  -25.9330  -11.6508   20.5761 N   0  0  0  0  0  0
  -22.0489  -12.8217   22.0407 N   0  0  0  0  0  0
  -25.4214  -15.1896   20.4180 N   0  0  0  0  0  0
  -31.7915  -14.8056   20.1326 O   0  0  0  0  0  0
  -21.6637   -6.8876   21.4242 O   0  0  0  0  0  0
  -22.3520  -14.5528   20.6698 O   0  0  0  0  0  0
  -24.6266  -31.8601   23.2031 C   0  0  0  0  0  0
  -25.9113  -32.4780   23.8358 C   0  0  1  0  0  0
  -27.2236  -27.3176   20.1118 C   0  0  0  0  0  0
  -25.5926  -33.8581   24.2283 N   0  0  0  0  0  0
  -23.4199  -30.4850   21.5463 C   0  0  2  0  0  0
  -24.8656  -28.9422   20.1113 C   0  0  0  0  0  0
  -22.7476  -29.4628   22.4939 C   0  0  0  0  0  0
  -18.0286  -28.1384   22.8487 C   0  0  0  0  0  0
  -24.1489  -36.7296   23.2639 C   0  0  0  0  0  0
  -25.9621  -30.7907   21.3744 C   0  0  0  0  0  0
  -26.0362  -29.4188   20.7147 C   0  0  0  0  0  0
  -27.2183  -28.6189   20.7045 C   0  0  0  0  0  0
  -26.0260  -26.8968   19.4857 C   0  0  0  0  0  0
  -24.8626  -27.6866   19.4884 C   0  0  0  0  0  0
  -23.6342  -29.8222   20.1610 C   0  0  0  0  0  0
  -25.4113  -36.3085   24.0330 C   0  0  1  0  0  0
  -20.5886  -28.3689   23.1283 C   0  0  2  0  0  0
  -20.6775  -26.9414   22.5408 C   0  0  0  0  0  0
  -19.5750  -26.6385   21.5212 C   0  0  0  0  0  0
  -18.1931  -26.7926   22.1626 C   0  0  0  0  0  0
  -19.1538  -28.8853   23.2880 C   0  0  0  0  0  0
  -18.9460  -30.1455   23.8897 C   0  0  0  0  0  0
  -17.6461  -30.6587   24.0563 C   0  0  0  0  0  0
  -25.9051  -34.9454   23.5107 C   0  0  0  0  0  0
  -16.5352  -29.9086   23.6329 C   0  0  0  0  0  0
  -16.7273  -28.6503   23.0352 C   0  0  0  0  0  0
  -26.4494  -31.6587   25.0728 C   0  0  0  0  0  0
  -25.3727  -31.3725   26.1454 C   0  0  0  0  0  0
  -27.0334  -30.3010   24.6182 C   0  0  0  0  0  0
  -27.6054  -32.4320   25.7498 C   0  0  0  0  0  0
  -27.5580  -37.1804   24.8465 C   0  0  0  0  0  0
  -21.4189  -29.3045   22.3680 N   0  0  0  0  0  0
  -26.4293  -37.3779   23.9407 N   0  0  0  0  0  0
  -24.6885  -31.0614   22.0981 N   0  0  0  0  0  0
  -23.4201  -28.8163   23.3014 O   0  0  0  0  0  0
  -28.3403  -26.4633   20.1602 O   0  0  0  0  0  0
  -26.5620  -34.8919   22.4674 O   0  0  0  0  0  0
  -23.5429  -32.1399   23.7358 O   0  0  0  0  0  0
  -31.1180  -17.8849   20.6034 C   0  0  0  0  0  0
  -31.1123  -19.3107   20.5262 C   0  0  0  0  0  0
  -28.7106  -19.3389   20.5192 C   0  0  0  0  0  0
  -29.9083  -17.1463   20.6525 C   0  0  0  0  0  0
  -29.9190  -20.0843   20.4854 C   0  0  0  0  0  0
  -28.7114  -17.9126   20.6067 C   0  0  0  0  0  0
  -29.2528  -23.9564   20.3436 C   0  0  0  0  0  0
  -28.1015  -25.0048   20.0220 C   0  0  0  0  0  0
  -28.8904  -22.3990   20.2827 C   0  0  0  0  0  0
  -29.7931  -15.6941   20.7921 N   0  0  0  0  0  0
  -30.0305  -21.4919   20.4337 O   0  0  0  0  0  0
  -27.5271  -17.2553   20.6481 F   0  0  0  0  0  0
  -31.4812  -12.5238   19.1468 H   0  0  0  0  0  0
  -30.3783  -11.4007   19.8940 H   0  0  0  0  0  0
  -29.7724  -11.7555   17.4787 H   0  0  0  0  0  0
  -29.6485  -13.4764   17.7417 H   0  0  0  0  0  0
  -27.8691  -11.2920   18.8707 H   0  0  0  0  0  0
  -27.3755  -12.5722   17.7955 H   0  0  0  0  0  0
  -27.6666  -14.2522   19.5190 H   0  0  0  0  0  0
  -28.7131  -12.0565   21.3781 H   0  0  0  0  0  0
  -28.4480  -13.7124   21.8419 H   0  0  0  0  0  0
  -25.2760   -9.5683   22.4755 H   0  0  0  0  0  0
  -23.9999   -7.4633   22.7474 H   0  0  0  0  0  0
  -21.0836   -8.8767   19.8954 H   0  0  0  0  0  0
  -22.3693  -10.9665   19.6157 H   0  0  0  0  0  0
  -21.2003   -7.6146   23.9716 H   0  0  0  0  0  0
  -21.1485   -6.0521   25.9079 H   0  0  0  0  0  0
  -22.0598   -2.7606   23.2846 H   0  0  0  0  0  0
  -22.4103  -11.9877   22.4793 H   0  0  0  0  0  0
  -21.1112  -13.1253   22.2622 H   0  0  0  0  0  0
  -24.6550  -15.8367   20.5619 H   0  0  0  0  0  0
  -26.2902  -15.6637   20.1983 H   0  0  0  0  0  0
  -26.7180  -32.5450   23.1107 H   0  0  0  0  0  0
  -25.0065  -33.9725   25.0423 H   0  0  0  0  0  0
  -22.7139  -31.3059   21.4047 H   0  0  0  0  0  0
  -23.3749  -35.9632   23.3306 H   0  0  0  0  0  0
  -24.3580  -36.8912   22.2052 H   0  0  0  0  0  0
  -23.7246  -37.6502   23.6657 H   0  0  0  0  0  0
  -26.0942  -31.5552   20.6075 H   0  0  0  0  0  0
  -26.8423  -30.8379   22.0041 H   0  0  0  0  0  0
  -28.1158  -28.9808   21.1864 H   0  0  0  0  0  0
  -25.9527  -25.9397   18.9927 H   0  0  0  0  0  0
  -23.9657  -27.3159   19.0113 H   0  0  0  0  0  0
  -23.7534  -30.5997   19.4055 H   0  0  0  0  0  0
  -22.7537  -29.2525   19.8581 H   0  0  0  0  0  0
  -25.1293  -36.1940   25.0823 H   0  0  0  0  0  0
  -20.9979  -28.3261   24.1404 H   0  0  0  0  0  0
  -20.5679  -26.2299   23.3607 H   0  0  0  0  0  0
  -21.6643  -26.7445   22.1199 H   0  0  0  0  0  0
  -19.6913  -25.6296   21.1242 H   0  0  0  0  0  0
  -19.6686  -27.3195   20.6741 H   0  0  0  0  0  0
  -17.4200  -26.6671   21.4030 H   0  0  0  0  0  0
  -18.0335  -26.0069   22.9023 H   0  0  0  0  0  0
  -19.7937  -30.7270   24.2269 H   0  0  0  0  0  0
  -17.5016  -31.6267   24.5164 H   0  0  0  0  0  0
  -15.5352  -30.2988   23.7651 H   0  0  0  0  0  0
  -15.8672  -28.0822   22.7068 H   0  0  0  0  0  0
  -24.5898  -30.7080   25.7780 H   0  0  0  0  0  0
  -24.8923  -32.2892   26.4885 H   0  0  0  0  0  0
  -25.8050  -30.8895   27.0226 H   0  0  0  0  0  0
  -26.2907  -29.6762   24.1207 H   0  0  0  0  0  0
  -27.4029  -29.7264   25.4687 H   0  0  0  0  0  0
  -27.8779  -30.4291   23.9407 H   0  0  0  0  0  0
  -27.2666  -33.3618   26.2077 H   0  0  0  0  0  0
  -28.3864  -32.6881   25.0327 H   0  0  0  0  0  0
  -28.0722  -31.8443   26.5414 H   0  0  0  0  0  0
  -28.2599  -38.0100   24.7509 H   0  0  0  0  0  0
  -28.1073  -36.2631   24.6294 H   0  0  0  0  0  0
  -27.2298  -37.1456   25.8868 H   0  0  0  0  0  0
  -20.9367  -29.8773   21.6895 H   0  0  0  0  0  0
  -26.0176  -38.2855   24.1401 H   0  0  0  0  0  0
  -32.0671  -17.3700   20.6429 H   0  0  0  0  0  0
  -32.0626  -19.8258   20.5039 H   0  0  0  0  0  0
  -27.7601  -19.8494   20.4918 H   0  0  0  0  0  0
  -29.6470  -24.1729   21.3364 H   0  0  0  0  0  0
  -30.0761  -24.1424   19.6539 H   0  0  0  0  0  0
  -27.2506  -24.7435   20.6531 H   0  0  0  0  0  0
  -27.7948  -24.8125   18.9934 H   0  0  0  0  0  0
  -28.4094  -22.1808   19.3285 H   0  0  0  0  0  0
  -28.1566  -22.1770   21.0583 H   0  0  0  0  0  0
  -28.8555  -15.3945   21.0126 H   0  0  0  0  0  0
  1 25  1  0  0  0
  1 30  2  0  0  0
  1 80  1  0  0  0
  2  3  1  0  0  0
  2 25  1  0  0  0
  2 83  1  0  0  0
  2 84  1  0  0  0
  3  4  1  0  0  0
  3 85  1  0  0  0
  3 86  1  0  0  0
  4  5  1  0  0  0
  4 87  1  0  0  0
  4 88  1  0  0  0
  5  6  1  0  0  0
  5 26  1  0  0  0
  5 89  1  0  0  0
  6 25  1  0  0  0
  6 90  1  0  0  0
  6 91  1  0  0  0
  7  8  2  0  0  0
  7 26  1  0  0  0
  7 29  1  0  0  0
  8  9  1  0  0  0
  8 22  1  0  0  0
  9 10  1  0  0  0
  9 27  2  0  0  0
 10 11  2  0  0  0
 10 15  1  0  0  0
 11 12  1  0  0  0
 11 92  1  0  0  0
 12 13  2  0  0  0
 12 93  1  0  0  0
 13 14  1  0  0  0
 13 31  1  0  0  0
 14 15  2  0  0  0
 14 94  1  0  0  0
 15 95  1  0  0  0
 16 17  2  0  0  0
 16 21  1  0  0  0
 16 31  1  0  0  0
 17 18  1  0  0  0
 17 96  1  0  0  0
 18 19  2  0  0  0
 18 97  1  0  0  0
 19 20  1  0  0  0
 19 24  1  0  0  0
 20 21  2  0  0  0
 20 98  1  0  0  0
 21 23  1  0  0  0
 22 28  1  0  0  0
 22 32  2  0  0  0
 26 27  1  0  0  0
 28 99  1  0  0  0
 28100  1  0  0  0
 29101  1  0  0  0
 29102  1  0  0  0
 33 34  1  0  0  0
 33 66  1  0  0  0
 33 70  2  0  0  0
 34 36  1  0  0  0
 34 59  1  0  0  0
 34103  1  0  0  0
 35 44  2  0  0  0
 35 45  1  0  0  0
 35 68  1  0  0  0
 36 56  1  0  0  0
 36104  1  0  0  0
 37 39  1  0  0  0
 37 47  1  0  0  0
 37 66  1  0  0  0
 37105  1  0  0  0
 38 43  2  0  0  0
 38 46  1  0  0  0
 38 47  1  0  0  0
 39 64  1  0  0  0
 39 67  2  0  0  0
 40 52  1  0  0  0
 40 53  2  0  0  0
 40 58  1  0  0  0
 41106  1  0  0  0
 41107  1  0  0  0
 41108  1  0  0  0
 41 48  1  0  0  0
 42 43  1  0  0  0
 42 66  1  0  0  0
 42109  1  0  0  0
 42110  1  0  0  0
 43 44  1  0  0  0
 44111  1  0  0  0
 45 46  2  0  0  0
 45112  1  0  0  0
 46113  1  0  0  0
 47114  1  0  0  0
 47115  1  0  0  0
 48 56  1  0  0  0
 48 65  1  0  0  0
 48116  1  0  0  0
 49 50  1  0  0  0
 49 53  1  0  0  0
 49 64  1  0  0  0
 49117  1  0  0  0
 50 51  1  0  0  0
 50118  1  0  0  0
 50119  1  0  0  0
 51 52  1  0  0  0
 51120  1  0  0  0
 51121  1  0  0  0
 52122  1  0  0  0
 52123  1  0  0  0
 53 54  1  0  0  0
 54 55  2  0  0  0
 54124  1  0  0  0
 55 57  1  0  0  0
 55125  1  0  0  0
 56 69  2  0  0  0
 57 58  2  0  0  0
 57126  1  0  0  0
 58127  1  0  0  0
 59 60  1  0  0  0
 59 61  1  0  0  0
 59 62  1  0  0  0
 60128  1  0  0  0
 60129  1  0  0  0
 60130  1  0  0  0
 61131  1  0  0  0
 61132  1  0  0  0
 61133  1  0  0  0
 62134  1  0  0  0
 62135  1  0  0  0
 62136  1  0  0  0
 63 65  1  0  0  0
 63137  1  0  0  0
 63138  1  0  0  0
 63139  1  0  0  0
 64140  1  0  0  0
 65141  1  0  0  0
 68 78  1  0  0  0
 71 72  2  0  0  0
 71 74  1  0  0  0
 71142  1  0  0  0
 72 75  1  0  0  0
 72143  1  0  0  0
 73 75  2  0  0  0
 73 76  1  0  0  0
 73144  1  0  0  0
 74 76  2  0  0  0
 74 80  1  0  0  0
 75 81  1  0  0  0
 76 82  1  0  0  0
 77 78  1  0  0  0
 77 79  1  0  0  0
 77145  1  0  0  0
 77146  1  0  0  0
 78147  1  0  0  0
 78148  1  0  0  0
 79 81  1  0  0  0
 79149  1  0  0  0
 79150  1  0  0  0
 80151  1  0  0  0
M  ISO  4   1 100  68 101  78 101  80 100
M  END
> <chiral flag>
0

> <version>
0

> <s_m_source_file>
/data/baiqing/PycharmProjects/Reinvent-master-3.2/result/LINK_invent/BTK/process_docking_weight1_custom_product_contain_oxygen_bond_distance_aromatic_linkinvent_7_9_3/rearranged_h_0006.sdf

> <i_m_source_file_index>
53

> <r_mmod_Potential_Energy-OPLS-2005>
8.48562717437744

> <r_mmod_Stretch_Energy-OPLS-2005>
78.0414810180664

> <r_mmod_Bend_Energy-OPLS-2005>
145.352081298828

> <r_mmod_Torsional_Energy-OPLS-2005>
209.226409912109

> <r_mmod_Improper_Torsional_Energy-OPLS-2005>
4.5839262008667

> <r_mmod_Van_der_Waal_Energy-OPLS-2005>
144.377670288086

> <r_mmod_Electrostatic_Energy-OPLS-2005>
-422.268218994141

> <r_mmod_Solvation_Energy-OPLS-2005>
-201.274765014648

> <b_mmod_Minimization_Converged-OPLS-2005>
0

> <r_mmod_RMS_Derivative-OPLS-2005>
0.238112762570381

$$$$
54
                    3D
 Structure written by MMmdl.
143151  0  0  1  0            999 V2000
  -30.3891  -15.3113   20.3704 C   0  0  0  0  0  0
  -30.4456  -12.8391   19.5326 C   0  0  0  0  0  0
  -29.5415  -12.5936   18.2957 C   0  0  0  0  0  0
  -28.0908  -12.3062   18.7208 C   0  0  0  0  0  0
  -27.6131  -13.2772   19.8281 C   0  0  2  0  0  0
  -28.6451  -13.4495   20.9638 C   0  0  0  0  0  0
  -25.2371  -13.8213   20.5725 C   0  0  0  0  0  0
  -24.1732  -13.0408   20.9247 C   0  0  0  0  0  0
  -24.6405  -11.6914   20.8761 C   0  0  0  0  0  0
  -23.9099  -10.4279   21.0405 C   0  0  0  0  0  0
  -24.3640   -9.4195   21.9185 C   0  0  0  0  0  0
  -23.6305   -8.2235   22.0755 C   0  0  0  0  0  0
  -22.4286   -8.0279   21.3545 C   0  0  0  0  0  0
  -21.9927   -9.0254   20.4645 C   0  0  0  0  0  0
  -22.7268  -10.2126   20.3054 C   0  0  0  0  0  0
  -21.6853   -6.0738   22.5280 C   0  0  0  0  0  0
  -21.4014   -6.5641   23.8214 C   0  0  0  0  0  0
  -21.3660   -5.6793   24.9175 C   0  0  0  0  0  0
  -21.6044   -4.3056   24.7225 C   0  0  0  0  0  0
  -21.8818   -3.8149   23.4345 C   0  0  0  0  0  0
  -21.9192   -4.6966   22.3402 C   0  0  0  0  0  0
  -22.7752  -13.5167   21.1899 C   0  0  0  0  0  0
  -22.1660   -4.2152   21.0979 F   0  0  0  0  0  0
  -21.5629   -3.4538   25.7736 F   0  0  0  0  0  0
  -29.8742  -13.9779   20.3460 N   0  0  0  0  0  0
  -26.2823  -12.9512   20.3233 N   0  0  0  0  0  0
  -25.9348  -11.6614   20.5732 N   0  0  0  0  0  0
  -22.0419  -12.8153   22.0463 N   0  0  0  0  0  0
  -25.3945  -15.1933   20.4139 N   0  0  0  0  0  0
  -31.6043  -15.3502   20.1221 O   0  0  0  0  0  0
  -21.6640   -6.8883   21.4244 O   0  0  0  0  0  0
  -22.3425  -14.5469   20.6746 O   0  0  0  0  0  0
  -24.6639  -31.8209   23.1675 C   0  0  0  0  0  0
  -25.9313  -32.4576   23.8150 C   0  0  1  0  0  0
  -27.2249  -26.8986   20.1985 C   0  0  0  0  0  0
  -25.5975  -33.8393   24.2049 N   0  0  0  0  0  0
  -23.4803  -30.4288   21.5172 C   0  0  2  0  0  0
  -24.9344  -28.8033   20.1179 C   0  0  0  0  0  0
  -22.7668  -29.4422   22.4780 C   0  0  0  0  0  0
  -18.0321  -28.1411   22.8466 C   0  0  0  0  0  0
  -24.1487  -36.7199   23.2639 C   0  0  0  0  0  0
  -26.0490  -30.6155   21.4041 C   0  0  0  0  0  0
  -26.1151  -29.1987   20.7579 C   0  0  0  0  0  0
  -27.2495  -28.2665   20.7761 C   0  0  0  0  0  0
  -26.0174  -26.6617   19.5023 C   0  0  0  0  0  0
  -24.9114  -27.5549   19.4716 C   0  0  0  0  0  0
  -23.7226  -29.7367   20.1463 C   0  0  0  0  0  0
  -25.4125  -36.2959   24.0296 C   0  0  1  0  0  0
  -20.5945  -28.3756   23.1189 C   0  0  2  0  0  0
  -20.6796  -26.9437   22.5407 C   0  0  0  0  0  0
  -19.5772  -26.6377   21.5217 C   0  0  0  0  0  0
  -18.1951  -26.7946   22.1618 C   0  0  0  0  0  0
  -19.1582  -28.8904   23.2813 C   0  0  0  0  0  0
  -18.9493  -30.1491   23.8851 C   0  0  0  0  0  0
  -17.6488  -30.6600   24.0558 C   0  0  0  0  0  0
  -25.9105  -34.9349   23.4997 C   0  0  0  0  0  0
  -16.5378  -29.9088   23.6346 C   0  0  0  0  0  0
  -16.7303  -28.6509   23.0365 C   0  0  0  0  0  0
  -26.4559  -31.6537   25.0692 C   0  0  0  0  0  0
  -25.3678  -31.3800   26.1343 C   0  0  0  0  0  0
  -27.0463  -30.2899   24.6451 C   0  0  0  0  0  0
  -27.6040  -32.4358   25.7498 C   0  0  0  0  0  0
  -27.5585  -37.1722   24.8441 C   0  0  0  0  0  0
  -21.4336  -29.3038   22.3530 N   0  0  0  0  0  0
  -26.4252  -37.3718   23.9451 N   0  0  0  0  0  0
  -24.7526  -30.9838   22.0831 N   0  0  0  0  0  0
  -23.4204  -28.8003   23.3040 O   0  0  0  0  0  0
  -28.2769  -25.8315   20.2172 O   0  0  0  0  0  0
  -26.5726  -34.8895   22.4600 O   0  0  0  0  0  0
  -23.5705  -32.1195   23.6752 O   0  0  0  0  0  0
  -28.5260  -23.0841   20.2852 C   0  0  0  0  0  0
  -28.2968  -24.3722   20.2554 C   0  0  0  0  0  0
  -30.0521  -20.7002   19.9194 C   0  0  0  0  0  0
  -27.9862  -20.3732   20.8091 C   0  0  0  0  0  0
  -28.8508  -21.4480   20.3318 C   0  0  0  0  0  0
  -29.4373  -18.1600   20.4417 C   0  0  0  0  0  0
  -30.3312  -19.2207   19.9622 C   0  0  0  0  0  0
  -28.2441  -18.9035   20.8602 C   0  0  0  0  0  0
  -29.5377  -16.5232   20.5218 N   0  0  0  0  0  0
  -31.5394  -18.8221   19.4968 F   0  0  0  0  0  0
  -26.9604  -17.9481   21.5073 Cl  0  0  0  0  0  0
  -31.4594  -13.0624   19.1975 H   0  0  0  0  0  0
  -30.5316  -11.9347   20.1369 H   0  0  0  0  0  0
  -29.9295  -11.7683   17.6972 H   0  0  0  0  0  0
  -29.5628  -13.4752   17.6532 H   0  0  0  0  0  0
  -28.0522  -11.2817   19.0928 H   0  0  0  0  0  0
  -27.4233  -12.3452   17.8589 H   0  0  0  0  0  0
  -27.5265  -14.2450   19.3325 H   0  0  0  0  0  0
  -28.8220  -12.5098   21.4893 H   0  0  0  0  0  0
  -28.2750  -14.1555   21.7089 H   0  0  0  0  0  0
  -25.2782   -9.5669   22.4764 H   0  0  0  0  0  0
  -24.0009   -7.4625   22.7475 H   0  0  0  0  0  0
  -21.0857   -8.8781   19.8948 H   0  0  0  0  0  0
  -22.3730  -10.9669   19.6165 H   0  0  0  0  0  0
  -21.2006   -7.6149   23.9719 H   0  0  0  0  0  0
  -21.1483   -6.0522   25.9079 H   0  0  0  0  0  0
  -22.0597   -2.7611   23.2844 H   0  0  0  0  0  0
  -22.4059  -11.9823   22.4849 H   0  0  0  0  0  0
  -21.1034  -13.1160   22.2681 H   0  0  0  0  0  0
  -24.6293  -15.8403   20.5669 H   0  0  0  0  0  0
  -26.2422  -15.6547   20.1157 H   0  0  0  0  0  0
  -26.7382  -32.5103   23.0862 H   0  0  0  0  0  0
  -25.0067  -33.9472   25.0164 H   0  0  0  0  0  0
  -22.7951  -31.2607   21.3416 H   0  0  0  0  0  0
  -23.3808  -35.9461   23.3155 H   0  0  0  0  0  0
  -24.3595  -36.9002   22.2086 H   0  0  0  0  0  0
  -23.7157  -37.6300   23.6798 H   0  0  0  0  0  0
  -26.2308  -31.3507   20.6194 H   0  0  0  0  0  0
  -26.9089  -30.6783   22.0589 H   0  0  0  0  0  0
  -28.1473  -28.5747   21.2933 H   0  0  0  0  0  0
  -25.9024  -25.7133   18.9965 H   0  0  0  0  0  0
  -24.0165  -27.2478   18.9477 H   0  0  0  0  0  0
  -23.8825  -30.5018   19.3860 H   0  0  0  0  0  0
  -22.8319  -29.1922   19.8281 H   0  0  0  0  0  0
  -25.1311  -36.1728   25.0781 H   0  0  0  0  0  0
  -21.0032  -28.3366   24.1314 H   0  0  0  0  0  0
  -20.5672  -26.2379   23.3651 H   0  0  0  0  0  0
  -21.6660  -26.7407   22.1218 H   0  0  0  0  0  0
  -19.6933  -25.6273   21.1284 H   0  0  0  0  0  0
  -19.6715  -27.3159   20.6727 H   0  0  0  0  0  0
  -17.4225  -26.6693   21.4017 H   0  0  0  0  0  0
  -18.0338  -26.0098   22.9021 H   0  0  0  0  0  0
  -19.7969  -30.7315   24.2202 H   0  0  0  0  0  0
  -17.5042  -31.6278   24.5166 H   0  0  0  0  0  0
  -15.5377  -30.2978   23.7694 H   0  0  0  0  0  0
  -15.8703  -28.0811   22.7111 H   0  0  0  0  0  0
  -24.5880  -30.7127   25.7654 H   0  0  0  0  0  0
  -24.8845  -32.3008   26.4620 H   0  0  0  0  0  0
  -25.7904  -30.9067   27.0216 H   0  0  0  0  0  0
  -26.3137  -29.6563   24.1440 H   0  0  0  0  0  0
  -27.3967  -29.7279   25.5118 H   0  0  0  0  0  0
  -27.9090  -30.4071   23.9889 H   0  0  0  0  0  0
  -27.2599  -33.3707   26.1934 H   0  0  0  0  0  0
  -28.3926  -32.6842   25.0383 H   0  0  0  0  0  0
  -28.0629  -31.8582   26.5532 H   0  0  0  0  0  0
  -28.2476  -38.0141   24.7661 H   0  0  0  0  0  0
  -28.1208  -36.2684   24.6041 H   0  0  0  0  0  0
  -27.2341  -37.1083   25.8842 H   0  0  0  0  0  0
  -20.9599  -29.8718   21.6643 H   0  0  0  0  0  0
  -26.0087  -38.2744   24.1577 H   0  0  0  0  0  0
  -30.8548  -21.3037   19.5230 H   0  0  0  0  0  0
  -27.0208  -20.6875   21.1775 H   0  0  0  0  0  0
  -28.6237  -16.1786   20.7724 H   0  0  0  0  0  0
  1 25  1  0  0  0
  1 30  2  0  0  0
  1 79  1  0  0  0
  2  3  1  0  0  0
  2 25  1  0  0  0
  2 82  1  0  0  0
  2 83  1  0  0  0
  3  4  1  0  0  0
  3 84  1  0  0  0
  3 85  1  0  0  0
  4  5  1  0  0  0
  4 86  1  0  0  0
  4 87  1  0  0  0
  5  6  1  0  0  0
  5 26  1  0  0  0
  5 88  1  0  0  0
  6 25  1  0  0  0
  6 89  1  0  0  0
  6 90  1  0  0  0
  7  8  2  0  0  0
  7 26  1  0  0  0
  7 29  1  0  0  0
  8  9  1  0  0  0
  8 22  1  0  0  0
  9 10  1  0  0  0
  9 27  2  0  0  0
 10 11  2  0  0  0
 10 15  1  0  0  0
 11 12  1  0  0  0
 11 91  1  0  0  0
 12 13  2  0  0  0
 12 92  1  0  0  0
 13 14  1  0  0  0
 13 31  1  0  0  0
 14 15  2  0  0  0
 14 93  1  0  0  0
 15 94  1  0  0  0
 16 17  2  0  0  0
 16 21  1  0  0  0
 16 31  1  0  0  0
 17 18  1  0  0  0
 17 95  1  0  0  0
 18 19  2  0  0  0
 18 96  1  0  0  0
 19 20  1  0  0  0
 19 24  1  0  0  0
 20 21  2  0  0  0
 20 97  1  0  0  0
 21 23  1  0  0  0
 22 28  1  0  0  0
 22 32  2  0  0  0
 26 27  1  0  0  0
 28 98  1  0  0  0
 28 99  1  0  0  0
 29100  1  0  0  0
 29101  1  0  0  0
 33 34  1  0  0  0
 33 66  1  0  0  0
 33 70  2  0  0  0
 34 36  1  0  0  0
 34 59  1  0  0  0
 34102  1  0  0  0
 35 44  2  0  0  0
 35 45  1  0  0  0
 35 68  1  0  0  0
 36 56  1  0  0  0
 36103  1  0  0  0
 37 39  1  0  0  0
 37 47  1  0  0  0
 37 66  1  0  0  0
 37104  1  0  0  0
 38 43  2  0  0  0
 38 46  1  0  0  0
 38 47  1  0  0  0
 39 64  1  0  0  0
 39 67  2  0  0  0
 40 52  1  0  0  0
 40 53  2  0  0  0
 40 58  1  0  0  0
 41105  1  0  0  0
 41106  1  0  0  0
 41107  1  0  0  0
 41 48  1  0  0  0
 42 43  1  0  0  0
 42 66  1  0  0  0
 42108  1  0  0  0
 42109  1  0  0  0
 43 44  1  0  0  0
 44110  1  0  0  0
 45 46  2  0  0  0
 45111  1  0  0  0
 46112  1  0  0  0
 47113  1  0  0  0
 47114  1  0  0  0
 48 56  1  0  0  0
 48 65  1  0  0  0
 48115  1  0  0  0
 49 50  1  0  0  0
 49 53  1  0  0  0
 49 64  1  0  0  0
 49116  1  0  0  0
 50 51  1  0  0  0
 50117  1  0  0  0
 50118  1  0  0  0
 51 52  1  0  0  0
 51119  1  0  0  0
 51120  1  0  0  0
 52121  1  0  0  0
 52122  1  0  0  0
 53 54  1  0  0  0
 54 55  2  0  0  0
 54123  1  0  0  0
 55 57  1  0  0  0
 55124  1  0  0  0
 56 69  2  0  0  0
 57 58  2  0  0  0
 57125  1  0  0  0
 58126  1  0  0  0
 59 60  1  0  0  0
 59 61  1  0  0  0
 59 62  1  0  0  0
 60127  1  0  0  0
 60128  1  0  0  0
 60129  1  0  0  0
 61130  1  0  0  0
 61131  1  0  0  0
 61132  1  0  0  0
 62133  1  0  0  0
 62134  1  0  0  0
 62135  1  0  0  0
 63 65  1  0  0  0
 63136  1  0  0  0
 63137  1  0  0  0
 63138  1  0  0  0
 64139  1  0  0  0
 65140  1  0  0  0
 68 72  1  0  0  0
 71 72  3  0  0  0
 71 75  1  0  0  0
 73 75  2  0  0  0
 73 77  1  0  0  0
 73141  1  0  0  0
 74 75  1  0  0  0
 74 78  2  0  0  0
 74142  1  0  0  0
 76 77  2  0  0  0
 76 78  1  0  0  0
 76 79  1  0  0  0
 77 80  1  0  0  0
 78 81  1  0  0  0
 79143  1  0  0  0
M  ISO  4   1 100  68 101  72 101  79 100
M  END
> <chiral flag>
0

> <version>
0

> <s_m_source_file>
/data/baiqing/PycharmProjects/Reinvent-master-3.2/result/LINK_invent/BTK/process_docking_weight1_custom_product_contain_oxygen_bond_distance_aromatic_linkinvent_7_9_3/rearranged_h_0006.sdf

> <i_m_source_file_index>
54

> <r_mmod_Potential_Energy-OPLS-2005>
1067.94360351562

> <r_mmod_Stretch_Energy-OPLS-2005>
492.1142578125

> <r_mmod_Bend_Energy-OPLS-2005>
392.868194580078

> <r_mmod_Torsional_Energy-OPLS-2005>
203.565811157227

> <r_mmod_Improper_Torsional_Energy-OPLS-2005>
2.83107137680054

> <r_mmod_Van_der_Waal_Energy-OPLS-2005>
124.444198608398

> <r_mmod_Electrostatic_Energy-OPLS-2005>
-424.622009277344

> <r_mmod_Solvation_Energy-OPLS-2005>
-218.549240112305

> <b_mmod_Minimization_Converged-OPLS-2005>
0

> <r_mmod_RMS_Derivative-OPLS-2005>
0.616291105747223

$$$$
55
                    3D
 Structure written by MMmdl.
148156  0  0  1  0            999 V2000
  -30.5182  -14.9243   20.4273 C   0  0  0  0  0  0
  -30.4485  -12.5676   19.5002 C   0  0  0  0  0  0
  -29.5256  -12.5341   18.2581 C   0  0  0  0  0  0
  -28.0559  -12.3244   18.6711 C   0  0  0  0  0  0
  -27.6374  -13.2425   19.8489 C   0  0  2  0  0  0
  -28.6796  -13.2319   20.9887 C   0  0  0  0  0  0
  -25.2490  -13.8205   20.5707 C   0  0  0  0  0  0
  -24.1793  -13.0436   20.9212 C   0  0  0  0  0  0
  -24.6401  -11.6919   20.8745 C   0  0  0  0  0  0
  -23.9080  -10.4292   21.0404 C   0  0  0  0  0  0
  -24.3627   -9.4208   21.9183 C   0  0  0  0  0  0
  -23.6298   -8.2244   22.0754 C   0  0  0  0  0  0
  -22.4280   -8.0283   21.3545 C   0  0  0  0  0  0
  -21.9918   -9.0257   20.4646 C   0  0  0  0  0  0
  -22.7251  -10.2134   20.3054 C   0  0  0  0  0  0
  -21.6855   -6.0737   22.5279 C   0  0  0  0  0  0
  -21.4015   -6.5641   23.8213 C   0  0  0  0  0  0
  -21.3660   -5.6793   24.9174 C   0  0  0  0  0  0
  -21.6044   -4.3056   24.7225 C   0  0  0  0  0  0
  -21.8819   -3.8148   23.4346 C   0  0  0  0  0  0
  -21.9193   -4.6965   22.3402 C   0  0  0  0  0  0
  -22.7813  -13.5212   21.1871 C   0  0  0  0  0  0
  -22.1662   -4.2151   21.0980 F   0  0  0  0  0  0
  -21.5628   -3.4539   25.7737 F   0  0  0  0  0  0
  -29.9639  -13.6466   20.4064 N   0  0  0  0  0  0
  -26.2921  -12.9428   20.3276 N   0  0  0  0  0  0
  -25.9336  -11.6561   20.5746 N   0  0  0  0  0  0
  -22.0465  -12.8199   22.0428 N   0  0  0  0  0  0
  -25.4163  -15.1932   20.4141 N   0  0  0  0  0  0
  -31.6994  -15.0452   20.0829 O   0  0  0  0  0  0
  -21.6642   -6.8881   21.4242 O   0  0  0  0  0  0
  -22.3492  -14.5516   20.6719 O   0  0  0  0  0  0
  -24.6426  -31.8438   23.1879 C   0  0  0  0  0  0
  -25.9201  -32.4692   23.8268 C   0  0  1  0  0  0
  -27.2223  -27.1392   20.1425 C   0  0  0  0  0  0
  -25.5951  -33.8498   24.2185 N   0  0  0  0  0  0
  -23.4460  -30.4626   21.5332 C   0  0  2  0  0  0
  -24.8954  -28.8895   20.1072 C   0  0  0  0  0  0
  -22.7563  -29.4543   22.4859 C   0  0  0  0  0  0
  -18.0303  -28.1395   22.8479 C   0  0  0  0  0  0
  -24.1491  -36.7253   23.2642 C   0  0  0  0  0  0
  -26.0011  -30.7171   21.3868 C   0  0  0  0  0  0
  -26.0706  -29.3288   20.7274 C   0  0  0  0  0  0
  -27.2298  -28.4677   20.7317 C   0  0  0  0  0  0
  -26.0182  -26.7996   19.4846 C   0  0  0  0  0  0
  -24.8819  -27.6384   19.4725 C   0  0  0  0  0  0
  -23.6715  -29.7909   20.1521 C   0  0  0  0  0  0
  -25.4124  -36.3031   24.0316 C   0  0  1  0  0  0
  -20.5915  -28.3719   23.1238 C   0  0  2  0  0  0
  -20.6787  -26.9424   22.5404 C   0  0  0  0  0  0
  -19.5760  -26.6382   21.5213 C   0  0  0  0  0  0
  -18.1942  -26.7933   22.1627 C   0  0  0  0  0  0
  -19.1560  -28.8876   23.2850 C   0  0  0  0  0  0
  -18.9477  -30.1473   23.8875 C   0  0  0  0  0  0
  -17.6473  -30.6592   24.0559 C   0  0  0  0  0  0
  -25.9074  -34.9406   23.5060 C   0  0  0  0  0  0
  -16.5364  -29.9085   23.6336 C   0  0  0  0  0  0
  -16.7288  -28.6504   23.0358 C   0  0  0  0  0  0
  -26.4524  -31.6563   25.0712 C   0  0  0  0  0  0
  -25.3709  -31.3759   26.1410 C   0  0  0  0  0  0
  -27.0387  -30.2957   24.6298 C   0  0  0  0  0  0
  -27.6056  -32.4328   25.7496 C   0  0  0  0  0  0
  -27.5575  -37.1784   24.8466 C   0  0  0  0  0  0
  -21.4256  -29.3044   22.3609 N   0  0  0  0  0  0
  -26.4287  -37.3744   23.9408 N   0  0  0  0  0  0
  -24.7163  -31.0294   22.0911 N   0  0  0  0  0  0
  -23.4208  -28.8095   23.3011 O   0  0  0  0  0  0
  -28.2978  -26.1831   20.2513 O   0  0  0  0  0  0
  -26.5662  -34.8905   22.4640 O   0  0  0  0  0  0
  -23.5547  -32.1315   23.7102 O   0  0  0  0  0  0
  -30.4933  -18.3565   19.6582 C   0  0  0  0  0  0
  -28.5603  -19.8249   21.0345 C   0  0  0  0  0  0
  -29.6793  -17.5586   20.5240 C   0  0  0  0  0  0
  -29.3532  -20.6200   20.1431 C   0  0  0  0  0  0
  -30.3291  -19.7915   19.4747 C   0  0  0  0  0  0
  -28.7081  -18.3830   21.2002 C   0  0  0  0  0  0
  -28.3216  -24.7180   19.7170 C   0  0  0  0  0  0
  -28.5917  -23.2487   20.5102 C   0  0  0  0  0  0
  -29.6856  -16.0342   20.7086 N   0  0  0  0  0  0
  -29.2413  -22.0463   19.8039 O   0  0  0  0  0  0
  -31.1555  -20.3988   18.5893 F   0  0  0  0  0  0
  -27.8534  -17.7570   22.0444 F   0  0  0  0  0  0
  -31.4823  -12.7307   19.1917 H   0  0  0  0  0  0
  -30.4409  -11.6048   20.0137 H   0  0  0  0  0  0
  -29.8390  -11.7442   17.5741 H   0  0  0  0  0  0
  -29.6201  -13.4712   17.7072 H   0  0  0  0  0  0
  -27.9426  -11.2795   18.9621 H   0  0  0  0  0  0
  -27.3951  -12.4757   17.8167 H   0  0  0  0  0  0
  -27.6122  -14.2531   19.4405 H   0  0  0  0  0  0
  -28.7569  -12.2410   21.4389 H   0  0  0  0  0  0
  -28.3804  -13.9079   21.7911 H   0  0  0  0  0  0
  -25.2771   -9.5683   22.4760 H   0  0  0  0  0  0
  -24.0005   -7.4636   22.7475 H   0  0  0  0  0  0
  -21.0849   -8.8779   19.8952 H   0  0  0  0  0  0
  -22.3710  -10.9674   19.6164 H   0  0  0  0  0  0
  -21.2008   -7.6149   23.9716 H   0  0  0  0  0  0
  -21.1482   -6.0524   25.9077 H   0  0  0  0  0  0
  -22.0598   -2.7610   23.2846 H   0  0  0  0  0  0
  -22.4089  -11.9862   22.4814 H   0  0  0  0  0  0
  -21.1081  -13.1217   22.2636 H   0  0  0  0  0  0
  -24.6501  -15.8455   20.5392 H   0  0  0  0  0  0
  -26.2653  -15.6402   20.0942 H   0  0  0  0  0  0
  -26.7265  -32.5294   23.0994 H   0  0  0  0  0  0
  -25.0075  -33.9613   25.0317 H   0  0  0  0  0  0
  -22.7485  -31.2885   21.3788 H   0  0  0  0  0  0
  -23.3759  -35.9579   23.3293 H   0  0  0  0  0  0
  -24.3576  -36.8897   22.2059 H   0  0  0  0  0  0
  -23.7241  -37.6444   23.6687 H   0  0  0  0  0  0
  -26.1577  -31.4720   20.6150 H   0  0  0  0  0  0
  -26.8713  -30.7661   22.0297 H   0  0  0  0  0  0
  -28.1234  -28.7980   21.2425 H   0  0  0  0  0  0
  -25.8999  -25.8458   18.9982 H   0  0  0  0  0  0
  -23.9827  -27.2959   18.9789 H   0  0  0  0  0  0
  -23.8066  -30.5651   19.3960 H   0  0  0  0  0  0
  -22.7864  -29.2321   19.8428 H   0  0  0  0  0  0
  -25.1313  -36.1857   25.0808 H   0  0  0  0  0  0
  -21.0008  -28.3309   24.1359 H   0  0  0  0  0  0
  -20.5681  -26.2334   23.3622 H   0  0  0  0  0  0
  -21.6653  -26.7430   22.1201 H   0  0  0  0  0  0
  -19.6921  -25.6287   21.1255 H   0  0  0  0  0  0
  -19.6695  -27.3181   20.6733 H   0  0  0  0  0  0
  -17.4209  -26.6674   21.4033 H   0  0  0  0  0  0
  -18.0346  -26.0082   22.9031 H   0  0  0  0  0  0
  -19.7952  -30.7296   24.2233 H   0  0  0  0  0  0
  -17.5026  -31.6270   24.5165 H   0  0  0  0  0  0
  -15.5363  -30.2980   23.7673 H   0  0  0  0  0  0
  -15.8688  -28.0814   22.7087 H   0  0  0  0  0  0
  -24.5887  -30.7108   25.7731 H   0  0  0  0  0  0
  -24.8900  -32.2944   26.4783 H   0  0  0  0  0  0
  -25.7990  -30.8963   27.0221 H   0  0  0  0  0  0
  -26.3003  -29.6678   24.1300 H   0  0  0  0  0  0
  -27.3989  -29.7261   25.4875 H   0  0  0  0  0  0
  -27.8917  -30.4189   23.9622 H   0  0  0  0  0  0
  -27.2656  -33.3659   26.2001 H   0  0  0  0  0  0
  -28.3906  -32.6836   25.0349 H   0  0  0  0  0  0
  -28.0678  -31.8497   26.5471 H   0  0  0  0  0  0
  -28.2586  -38.0086   24.7511 H   0  0  0  0  0  0
  -28.1077  -36.2615   24.6296 H   0  0  0  0  0  0
  -27.2290  -37.1434   25.8869 H   0  0  0  0  0  0
  -20.9466  -29.8753   21.6784 H   0  0  0  0  0  0
  -26.0152  -38.2812   24.1410 H   0  0  0  0  0  0
  -31.2573  -17.8619   19.0776 H   0  0  0  0  0  0
  -27.7775  -20.3151   21.5926 H   0  0  0  0  0  0
  -27.4790  -24.5474   19.0542 H   0  0  0  0  0  0
  -29.1561  -24.7744   19.0182 H   0  0  0  0  0  0
  -27.6494  -22.9152   20.9451 H   0  0  0  0  0  0
  -29.2379  -23.4612   21.3619 H   0  0  0  0  0  0
  -28.8179  -15.7174   21.1150 H   0  0  0  0  0  0
  1 25  1  0  0  0
  1 30  2  0  0  0
  1 79  1  0  0  0
  2  3  1  0  0  0
  2 25  1  0  0  0
  2 83  1  0  0  0
  2 84  1  0  0  0
  3  4  1  0  0  0
  3 85  1  0  0  0
  3 86  1  0  0  0
  4  5  1  0  0  0
  4 87  1  0  0  0
  4 88  1  0  0  0
  5  6  1  0  0  0
  5 26  1  0  0  0
  5 89  1  0  0  0
  6 25  1  0  0  0
  6 90  1  0  0  0
  6 91  1  0  0  0
  7  8  2  0  0  0
  7 26  1  0  0  0
  7 29  1  0  0  0
  8  9  1  0  0  0
  8 22  1  0  0  0
  9 10  1  0  0  0
  9 27  2  0  0  0
 10 11  2  0  0  0
 10 15  1  0  0  0
 11 12  1  0  0  0
 11 92  1  0  0  0
 12 13  2  0  0  0
 12 93  1  0  0  0
 13 14  1  0  0  0
 13 31  1  0  0  0
 14 15  2  0  0  0
 14 94  1  0  0  0
 15 95  1  0  0  0
 16 17  2  0  0  0
 16 21  1  0  0  0
 16 31  1  0  0  0
 17 18  1  0  0  0
 17 96  1  0  0  0
 18 19  2  0  0  0
 18 97  1  0  0  0
 19 20  1  0  0  0
 19 24  1  0  0  0
 20 21  2  0  0  0
 20 98  1  0  0  0
 21 23  1  0  0  0
 22 28  1  0  0  0
 22 32  2  0  0  0
 26 27  1  0  0  0
 28 99  1  0  0  0
 28100  1  0  0  0
 29101  1  0  0  0
 29102  1  0  0  0
 33 34  1  0  0  0
 33 66  1  0  0  0
 33 70  2  0  0  0
 34 36  1  0  0  0
 34 59  1  0  0  0
 34103  1  0  0  0
 35 44  2  0  0  0
 35 45  1  0  0  0
 35 68  1  0  0  0
 36 56  1  0  0  0
 36104  1  0  0  0
 37 39  1  0  0  0
 37 47  1  0  0  0
 37 66  1  0  0  0
 37105  1  0  0  0
 38 43  2  0  0  0
 38 46  1  0  0  0
 38 47  1  0  0  0
 39 64  1  0  0  0
 39 67  2  0  0  0
 40 52  1  0  0  0
 40 53  2  0  0  0
 40 58  1  0  0  0
 41106  1  0  0  0
 41107  1  0  0  0
 41108  1  0  0  0
 41 48  1  0  0  0
 42 43  1  0  0  0
 42 66  1  0  0  0
 42109  1  0  0  0
 42110  1  0  0  0
 43 44  1  0  0  0
 44111  1  0  0  0
 45 46  2  0  0  0
 45112  1  0  0  0
 46113  1  0  0  0
 47114  1  0  0  0
 47115  1  0  0  0
 48 56  1  0  0  0
 48 65  1  0  0  0
 48116  1  0  0  0
 49 50  1  0  0  0
 49 53  1  0  0  0
 49 64  1  0  0  0
 49117  1  0  0  0
 50 51  1  0  0  0
 50118  1  0  0  0
 50119  1  0  0  0
 51 52  1  0  0  0
 51120  1  0  0  0
 51121  1  0  0  0
 52122  1  0  0  0
 52123  1  0  0  0
 53 54  1  0  0  0
 54 55  2  0  0  0
 54124  1  0  0  0
 55 57  1  0  0  0
 55125  1  0  0  0
 56 69  2  0  0  0
 57 58  2  0  0  0
 57126  1  0  0  0
 58127  1  0  0  0
 59 60  1  0  0  0
 59 61  1  0  0  0
 59 62  1  0  0  0
 60128  1  0  0  0
 60129  1  0  0  0
 60130  1  0  0  0
 61131  1  0  0  0
 61132  1  0  0  0
 61133  1  0  0  0
 62134  1  0  0  0
 62135  1  0  0  0
 62136  1  0  0  0
 63 65  1  0  0  0
 63137  1  0  0  0
 63138  1  0  0  0
 63139  1  0  0  0
 64140  1  0  0  0
 65141  1  0  0  0
 68 77  1  0  0  0
 71 73  2  0  0  0
 71 75  1  0  0  0
 71142  1  0  0  0
 72 74  1  0  0  0
 72 76  2  0  0  0
 72143  1  0  0  0
 73 76  1  0  0  0
 73 79  1  0  0  0
 74 75  2  0  0  0
 74 80  1  0  0  0
 75 81  1  0  0  0
 76 82  1  0  0  0
 77 78  1  0  0  0
 77144  1  0  0  0
 77145  1  0  0  0
 78 80  1  0  0  0
 78146  1  0  0  0
 78147  1  0  0  0
 79148  1  0  0  0
M  ISO  4   1 100  68 101  77 101  79 100
M  END
> <chiral flag>
0

> <version>
0

> <s_m_source_file>
/data/baiqing/PycharmProjects/Reinvent-master-3.2/result/LINK_invent/BTK/process_docking_weight1_custom_product_contain_oxygen_bond_distance_aromatic_linkinvent_7_9_3/rearranged_h_0006.sdf

> <i_m_source_file_index>
55

> <r_mmod_Potential_Energy-OPLS-2005>
455.152130126953

> <r_mmod_Stretch_Energy-OPLS-2005>
227.920120239258

> <r_mmod_Bend_Energy-OPLS-2005>
295.857421875

> <r_mmod_Torsional_Energy-OPLS-2005>
212.856811523438

> <r_mmod_Improper_Torsional_Energy-OPLS-2005>
3.46052241325378

> <r_mmod_Van_der_Waal_Energy-OPLS-2005>
130.192138671875

> <r_mmod_Electrostatic_Energy-OPLS-2005>
-386.322631835938

> <r_mmod_Solvation_Energy-OPLS-2005>
-209.379211425781

> <b_mmod_Minimization_Converged-OPLS-2005>
0

> <r_mmod_RMS_Derivative-OPLS-2005>
0.111098766326904

$$$$
56
                    3D
 Structure written by MMmdl.
159168  0  0  1  0            999 V2000
  -30.5736  -14.6829   20.5028 C   0  0  0  0  0  0
  -30.4514  -12.4236   19.4469 C   0  0  0  0  0  0
  -29.5088  -12.5164   18.2230 C   0  0  0  0  0  0
  -28.0325  -12.3442   18.6363 C   0  0  0  0  0  0
  -27.6539  -13.2115   19.8654 C   0  0  2  0  0  0
  -28.7013  -13.0522   20.9911 C   0  0  0  0  0  0
  -25.2547  -13.8123   20.5623 C   0  0  0  0  0  0
  -24.1824  -13.0412   20.9193 C   0  0  0  0  0  0
  -24.6400  -11.6890   20.8758 C   0  0  0  0  0  0
  -23.9069  -10.4284   21.0429 C   0  0  0  0  0  0
  -24.3618   -9.4202   21.9208 C   0  0  0  0  0  0
  -23.6296   -8.2234   22.0760 C   0  0  0  0  0  0
  -22.4280   -8.0279   21.3555 C   0  0  0  0  0  0
  -21.9917   -9.0250   20.4654 C   0  0  0  0  0  0
  -22.7243  -10.2136   20.3076 C   0  0  0  0  0  0
  -21.6851   -6.0748   22.5287 C   0  0  0  0  0  0
  -21.4007   -6.5649   23.8216 C   0  0  0  0  0  0
  -21.3657   -5.6803   24.9178 C   0  0  0  0  0  0
  -21.6044   -4.3061   24.7229 C   0  0  0  0  0  0
  -21.8818   -3.8158   23.4343 C   0  0  0  0  0  0
  -21.9191   -4.6980   22.3406 C   0  0  0  0  0  0
  -22.7855  -13.5229   21.1853 C   0  0  0  0  0  0
  -22.1665   -4.2167   21.0984 F   0  0  0  0  0  0
  -21.5628   -3.4542   25.7737 F   0  0  0  0  0  0
  -30.0103  -13.4315   20.4327 N   0  0  0  0  0  0
  -26.2988  -12.9305   20.3327 N   0  0  0  0  0  0
  -25.9339  -11.6477   20.5801 N   0  0  0  0  0  0
  -22.0497  -12.8225   22.0410 N   0  0  0  0  0  0
  -25.4191  -15.1806   20.3890 N   0  0  0  0  0  0
  -31.7249  -14.8905   20.1072 O   0  0  0  0  0  0
  -21.6634   -6.8884   21.4248 O   0  0  0  0  0  0
  -22.3552  -14.5549   20.6719 O   0  0  0  0  0  0
  -24.6244  -31.8566   23.2006 C   0  0  0  0  0  0
  -25.9100  -32.4777   23.8322 C   0  0  1  0  0  0
  -27.2301  -27.2978   20.1398 C   0  0  0  0  0  0
  -25.5924  -33.8573   24.2261 N   0  0  0  0  0  0
  -23.4195  -30.4777   21.5419 C   0  0  2  0  0  0
  -24.8675  -28.9160   20.1228 C   0  0  0  0  0  0
  -22.7476  -29.4595   22.4932 C   0  0  0  0  0  0
  -18.0283  -28.1360   22.8459 C   0  0  0  0  0  0
  -24.1496  -36.7267   23.2643 C   0  0  0  0  0  0
  -25.9601  -30.7823   21.3733 C   0  0  0  0  0  0
  -26.0340  -29.4027   20.7251 C   0  0  0  0  0  0
  -27.2171  -28.6068   20.7168 C   0  0  0  0  0  0
  -26.0399  -26.8524   19.5295 C   0  0  0  0  0  0
  -24.8729  -27.6462   19.5170 C   0  0  0  0  0  0
  -23.6393  -29.8034   20.1610 C   0  0  0  0  0  0
  -25.4117  -36.3066   24.0338 C   0  0  1  0  0  0
  -20.5883  -28.3648   23.1295 C   0  0  2  0  0  0
  -20.6778  -26.9372   22.5413 C   0  0  0  0  0  0
  -19.5767  -26.6349   21.5209 C   0  0  0  0  0  0
  -18.1937  -26.7905   22.1603 C   0  0  0  0  0  0
  -19.1534  -28.8817   23.2876 C   0  0  0  0  0  0
  -18.9467  -30.1418   23.8884 C   0  0  0  0  0  0
  -17.6472  -30.6568   24.0538 C   0  0  0  0  0  0
  -25.9044  -34.9448   23.5095 C   0  0  0  0  0  0
  -16.5360  -29.9060   23.6333 C   0  0  0  0  0  0
  -16.7270  -28.6488   23.0333 C   0  0  0  0  0  0
  -26.4499  -31.6590   25.0692 C   0  0  0  0  0  0
  -25.3744  -31.3733   26.1426 C   0  0  0  0  0  0
  -27.0339  -30.3018   24.6112 C   0  0  0  0  0  0
  -27.6041  -32.4327   25.7469 C   0  0  0  0  0  0
  -27.5583  -37.1789   24.8475 C   0  0  0  0  0  0
  -21.4186  -29.3017   22.3703 N   0  0  0  0  0  0
  -26.4294  -37.3762   23.9417 N   0  0  0  0  0  0
  -24.6867  -31.0559   22.0963 N   0  0  0  0  0  0
  -23.4211  -28.8128   23.2996 O   0  0  0  0  0  0
  -28.3931  -26.5202   20.0613 O   0  0  0  0  0  0
  -26.5593  -34.8917   22.4652 O   0  0  0  0  0  0
  -23.5403  -32.1373   23.7321 O   0  0  0  0  0  0
  -26.2155  -18.9532   22.7029 C   0  0  0  0  0  0
  -26.4040  -17.5662   22.7388 C   0  0  0  0  0  0
  -27.1518  -19.7714   22.0481 C   0  0  0  0  0  0
  -27.5264  -16.9978   22.1182 C   0  0  0  0  0  0
  -30.3765  -19.4428   20.2106 C   0  0  0  0  0  0
  -30.5525  -18.0197   20.2229 C   0  0  0  0  0  0
  -28.3047  -19.2299   21.4213 C   0  0  0  0  0  0
  -28.4921  -17.7943   21.4498 C   0  0  0  0  0  0
  -29.2610  -20.1045   20.8084 C   0  0  0  0  0  0
  -29.6220  -17.1476   20.8503 C   0  0  0  0  0  0
  -29.2015  -21.6987   20.9398 C   0  0  0  0  0  0
  -27.9712  -23.8437   19.8689 C   0  0  0  0  0  0
  -28.5143  -25.1434   20.6197 C   0  0  0  0  0  0
  -29.7119  -15.6737   20.9130 N   0  0  0  0  0  0
  -28.8156  -22.5595   19.7533 N   0  3  0  0  0  0
  -31.4866  -12.5801   19.1378 H   0  0  0  0  0  0
  -30.4179  -11.4256   19.8860 H   0  0  0  0  0  0
  -29.7766  -11.7618   17.4821 H   0  0  0  0  0  0
  -29.6381  -13.4842   17.7350 H   0  0  0  0  0  0
  -27.8726  -11.2907   18.8663 H   0  0  0  0  0  0
  -27.3742  -12.5740   17.7971 H   0  0  0  0  0  0
  -27.6712  -14.2483   19.5298 H   0  0  0  0  0  0
  -28.7293  -12.0205   21.3431 H   0  0  0  0  0  0
  -28.4387  -13.6483   21.8657 H   0  0  0  0  0  0
  -25.2762   -9.5684   22.4789 H   0  0  0  0  0  0
  -24.0007   -7.4626   22.7476 H   0  0  0  0  0  0
  -21.0849   -8.8787   19.8948 H   0  0  0  0  0  0
  -22.3711  -10.9693   19.6188 H   0  0  0  0  0  0
  -21.1993   -7.6154   23.9732 H   0  0  0  0  0  0
  -21.1476   -6.0525   25.9086 H   0  0  0  0  0  0
  -22.0596   -2.7620   23.2840 H   0  0  0  0  0  0
  -22.4086  -11.9862   22.4769 H   0  0  0  0  0  0
  -21.1125  -13.1285   22.2644 H   0  0  0  0  0  0
  -24.6538  -15.8327   20.5171 H   0  0  0  0  0  0
  -26.2648  -15.6284   20.0620 H   0  0  0  0  0  0
  -26.7136  -32.5435   23.1030 H   0  0  0  0  0  0
  -25.0179  -33.9721   25.0482 H   0  0  0  0  0  0
  -22.7129  -31.2977   21.3901 H   0  0  0  0  0  0
  -23.3782  -35.9584   23.3301 H   0  0  0  0  0  0
  -24.3594  -36.8878   22.2062 H   0  0  0  0  0  0
  -23.7242  -37.6462   23.6661 H   0  0  0  0  0  0
  -26.0898  -31.5410   20.6012 H   0  0  0  0  0  0
  -26.8414  -30.8353   22.0008 H   0  0  0  0  0  0
  -28.1238  -28.9858   21.1671 H   0  0  0  0  0  0
  -26.0140  -25.8882   19.0419 H   0  0  0  0  0  0
  -23.9775  -27.2713   19.0408 H   0  0  0  0  0  0
  -23.7691  -30.5746   19.4018 H   0  0  0  0  0  0
  -22.7593  -29.2362   19.8522 H   0  0  0  0  0  0
  -25.1305  -36.1913   25.0835 H   0  0  0  0  0  0
  -20.9940  -28.3194   24.1431 H   0  0  0  0  0  0
  -20.5666  -26.2248   23.3593 H   0  0  0  0  0  0
  -21.6650  -26.7404   22.1211 H   0  0  0  0  0  0
  -19.6943  -25.6258   21.1237 H   0  0  0  0  0  0
  -19.6726  -27.3151   20.6732 H   0  0  0  0  0  0
  -17.4213  -26.6635   21.3993 H   0  0  0  0  0  0
  -18.0323  -26.0049   22.8990 H   0  0  0  0  0  0
  -19.7954  -30.7216   24.2253 H   0  0  0  0  0  0
  -17.5048  -31.6263   24.5107 H   0  0  0  0  0  0
  -15.5366  -30.2960   23.7676 H   0  0  0  0  0  0
  -15.8671  -28.0812   22.7047 H   0  0  0  0  0  0
  -24.5917  -30.7076   25.7768 H   0  0  0  0  0  0
  -24.8942  -32.2912   26.4830 H   0  0  0  0  0  0
  -25.8078  -30.8935   27.0212 H   0  0  0  0  0  0
  -26.2887  -29.6770   24.1168 H   0  0  0  0  0  0
  -27.4115  -29.7260   25.4571 H   0  0  0  0  0  0
  -27.8726  -30.4332   23.9274 H   0  0  0  0  0  0
  -27.2643  -33.3641   26.2003 H   0  0  0  0  0  0
  -28.3882  -32.6860   25.0328 H   0  0  0  0  0  0
  -28.0671  -31.8490   26.5426 H   0  0  0  0  0  0
  -28.2579  -38.0098   24.7507 H   0  0  0  0  0  0
  -28.1092  -36.2625   24.6311 H   0  0  0  0  0  0
  -27.2303  -37.1444   25.8877 H   0  0  0  0  0  0
  -20.9341  -29.8766   21.6947 H   0  0  0  0  0  0
  -26.0178  -38.2837   24.1422 H   0  0  0  0  0  0
  -25.3495  -19.3904   23.1802 H   0  0  0  0  0  0
  -25.6852  -16.9297   23.2366 H   0  0  0  0  0  0
  -26.9390  -20.8269   22.0517 H   0  0  0  0  0  0
  -27.6130  -15.9247   22.1816 H   0  0  0  0  0  0
  -31.1523  -20.0399   19.7521 H   0  0  0  0  0  0
  -31.4332  -17.6024   19.7547 H   0  0  0  0  0  0
  -30.2048  -22.0214   21.2211 H   0  0  0  0  0  0
  -28.6057  -21.9996   21.7977 H   0  0  0  0  0  0
  -27.7711  -24.1454   18.8396 H   0  0  0  0  0  0
  -26.9959  -23.5803   20.2802 H   0  0  0  0  0  0
  -29.5868  -25.0032   20.7485 H   0  0  0  0  0  0
  -28.1190  -25.1457   21.6358 H   0  0  0  0  0  0
  -28.8661  -15.2552   21.2648 H   0  0  0  0  0  0
  -28.3030  -21.9458   19.1399 H   0  0  0  0  0  0
  -29.6678  -22.7795   19.2622 H   0  0  0  0  0  0
  1 25  1  0  0  0
  1 30  2  0  0  0
  1 84  1  0  0  0
  2  3  1  0  0  0
  2 25  1  0  0  0
  2 86  1  0  0  0
  2 87  1  0  0  0
  3  4  1  0  0  0
  3 88  1  0  0  0
  3 89  1  0  0  0
  4  5  1  0  0  0
  4 90  1  0  0  0
  4 91  1  0  0  0
  5  6  1  0  0  0
  5 26  1  0  0  0
  5 92  1  0  0  0
  6 25  1  0  0  0
  6 93  1  0  0  0
  6 94  1  0  0  0
  7  8  2  0  0  0
  7 26  1  0  0  0
  7 29  1  0  0  0
  8  9  1  0  0  0
  8 22  1  0  0  0
  9 10  1  0  0  0
  9 27  2  0  0  0
 10 11  2  0  0  0
 10 15  1  0  0  0
 11 12  1  0  0  0
 11 95  1  0  0  0
 12 13  2  0  0  0
 12 96  1  0  0  0
 13 14  1  0  0  0
 13 31  1  0  0  0
 14 15  2  0  0  0
 14 97  1  0  0  0
 15 98  1  0  0  0
 16 17  2  0  0  0
 16 21  1  0  0  0
 16 31  1  0  0  0
 17 18  1  0  0  0
 17 99  1  0  0  0
 18 19  2  0  0  0
 18100  1  0  0  0
 19 20  1  0  0  0
 19 24  1  0  0  0
 20 21  2  0  0  0
 20101  1  0  0  0
 21 23  1  0  0  0
 22 28  1  0  0  0
 22 32  2  0  0  0
 26 27  1  0  0  0
 28102  1  0  0  0
 28103  1  0  0  0
 29104  1  0  0  0
 29105  1  0  0  0
 33 34  1  0  0  0
 33 66  1  0  0  0
 33 70  2  0  0  0
 34 36  1  0  0  0
 34 59  1  0  0  0
 34106  1  0  0  0
 35 44  2  0  0  0
 35 45  1  0  0  0
 35 68  1  0  0  0
 36 56  1  0  0  0
 36107  1  0  0  0
 37 39  1  0  0  0
 37 47  1  0  0  0
 37 66  1  0  0  0
 37108  1  0  0  0
 38 43  2  0  0  0
 38 46  1  0  0  0
 38 47  1  0  0  0
 39 64  1  0  0  0
 39 67  2  0  0  0
 40 52  1  0  0  0
 40 53  2  0  0  0
 40 58  1  0  0  0
 41109  1  0  0  0
 41110  1  0  0  0
 41111  1  0  0  0
 41 48  1  0  0  0
 42 43  1  0  0  0
 42 66  1  0  0  0
 42112  1  0  0  0
 42113  1  0  0  0
 43 44  1  0  0  0
 44114  1  0  0  0
 45 46  2  0  0  0
 45115  1  0  0  0
 46116  1  0  0  0
 47117  1  0  0  0
 47118  1  0  0  0
 48 56  1  0  0  0
 48 65  1  0  0  0
 48119  1  0  0  0
 49 50  1  0  0  0
 49 53  1  0  0  0
 49 64  1  0  0  0
 49120  1  0  0  0
 50 51  1  0  0  0
 50121  1  0  0  0
 50122  1  0  0  0
 51 52  1  0  0  0
 51123  1  0  0  0
 51124  1  0  0  0
 52125  1  0  0  0
 52126  1  0  0  0
 53 54  1  0  0  0
 54 55  2  0  0  0
 54127  1  0  0  0
 55 57  1  0  0  0
 55128  1  0  0  0
 56 69  2  0  0  0
 57 58  2  0  0  0
 57129  1  0  0  0
 58130  1  0  0  0
 59 60  1  0  0  0
 59 61  1  0  0  0
 59 62  1  0  0  0
 60131  1  0  0  0
 60132  1  0  0  0
 60133  1  0  0  0
 61134  1  0  0  0
 61135  1  0  0  0
 61136  1  0  0  0
 62137  1  0  0  0
 62138  1  0  0  0
 62139  1  0  0  0
 63 65  1  0  0  0
 63140  1  0  0  0
 63141  1  0  0  0
 63142  1  0  0  0
 64143  1  0  0  0
 65144  1  0  0  0
 68 83  1  0  0  0
 71 72  2  0  0  0
 71 73  1  0  0  0
 71145  1  0  0  0
 72 74  1  0  0  0
 72146  1  0  0  0
 73 77  2  0  0  0
 73147  1  0  0  0
 74 78  2  0  0  0
 74148  1  0  0  0
 75 76  1  0  0  0
 75 79  2  0  0  0
 75149  1  0  0  0
 76 80  2  0  0  0
 76150  1  0  0  0
 77 78  1  0  0  0
 77 79  1  0  0  0
 78 80  1  0  0  0
 79 81  1  0  0  0
 80 84  1  0  0  0
 81 85  1  0  0  0
 81151  1  0  0  0
 81152  1  0  0  0
 82 83  1  0  0  0
 82 85  1  0  0  0
 82153  1  0  0  0
 82154  1  0  0  0
 83155  1  0  0  0
 83156  1  0  0  0
 84157  1  0  0  0
 85158  1  0  0  0
 85159  1  0  0  0
M  CHG  1  85   1
M  ISO  4   1 100  68 101  83 101  84 100
M  END
> <chiral flag>
0

> <version>
0

> <s_m_source_file>
/data/baiqing/PycharmProjects/Reinvent-master-3.2/result/LINK_invent/BTK/process_docking_weight1_custom_product_contain_oxygen_bond_distance_aromatic_linkinvent_7_9_3/rearranged_h_0006.sdf

> <i_m_source_file_index>
56

> <r_mmod_Potential_Energy-OPLS-2005>
-16.4845733642578

> <r_mmod_Stretch_Energy-OPLS-2005>
100.226211547852

> <r_mmod_Bend_Energy-OPLS-2005>
191.904968261719

> <r_mmod_Torsional_Energy-OPLS-2005>
234.371536254883

> <r_mmod_Improper_Torsional_Energy-OPLS-2005>
4.43578147888184

> <r_mmod_Van_der_Waal_Energy-OPLS-2005>
151.629501342773

> <r_mmod_Electrostatic_Energy-OPLS-2005>
-288.897277832031

> <r_mmod_Solvation_Energy-OPLS-2005>
-465.313140869141

> <b_mmod_Minimization_Converged-OPLS-2005>
0

> <r_mmod_RMS_Derivative-OPLS-2005>
2.45083403587341

$$$$
57
                    3D
 Structure written by MMmdl.
160169  0  0  1  0            999 V2000
  -30.4884  -15.0031   20.4065 C   0  0  0  0  0  0
  -30.4453  -12.6216   19.4937 C   0  0  0  0  0  0
  -29.5253  -12.5403   18.2521 C   0  0  0  0  0  0
  -28.0594  -12.3084   18.6689 C   0  0  0  0  0  0
  -27.6230  -13.2442   19.8262 C   0  0  2  0  0  0
  -28.6660  -13.2879   20.9627 C   0  0  0  0  0  0
  -25.2440  -13.8192   20.5688 C   0  0  0  0  0  0
  -24.1771  -13.0426   20.9226 C   0  0  0  0  0  0
  -24.6373  -11.6903   20.8725 C   0  0  0  0  0  0
  -23.9051  -10.4286   21.0391 C   0  0  0  0  0  0
  -24.3602   -9.4217   21.9191 C   0  0  0  0  0  0
  -23.6279   -8.2255   22.0770 C   0  0  0  0  0  0
  -22.4275   -8.0269   21.3551 C   0  0  0  0  0  0
  -21.9903   -9.0242   20.4663 C   0  0  0  0  0  0
  -22.7207  -10.2133   20.3061 C   0  0  0  0  0  0
  -21.6864   -6.0708   22.5282 C   0  0  0  0  0  0
  -21.4008   -6.5621   23.8207 C   0  0  0  0  0  0
  -21.3663   -5.6787   24.9182 C   0  0  0  0  0  0
  -21.6044   -4.3045   24.7238 C   0  0  0  0  0  0
  -21.8813   -3.8129   23.4362 C   0  0  0  0  0  0
  -21.9195   -4.6937   22.3408 C   0  0  0  0  0  0
  -22.7795  -13.5198   21.1877 C   0  0  0  0  0  0
  -22.1666   -4.2111   21.0993 F   0  0  0  0  0  0
  -21.5641   -3.4534   25.7752 F   0  0  0  0  0  0
  -29.9293  -13.7235   20.3558 N   0  0  0  0  0  0
  -26.2841  -12.9413   20.3172 N   0  0  0  0  0  0
  -25.9295  -11.6546   20.5677 N   0  0  0  0  0  0
  -22.0446  -12.8209   22.0433 N   0  0  0  0  0  0
  -25.4102  -15.1930   20.4068 N   0  0  0  0  0  0
  -31.7089  -15.0828   20.2340 O   0  0  0  0  0  0
  -21.6650   -6.8857   21.4246 O   0  0  0  0  0  0
  -22.3479  -14.5500   20.6702 O   0  0  0  0  0  0
  -24.6515  -31.8375   23.1817 C   0  0  0  0  0  0
  -25.9263  -32.4640   23.8233 C   0  0  1  0  0  0
  -27.2156  -27.0750   20.1430 C   0  0  0  0  0  0
  -25.5996  -33.8455   24.2162 N   0  0  0  0  0  0
  -23.4565  -30.4539   21.5307 C   0  0  2  0  0  0
  -24.9037  -28.8646   20.1131 C   0  0  0  0  0  0
  -22.7606  -29.4521   22.4855 C   0  0  0  0  0  0
  -18.0318  -28.1398   22.8489 C   0  0  0  0  0  0
  -24.1498  -36.7229   23.2645 C   0  0  0  0  0  0
  -26.0179  -30.6831   21.3945 C   0  0  0  0  0  0
  -26.0837  -29.2879   20.7379 C   0  0  0  0  0  0
  -27.2383  -28.4085   20.7367 C   0  0  0  0  0  0
  -26.0097  -26.7662   19.4770 C   0  0  0  0  0  0
  -24.8807  -27.6185   19.4683 C   0  0  0  0  0  0
  -23.6856  -29.7778   20.1525 C   0  0  0  0  0  0
  -25.4132  -36.2995   24.0315 C   0  0  1  0  0  0
  -20.5934  -28.3740   23.1226 C   0  0  2  0  0  0
  -20.6807  -26.9435   22.5421 C   0  0  0  0  0  0
  -19.5779  -26.6391   21.5232 C   0  0  0  0  0  0
  -18.1954  -26.7938   22.1638 C   0  0  0  0  0  0
  -19.1572  -28.8896   23.2849 C   0  0  0  0  0  0
  -18.9472  -30.1486   23.8874 C   0  0  0  0  0  0
  -17.6467  -30.6597   24.0557 C   0  0  0  0  0  0
  -25.9102  -34.9369   23.5056 C   0  0  0  0  0  0
  -16.5364  -29.9079   23.6336 C   0  0  0  0  0  0
  -16.7299  -28.6496   23.0364 C   0  0  0  0  0  0
  -26.4568  -31.6520   25.0695 C   0  0  0  0  0  0
  -25.3751  -31.3719   26.1386 C   0  0  0  0  0  0
  -27.0432  -30.2895   24.6327 C   0  0  0  0  0  0
  -27.6086  -32.4298   25.7488 C   0  0  0  0  0  0
  -27.5580  -37.1768   24.8468 C   0  0  0  0  0  0
  -21.4298  -29.3034   22.3578 N   0  0  0  0  0  0
  -26.4289  -37.3715   23.9414 N   0  0  0  0  0  0
  -24.7291  -31.0148   22.0900 N   0  0  0  0  0  0
  -23.4212  -28.8094   23.3054 O   0  0  0  0  0  0
  -28.2772  -26.0815   20.1096 O   0  0  0  0  0  0
  -26.5674  -34.8869   22.4625 O   0  0  0  0  0  0
  -23.5635  -32.1315   23.7007 O   0  0  0  0  0  0
  -32.9916  -20.8822   15.7283 C   0  0  0  0  0  0
  -33.0521  -19.4839   15.6116 C   0  0  0  0  0  0
  -32.1400  -21.4641   16.6860 C   0  0  0  0  0  0
  -32.2492  -18.6780   16.4396 C   0  0  0  0  0  0
  -30.5189  -21.2375   18.4906 C   0  0  0  0  0  0
  -31.3595  -20.6511   17.5385 C   0  0  0  0  0  0
  -31.3975  -19.2562   17.4193 C   0  0  0  0  0  0
  -29.7474  -20.5308   19.4533 C   0  0  0  0  0  0
  -29.9352  -18.9904   19.4488 C   0  0  0  0  0  0
  -30.6140  -18.4674   18.2920 C   0  0  0  0  0  0
  -28.8348  -21.6815   20.2586 C   0  0  0  0  0  0
  -29.6692  -17.7771   20.5704 C   0  0  0  0  0  0
  -28.8581  -23.3930   19.9000 C   0  0  0  0  0  0
  -30.5156  -17.1162   17.9623 N   0  0  0  0  0  0
  -29.6366  -16.1591   20.4201 N   0  0  0  0  0  0
  -27.9259  -24.5369   20.4574 N   0  0  0  0  0  0
  -31.4758  -12.8054   19.1849 H   0  0  0  0  0  0
  -30.4570  -11.6731   20.0349 H   0  0  0  0  0  0
  -29.8572  -11.7535   17.5736 H   0  0  0  0  0  0
  -29.5967  -13.4749   17.6923 H   0  0  0  0  0  0
  -27.9645  -11.2669   18.9803 H   0  0  0  0  0  0
  -27.3977  -12.4306   17.8087 H   0  0  0  0  0  0
  -27.5760  -14.2399   19.3835 H   0  0  0  0  0  0
  -28.7734  -12.3127   21.4394 H   0  0  0  0  0  0
  -28.3558  -13.9818   21.7465 H   0  0  0  0  0  0
  -25.2748   -9.5687   22.4757 H   0  0  0  0  0  0
  -23.9984   -7.4637   22.7486 H   0  0  0  0  0  0
  -21.0832   -8.8717   19.8966 H   0  0  0  0  0  0
  -22.3640  -10.9648   19.6149 H   0  0  0  0  0  0
  -21.1996   -7.6129   23.9687 H   0  0  0  0  0  0
  -21.1501   -6.0537   25.9077 H   0  0  0  0  0  0
  -22.0595   -2.7588   23.2880 H   0  0  0  0  0  0
  -22.4064  -11.9867   22.4816 H   0  0  0  0  0  0
  -21.1058  -13.1237   22.2615 H   0  0  0  0  0  0
  -24.6315  -15.8352   20.4989 H   0  0  0  0  0  0
  -26.2277  -15.6276   19.9994 H   0  0  0  0  0  0
  -26.7326  -32.5193   23.0954 H   0  0  0  0  0  0
  -25.0109  -33.9568   25.0285 H   0  0  0  0  0  0
  -22.7632  -31.2826   21.3730 H   0  0  0  0  0  0
  -23.3769  -35.9553   23.3274 H   0  0  0  0  0  0
  -24.3592  -36.8895   22.2072 H   0  0  0  0  0  0
  -23.7245  -37.6412   23.6701 H   0  0  0  0  0  0
  -26.1846  -31.4287   20.6167 H   0  0  0  0  0  0
  -26.8846  -30.7342   22.0423 H   0  0  0  0  0  0
  -28.1452  -28.7301   21.2280 H   0  0  0  0  0  0
  -25.9185  -25.8158   18.9716 H   0  0  0  0  0  0
  -23.9822  -27.2926   18.9615 H   0  0  0  0  0  0
  -23.8291  -30.5503   19.3958 H   0  0  0  0  0  0
  -22.7986  -29.2238   19.8401 H   0  0  0  0  0  0
  -25.1313  -36.1828   25.0807 H   0  0  0  0  0  0
  -21.0008  -28.3332   24.1358 H   0  0  0  0  0  0
  -20.5740  -26.2339   23.3639 H   0  0  0  0  0  0
  -21.6661  -26.7461   22.1186 H   0  0  0  0  0  0
  -19.6932  -25.6300   21.1266 H   0  0  0  0  0  0
  -19.6711  -27.3199   20.6758 H   0  0  0  0  0  0
  -17.4236  -26.6712   21.4021 H   0  0  0  0  0  0
  -18.0325  -26.0072   22.9023 H   0  0  0  0  0  0
  -19.7948  -30.7315   24.2224 H   0  0  0  0  0  0
  -17.5017  -31.6265   24.5172 H   0  0  0  0  0  0
  -15.5364  -30.2972   23.7661 H   0  0  0  0  0  0
  -15.8703  -28.0801   22.7092 H   0  0  0  0  0  0
  -24.5945  -30.7057   25.7691 H   0  0  0  0  0  0
  -24.8951  -32.2909   26.4751 H   0  0  0  0  0  0
  -25.8047  -30.8928   27.0196 H   0  0  0  0  0  0
  -26.3053  -29.6595   24.1349 H   0  0  0  0  0  0
  -27.4019  -29.7212   25.4921 H   0  0  0  0  0  0
  -27.8971  -30.4075   23.9653 H   0  0  0  0  0  0
  -27.2661  -33.3626   26.1973 H   0  0  0  0  0  0
  -28.3935  -32.6818   25.0343 H   0  0  0  0  0  0
  -28.0698  -31.8490   26.5489 H   0  0  0  0  0  0
  -28.2568  -38.0089   24.7503 H   0  0  0  0  0  0
  -28.1103  -36.2617   24.6295 H   0  0  0  0  0  0
  -27.2293  -37.1386   25.8866 H   0  0  0  0  0  0
  -20.9546  -29.8715   21.6703 H   0  0  0  0  0  0
  -26.0152  -38.2781   24.1412 H   0  0  0  0  0  0
  -33.6009  -21.5064   15.0881 H   0  0  0  0  0  0
  -33.7185  -19.0239   14.8935 H   0  0  0  0  0  0
  -32.1067  -22.5408   16.7644 H   0  0  0  0  0  0
  -32.3339  -17.6076   16.3285 H   0  0  0  0  0  0
  -30.5030  -22.3127   18.4580 H   0  0  0  0  0  0
  -29.0578  -21.5598   21.3186 H   0  0  0  0  0  0
  -27.8005  -21.3488   20.1574 H   0  0  0  0  0  0
  -28.7149  -18.0303   21.0316 H   0  0  0  0  0  0
  -30.4047  -17.9573   21.3549 H   0  0  0  0  0  0
  -28.7278  -23.4839   18.8209 H   0  0  0  0  0  0
  -29.8755  -23.7341   20.0993 H   0  0  0  0  0  0
  -31.2619  -16.7002   17.4186 H   0  0  0  0  0  0
  -30.1871  -16.5151   18.7101 H   0  0  0  0  0  0
  -28.6777  -15.8464   20.4489 H   0  0  0  0  0  0
  -26.9780  -24.3918   20.1214 H   0  0  0  0  0  0
  1 25  1  0  0  0
  1 30  2  0  0  0
  1 85  1  0  0  0
  2  3  1  0  0  0
  2 25  1  0  0  0
  2 87  1  0  0  0
  2 88  1  0  0  0
  3  4  1  0  0  0
  3 89  1  0  0  0
  3 90  1  0  0  0
  4  5  1  0  0  0
  4 91  1  0  0  0
  4 92  1  0  0  0
  5  6  1  0  0  0
  5 26  1  0  0  0
  5 93  1  0  0  0
  6 25  1  0  0  0
  6 94  1  0  0  0
  6 95  1  0  0  0
  7  8  2  0  0  0
  7 26  1  0  0  0
  7 29  1  0  0  0
  8  9  1  0  0  0
  8 22  1  0  0  0
  9 10  1  0  0  0
  9 27  2  0  0  0
 10 11  2  0  0  0
 10 15  1  0  0  0
 11 12  1  0  0  0
 11 96  1  0  0  0
 12 13  2  0  0  0
 12 97  1  0  0  0
 13 14  1  0  0  0
 13 31  1  0  0  0
 14 15  2  0  0  0
 14 98  1  0  0  0
 15 99  1  0  0  0
 16 17  2  0  0  0
 16 21  1  0  0  0
 16 31  1  0  0  0
 17 18  1  0  0  0
 17100  1  0  0  0
 18 19  2  0  0  0
 18101  1  0  0  0
 19 20  1  0  0  0
 19 24  1  0  0  0
 20 21  2  0  0  0
 20102  1  0  0  0
 21 23  1  0  0  0
 22 28  1  0  0  0
 22 32  2  0  0  0
 26 27  1  0  0  0
 28103  1  0  0  0
 28104  1  0  0  0
 29105  1  0  0  0
 29106  1  0  0  0
 33 34  1  0  0  0
 33 66  1  0  0  0
 33 70  2  0  0  0
 34 36  1  0  0  0
 34 59  1  0  0  0
 34107  1  0  0  0
 35 44  2  0  0  0
 35 45  1  0  0  0
 35 68  1  0  0  0
 36 56  1  0  0  0
 36108  1  0  0  0
 37 39  1  0  0  0
 37 47  1  0  0  0
 37 66  1  0  0  0
 37109  1  0  0  0
 38 43  2  0  0  0
 38 46  1  0  0  0
 38 47  1  0  0  0
 39 64  1  0  0  0
 39 67  2  0  0  0
 40 52  1  0  0  0
 40 53  2  0  0  0
 40 58  1  0  0  0
 41110  1  0  0  0
 41111  1  0  0  0
 41112  1  0  0  0
 41 48  1  0  0  0
 42 43  1  0  0  0
 42 66  1  0  0  0
 42113  1  0  0  0
 42114  1  0  0  0
 43 44  1  0  0  0
 44115  1  0  0  0
 45 46  2  0  0  0
 45116  1  0  0  0
 46117  1  0  0  0
 47118  1  0  0  0
 47119  1  0  0  0
 48 56  1  0  0  0
 48 65  1  0  0  0
 48120  1  0  0  0
 49 50  1  0  0  0
 49 53  1  0  0  0
 49 64  1  0  0  0
 49121  1  0  0  0
 50 51  1  0  0  0
 50122  1  0  0  0
 50123  1  0  0  0
 51 52  1  0  0  0
 51124  1  0  0  0
 51125  1  0  0  0
 52126  1  0  0  0
 52127  1  0  0  0
 53 54  1  0  0  0
 54 55  2  0  0  0
 54128  1  0  0  0
 55 57  1  0  0  0
 55129  1  0  0  0
 56 69  2  0  0  0
 57 58  2  0  0  0
 57130  1  0  0  0
 58131  1  0  0  0
 59 60  1  0  0  0
 59 61  1  0  0  0
 59 62  1  0  0  0
 60132  1  0  0  0
 60133  1  0  0  0
 60134  1  0  0  0
 61135  1  0  0  0
 61136  1  0  0  0
 61137  1  0  0  0
 62138  1  0  0  0
 62139  1  0  0  0
 62140  1  0  0  0
 63 65  1  0  0  0
 63141  1  0  0  0
 63142  1  0  0  0
 63143  1  0  0  0
 64144  1  0  0  0
 65145  1  0  0  0
 68 86  1  0  0  0
 71 72  2  0  0  0
 71 73  1  0  0  0
 71146  1  0  0  0
 72 74  1  0  0  0
 72147  1  0  0  0
 73 76  2  0  0  0
 73148  1  0  0  0
 74 77  2  0  0  0
 74149  1  0  0  0
 75 76  1  0  0  0
 75 78  2  0  0  0
 75150  1  0  0  0
 76 77  1  0  0  0
 77 80  1  0  0  0
 78 79  1  0  0  0
 78 81  1  0  0  0
 79 80  2  0  0  0
 79 82  1  0  0  0
 80 84  1  0  0  0
 81 83  1  0  0  0
 81151  1  0  0  0
 81152  1  0  0  0
 82 85  1  0  0  0
 82153  1  0  0  0
 82154  1  0  0  0
 83 86  1  0  0  0
 83155  1  0  0  0
 83156  1  0  0  0
 84157  1  0  0  0
 84158  1  0  0  0
 85159  1  0  0  0
 86160  1  0  0  0
M  ISO  4   1 100  68 101  85 100  86 101
M  END
> <chiral flag>
0

> <version>
0

> <s_m_source_file>
/data/baiqing/PycharmProjects/Reinvent-master-3.2/result/LINK_invent/BTK/process_docking_weight1_custom_product_contain_oxygen_bond_distance_aromatic_linkinvent_7_9_3/rearranged_h_0006.sdf

> <i_m_source_file_index>
57

> <r_mmod_Potential_Energy-OPLS-2005>
801.241333007812

> <r_mmod_Stretch_Energy-OPLS-2005>
380.676605224609

> <r_mmod_Bend_Energy-OPLS-2005>
365.416351318359

> <r_mmod_Torsional_Energy-OPLS-2005>
238.188720703125

> <r_mmod_Improper_Torsional_Energy-OPLS-2005>
10.001558303833

> <r_mmod_Van_der_Waal_Energy-OPLS-2005>
173.280181884766

> <r_mmod_Electrostatic_Energy-OPLS-2005>
-366.940551757812

> <r_mmod_Solvation_Energy-OPLS-2005>
-238.819732666016

> <b_mmod_Minimization_Converged-OPLS-2005>
0

> <r_mmod_RMS_Derivative-OPLS-2005>
2.89367866516113

$$$$
58
                    3D
 Structure written by MMmdl.
152161  0  0  1  0            999 V2000
  -30.5113  -15.0568   20.3978 C   0  0  0  0  0  0
  -30.4381  -12.6600   19.5114 C   0  0  0  0  0  0
  -29.5254  -12.5419   18.2680 C   0  0  0  0  0  0
  -28.0630  -12.3089   18.6885 C   0  0  0  0  0  0
  -27.6223  -13.2582   19.8324 C   0  0  2  0  0  0
  -28.6620  -13.3403   20.9700 C   0  0  0  0  0  0
  -25.2430  -13.8229   20.5720 C   0  0  0  0  0  0
  -24.1764  -13.0441   20.9250 C   0  0  0  0  0  0
  -24.6395  -11.6930   20.8766 C   0  0  0  0  0  0
  -23.9084  -10.4294   21.0412 C   0  0  0  0  0  0
  -24.3630   -9.4206   21.9188 C   0  0  0  0  0  0
  -23.6301   -8.2243   22.0755 C   0  0  0  0  0  0
  -22.4283   -8.0283   21.3544 C   0  0  0  0  0  0
  -21.9922   -9.0259   20.4646 C   0  0  0  0  0  0
  -22.7256  -10.2136   20.3058 C   0  0  0  0  0  0
  -21.6855   -6.0738   22.5278 C   0  0  0  0  0  0
  -21.4015   -6.5640   23.8211 C   0  0  0  0  0  0
  -21.3659   -5.6793   24.9174 C   0  0  0  0  0  0
  -21.6043   -4.3055   24.7224 C   0  0  0  0  0  0
  -21.8819   -3.8147   23.4346 C   0  0  0  0  0  0
  -21.9193   -4.6965   22.3402 C   0  0  0  0  0  0
  -22.7782  -13.5204   21.1895 C   0  0  0  0  0  0
  -22.1662   -4.2150   21.0980 F   0  0  0  0  0  0
  -21.5628   -3.4540   25.7737 F   0  0  0  0  0  0
  -29.9233  -13.7818   20.3604 N   0  0  0  0  0  0
  -26.2853  -12.9477   20.3231 N   0  0  0  0  0  0
  -25.9327  -11.6599   20.5738 N   0  0  0  0  0  0
  -22.0435  -12.8188   22.0449 N   0  0  0  0  0  0
  -25.4072  -15.1957   20.4111 N   0  0  0  0  0  0
  -31.7238  -15.0750   20.1536 O   0  0  0  0  0  0
  -21.6643   -6.8882   21.4241 O   0  0  0  0  0  0
  -22.3465  -14.5506   20.6735 O   0  0  0  0  0  0
  -24.6490  -31.8371   23.1823 C   0  0  0  0  0  0
  -25.9235  -32.4657   23.8235 C   0  0  1  0  0  0
  -27.2174  -27.0630   20.1696 C   0  0  0  0  0  0
  -25.5959  -33.8468   24.2147 N   0  0  0  0  0  0
  -23.4571  -30.4528   21.5285 C   0  0  2  0  0  0
  -24.9091  -28.8628   20.1133 C   0  0  0  0  0  0
  -22.7596  -29.4507   22.4832 C   0  0  0  0  0  0
  -18.0309  -28.1400   22.8473 C   0  0  0  0  0  0
  -24.1490  -36.7234   23.2645 C   0  0  0  0  0  0
  -26.0171  -30.6846   21.3954 C   0  0  0  0  0  0
  -26.0860  -29.2861   20.7444 C   0  0  0  0  0  0
  -27.2373  -28.4003   20.7599 C   0  0  0  0  0  0
  -26.0191  -26.7609   19.4891 C   0  0  0  0  0  0
  -24.8913  -27.6147   19.4704 C   0  0  0  0  0  0
  -23.6897  -29.7754   20.1508 C   0  0  0  0  0  0
  -25.4126  -36.3008   24.0310 C   0  0  1  0  0  0
  -20.5925  -28.3730   23.1219 C   0  0  2  0  0  0
  -20.6789  -26.9426   22.5403 C   0  0  0  0  0  0
  -19.5763  -26.6379   21.5212 C   0  0  0  0  0  0
  -18.1944  -26.7936   22.1623 C   0  0  0  0  0  0
  -19.1567  -28.8885   23.2835 C   0  0  0  0  0  0
  -18.9485  -30.1478   23.8864 C   0  0  0  0  0  0
  -17.6481  -30.6594   24.0557 C   0  0  0  0  0  0
  -25.9083  -34.9388   23.5042 C   0  0  0  0  0  0
  -16.5371  -29.9085   23.6342 C   0  0  0  0  0  0
  -16.7293  -28.6506   23.0360 C   0  0  0  0  0  0
  -26.4537  -31.6555   25.0708 C   0  0  0  0  0  0
  -25.3701  -31.3773   26.1389 C   0  0  0  0  0  0
  -27.0418  -30.2941   24.6350 C   0  0  0  0  0  0
  -27.6051  -32.4342   25.7500 C   0  0  0  0  0  0
  -27.5571  -37.1774   24.8468 C   0  0  0  0  0  0
  -21.4282  -29.3043   22.3582 N   0  0  0  0  0  0
  -26.4283  -37.3729   23.9409 N   0  0  0  0  0  0
  -24.7278  -31.0155   22.0897 N   0  0  0  0  0  0
  -23.4204  -28.8065   23.3019 O   0  0  0  0  0  0
  -28.2592  -26.0425   20.1902 O   0  0  0  0  0  0
  -26.5676  -34.8901   22.4626 O   0  0  0  0  0  0
  -23.5593  -32.1284   23.6997 O   0  0  0  0  0  0
  -26.8212  -19.9263   20.6703 C   0  0  0  0  0  0
  -31.7749  -19.5694   20.0929 C   0  0  0  0  0  0
  -27.7189  -18.8295   20.6220 C   0  0  0  0  0  0
  -30.8750  -20.6602   20.1471 C   0  0  0  0  0  0
  -27.2268  -21.2814   20.5511 C   0  0  0  0  0  0
  -31.3747  -18.2145   20.2101 C   0  0  0  0  0  0
  -29.4928  -20.4638   20.3248 C   0  0  0  0  0  0
  -29.1043  -19.0156   20.4451 C   0  0  0  0  0  0
  -28.5748  -21.6648   20.3743 C   0  0  0  0  0  0
  -30.0281  -17.8160   20.3926 C   0  0  0  0  0  0
  -28.8873  -23.3232   20.2570 C   0  0  0  0  0  0
  -29.7350  -16.2768   20.5047 N   0  0  0  0  0  0
  -27.8103  -24.4832   20.3485 N   0  0  0  0  0  0
  -31.4682  -12.8274   19.1937 H   0  0  0  0  0  0
  -30.4520  -11.7250   20.0738 H   0  0  0  0  0  0
  -29.8645  -11.7302   17.6229 H   0  0  0  0  0  0
  -29.5946  -13.4555   17.6754 H   0  0  0  0  0  0
  -27.9793  -11.2732   19.0199 H   0  0  0  0  0  0
  -27.3978  -12.4089   17.8301 H   0  0  0  0  0  0
  -27.5684  -14.2479   19.3782 H   0  0  0  0  0  0
  -28.7759  -12.3794   21.4737 H   0  0  0  0  0  0
  -28.3420  -14.0540   21.7309 H   0  0  0  0  0  0
  -25.2771   -9.5682   22.4769 H   0  0  0  0  0  0
  -24.0006   -7.4634   22.7475 H   0  0  0  0  0  0
  -21.0853   -8.8781   19.8952 H   0  0  0  0  0  0
  -22.3713  -10.9678   19.6171 H   0  0  0  0  0  0
  -21.2008   -7.6147   23.9715 H   0  0  0  0  0  0
  -21.1480   -6.0523   25.9076 H   0  0  0  0  0  0
  -22.0597   -2.7609   23.2846 H   0  0  0  0  0  0
  -22.4062  -11.9857   22.4841 H   0  0  0  0  0  0
  -21.1046  -13.1200   22.2647 H   0  0  0  0  0  0
  -24.6292  -15.8393   20.5061 H   0  0  0  0  0  0
  -26.2297  -15.6265   20.0115 H   0  0  0  0  0  0
  -26.7297  -32.5241   23.0954 H   0  0  0  0  0  0
  -25.0084  -33.9569   25.0281 H   0  0  0  0  0  0
  -22.7636  -31.2806   21.3666 H   0  0  0  0  0  0
  -23.3760  -35.9558   23.3297 H   0  0  0  0  0  0
  -24.3567  -36.8882   22.2060 H   0  0  0  0  0  0
  -23.7243  -37.6424   23.6695 H   0  0  0  0  0  0
  -26.1815  -31.4312   20.6171 H   0  0  0  0  0  0
  -26.8841  -30.7395   22.0419 H   0  0  0  0  0  0
  -28.1339  -28.7195   21.2722 H   0  0  0  0  0  0
  -25.9343  -25.8062   18.9899 H   0  0  0  0  0  0
  -23.9963  -27.2861   18.9603 H   0  0  0  0  0  0
  -23.8344  -30.5467   19.3932 H   0  0  0  0  0  0
  -22.8027  -29.2218   19.8378 H   0  0  0  0  0  0
  -25.1318  -36.1823   25.0802 H   0  0  0  0  0  0
  -21.0015  -28.3328   24.1341 H   0  0  0  0  0  0
  -20.5678  -26.2346   23.3630 H   0  0  0  0  0  0
  -21.6654  -26.7418   22.1205 H   0  0  0  0  0  0
  -19.6924  -25.6281   21.1261 H   0  0  0  0  0  0
  -19.6703  -27.3172   20.6729 H   0  0  0  0  0  0
  -17.4213  -26.6683   21.4026 H   0  0  0  0  0  0
  -18.0337  -26.0084   22.9026 H   0  0  0  0  0  0
  -19.7963  -30.7301   24.2218 H   0  0  0  0  0  0
  -17.5036  -31.6273   24.5163 H   0  0  0  0  0  0
  -15.5371  -30.2977   23.7688 H   0  0  0  0  0  0
  -15.8693  -28.0815   22.7094 H   0  0  0  0  0  0
  -24.5892  -30.7108   25.7710 H   0  0  0  0  0  0
  -24.8878  -32.2964   26.4725 H   0  0  0  0  0  0
  -25.7963  -30.9007   27.0226 H   0  0  0  0  0  0
  -26.3059  -29.6643   24.1340 H   0  0  0  0  0  0
  -27.3986  -29.7267   25.4957 H   0  0  0  0  0  0
  -27.8983  -30.4159   23.9716 H   0  0  0  0  0  0
  -27.2635  -33.3678   26.1983 H   0  0  0  0  0  0
  -28.3910  -32.6847   25.0360 H   0  0  0  0  0  0
  -28.0665  -31.8531   26.5494 H   0  0  0  0  0  0
  -28.2581  -38.0076   24.7502 H   0  0  0  0  0  0
  -28.1071  -36.2602   24.6310 H   0  0  0  0  0  0
  -27.2283  -37.1437   25.8870 H   0  0  0  0  0  0
  -20.9508  -29.8750   21.6745 H   0  0  0  0  0  0
  -26.0142  -38.2794   24.1413 H   0  0  0  0  0  0
  -25.7686  -19.7183   20.8055 H   0  0  0  0  0  0
  -32.8260  -19.7809   19.9538 H   0  0  0  0  0  0
  -27.3230  -17.8295   20.7233 H   0  0  0  0  0  0
  -31.2664  -21.6630   20.0478 H   0  0  0  0  0  0
  -26.4668  -22.0490   20.5978 H   0  0  0  0  0  0
  -32.1562  -17.4727   20.1540 H   0  0  0  0  0  0
  -29.4025  -23.4597   19.3058 H   0  0  0  0  0  0
  -29.6363  -23.5397   21.0194 H   0  0  0  0  0  0
  -28.7604  -16.0715   20.6608 H   0  0  0  0  0  0
  -27.3786  -24.4311   21.2669 H   0  0  0  0  0  0
  1 25  1  0  0  0
  1 30  2  0  0  0
  1 82  1  0  0  0
  2  3  1  0  0  0
  2 25  1  0  0  0
  2 84  1  0  0  0
  2 85  1  0  0  0
  3  4  1  0  0  0
  3 86  1  0  0  0
  3 87  1  0  0  0
  4  5  1  0  0  0
  4 88  1  0  0  0
  4 89  1  0  0  0
  5  6  1  0  0  0
  5 26  1  0  0  0
  5 90  1  0  0  0
  6 25  1  0  0  0
  6 91  1  0  0  0
  6 92  1  0  0  0
  7  8  2  0  0  0
  7 26  1  0  0  0
  7 29  1  0  0  0
  8  9  1  0  0  0
  8 22  1  0  0  0
  9 10  1  0  0  0
  9 27  2  0  0  0
 10 11  2  0  0  0
 10 15  1  0  0  0
 11 12  1  0  0  0
 11 93  1  0  0  0
 12 13  2  0  0  0
 12 94  1  0  0  0
 13 14  1  0  0  0
 13 31  1  0  0  0
 14 15  2  0  0  0
 14 95  1  0  0  0
 15 96  1  0  0  0
 16 17  2  0  0  0
 16 21  1  0  0  0
 16 31  1  0  0  0
 17 18  1  0  0  0
 17 97  1  0  0  0
 18 19  2  0  0  0
 18 98  1  0  0  0
 19 20  1  0  0  0
 19 24  1  0  0  0
 20 21  2  0  0  0
 20 99  1  0  0  0
 21 23  1  0  0  0
 22 28  1  0  0  0
 22 32  2  0  0  0
 26 27  1  0  0  0
 28100  1  0  0  0
 28101  1  0  0  0
 29102  1  0  0  0
 29103  1  0  0  0
 33 34  1  0  0  0
 33 66  1  0  0  0
 33 70  2  0  0  0
 34 36  1  0  0  0
 34 59  1  0  0  0
 34104  1  0  0  0
 35 44  2  0  0  0
 35 45  1  0  0  0
 35 68  1  0  0  0
 36 56  1  0  0  0
 36105  1  0  0  0
 37 39  1  0  0  0
 37 47  1  0  0  0
 37 66  1  0  0  0
 37106  1  0  0  0
 38 43  2  0  0  0
 38 46  1  0  0  0
 38 47  1  0  0  0
 39 64  1  0  0  0
 39 67  2  0  0  0
 40 52  1  0  0  0
 40 53  2  0  0  0
 40 58  1  0  0  0
 41107  1  0  0  0
 41108  1  0  0  0
 41109  1  0  0  0
 41 48  1  0  0  0
 42 43  1  0  0  0
 42 66  1  0  0  0
 42110  1  0  0  0
 42111  1  0  0  0
 43 44  1  0  0  0
 44112  1  0  0  0
 45 46  2  0  0  0
 45113  1  0  0  0
 46114  1  0  0  0
 47115  1  0  0  0
 47116  1  0  0  0
 48 56  1  0  0  0
 48 65  1  0  0  0
 48117  1  0  0  0
 49 50  1  0  0  0
 49 53  1  0  0  0
 49 64  1  0  0  0
 49118  1  0  0  0
 50 51  1  0  0  0
 50119  1  0  0  0
 50120  1  0  0  0
 51 52  1  0  0  0
 51121  1  0  0  0
 51122  1  0  0  0
 52123  1  0  0  0
 52124  1  0  0  0
 53 54  1  0  0  0
 54 55  2  0  0  0
 54125  1  0  0  0
 55 57  1  0  0  0
 55126  1  0  0  0
 56 69  2  0  0  0
 57 58  2  0  0  0
 57127  1  0  0  0
 58128  1  0  0  0
 59 60  1  0  0  0
 59 61  1  0  0  0
 59 62  1  0  0  0
 60129  1  0  0  0
 60130  1  0  0  0
 60131  1  0  0  0
 61132  1  0  0  0
 61133  1  0  0  0
 61134  1  0  0  0
 62135  1  0  0  0
 62136  1  0  0  0
 62137  1  0  0  0
 63 65  1  0  0  0
 63138  1  0  0  0
 63139  1  0  0  0
 63140  1  0  0  0
 64141  1  0  0  0
 65142  1  0  0  0
 68 83  1  0  0  0
 71 73  2  0  0  0
 71 75  1  0  0  0
 71143  1  0  0  0
 72 74  2  0  0  0
 72 76  1  0  0  0
 72144  1  0  0  0
 73 78  1  0  0  0
 73145  1  0  0  0
 74 77  1  0  0  0
 74146  1  0  0  0
 75 79  2  0  0  0
 75147  1  0  0  0
 76 80  2  0  0  0
 76148  1  0  0  0
 77 78  2  0  0  0
 77 79  1  0  0  0
 78 80  1  0  0  0
 79 81  1  0  0  0
 80 82  1  0  0  0
 81 83  1  0  0  0
 81149  1  0  0  0
 81150  1  0  0  0
 82151  1  0  0  0
 83152  1  0  0  0
M  ISO  4   1 100  68 101  82 100  83 101
M  END
> <chiral flag>
0

> <version>
0

> <s_m_source_file>
/data/baiqing/PycharmProjects/Reinvent-master-3.2/result/LINK_invent/BTK/process_docking_weight1_custom_product_contain_oxygen_bond_distance_aromatic_linkinvent_7_9_3/rearranged_h_0006.sdf

> <i_m_source_file_index>
58

> <r_mmod_Potential_Energy-OPLS-2005>
642.332458496094

> <r_mmod_Stretch_Energy-OPLS-2005>
339.911102294922

> <r_mmod_Bend_Energy-OPLS-2005>
267.261108398438

> <r_mmod_Torsional_Energy-OPLS-2005>
212.505249023438

> <r_mmod_Improper_Torsional_Energy-OPLS-2005>
4.35419940948486

> <r_mmod_Van_der_Waal_Energy-OPLS-2005>
142.031311035156

> <r_mmod_Electrostatic_Energy-OPLS-2005>
-371.082397460938

> <r_mmod_Solvation_Energy-OPLS-2005>
-219.667007446289

> <b_mmod_Minimization_Converged-OPLS-2005>
0

> <r_mmod_RMS_Derivative-OPLS-2005>
0.329059571027756

$$$$
59
                    3D
 Structure written by MMmdl.
152161  0  0  1  0            999 V2000
  -30.5281  -14.9003   20.4537 C   0  0  0  0  0  0
  -30.4497  -12.5566   19.4973 C   0  0  0  0  0  0
  -29.5246  -12.5355   18.2559 C   0  0  0  0  0  0
  -28.0546  -12.3270   18.6679 C   0  0  0  0  0  0
  -27.6387  -13.2396   19.8506 C   0  0  2  0  0  0
  -28.6809  -13.2112   20.9900 C   0  0  0  0  0  0
  -25.2493  -13.8193   20.5707 C   0  0  0  0  0  0
  -24.1787  -13.0429   20.9206 C   0  0  0  0  0  0
  -24.6386  -11.6911   20.8733 C   0  0  0  0  0  0
  -23.9067  -10.4287   21.0398 C   0  0  0  0  0  0
  -24.3619   -9.4205   21.9175 C   0  0  0  0  0  0
  -23.6294   -8.2244   22.0752 C   0  0  0  0  0  0
  -22.4277   -8.0279   21.3549 C   0  0  0  0  0  0
  -21.9912   -9.0248   20.4645 C   0  0  0  0  0  0
  -22.7238  -10.2127   20.3048 C   0  0  0  0  0  0
  -21.6858   -6.0733   22.5275 C   0  0  0  0  0  0
  -21.4016   -6.5640   23.8207 C   0  0  0  0  0  0
  -21.3657   -5.6794   24.9167 C   0  0  0  0  0  0
  -21.6046   -4.3055   24.7222 C   0  0  0  0  0  0
  -21.8816   -3.8147   23.4342 C   0  0  0  0  0  0
  -21.9190   -4.6962   22.3397 C   0  0  0  0  0  0
  -22.7810  -13.5208   21.1879 C   0  0  0  0  0  0
  -22.1662   -4.2147   21.0975 F   0  0  0  0  0  0
  -21.5627   -3.4540   25.7736 F   0  0  0  0  0  0
  -29.9698  -13.6259   20.4139 N   0  0  0  0  0  0
  -26.2920  -12.9411   20.3277 N   0  0  0  0  0  0
  -25.9319  -11.6543   20.5734 N   0  0  0  0  0  0
  -22.0463  -12.8195   22.0435 N   0  0  0  0  0  0
  -25.4177  -15.1920   20.4150 N   0  0  0  0  0  0
  -31.7068  -15.0338   20.1059 O   0  0  0  0  0  0
  -21.6641   -6.8880   21.4242 O   0  0  0  0  0  0
  -22.3493  -14.5510   20.6723 O   0  0  0  0  0  0
  -24.6426  -31.8455   23.1890 C   0  0  0  0  0  0
  -25.9195  -32.4703   23.8297 C   0  0  1  0  0  0
  -27.2236  -27.1574   20.1551 C   0  0  0  0  0  0
  -25.5944  -33.8507   24.2206 N   0  0  0  0  0  0
  -23.4460  -30.4644   21.5342 C   0  0  2  0  0  0
  -24.8964  -28.8940   20.1116 C   0  0  0  0  0  0
  -22.7568  -29.4552   22.4860 C   0  0  0  0  0  0
  -18.0300  -28.1408   22.8453 C   0  0  0  0  0  0
  -24.1491  -36.7265   23.2640 C   0  0  0  0  0  0
  -26.0003  -30.7277   21.3836 C   0  0  0  0  0  0
  -26.0728  -29.3395   20.7285 C   0  0  0  0  0  0
  -27.2387  -28.4882   20.7306 C   0  0  0  0  0  0
  -26.0239  -26.8113   19.4947 C   0  0  0  0  0  0
  -24.8842  -27.6428   19.4778 C   0  0  0  0  0  0
  -23.6726  -29.7949   20.1533 C   0  0  0  0  0  0
  -25.4116  -36.3030   24.0321 C   0  0  1  0  0  0
  -20.5911  -28.3729   23.1222 C   0  0  2  0  0  0
  -20.6786  -26.9437   22.5399 C   0  0  0  0  0  0
  -19.5767  -26.6388   21.5202 C   0  0  0  0  0  0
  -18.1942  -26.7939   22.1608 C   0  0  0  0  0  0
  -19.1554  -28.8887   23.2825 C   0  0  0  0  0  0
  -18.9478  -30.1468   23.8871 C   0  0  0  0  0  0
  -17.6475  -30.6596   24.0558 C   0  0  0  0  0  0
  -25.9068  -34.9407   23.5067 C   0  0  0  0  0  0
  -16.5363  -29.9097   23.6332 C   0  0  0  0  0  0
  -16.7285  -28.6520   23.0341 C   0  0  0  0  0  0
  -26.4522  -31.6561   25.0729 C   0  0  0  0  0  0
  -25.3701  -31.3745   26.1425 C   0  0  0  0  0  0
  -27.0390  -30.2966   24.6277 C   0  0  0  0  0  0
  -27.6059  -32.4324   25.7504 C   0  0  0  0  0  0
  -27.5572  -37.1788   24.8465 C   0  0  0  0  0  0
  -21.4266  -29.3057   22.3610 N   0  0  0  0  0  0
  -26.4281  -37.3742   23.9412 N   0  0  0  0  0  0
  -24.7160  -31.0332   22.0910 N   0  0  0  0  0  0
  -23.4206  -28.8093   23.3008 O   0  0  0  0  0  0
  -28.2927  -26.1952   20.1868 O   0  0  0  0  0  0
  -26.5657  -34.8900   22.4649 O   0  0  0  0  0  0
  -23.5544  -32.1319   23.7108 O   0  0  0  0  0  0
  -30.1892  -19.8603   19.7947 C   0  0  0  0  0  0
  -30.4115  -18.4170   19.8582 C   0  0  0  0  0  0
  -28.6697  -18.2375   21.4506 C   0  0  0  0  0  0
  -27.6624  -21.7989   21.7172 C   0  0  0  0  0  0
  -28.4270  -19.6704   21.4278 C   0  0  0  0  0  0
  -29.1846  -20.5443   20.5647 C   0  0  0  0  0  0
  -29.6488  -17.5190   20.6845 C   0  0  0  0  0  0
  -27.5063  -20.5046   22.1449 C   0  0  0  0  0  0
  -28.9952  -23.3551   20.1849 C   0  0  0  0  0  0
  -28.0238  -24.6977   20.4907 C   0  0  0  0  0  0
  -28.6652  -21.9238   20.7547 N   0  0  0  0  0  0
  -29.6831  -15.9903   20.7653 N   0  0  0  0  0  0
  -26.6103  -20.1018   23.0984 O   0  0  0  0  0  0
  -31.4840  -12.7207   19.1898 H   0  0  0  0  0  0
  -30.4414  -11.5896   20.0018 H   0  0  0  0  0  0
  -29.8354  -11.7516   17.5644 H   0  0  0  0  0  0
  -29.6191  -13.4775   17.7130 H   0  0  0  0  0  0
  -27.9378  -11.2807   18.9520 H   0  0  0  0  0  0
  -27.3932  -12.4859   17.8148 H   0  0  0  0  0  0
  -27.6186  -14.2537   19.4499 H   0  0  0  0  0  0
  -28.7518  -12.2129   21.4255 H   0  0  0  0  0  0
  -28.3817  -13.8752   21.8021 H   0  0  0  0  0  0
  -25.2760   -9.5682   22.4755 H   0  0  0  0  0  0
  -23.9996   -7.4638   22.7471 H   0  0  0  0  0  0
  -21.0848   -8.8762   19.8952 H   0  0  0  0  0  0
  -22.3690  -10.9667   19.6158 H   0  0  0  0  0  0
  -21.2015   -7.6150   23.9710 H   0  0  0  0  0  0
  -21.1487   -6.0525   25.9073 H   0  0  0  0  0  0
  -22.0599   -2.7611   23.2839 H   0  0  0  0  0  0
  -22.4098  -11.9854   22.4814 H   0  0  0  0  0  0
  -21.1077  -13.1206   22.2650 H   0  0  0  0  0  0
  -24.6450  -15.8416   20.5178 H   0  0  0  0  0  0
  -26.2576  -15.6332   20.0625 H   0  0  0  0  0  0
  -26.7276  -32.5327   23.1044 H   0  0  0  0  0  0
  -25.0076  -33.9636   25.0343 H   0  0  0  0  0  0
  -22.7463  -31.2882   21.3785 H   0  0  0  0  0  0
  -23.3747  -35.9604   23.3289 H   0  0  0  0  0  0
  -24.3583  -36.8912   22.2060 H   0  0  0  0  0  0
  -23.7257  -37.6458   23.6691 H   0  0  0  0  0  0
  -26.1480  -31.4796   20.6077 H   0  0  0  0  0  0
  -26.8731  -30.7821   22.0235 H   0  0  0  0  0  0
  -28.1381  -28.8268   21.2255 H   0  0  0  0  0  0
  -25.9428  -25.8643   18.9822 H   0  0  0  0  0  0
  -23.9913  -27.2984   18.9756 H   0  0  0  0  0  0
  -23.8120  -30.5693   19.3981 H   0  0  0  0  0  0
  -22.7875  -29.2367   19.8419 H   0  0  0  0  0  0
  -25.1301  -36.1868   25.0814 H   0  0  0  0  0  0
  -20.9975  -28.3325   24.1349 H   0  0  0  0  0  0
  -20.5661  -26.2356   23.3620 H   0  0  0  0  0  0
  -21.6658  -26.7448   22.1202 H   0  0  0  0  0  0
  -19.6940  -25.6289   21.1256 H   0  0  0  0  0  0
  -19.6706  -27.3167   20.6702 H   0  0  0  0  0  0
  -17.4207  -26.6650   21.4018 H   0  0  0  0  0  0
  -18.0358  -26.0101   22.9028 H   0  0  0  0  0  0
  -19.7958  -30.7281   24.2232 H   0  0  0  0  0  0
  -17.5040  -31.6269   24.5177 H   0  0  0  0  0  0
  -15.5364  -30.3001   23.7674 H   0  0  0  0  0  0
  -15.8677  -28.0840   22.7070 H   0  0  0  0  0  0
  -24.5893  -30.7076   25.7748 H   0  0  0  0  0  0
  -24.8866  -32.2920   26.4786 H   0  0  0  0  0  0
  -25.7976  -30.8967   27.0245 H   0  0  0  0  0  0
  -26.3007  -29.6687   24.1275 H   0  0  0  0  0  0
  -27.4019  -29.7264   25.4836 H   0  0  0  0  0  0
  -27.8898  -30.4227   23.9580 H   0  0  0  0  0  0
  -27.2669  -33.3659   26.2007 H   0  0  0  0  0  0
  -28.3897  -32.6826   25.0342 H   0  0  0  0  0  0
  -28.0693  -31.8496   26.5476 H   0  0  0  0  0  0
  -28.2572  -38.0097   24.7500 H   0  0  0  0  0  0
  -28.1086  -36.2624   24.6298 H   0  0  0  0  0  0
  -27.2298  -37.1440   25.8870 H   0  0  0  0  0  0
  -20.9477  -29.8799   21.6812 H   0  0  0  0  0  0
  -26.0149  -38.2810   24.1406 H   0  0  0  0  0  0
  -30.8045  -20.4491   19.1282 H   0  0  0  0  0  0
  -31.1803  -17.9975   19.2216 H   0  0  0  0  0  0
  -28.0331  -17.6650   22.1092 H   0  0  0  0  0  0
  -27.1094  -22.6637   22.0553 H   0  0  0  0  0  0
  -30.0050  -23.5956   20.5210 H   0  0  0  0  0  0
  -29.0761  -23.2446   19.1035 H   0  0  0  0  0  0
  -27.8616  -24.7070   21.5678 H   0  0  0  0  0  0
  -27.0511  -24.4339   20.0840 H   0  0  0  0  0  0
  -28.8194  -15.6133   21.1255 H   0  0  0  0  0  0
  -26.7502  -19.1721   23.2540 H   0  0  0  0  0  0
  1 25  1  0  0  0
  1 30  2  0  0  0
  1 82  1  0  0  0
  2  3  1  0  0  0
  2 25  1  0  0  0
  2 84  1  0  0  0
  2 85  1  0  0  0
  3  4  1  0  0  0
  3 86  1  0  0  0
  3 87  1  0  0  0
  4  5  1  0  0  0
  4 88  1  0  0  0
  4 89  1  0  0  0
  5  6  1  0  0  0
  5 26  1  0  0  0
  5 90  1  0  0  0
  6 25  1  0  0  0
  6 91  1  0  0  0
  6 92  1  0  0  0
  7  8  2  0  0  0
  7 26  1  0  0  0
  7 29  1  0  0  0
  8  9  1  0  0  0
  8 22  1  0  0  0
  9 10  1  0  0  0
  9 27  2  0  0  0
 10 11  2  0  0  0
 10 15  1  0  0  0
 11 12  1  0  0  0
 11 93  1  0  0  0
 12 13  2  0  0  0
 12 94  1  0  0  0
 13 14  1  0  0  0
 13 31  1  0  0  0
 14 15  2  0  0  0
 14 95  1  0  0  0
 15 96  1  0  0  0
 16 17  2  0  0  0
 16 21  1  0  0  0
 16 31  1  0  0  0
 17 18  1  0  0  0
 17 97  1  0  0  0
 18 19  2  0  0  0
 18 98  1  0  0  0
 19 20  1  0  0  0
 19 24  1  0  0  0
 20 21  2  0  0  0
 20 99  1  0  0  0
 21 23  1  0  0  0
 22 28  1  0  0  0
 22 32  2  0  0  0
 26 27  1  0  0  0
 28100  1  0  0  0
 28101  1  0  0  0
 29102  1  0  0  0
 29103  1  0  0  0
 33 34  1  0  0  0
 33 66  1  0  0  0
 33 70  2  0  0  0
 34 36  1  0  0  0
 34 59  1  0  0  0
 34104  1  0  0  0
 35 44  2  0  0  0
 35 45  1  0  0  0
 35 68  1  0  0  0
 36 56  1  0  0  0
 36105  1  0  0  0
 37 39  1  0  0  0
 37 47  1  0  0  0
 37 66  1  0  0  0
 37106  1  0  0  0
 38 43  2  0  0  0
 38 46  1  0  0  0
 38 47  1  0  0  0
 39 64  1  0  0  0
 39 67  2  0  0  0
 40 52  1  0  0  0
 40 53  2  0  0  0
 40 58  1  0  0  0
 41107  1  0  0  0
 41108  1  0  0  0
 41109  1  0  0  0
 41 48  1  0  0  0
 42 43  1  0  0  0
 42 66  1  0  0  0
 42110  1  0  0  0
 42111  1  0  0  0
 43 44  1  0  0  0
 44112  1  0  0  0
 45 46  2  0  0  0
 45113  1  0  0  0
 46114  1  0  0  0
 47115  1  0  0  0
 47116  1  0  0  0
 48 56  1  0  0  0
 48 65  1  0  0  0
 48117  1  0  0  0
 49 50  1  0  0  0
 49 53  1  0  0  0
 49 64  1  0  0  0
 49118  1  0  0  0
 50 51  1  0  0  0
 50119  1  0  0  0
 50120  1  0  0  0
 51 52  1  0  0  0
 51121  1  0  0  0
 51122  1  0  0  0
 52123  1  0  0  0
 52124  1  0  0  0
 53 54  1  0  0  0
 54 55  2  0  0  0
 54125  1  0  0  0
 55 57  1  0  0  0
 55126  1  0  0  0
 56 69  2  0  0  0
 57 58  2  0  0  0
 57127  1  0  0  0
 58128  1  0  0  0
 59 60  1  0  0  0
 59 61  1  0  0  0
 59 62  1  0  0  0
 60129  1  0  0  0
 60130  1  0  0  0
 60131  1  0  0  0
 61132  1  0  0  0
 61133  1  0  0  0
 61134  1  0  0  0
 62135  1  0  0  0
 62136  1  0  0  0
 62137  1  0  0  0
 63 65  1  0  0  0
 63138  1  0  0  0
 63139  1  0  0  0
 63140  1  0  0  0
 64141  1  0  0  0
 65142  1  0  0  0
 68 80  1  0  0  0
 71 72  2  0  0  0
 71 76  1  0  0  0
 71143  1  0  0  0
 72 77  1  0  0  0
 72144  1  0  0  0
 73 75  1  0  0  0
 73 77  2  0  0  0
 73145  1  0  0  0
 74 78  2  0  0  0
 74 81  1  0  0  0
 74146  1  0  0  0
 75 76  2  0  0  0
 75 78  1  0  0  0
 76 81  1  0  0  0
 77 82  1  0  0  0
 78 83  1  0  0  0
 79 80  1  0  0  0
 79 81  1  0  0  0
 79147  1  0  0  0
 79148  1  0  0  0
 80149  1  0  0  0
 80150  1  0  0  0
 82151  1  0  0  0
 83152  1  0  0  0
M  ISO  4   1 100  68 101  80 101  82 100
M  END
> <chiral flag>
0

> <version>
0

> <s_m_source_file>
/data/baiqing/PycharmProjects/Reinvent-master-3.2/result/LINK_invent/BTK/process_docking_weight1_custom_product_contain_oxygen_bond_distance_aromatic_linkinvent_7_9_3/rearranged_h_0006.sdf

> <i_m_source_file_index>
59

> <r_mmod_Potential_Energy-OPLS-2005>
420.559722900391

> <r_mmod_Stretch_Energy-OPLS-2005>
215.605270385742

> <r_mmod_Bend_Energy-OPLS-2005>
246.320648193359

> <r_mmod_Torsional_Energy-OPLS-2005>
234.918746948242

> <r_mmod_Improper_Torsional_Energy-OPLS-2005>
3.25572752952576

> <r_mmod_Van_der_Waal_Energy-OPLS-2005>
125.257171630859

> <r_mmod_Electrostatic_Energy-OPLS-2005>
-329.208038330078

> <r_mmod_Solvation_Energy-OPLS-2005>
-239.298843383789

> <b_mmod_Minimization_Converged-OPLS-2005>
0

> <r_mmod_RMS_Derivative-OPLS-2005>
1.75565040111542

$$$$
60
                    3D
 Structure written by MMmdl.
162171  0  0  1  0            999 V2000
  -30.7298  -14.4218   20.6318 C   0  0  0  0  0  0
  -30.4214  -12.2953   19.4162 C   0  0  0  0  0  0
  -29.4931  -12.5236   18.2059 C   0  0  0  0  0  0
  -28.0146  -12.3825   18.6163 C   0  0  0  0  0  0
  -27.6669  -13.2063   19.8847 C   0  0  2  0  0  0
  -28.7053  -12.9554   21.0021 C   0  0  0  0  0  0
  -25.2565  -13.8142   20.5612 C   0  0  0  0  0  0
  -24.1827  -13.0424   20.9139 C   0  0  0  0  0  0
  -24.6397  -11.6899   20.8732 C   0  0  0  0  0  0
  -23.9060  -10.4287   21.0407 C   0  0  0  0  0  0
  -24.3615   -9.4203   21.9187 C   0  0  0  0  0  0
  -23.6293   -8.2239   22.0753 C   0  0  0  0  0  0
  -22.4274   -8.0278   21.3543 C   0  0  0  0  0  0
  -21.9907   -9.0248   20.4643 C   0  0  0  0  0  0
  -22.7234  -10.2128   20.3053 C   0  0  0  0  0  0
  -21.6850   -6.0736   22.5280 C   0  0  0  0  0  0
  -21.4012   -6.5638   23.8215 C   0  0  0  0  0  0
  -21.3660   -5.6789   24.9175 C   0  0  0  0  0  0
  -21.6045   -4.3052   24.7224 C   0  0  0  0  0  0
  -21.8820   -3.8145   23.4344 C   0  0  0  0  0  0
  -21.9191   -4.6964   22.3401 C   0  0  0  0  0  0
  -22.7853  -13.5226   21.1823 C   0  0  0  0  0  0
  -22.1661   -4.2149   21.0981 F   0  0  0  0  0  0
  -21.5632   -3.4536   25.7737 F   0  0  0  0  0  0
  -30.0473  -13.2556   20.4666 N   0  0  0  0  0  0
  -26.3046  -12.9332   20.3406 N   0  0  0  0  0  0
  -25.9333  -11.6490   20.5795 N   0  0  0  0  0  0
  -22.0504  -12.8224   22.0396 N   0  0  0  0  0  0
  -25.4222  -15.1840   20.3917 N   0  0  0  0  0  0
  -31.8016  -14.6507   20.0639 O   0  0  0  0  0  0
  -21.6636   -6.8877   21.4241 O   0  0  0  0  0  0
  -22.3528  -14.5535   20.6688 O   0  0  0  0  0  0
  -24.6139  -31.8697   23.2120 C   0  0  0  0  0  0
  -25.9038  -32.4830   23.8412 C   0  0  1  0  0  0
  -27.2372  -27.4443   20.0758 C   0  0  0  0  0  0
  -25.5899  -33.8629   24.2341 N   0  0  0  0  0  0
  -23.4009  -30.4950   21.5524 C   0  0  2  0  0  0
  -24.8456  -28.9642   20.1147 C   0  0  0  0  0  0
  -22.7405  -29.4673   22.4993 C   0  0  0  0  0  0
  -18.0270  -28.1379   22.8494 C   0  0  0  0  0  0
  -24.1487  -36.7321   23.2637 C   0  0  0  0  0  0
  -25.9302  -30.8341   21.3666 C   0  0  0  0  0  0
  -26.0050  -29.4688   20.7146 C   0  0  0  0  0  0
  -27.1977  -28.7108   20.7043 C   0  0  0  0  0  0
  -26.0490  -26.9479   19.4863 C   0  0  0  0  0  0
  -24.8613  -27.7004   19.5040 C   0  0  0  0  0  0
  -23.6082  -29.8305   20.1659 C   0  0  0  0  0  0
  -25.4106  -36.3118   24.0338 C   0  0  1  0  0  0
  -20.5860  -28.3667   23.1319 C   0  0  2  0  0  0
  -20.6762  -26.9405   22.5418 C   0  0  0  0  0  0
  -19.5741  -26.6389   21.5213 C   0  0  0  0  0  0
  -18.1918  -26.7928   22.1624 C   0  0  0  0  0  0
  -19.1519  -28.8838   23.2905 C   0  0  0  0  0  0
  -18.9447  -30.1443   23.8918 C   0  0  0  0  0  0
  -17.6450  -30.6586   24.0566 C   0  0  0  0  0  0
  -25.9034  -34.9481   23.5136 C   0  0  0  0  0  0
  -16.5341  -29.9090   23.6323 C   0  0  0  0  0  0
  -16.7260  -28.6506   23.0346 C   0  0  0  0  0  0
  -26.4472  -31.6599   25.0733 C   0  0  0  0  0  0
  -25.3741  -31.3696   26.1480 C   0  0  0  0  0  0
  -27.0299  -30.3043   24.6100 C   0  0  0  0  0  0
  -27.6057  -32.4310   25.7490 C   0  0  0  0  0  0
  -27.5581  -37.1815   24.8465 C   0  0  0  0  0  0
  -21.4133  -29.3038   22.3729 N   0  0  0  0  0  0
  -26.4296  -37.3796   23.9406 N   0  0  0  0  0  0
  -24.6666  -31.0804   22.1022 N   0  0  0  0  0  0
  -23.4182  -28.8208   23.3027 O   0  0  0  0  0  0
  -28.4193  -26.7287   20.0969 O   0  0  0  0  0  0
  -26.5595  -34.8926   22.4697 O   0  0  0  0  0  0
  -23.5333  -32.1452   23.7516 O   0  0  0  0  0  0
  -31.1629  -18.8888   20.7332 C   0  0  0  0  0  0
  -31.2544  -17.4871   20.8640 C   0  0  0  0  0  0
  -28.9075  -18.8306   21.6239 C   0  0  0  0  0  0
  -29.9788  -19.5766   21.0806 C   0  0  0  0  0  0
  -30.1576  -16.7374   21.3534 C   0  0  0  0  0  0
  -29.0009  -17.4313   21.7732 C   0  0  0  0  0  0
  -30.8930  -21.8657   21.3867 C   0  0  0  0  0  0
  -28.5707  -21.5743   20.6029 C   0  0  0  0  0  0
  -31.0312  -23.1303   20.5088 C   0  0  0  0  0  0
  -28.7076  -22.8230   19.7043 C   0  0  0  0  0  0
  -29.9443  -24.9731   19.3014 C   0  0  0  0  0  0
  -28.7040  -25.8479   19.0050 C   0  0  0  0  0  0
  -29.8752  -20.9659   20.8491 N   0  0  0  0  0  0
  -30.1413  -15.3125   21.4480 N   0  0  0  0  0  0
  -29.7282  -23.7952   20.2027 N   0  3  0  0  0  0
  -27.6706  -16.5666   22.4595 Cl  0  0  0  0  0  0
  -31.4667  -12.3889   19.1165 H   0  0  0  0  0  0
  -30.3143  -11.2763   19.7918 H   0  0  0  0  0  0
  -29.7298  -11.8156   17.4104 H   0  0  0  0  0  0
  -29.6652  -13.5184   17.7918 H   0  0  0  0  0  0
  -27.8198  -11.3248   18.7973 H   0  0  0  0  0  0
  -27.3645  -12.6732   17.7900 H   0  0  0  0  0  0
  -27.7213  -14.2603   19.6104 H   0  0  0  0  0  0
  -28.6715  -11.9116   21.3177 H   0  0  0  0  0  0
  -28.4550  -13.5277   21.8956 H   0  0  0  0  0  0
  -25.2763   -9.5681   22.4755 H   0  0  0  0  0  0
  -24.0003   -7.4628   22.7471 H   0  0  0  0  0  0
  -21.0836   -8.8763   19.8950 H   0  0  0  0  0  0
  -22.3693  -10.9664   19.6158 H   0  0  0  0  0  0
  -21.2002   -7.6146   23.9718 H   0  0  0  0  0  0
  -21.1485   -6.0519   25.9079 H   0  0  0  0  0  0
  -22.0599   -2.7607   23.2842 H   0  0  0  0  0  0
  -22.4119  -11.9881   22.4778 H   0  0  0  0  0  0
  -21.1127  -13.1254   22.2616 H   0  0  0  0  0  0
  -24.6669  -15.8433   20.5398 H   0  0  0  0  0  0
  -26.3024  -15.6316   20.1735 H   0  0  0  0  0  0
  -26.7109  -32.5545   23.1178 H   0  0  0  0  0  0
  -25.0049  -33.9799   25.0485 H   0  0  0  0  0  0
  -22.6893  -31.3118   21.4158 H   0  0  0  0  0  0
  -23.3741  -35.9663   23.3316 H   0  0  0  0  0  0
  -24.3580  -36.8920   22.2049 H   0  0  0  0  0  0
  -23.7249  -37.6536   23.6640 H   0  0  0  0  0  0
  -26.0426  -31.5989   20.5969 H   0  0  0  0  0  0
  -26.8188  -30.8874   21.9838 H   0  0  0  0  0  0
  -28.0925  -29.0985   21.1711 H   0  0  0  0  0  0
  -25.9930  -25.9756   19.0238 H   0  0  0  0  0  0
  -23.9656  -27.3006   19.0485 H   0  0  0  0  0  0
  -23.7162  -30.6066   19.4075 H   0  0  0  0  0  0
  -22.7323  -29.2507   19.8699 H   0  0  0  0  0  0
  -25.1281  -36.1991   25.0832 H   0  0  0  0  0  0
  -20.9952  -28.3233   24.1440 H   0  0  0  0  0  0
  -20.5663  -26.2277   23.3604 H   0  0  0  0  0  0
  -21.6634  -26.7453   22.1208 H   0  0  0  0  0  0
  -19.6902  -25.6304   21.1232 H   0  0  0  0  0  0
  -19.6679  -27.3209   20.6751 H   0  0  0  0  0  0
  -17.4189  -26.6675   21.4026 H   0  0  0  0  0  0
  -18.0320  -26.0065   22.9017 H   0  0  0  0  0  0
  -19.7922  -30.7249   24.2302 H   0  0  0  0  0  0
  -17.5006  -31.6267   24.5165 H   0  0  0  0  0  0
  -15.5343  -30.2998   23.7635 H   0  0  0  0  0  0
  -15.8658  -28.0831   22.7051 H   0  0  0  0  0  0
  -24.5916  -30.7044   25.7812 H   0  0  0  0  0  0
  -24.8928  -32.2845   26.4945 H   0  0  0  0  0  0
  -25.8095  -30.8851   27.0228 H   0  0  0  0  0  0
  -26.2839  -29.6808   24.1156 H   0  0  0  0  0  0
  -27.4074  -29.7275   25.4553 H   0  0  0  0  0  0
  -27.8674  -30.4363   23.9245 H   0  0  0  0  0  0
  -27.2687  -33.3596   26.2107 H   0  0  0  0  0  0
  -28.3846  -32.6888   25.0301 H   0  0  0  0  0  0
  -28.0748  -31.8407   26.5372 H   0  0  0  0  0  0
  -28.2608  -38.0103   24.7502 H   0  0  0  0  0  0
  -28.1068  -36.2636   24.6302 H   0  0  0  0  0  0
  -27.2300  -37.1479   25.8869 H   0  0  0  0  0  0
  -20.9289  -29.8769   21.6961 H   0  0  0  0  0  0
  -26.0191  -38.2880   24.1393 H   0  0  0  0  0  0
  -32.0051  -19.4250   20.3201 H   0  0  0  0  0  0
  -32.1741  -17.0076   20.5648 H   0  0  0  0  0  0
  -27.9957  -19.3189   21.9327 H   0  0  0  0  0  0
  -30.6088  -22.1498   22.4013 H   0  0  0  0  0  0
  -31.8628  -21.3741   21.4713 H   0  0  0  0  0  0
  -27.8976  -20.8636   20.1202 H   0  0  0  0  0  0
  -28.1126  -21.8453   21.5559 H   0  0  0  0  0  0
  -31.5138  -22.8499   19.5715 H   0  0  0  0  0  0
  -31.7015  -23.8377   20.9987 H   0  0  0  0  0  0
  -27.7258  -23.2894   19.6396 H   0  0  0  0  0  0
  -28.9753  -22.5096   18.6939 H   0  0  0  0  0  0
  -30.7275  -25.6119   19.7117 H   0  0  0  0  0  0
  -30.3302  -24.6022   18.3506 H   0  0  0  0  0  0
  -27.8726  -25.2216   18.6996 H   0  0  0  0  0  0
  -28.9256  -26.4791   18.1433 H   0  0  0  0  0  0
  -29.3295  -14.9463   21.9234 H   0  0  0  0  0  0
  -29.3792  -24.1467   21.0829 H   0  0  0  0  0  0
  1 25  1  0  0  0
  1 30  2  0  0  0
  1 84  1  0  0  0
  2  3  1  0  0  0
  2 25  1  0  0  0
  2 87  1  0  0  0
  2 88  1  0  0  0
  3  4  1  0  0  0
  3 89  1  0  0  0
  3 90  1  0  0  0
  4  5  1  0  0  0
  4 91  1  0  0  0
  4 92  1  0  0  0
  5  6  1  0  0  0
  5 26  1  0  0  0
  5 93  1  0  0  0
  6 25  1  0  0  0
  6 94  1  0  0  0
  6 95  1  0  0  0
  7  8  2  0  0  0
  7 26  1  0  0  0
  7 29  1  0  0  0
  8  9  1  0  0  0
  8 22  1  0  0  0
  9 10  1  0  0  0
  9 27  2  0  0  0
 10 11  2  0  0  0
 10 15  1  0  0  0
 11 12  1  0  0  0
 11 96  1  0  0  0
 12 13  2  0  0  0
 12 97  1  0  0  0
 13 14  1  0  0  0
 13 31  1  0  0  0
 14 15  2  0  0  0
 14 98  1  0  0  0
 15 99  1  0  0  0
 16 17  2  0  0  0
 16 21  1  0  0  0
 16 31  1  0  0  0
 17 18  1  0  0  0
 17100  1  0  0  0
 18 19  2  0  0  0
 18101  1  0  0  0
 19 20  1  0  0  0
 19 24  1  0  0  0
 20 21  2  0  0  0
 20102  1  0  0  0
 21 23  1  0  0  0
 22 28  1  0  0  0
 22 32  2  0  0  0
 26 27  1  0  0  0
 28103  1  0  0  0
 28104  1  0  0  0
 29105  1  0  0  0
 29106  1  0  0  0
 33 34  1  0  0  0
 33 66  1  0  0  0
 33 70  2  0  0  0
 34 36  1  0  0  0
 34 59  1  0  0  0
 34107  1  0  0  0
 35 44  2  0  0  0
 35 45  1  0  0  0
 35 68  1  0  0  0
 36 56  1  0  0  0
 36108  1  0  0  0
 37 39  1  0  0  0
 37 47  1  0  0  0
 37 66  1  0  0  0
 37109  1  0  0  0
 38 43  2  0  0  0
 38 46  1  0  0  0
 38 47  1  0  0  0
 39 64  1  0  0  0
 39 67  2  0  0  0
 40 52  1  0  0  0
 40 53  2  0  0  0
 40 58  1  0  0  0
 41110  1  0  0  0
 41111  1  0  0  0
 41112  1  0  0  0
 41 48  1  0  0  0
 42 43  1  0  0  0
 42 66  1  0  0  0
 42113  1  0  0  0
 42114  1  0  0  0
 43 44  1  0  0  0
 44115  1  0  0  0
 45 46  2  0  0  0
 45116  1  0  0  0
 46117  1  0  0  0
 47118  1  0  0  0
 47119  1  0  0  0
 48 56  1  0  0  0
 48 65  1  0  0  0
 48120  1  0  0  0
 49 50  1  0  0  0
 49 53  1  0  0  0
 49 64  1  0  0  0
 49121  1  0  0  0
 50 51  1  0  0  0
 50122  1  0  0  0
 50123  1  0  0  0
 51 52  1  0  0  0
 51124  1  0  0  0
 51125  1  0  0  0
 52126  1  0  0  0
 52127  1  0  0  0
 53 54  1  0  0  0
 54 55  2  0  0  0
 54128  1  0  0  0
 55 57  1  0  0  0
 55129  1  0  0  0
 56 69  2  0  0  0
 57 58  2  0  0  0
 57130  1  0  0  0
 58131  1  0  0  0
 59 60  1  0  0  0
 59 61  1  0  0  0
 59 62  1  0  0  0
 60132  1  0  0  0
 60133  1  0  0  0
 60134  1  0  0  0
 61135  1  0  0  0
 61136  1  0  0  0
 61137  1  0  0  0
 62138  1  0  0  0
 62139  1  0  0  0
 62140  1  0  0  0
 63 65  1  0  0  0
 63141  1  0  0  0
 63142  1  0  0  0
 63143  1  0  0  0
 64144  1  0  0  0
 65145  1  0  0  0
 68 82  1  0  0  0
 71 72  2  0  0  0
 71 74  1  0  0  0
 71146  1  0  0  0
 72 75  1  0  0  0
 72147  1  0  0  0
 73 74  2  0  0  0
 73 76  1  0  0  0
 73148  1  0  0  0
 74 83  1  0  0  0
 75 76  2  0  0  0
 75 84  1  0  0  0
 76 86  1  0  0  0
 77 79  1  0  0  0
 77 83  1  0  0  0
 77149  1  0  0  0
 77150  1  0  0  0
 78 80  1  0  0  0
 78 83  1  0  0  0
 78151  1  0  0  0
 78152  1  0  0  0
 79 85  1  0  0  0
 79153  1  0  0  0
 79154  1  0  0  0
 80 85  1  0  0  0
 80155  1  0  0  0
 80156  1  0  0  0
 81 82  1  0  0  0
 81157  1  0  0  0
 81158  1  0  0  0
 81 85  1  0  0  0
 82159  1  0  0  0
 82160  1  0  0  0
 84161  1  0  0  0
 85162  1  0  0  0
M  CHG  1  85   1
M  ISO  4   1 100  68 101  82 101  84 100
M  END
> <chiral flag>
0

> <version>
0

> <s_m_source_file>
/data/baiqing/PycharmProjects/Reinvent-master-3.2/result/LINK_invent/BTK/process_docking_weight1_custom_product_contain_oxygen_bond_distance_aromatic_linkinvent_7_9_3/rearranged_h_0006.sdf

> <i_m_source_file_index>
60

> <r_mmod_Potential_Energy-OPLS-2005>
-86.9550247192383

> <r_mmod_Stretch_Energy-OPLS-2005>
38.7545471191406

> <r_mmod_Bend_Energy-OPLS-2005>
115.97444152832

> <r_mmod_Torsional_Energy-OPLS-2005>
285.294555664062

> <r_mmod_Improper_Torsional_Energy-OPLS-2005>
5.21851921081543

> <r_mmod_Van_der_Waal_Energy-OPLS-2005>
167.097030639648

> <r_mmod_Electrostatic_Energy-OPLS-2005>
-283.213836669922

> <r_mmod_Solvation_Energy-OPLS-2005>
-425.171844482422

> <b_mmod_Minimization_Converged-OPLS-2005>
0

> <r_mmod_RMS_Derivative-OPLS-2005>
0.513280928134918

$$$$
61
                    3D
 Structure written by MMmdl.
165174  0  0  1  0            999 V2000
  -30.4994  -15.1818   20.3915 C   0  0  0  0  0  0
  -30.4345  -12.7548   19.5201 C   0  0  0  0  0  0
  -29.5307  -12.5646   18.2796 C   0  0  0  0  0  0
  -28.0758  -12.3066   18.7073 C   0  0  0  0  0  0
  -27.6149  -13.2746   19.8259 C   0  0  2  0  0  0
  -28.6518  -13.4266   20.9592 C   0  0  0  0  0  0
  -25.2408  -13.8257   20.5778 C   0  0  0  0  0  0
  -24.1741  -13.0451   20.9246 C   0  0  0  0  0  0
  -24.6384  -11.6942   20.8750 C   0  0  0  0  0  0
  -23.9081  -10.4302   21.0399 C   0  0  0  0  0  0
  -24.3625   -9.4215   21.9179 C   0  0  0  0  0  0
  -23.6295   -8.2252   22.0751 C   0  0  0  0  0  0
  -22.4278   -8.0283   21.3545 C   0  0  0  0  0  0
  -21.9909   -9.0257   20.4647 C   0  0  0  0  0  0
  -22.7248  -10.2135   20.3055 C   0  0  0  0  0  0
  -21.6857   -6.0734   22.5274 C   0  0  0  0  0  0
  -21.4023   -6.5639   23.8207 C   0  0  0  0  0  0
  -21.3668   -5.6784   24.9164 C   0  0  0  0  0  0
  -21.6040   -4.3048   24.7213 C   0  0  0  0  0  0
  -21.8819   -3.8144   23.4334 C   0  0  0  0  0  0
  -21.9200   -4.6964   22.3398 C   0  0  0  0  0  0
  -22.7765  -13.5210   21.1895 C   0  0  0  0  0  0
  -22.1668   -4.2153   21.0972 F   0  0  0  0  0  0
  -21.5629   -3.4531   25.7724 F   0  0  0  0  0  0
  -29.8939  -13.9020   20.3322 N   0  0  0  0  0  0
  -26.2831  -12.9529   20.3247 N   0  0  0  0  0  0
  -25.9320  -11.6637   20.5709 N   0  0  0  0  0  0
  -22.0421  -12.8191   22.0445 N   0  0  0  0  0  0
  -25.4062  -15.1994   20.4284 N   0  0  0  0  0  0
  -31.7177  -15.1543   20.1711 O   0  0  0  0  0  0
  -21.6642   -6.8877   21.4240 O   0  0  0  0  0  0
  -22.3453  -14.5516   20.6739 O   0  0  0  0  0  0
  -24.6565  -31.8294   23.1755 C   0  0  0  0  0  0
  -25.9271  -32.4617   23.8196 C   0  0  1  0  0  0
  -27.2168  -26.9824   20.1764 C   0  0  0  0  0  0
  -25.5962  -33.8433   24.2106 N   0  0  0  0  0  0
  -23.4687  -30.4427   21.5230 C   0  0  2  0  0  0
  -24.9209  -28.8395   20.1102 C   0  0  0  0  0  0
  -22.7635  -29.4468   22.4797 C   0  0  0  0  0  0
  -18.0317  -28.1412   22.8468 C   0  0  0  0  0  0
  -24.1493  -36.7221   23.2641 C   0  0  0  0  0  0
  -26.0333  -30.6513   21.3999 C   0  0  0  0  0  0
  -26.0999  -29.2455   20.7476 C   0  0  0  0  0  0
  -27.2401  -28.3323   20.7654 C   0  0  0  0  0  0
  -26.0160  -26.7211   19.4786 C   0  0  0  0  0  0
  -24.9006  -27.5967   19.4587 C   0  0  0  0  0  0
  -23.7058  -29.7630   20.1462 C   0  0  0  0  0  0
  -25.4129  -36.2987   24.0302 C   0  0  1  0  0  0
  -20.5939  -28.3750   23.1201 C   0  0  2  0  0  0
  -20.6799  -26.9438   22.5404 C   0  0  0  0  0  0
  -19.5771  -26.6385   21.5215 C   0  0  0  0  0  0
  -18.1955  -26.7946   22.1627 C   0  0  0  0  0  0
  -19.1578  -28.8901   23.2827 C   0  0  0  0  0  0
  -18.9491  -30.1490   23.8861 C   0  0  0  0  0  0
  -17.6486  -30.6603   24.0561 C   0  0  0  0  0  0
  -25.9091  -34.9366   23.5024 C   0  0  0  0  0  0
  -16.5375  -29.9091   23.6342 C   0  0  0  0  0  0
  -16.7302  -28.6515   23.0354 C   0  0  0  0  0  0
  -26.4539  -31.6542   25.0704 C   0  0  0  0  0  0
  -25.3684  -31.3773   26.1376 C   0  0  0  0  0  0
  -27.0420  -30.2916   24.6393 C   0  0  0  0  0  0
  -27.6046  -32.4338   25.7499 C   0  0  0  0  0  0
  -27.5579  -37.1752   24.8455 C   0  0  0  0  0  0
  -21.4310  -29.3042   22.3545 N   0  0  0  0  0  0
  -26.4271  -37.3725   23.9418 N   0  0  0  0  0  0
  -24.7403  -31.0004   22.0871 N   0  0  0  0  0  0
  -23.4209  -28.8039   23.3023 O   0  0  0  0  0  0
  -28.2430  -25.9179   20.2492 O   0  0  0  0  0  0
  -26.5708  -34.8889   22.4624 O   0  0  0  0  0  0
  -23.5647  -32.1248   23.6872 O   0  0  0  0  0  0
  -30.3175  -21.6132   21.5450 C   0  0  0  0  0  0
  -29.6954  -22.8789   21.2038 C   0  0  0  0  0  0
  -28.2400  -21.6464   19.8076 C   0  0  0  0  0  0
  -29.9597  -20.3124   21.0330 C   0  0  0  0  0  0
  -28.8862  -20.3174   20.1233 C   0  0  0  0  0  0
  -28.5926  -23.0187   20.3099 C   0  0  0  0  0  0
  -28.4285  -18.8467   19.6179 C   0  0  0  0  0  0
  -29.3644  -17.4613   19.4085 C   0  0  0  0  0  0
  -30.0487  -17.4909   21.6432 C   0  0  0  0  0  0
  -30.7443  -18.9668   21.4370 C   0  0  1  0  0  0
  -32.1154  -18.8325   20.7240 C   0  0  0  0  0  0
  -33.0911  -20.0083   20.9453 C   0  0  0  0  0  0
  -34.5467  -19.7195   20.5267 C   0  0  0  0  0  0
  -29.8066  -16.4817   20.5248 N   0  0  0  0  0  0
  -27.8746  -24.3384   19.9902 N   0  0  0  0  0  0
  -34.6895  -19.4109   19.0930 N   0  3  0  0  0  0
  -31.4596  -12.9330   19.1945 H   0  0  0  0  0  0
  -30.4732  -11.8427   20.1169 H   0  0  0  0  0  0
  -29.8956  -11.7418   17.6642 H   0  0  0  0  0  0
  -29.5756  -13.4592   17.6562 H   0  0  0  0  0  0
  -28.0157  -11.2791   19.0679 H   0  0  0  0  0  0
  -27.4098  -12.3706   17.8460 H   0  0  0  0  0  0
  -27.5370  -14.2483   19.3413 H   0  0  0  0  0  0
  -28.8008  -12.4883   21.4952 H   0  0  0  0  0  0
  -28.3077  -14.1577   21.6922 H   0  0  0  0  0  0
  -25.2769   -9.5698   22.4755 H   0  0  0  0  0  0
  -24.0007   -7.4646   22.7469 H   0  0  0  0  0  0
  -21.0842   -8.8782   19.8951 H   0  0  0  0  0  0
  -22.3704  -10.9672   19.6169 H   0  0  0  0  0  0
  -21.2012   -7.6143   23.9711 H   0  0  0  0  0  0
  -21.1496   -6.0509   25.9066 H   0  0  0  0  0  0
  -22.0590   -2.7604   23.2824 H   0  0  0  0  0  0
  -22.4054  -11.9872   22.4848 H   0  0  0  0  0  0
  -21.1044  -13.1226   22.2657 H   0  0  0  0  0  0
  -24.6410  -15.8518   20.5573 H   0  0  0  0  0  0
  -26.2635  -15.6470   20.1307 H   0  0  0  0  0  0
  -26.7342  -32.5175   23.0913 H   0  0  0  0  0  0
  -25.0029  -33.9524   25.0201 H   0  0  0  0  0  0
  -22.7791  -31.2733   21.3571 H   0  0  0  0  0  0
  -23.3775  -35.9531   23.3248 H   0  0  0  0  0  0
  -24.3583  -36.8924   22.2070 H   0  0  0  0  0  0
  -23.7224  -37.6380   23.6734 H   0  0  0  0  0  0
  -26.2059  -31.3941   20.6197 H   0  0  0  0  0  0
  -26.8969  -30.7086   22.0505 H   0  0  0  0  0  0
  -28.1340  -28.6371   21.2917 H   0  0  0  0  0  0
  -25.9030  -25.7788   18.9655 H   0  0  0  0  0  0
  -24.0059  -27.2838   18.9373 H   0  0  0  0  0  0
  -23.8594  -30.5350   19.3909 H   0  0  0  0  0  0
  -22.8162  -29.2165   19.8283 H   0  0  0  0  0  0
  -25.1318  -36.1780   25.0789 H   0  0  0  0  0  0
  -21.0033  -28.3359   24.1324 H   0  0  0  0  0  0
  -20.5682  -26.2369   23.3640 H   0  0  0  0  0  0
  -21.6663  -26.7425   22.1209 H   0  0  0  0  0  0
  -19.6931  -25.6285   21.1274 H   0  0  0  0  0  0
  -19.6708  -27.3168   20.6725 H   0  0  0  0  0  0
  -17.4220  -26.6682   21.4036 H   0  0  0  0  0  0
  -18.0357  -26.0103   22.9041 H   0  0  0  0  0  0
  -19.7964  -30.7317   24.2218 H   0  0  0  0  0  0
  -17.5035  -31.6274   24.5178 H   0  0  0  0  0  0
  -15.5372  -30.2983   23.7682 H   0  0  0  0  0  0
  -15.8704  -28.0819   22.7088 H   0  0  0  0  0  0
  -24.5852  -30.7150   25.7666 H   0  0  0  0  0  0
  -24.8894  -32.2974   26.4736 H   0  0  0  0  0  0
  -25.7926  -30.8958   27.0198 H   0  0  0  0  0  0
  -26.3062  -29.6610   24.1396 H   0  0  0  0  0  0
  -27.3959  -29.7261   25.5019 H   0  0  0  0  0  0
  -27.9004  -30.4100   23.9784 H   0  0  0  0  0  0
  -27.2620  -33.3663   26.1998 H   0  0  0  0  0  0
  -28.3898  -32.6865   25.0362 H   0  0  0  0  0  0
  -28.0678  -31.8525   26.5482 H   0  0  0  0  0  0
  -28.2535  -38.0107   24.7567 H   0  0  0  0  0  0
  -28.1137  -36.2636   24.6194 H   0  0  0  0  0  0
  -27.2312  -37.1295   25.8858 H   0  0  0  0  0  0
  -20.9553  -29.8726   21.6673 H   0  0  0  0  0  0
  -26.0119  -38.2771   24.1473 H   0  0  0  0  0  0
  -31.1349  -21.6602   22.2500 H   0  0  0  0  0  0
  -30.0793  -23.7734   21.6732 H   0  0  0  0  0  0
  -27.3970  -21.6020   19.1331 H   0  0  0  0  0  0
  -27.9917  -19.0448   18.6385 H   0  0  0  0  0  0
  -27.5732  -18.5697   20.2348 H   0  0  0  0  0  0
  -30.2298  -17.7043   18.7939 H   0  0  0  0  0  0
  -28.7660  -16.8220   18.7577 H   0  0  0  0  0  0
  -29.1066  -17.6278   22.1755 H   0  0  0  0  0  0
  -30.6789  -16.9615   22.3597 H   0  0  0  0  0  0
  -31.0100  -19.2066   22.4682 H   0  0  0  0  0  0
  -31.9659  -18.7060   19.6544 H   0  0  0  0  0  0
  -32.5950  -17.9170   21.0729 H   0  0  0  0  0  0
  -33.1028  -20.2644   22.0052 H   0  0  0  0  0  0
  -32.7352  -20.8969   20.4236 H   0  0  0  0  0  0
  -34.9581  -18.8987   21.1152 H   0  0  0  0  0  0
  -35.1618  -20.5928   20.7512 H   0  0  0  0  0  0
  -26.9467  -24.2799   19.5805 H   0  0  0  0  0  0
  -34.2443  -18.5400   18.8658 H   0  0  0  0  0  0
  -35.6647  -19.3273   18.8647 H   0  0  0  0  0  0
  -34.3015  -20.1418   18.5240 H   0  0  0  0  0  0
  1 25  1  0  0  0
  1 30  2  0  0  0
  1 84  1  0  0  0
  2  3  1  0  0  0
  2 25  1  0  0  0
  2 87  1  0  0  0
  2 88  1  0  0  0
  3  4  1  0  0  0
  3 89  1  0  0  0
  3 90  1  0  0  0
  4  5  1  0  0  0
  4 91  1  0  0  0
  4 92  1  0  0  0
  5  6  1  0  0  0
  5 26  1  0  0  0
  5 93  1  0  0  0
  6 25  1  0  0  0
  6 94  1  0  0  0
  6 95  1  0  0  0
  7  8  2  0  0  0
  7 26  1  0  0  0
  7 29  1  0  0  0
  8  9  1  0  0  0
  8 22  1  0  0  0
  9 10  1  0  0  0
  9 27  2  0  0  0
 10 11  2  0  0  0
 10 15  1  0  0  0
 11 12  1  0  0  0
 11 96  1  0  0  0
 12 13  2  0  0  0
 12 97  1  0  0  0
 13 14  1  0  0  0
 13 31  1  0  0  0
 14 15  2  0  0  0
 14 98  1  0  0  0
 15 99  1  0  0  0
 16 17  2  0  0  0
 16 21  1  0  0  0
 16 31  1  0  0  0
 17 18  1  0  0  0
 17100  1  0  0  0
 18 19  2  0  0  0
 18101  1  0  0  0
 19 20  1  0  0  0
 19 24  1  0  0  0
 20 21  2  0  0  0
 20102  1  0  0  0
 21 23  1  0  0  0
 22 28  1  0  0  0
 22 32  2  0  0  0
 26 27  1  0  0  0
 28103  1  0  0  0
 28104  1  0  0  0
 29105  1  0  0  0
 29106  1  0  0  0
 33 34  1  0  0  0
 33 66  1  0  0  0
 33 70  2  0  0  0
 34 36  1  0  0  0
 34 59  1  0  0  0
 34107  1  0  0  0
 35 44  2  0  0  0
 35 45  1  0  0  0
 35 68  1  0  0  0
 36 56  1  0  0  0
 36108  1  0  0  0
 37 39  1  0  0  0
 37 47  1  0  0  0
 37 66  1  0  0  0
 37109  1  0  0  0
 38 43  2  0  0  0
 38 46  1  0  0  0
 38 47  1  0  0  0
 39 64  1  0  0  0
 39 67  2  0  0  0
 40 52  1  0  0  0
 40 53  2  0  0  0
 40 58  1  0  0  0
 41110  1  0  0  0
 41111  1  0  0  0
 41112  1  0  0  0
 41 48  1  0  0  0
 42 43  1  0  0  0
 42 66  1  0  0  0
 42113  1  0  0  0
 42114  1  0  0  0
 43 44  1  0  0  0
 44115  1  0  0  0
 45 46  2  0  0  0
 45116  1  0  0  0
 46117  1  0  0  0
 47118  1  0  0  0
 47119  1  0  0  0
 48 56  1  0  0  0
 48 65  1  0  0  0
 48120  1  0  0  0
 49 50  1  0  0  0
 49 53  1  0  0  0
 49 64  1  0  0  0
 49121  1  0  0  0
 50 51  1  0  0  0
 50122  1  0  0  0
 50123  1  0  0  0
 51 52  1  0  0  0
 51124  1  0  0  0
 51125  1  0  0  0
 52126  1  0  0  0
 52127  1  0  0  0
 53 54  1  0  0  0
 54 55  2  0  0  0
 54128  1  0  0  0
 55 57  1  0  0  0
 55129  1  0  0  0
 56 69  2  0  0  0
 57 58  2  0  0  0
 57130  1  0  0  0
 58131  1  0  0  0
 59 60  1  0  0  0
 59 61  1  0  0  0
 59 62  1  0  0  0
 60132  1  0  0  0
 60133  1  0  0  0
 60134  1  0  0  0
 61135  1  0  0  0
 61136  1  0  0  0
 61137  1  0  0  0
 62138  1  0  0  0
 62139  1  0  0  0
 62140  1  0  0  0
 63 65  1  0  0  0
 63141  1  0  0  0
 63142  1  0  0  0
 63143  1  0  0  0
 64144  1  0  0  0
 65145  1  0  0  0
 68 85  1  0  0  0
 71 72  2  0  0  0
 71 74  1  0  0  0
 71146  1  0  0  0
 72 76  1  0  0  0
 72147  1  0  0  0
 73 75  1  0  0  0
 73 76  2  0  0  0
 73148  1  0  0  0
 74 75  2  0  0  0
 74 80  1  0  0  0
 75 77  1  0  0  0
 76 85  1  0  0  0
 77 78  1  0  0  0
 77149  1  0  0  0
 77150  1  0  0  0
 78 84  1  0  0  0
 78151  1  0  0  0
 78152  1  0  0  0
 79 80  1  0  0  0
 79 84  1  0  0  0
 79153  1  0  0  0
 79154  1  0  0  0
 80 81  1  0  0  0
 80155  1  0  0  0
 81 82  1  0  0  0
 81156  1  0  0  0
 81157  1  0  0  0
 82 83  1  0  0  0
 82158  1  0  0  0
 82159  1  0  0  0
 83 86  1  0  0  0
 83160  1  0  0  0
 83161  1  0  0  0
 85162  1  0  0  0
 86163  1  0  0  0
 86164  1  0  0  0
 86165  1  0  0  0
M  CHG  1  86   1
M  ISO  4   1 100  68 101  84 100  85 101
M  END
> <chiral flag>
0

> <version>
0

> <s_m_source_file>
/data/baiqing/PycharmProjects/Reinvent-master-3.2/result/LINK_invent/BTK/process_docking_weight1_custom_product_contain_oxygen_bond_distance_aromatic_linkinvent_7_9_3/rearranged_h_0006.sdf

> <i_m_source_file_index>
61

> <r_mmod_Potential_Energy-OPLS-2005>
862.718444824219

> <r_mmod_Stretch_Energy-OPLS-2005>
393.732757568359

> <r_mmod_Bend_Energy-OPLS-2005>
408.336669921875

> <r_mmod_Torsional_Energy-OPLS-2005>
341.190490722656

> <r_mmod_Improper_Torsional_Energy-OPLS-2005>
6.30930185317993

> <r_mmod_Van_der_Waal_Energy-OPLS-2005>
126.479850769043

> <r_mmod_Electrostatic_Energy-OPLS-2005>
-301.697113037109

> <r_mmod_Solvation_Energy-OPLS-2005>
-484.799896240234

> <b_mmod_Minimization_Converged-OPLS-2005>
0

> <r_mmod_RMS_Derivative-OPLS-2005>
1.69614100456238

$$$$
62
                    3D
 Structure written by MMmdl.
156165  0  0  1  0            999 V2000
  -30.5497  -14.7821   20.4519 C   0  0  0  0  0  0
  -30.4512  -12.4771   19.4671 C   0  0  0  0  0  0
  -29.5168  -12.5175   18.2348 C   0  0  0  0  0  0
  -28.0424  -12.3294   18.6487 C   0  0  0  0  0  0
  -27.6444  -13.2226   19.8529 C   0  0  2  0  0  0
  -28.6921  -13.1382   20.9851 C   0  0  0  0  0  0
  -25.2523  -13.8162   20.5686 C   0  0  0  0  0  0
  -24.1812  -13.0422   20.9211 C   0  0  0  0  0  0
  -24.6396  -11.6899   20.8750 C   0  0  0  0  0  0
  -23.9069  -10.4285   21.0413 C   0  0  0  0  0  0
  -24.3619   -9.4199   21.9189 C   0  0  0  0  0  0
  -23.6291   -8.2237   22.0756 C   0  0  0  0  0  0
  -22.4272   -8.0280   21.3548 C   0  0  0  0  0  0
  -21.9911   -9.0255   20.4650 C   0  0  0  0  0  0
  -22.7244  -10.2132   20.3060 C   0  0  0  0  0  0
  -21.6851   -6.0736   22.5281 C   0  0  0  0  0  0
  -21.4012   -6.5641   23.8214 C   0  0  0  0  0  0
  -21.3657   -5.6792   24.9175 C   0  0  0  0  0  0
  -21.6043   -4.3055   24.7225 C   0  0  0  0  0  0
  -21.8818   -3.8148   23.4346 C   0  0  0  0  0  0
  -21.9190   -4.6965   22.3402 C   0  0  0  0  0  0
  -22.7835  -13.5213   21.1867 C   0  0  0  0  0  0
  -22.1659   -4.2151   21.0978 F   0  0  0  0  0  0
  -21.5632   -3.4539   25.7738 F   0  0  0  0  0  0
  -29.9901  -13.5215   20.4096 N   0  0  0  0  0  0
  -26.2948  -12.9354   20.3280 N   0  0  0  0  0  0
  -25.9323  -11.6507   20.5748 N   0  0  0  0  0  0
  -22.0477  -12.8207   22.0424 N   0  0  0  0  0  0
  -25.4191  -15.1887   20.4079 N   0  0  0  0  0  0
  -31.7364  -14.9440   20.1486 O   0  0  0  0  0  0
  -21.6636   -6.8880   21.4243 O   0  0  0  0  0  0
  -22.3524  -14.5520   20.6712 O   0  0  0  0  0  0
  -24.6339  -31.8517   23.1948 C   0  0  0  0  0  0
  -25.9154  -32.4737   23.8303 C   0  0  1  0  0  0
  -27.2274  -27.2423   20.1355 C   0  0  0  0  0  0
  -25.5933  -33.8539   24.2223 N   0  0  0  0  0  0
  -23.4318  -30.4723   21.5387 C   0  0  2  0  0  0
  -24.8800  -28.9099   20.1135 C   0  0  0  0  0  0
  -22.7511  -29.4586   22.4901 C   0  0  0  0  0  0
  -18.0295  -28.1392   22.8489 C   0  0  0  0  0  0
  -24.1489  -36.7276   23.2641 C   0  0  0  0  0  0
  -25.9785  -30.7606   21.3753 C   0  0  0  0  0  0
  -26.0528  -29.3806   20.7177 C   0  0  0  0  0  0
  -27.2303  -28.5624   20.7080 C   0  0  0  0  0  0
  -26.0273  -26.8349   19.5159 C   0  0  0  0  0  0
  -24.8735  -27.6464   19.5006 C   0  0  0  0  0  0
  -23.6514  -29.8000   20.1573 C   0  0  0  0  0  0
  -25.4120  -36.3059   24.0318 C   0  0  1  0  0  0
  -20.5900  -28.3705   23.1269 C   0  0  2  0  0  0
  -20.6780  -26.9419   22.5412 C   0  0  0  0  0  0
  -19.5751  -26.6385   21.5219 C   0  0  0  0  0  0
  -18.1932  -26.7933   22.1630 C   0  0  0  0  0  0
  -19.1550  -28.8867   23.2870 C   0  0  0  0  0  0
  -18.9468  -30.1470   23.8883 C   0  0  0  0  0  0
  -17.6466  -30.6588   24.0569 C   0  0  0  0  0  0
  -25.9061  -34.9431   23.5076 C   0  0  0  0  0  0
  -16.5358  -29.9085   23.6338 C   0  0  0  0  0  0
  -16.7283  -28.6507   23.0353 C   0  0  0  0  0  0
  -26.4508  -31.6580   25.0714 C   0  0  0  0  0  0
  -25.3720  -31.3737   26.1428 C   0  0  0  0  0  0
  -27.0367  -30.2994   24.6228 C   0  0  0  0  0  0
  -27.6052  -32.4335   25.7491 C   0  0  0  0  0  0
  -27.5578  -37.1792   24.8462 C   0  0  0  0  0  0
  -21.4215  -29.3043   22.3648 N   0  0  0  0  0  0
  -26.4290  -37.3764   23.9408 N   0  0  0  0  0  0
  -24.7007  -31.0466   22.0929 N   0  0  0  0  0  0
  -23.4199  -28.8135   23.3019 O   0  0  0  0  0  0
  -28.3394  -26.3630   20.1640 O   0  0  0  0  0  0
  -26.5638  -34.8918   22.4649 O   0  0  0  0  0  0
  -23.5488  -32.1342   23.7240 O   0  0  0  0  0  0
  -28.3438  -19.3846   19.8152 C   0  0  0  0  0  0
  -28.5074  -17.9604   19.9085 C   0  0  0  0  0  0
  -30.6354  -18.2504   20.9277 C   0  0  0  0  0  0
  -29.2993  -20.3271   20.3006 C   0  0  0  0  0  0
  -29.6563  -17.3212   20.4627 C   0  0  0  0  0  0
  -30.4621  -19.6859   20.8597 C   0  0  0  0  0  0
  -28.1729  -23.9423   19.0682 C   0  0  0  0  0  0
  -29.3328  -24.1991   21.1774 C   0  0  0  0  0  0
  -28.0592  -22.3741   19.3373 C   0  0  0  0  0  0
  -29.2464  -22.6279   21.4245 C   0  0  0  0  0  0
  -28.1825  -24.8623   20.3399 C   0  0  0  0  0  0
  -29.1081  -21.7861   20.2106 N   0  0  0  0  0  0
  -29.6581  -15.8348   20.6374 N   0  0  0  0  0  0
  -31.4650  -20.4602   21.3431 F   0  0  0  0  0  0
  -31.4864  -12.6362   19.1599 H   0  0  0  0  0  0
  -30.4249  -11.4955   19.9430 H   0  0  0  0  0  0
  -29.8036  -11.7484   17.5166 H   0  0  0  0  0  0
  -29.6314  -13.4729   17.7202 H   0  0  0  0  0  0
  -27.9045  -11.2791   18.9076 H   0  0  0  0  0  0
  -27.3840  -12.5218   17.8008 H   0  0  0  0  0  0
  -27.6385  -14.2450   19.4756 H   0  0  0  0  0  0
  -28.7391  -12.1279   21.3941 H   0  0  0  0  0  0
  -28.4213  -13.7880   21.8191 H   0  0  0  0  0  0
  -25.2766   -9.5671   22.4760 H   0  0  0  0  0  0
  -24.0001   -7.4626   22.7474 H   0  0  0  0  0  0
  -21.0844   -8.8777   19.8950 H   0  0  0  0  0  0
  -22.3710  -10.9673   19.6169 H   0  0  0  0  0  0
  -21.2004   -7.6150   23.9720 H   0  0  0  0  0  0
  -21.1482   -6.0523   25.9079 H   0  0  0  0  0  0
  -22.0598   -2.7609   23.2850 H   0  0  0  0  0  0
  -22.4090  -11.9868   22.4810 H   0  0  0  0  0  0
  -21.1097  -13.1239   22.2630 H   0  0  0  0  0  0
  -24.6424  -15.8335   20.5071 H   0  0  0  0  0  0
  -26.2475  -15.6259   20.0291 H   0  0  0  0  0  0
  -26.7223  -32.5378   23.1045 H   0  0  0  0  0  0
  -25.0076  -33.9667   25.0366 H   0  0  0  0  0  0
  -22.7303  -31.2954   21.3883 H   0  0  0  0  0  0
  -23.3758  -35.9600   23.3296 H   0  0  0  0  0  0
  -24.3575  -36.8914   22.2056 H   0  0  0  0  0  0
  -23.7236  -37.6468   23.6683 H   0  0  0  0  0  0
  -26.1195  -31.5212   20.6059 H   0  0  0  0  0  0
  -26.8546  -30.8096   22.0105 H   0  0  0  0  0  0
  -28.1325  -28.9225   21.1828 H   0  0  0  0  0  0
  -25.9640  -25.8649   19.0479 H   0  0  0  0  0  0
  -23.9746  -27.2783   19.0249 H   0  0  0  0  0  0
  -23.7768  -30.5729   19.3980 H   0  0  0  0  0  0
  -22.7698  -29.2326   19.8542 H   0  0  0  0  0  0
  -25.1305  -36.1894   25.0809 H   0  0  0  0  0  0
  -20.9994  -28.3290   24.1390 H   0  0  0  0  0  0
  -20.5687  -26.2313   23.3617 H   0  0  0  0  0  0
  -21.6645  -26.7438   22.1205 H   0  0  0  0  0  0
  -19.6912  -25.6295   21.1250 H   0  0  0  0  0  0
  -19.6690  -27.3195   20.6750 H   0  0  0  0  0  0
  -17.4201  -26.6695   21.4029 H   0  0  0  0  0  0
  -18.0323  -26.0073   22.9026 H   0  0  0  0  0  0
  -19.7942  -30.7297   24.2236 H   0  0  0  0  0  0
  -17.5016  -31.6266   24.5178 H   0  0  0  0  0  0
  -15.5357  -30.2981   23.7665 H   0  0  0  0  0  0
  -15.8686  -28.0824   22.7065 H   0  0  0  0  0  0
  -24.5896  -30.7090   25.7748 H   0  0  0  0  0  0
  -24.8916  -32.2912   26.4837 H   0  0  0  0  0  0
  -25.8023  -30.8917   27.0217 H   0  0  0  0  0  0
  -26.2963  -29.6728   24.1243 H   0  0  0  0  0  0
  -27.4028  -29.7273   25.4764 H   0  0  0  0  0  0
  -27.8847  -30.4261   23.9494 H   0  0  0  0  0  0
  -27.2648  -33.3644   26.2038 H   0  0  0  0  0  0
  -28.3874  -32.6881   25.0328 H   0  0  0  0  0  0
  -28.0710  -31.8484   26.5431 H   0  0  0  0  0  0
  -28.2586  -38.0099   24.7521 H   0  0  0  0  0  0
  -28.1083  -36.2630   24.6278 H   0  0  0  0  0  0
  -27.2294  -37.1424   25.8863 H   0  0  0  0  0  0
  -20.9404  -29.8751   21.6838 H   0  0  0  0  0  0
  -26.0163  -38.2830   24.1427 H   0  0  0  0  0  0
  -27.4285  -19.7454   19.3710 H   0  0  0  0  0  0
  -27.7001  -17.3452   19.5384 H   0  0  0  0  0  0
  -31.5355  -17.8695   21.3860 H   0  0  0  0  0  0
  -27.3535  -24.2377   18.4141 H   0  0  0  0  0  0
  -29.0800  -24.1299   18.4922 H   0  0  0  0  0  0
  -30.2846  -24.4173   20.6914 H   0  0  0  0  0  0
  -29.3852  -24.6958   22.1468 H   0  0  0  0  0  0
  -28.0744  -21.8574   18.3767 H   0  0  0  0  0  0
  -27.0836  -22.1619   19.7780 H   0  0  0  0  0  0
  -28.3936  -22.4222   22.0735 H   0  0  0  0  0  0
  -30.1268  -22.3187   21.9875 H   0  0  0  0  0  0
  -27.2519  -24.6954   20.8844 H   0  0  0  0  0  0
  -28.7336  -15.4613   20.7865 H   0  0  0  0  0  0
  1 25  1  0  0  0
  1 30  2  0  0  0
  1 83  1  0  0  0
  2  3  1  0  0  0
  2 25  1  0  0  0
  2 85  1  0  0  0
  2 86  1  0  0  0
  3  4  1  0  0  0
  3 87  1  0  0  0
  3 88  1  0  0  0
  4  5  1  0  0  0
  4 89  1  0  0  0
  4 90  1  0  0  0
  5  6  1  0  0  0
  5 26  1  0  0  0
  5 91  1  0  0  0
  6 25  1  0  0  0
  6 92  1  0  0  0
  6 93  1  0  0  0
  7  8  2  0  0  0
  7 26  1  0  0  0
  7 29  1  0  0  0
  8  9  1  0  0  0
  8 22  1  0  0  0
  9 10  1  0  0  0
  9 27  2  0  0  0
 10 11  2  0  0  0
 10 15  1  0  0  0
 11 12  1  0  0  0
 11 94  1  0  0  0
 12 13  2  0  0  0
 12 95  1  0  0  0
 13 14  1  0  0  0
 13 31  1  0  0  0
 14 15  2  0  0  0
 14 96  1  0  0  0
 15 97  1  0  0  0
 16 17  2  0  0  0
 16 21  1  0  0  0
 16 31  1  0  0  0
 17 18  1  0  0  0
 17 98  1  0  0  0
 18 19  2  0  0  0
 18 99  1  0  0  0
 19 20  1  0  0  0
 19 24  1  0  0  0
 20 21  2  0  0  0
 20100  1  0  0  0
 21 23  1  0  0  0
 22 28  1  0  0  0
 22 32  2  0  0  0
 26 27  1  0  0  0
 28101  1  0  0  0
 28102  1  0  0  0
 29103  1  0  0  0
 29104  1  0  0  0
 33 34  1  0  0  0
 33 66  1  0  0  0
 33 70  2  0  0  0
 34 36  1  0  0  0
 34 59  1  0  0  0
 34105  1  0  0  0
 35 44  2  0  0  0
 35 45  1  0  0  0
 35 68  1  0  0  0
 36 56  1  0  0  0
 36106  1  0  0  0
 37 39  1  0  0  0
 37 47  1  0  0  0
 37 66  1  0  0  0
 37107  1  0  0  0
 38 43  2  0  0  0
 38 46  1  0  0  0
 38 47  1  0  0  0
 39 64  1  0  0  0
 39 67  2  0  0  0
 40 52  1  0  0  0
 40 53  2  0  0  0
 40 58  1  0  0  0
 41108  1  0  0  0
 41109  1  0  0  0
 41110  1  0  0  0
 41 48  1  0  0  0
 42 43  1  0  0  0
 42 66  1  0  0  0
 42111  1  0  0  0
 42112  1  0  0  0
 43 44  1  0  0  0
 44113  1  0  0  0
 45 46  2  0  0  0
 45114  1  0  0  0
 46115  1  0  0  0
 47116  1  0  0  0
 47117  1  0  0  0
 48 56  1  0  0  0
 48 65  1  0  0  0
 48118  1  0  0  0
 49 50  1  0  0  0
 49 53  1  0  0  0
 49 64  1  0  0  0
 49119  1  0  0  0
 50 51  1  0  0  0
 50120  1  0  0  0
 50121  1  0  0  0
 51 52  1  0  0  0
 51122  1  0  0  0
 51123  1  0  0  0
 52124  1  0  0  0
 52125  1  0  0  0
 53 54  1  0  0  0
 54 55  2  0  0  0
 54126  1  0  0  0
 55 57  1  0  0  0
 55127  1  0  0  0
 56 69  2  0  0  0
 57 58  2  0  0  0
 57128  1  0  0  0
 58129  1  0  0  0
 59 60  1  0  0  0
 59 61  1  0  0  0
 59 62  1  0  0  0
 60130  1  0  0  0
 60131  1  0  0  0
 60132  1  0  0  0
 61133  1  0  0  0
 61134  1  0  0  0
 61135  1  0  0  0
 62136  1  0  0  0
 62137  1  0  0  0
 62138  1  0  0  0
 63 65  1  0  0  0
 63139  1  0  0  0
 63140  1  0  0  0
 63141  1  0  0  0
 64142  1  0  0  0
 65143  1  0  0  0
 68 81  1  0  0  0
 71 72  2  0  0  0
 71 74  1  0  0  0
 71144  1  0  0  0
 72 75  1  0  0  0
 72145  1  0  0  0
 73 75  2  0  0  0
 73 76  1  0  0  0
 73146  1  0  0  0
 74 76  2  0  0  0
 74 82  1  0  0  0
 75 83  1  0  0  0
 76 84  1  0  0  0
 77 79  1  0  0  0
 77 81  1  0  0  0
 77147  1  0  0  0
 77148  1  0  0  0
 78 80  1  0  0  0
 78 81  1  0  0  0
 78149  1  0  0  0
 78150  1  0  0  0
 79 82  1  0  0  0
 79151  1  0  0  0
 79152  1  0  0  0
 80 82  1  0  0  0
 80153  1  0  0  0
 80154  1  0  0  0
 81155  1  0  0  0
 83156  1  0  0  0
M  ISO  4   1 100  68 101  81 101  83 100
M  END
> <chiral flag>
0

> <version>
0

> <s_m_source_file>
/data/baiqing/PycharmProjects/Reinvent-master-3.2/result/LINK_invent/BTK/process_docking_weight1_custom_product_contain_oxygen_bond_distance_aromatic_linkinvent_7_9_3/rearranged_h_0006.sdf

> <i_m_source_file_index>
62

> <r_mmod_Potential_Energy-OPLS-2005>
254.181579589844

> <r_mmod_Stretch_Energy-OPLS-2005>
125.977783203125

> <r_mmod_Bend_Energy-OPLS-2005>
190.887908935547

> <r_mmod_Torsional_Energy-OPLS-2005>
258.732482910156

> <r_mmod_Improper_Torsional_Energy-OPLS-2005>
9.17599487304688

> <r_mmod_Van_der_Waal_Energy-OPLS-2005>
136.813186645508

> <r_mmod_Electrostatic_Energy-OPLS-2005>
-338.643615722656

> <r_mmod_Solvation_Energy-OPLS-2005>
-226.951202392578

> <b_mmod_Minimization_Converged-OPLS-2005>
0

> <r_mmod_RMS_Derivative-OPLS-2005>
0.569487690925598

$$$$
63
                    3D
 Structure written by MMmdl.
158167  0  0  1  0            999 V2000
  -30.7000  -14.6030   20.4952 C   0  0  0  0  0  0
  -30.4118  -12.3727   19.4574 C   0  0  0  0  0  0
  -29.4946  -12.4897   18.2230 C   0  0  0  0  0  0
  -28.0196  -12.3391   18.6378 C   0  0  0  0  0  0
  -27.6446  -13.2274   19.8556 C   0  0  2  0  0  0
  -28.6905  -13.1261   20.9886 C   0  0  0  0  0  0
  -25.2494  -13.8179   20.5662 C   0  0  0  0  0  0
  -24.1797  -13.0433   20.9222 C   0  0  0  0  0  0
  -24.6391  -11.6915   20.8775 C   0  0  0  0  0  0
  -23.9068  -10.4287   21.0423 C   0  0  0  0  0  0
  -24.3615   -9.4195   21.9199 C   0  0  0  0  0  0
  -23.6290   -8.2233   22.0754 C   0  0  0  0  0  0
  -22.4276   -8.0276   21.3541 C   0  0  0  0  0  0
  -21.9917   -9.0249   20.4647 C   0  0  0  0  0  0
  -22.7243  -10.2132   20.3064 C   0  0  0  0  0  0
  -21.6853   -6.0734   22.5277 C   0  0  0  0  0  0
  -21.4008   -6.5635   23.8207 C   0  0  0  0  0  0
  -21.3658   -5.6792   24.9178 C   0  0  0  0  0  0
  -21.6046   -4.3056   24.7229 C   0  0  0  0  0  0
  -21.8819   -3.8143   23.4349 C   0  0  0  0  0  0
  -21.9187   -4.6961   22.3405 C   0  0  0  0  0  0
  -22.7817  -13.5216   21.1874 C   0  0  0  0  0  0
  -22.1659   -4.2143   21.0985 F   0  0  0  0  0  0
  -21.5633   -3.4542   25.7742 F   0  0  0  0  0  0
  -30.0044  -13.4274   20.4086 N   0  0  0  0  0  0
  -26.2949  -12.9407   20.3317 N   0  0  0  0  0  0
  -25.9322  -11.6549   20.5789 N   0  0  0  0  0  0
  -22.0461  -12.8202   22.0429 N   0  0  0  0  0  0
  -25.4134  -15.1883   20.3952 N   0  0  0  0  0  0
  -31.8806  -14.6578   20.1455 O   0  0  0  0  0  0
  -21.6638   -6.8874   21.4239 O   0  0  0  0  0  0
  -22.3506  -14.5528   20.6726 O   0  0  0  0  0  0
  -24.6251  -31.8623   23.2059 C   0  0  0  0  0  0
  -25.9107  -32.4786   23.8378 C   0  0  1  0  0  0
  -27.2083  -27.3304   20.1107 C   0  0  0  0  0  0
  -25.5934  -33.8588   24.2303 N   0  0  0  0  0  0
  -23.4157  -30.4912   21.5503 C   0  0  2  0  0  0
  -24.8588  -28.9574   20.1095 C   0  0  0  0  0  0
  -22.7463  -29.4639   22.4947 C   0  0  0  0  0  0
  -18.0284  -28.1373   22.8479 C   0  0  0  0  0  0
  -24.1481  -36.7294   23.2638 C   0  0  0  0  0  0
  -25.9581  -30.7981   21.3759 C   0  0  0  0  0  0
  -26.0302  -29.4291   20.7148 C   0  0  0  0  0  0
  -27.2110  -28.6283   20.7067 C   0  0  0  0  0  0
  -26.0127  -26.9214   19.4707 C   0  0  0  0  0  0
  -24.8519  -27.7086   19.4778 C   0  0  0  0  0  0
  -23.6266  -29.8348   20.1628 C   0  0  0  0  0  0
  -25.4102  -36.3088   24.0329 C   0  0  1  0  0  0
  -20.5881  -28.3675   23.1280 C   0  0  2  0  0  0
  -20.6771  -26.9398   22.5401 C   0  0  0  0  0  0
  -19.5746  -26.6380   21.5203 C   0  0  0  0  0  0
  -18.1927  -26.7915   22.1618 C   0  0  0  0  0  0
  -19.1537  -28.8846   23.2870 C   0  0  0  0  0  0
  -18.9465  -30.1457   23.8875 C   0  0  0  0  0  0
  -17.6468  -30.6575   24.0568 C   0  0  0  0  0  0
  -25.9045  -34.9454   23.5108 C   0  0  0  0  0  0
  -16.5361  -29.9069   23.6340 C   0  0  0  0  0  0
  -16.7274  -28.6497   23.0338 C   0  0  0  0  0  0
  -26.4493  -31.6589   25.0741 C   0  0  0  0  0  0
  -25.3715  -31.3720   26.1465 C   0  0  0  0  0  0
  -27.0347  -30.3018   24.6190 C   0  0  0  0  0  0
  -27.6061  -32.4319   25.7503 C   0  0  0  0  0  0
  -27.5573  -37.1798   24.8458 C   0  0  0  0  0  0
  -21.4184  -29.3038   22.3694 N   0  0  0  0  0  0
  -26.4281  -37.3784   23.9411 N   0  0  0  0  0  0
  -24.6855  -31.0654   22.1004 N   0  0  0  0  0  0
  -23.4203  -28.8158   23.2998 O   0  0  0  0  0  0
  -28.3050  -26.4562   20.1782 O   0  0  0  0  0  0
  -26.5611  -34.8921   22.4673 O   0  0  0  0  0  0
  -23.5426  -32.1415   23.7397 O   0  0  0  0  0  0
  -30.7802  -19.6285   20.2700 C   0  0  0  0  0  0
  -30.2731  -20.9637   20.2601 C   0  0  0  0  0  0
  -28.6957  -18.8090   21.0999 C   0  0  0  0  0  0
  -30.0150  -18.4994   20.6872 C   0  0  0  0  0  0
  -28.1925  -20.1252   21.0989 C   0  0  0  0  0  0
  -28.9517  -21.2521   20.6789 C   0  0  0  0  0  0
  -27.6397  -17.8665   21.5817 C   0  0  0  0  0  0
  -26.4210  -18.8025   21.7155 C   0  0  0  0  0  0
  -30.7215  -17.0993   20.7069 C   0  0  0  0  0  0
  -29.0064  -23.8813   20.5167 C   0  0  0  0  0  0
  -27.9789  -25.0158   20.1129 C   0  0  0  0  0  0
  -26.8705  -20.1912   21.5446 N   0  0  0  0  0  0
  -28.3543  -22.5494   20.7012 N   0  0  0  0  0  0
  -30.0325  -15.7663   20.7725 N   0  0  0  0  0  0
  -31.4575  -12.4533   19.1561 H   0  0  0  0  0  0
  -30.3122  -11.3890   19.9193 H   0  0  0  0  0  0
  -29.7530  -11.7274   17.4861 H   0  0  0  0  0  0
  -29.6455  -13.4540   17.7346 H   0  0  0  0  0  0
  -27.8563  -11.2887   18.8828 H   0  0  0  0  0  0
  -27.3635  -12.5586   17.7941 H   0  0  0  0  0  0
  -27.6523  -14.2558   19.4945 H   0  0  0  0  0  0
  -28.6931  -12.1257   21.4227 H   0  0  0  0  0  0
  -28.4500  -13.8115   21.8027 H   0  0  0  0  0  0
  -25.2756   -9.5675   22.4781 H   0  0  0  0  0  0
  -23.9997   -7.4624   22.7475 H   0  0  0  0  0  0
  -21.0846   -8.8772   19.8952 H   0  0  0  0  0  0
  -22.3701  -10.9676   19.6178 H   0  0  0  0  0  0
  -21.1997   -7.6141   23.9710 H   0  0  0  0  0  0
  -21.1485   -6.0527   25.9077 H   0  0  0  0  0  0
  -22.0598   -2.7607   23.2857 H   0  0  0  0  0  0
  -22.4081  -11.9855   22.4805 H   0  0  0  0  0  0
  -21.1080  -13.1223   22.2639 H   0  0  0  0  0  0
  -24.6224  -15.8205   20.4494 H   0  0  0  0  0  0
  -26.2225  -15.6026   19.9534 H   0  0  0  0  0  0
  -26.7180  -32.5457   23.1130 H   0  0  0  0  0  0
  -25.0076  -33.9735   25.0445 H   0  0  0  0  0  0
  -22.7083  -31.3115   21.4134 H   0  0  0  0  0  0
  -23.3738  -35.9628   23.3309 H   0  0  0  0  0  0
  -24.3573  -36.8907   22.2050 H   0  0  0  0  0  0
  -23.7247  -37.6502   23.6655 H   0  0  0  0  0  0
  -26.0859  -31.5629   20.6088 H   0  0  0  0  0  0
  -26.8401  -30.8454   22.0034 H   0  0  0  0  0  0
  -28.1079  -28.9810   21.1956 H   0  0  0  0  0  0
  -25.9315  -25.9717   18.9664 H   0  0  0  0  0  0
  -23.9547  -27.3442   18.9969 H   0  0  0  0  0  0
  -23.7410  -30.6155   19.4101 H   0  0  0  0  0  0
  -22.7458  -29.2662   19.8606 H   0  0  0  0  0  0
  -25.1276  -36.1950   25.0814 H   0  0  0  0  0  0
  -20.9970  -28.3247   24.1400 H   0  0  0  0  0  0
  -20.5670  -26.2275   23.3590 H   0  0  0  0  0  0
  -21.6638  -26.7408   22.1197 H   0  0  0  0  0  0
  -19.6897  -25.6289   21.1232 H   0  0  0  0  0  0
  -19.6689  -27.3197   20.6736 H   0  0  0  0  0  0
  -17.4186  -26.6668   21.4031 H   0  0  0  0  0  0
  -18.0326  -26.0051   22.9009 H   0  0  0  0  0  0
  -19.7945  -30.7293   24.2210 H   0  0  0  0  0  0
  -17.5019  -31.6251   24.5175 H   0  0  0  0  0  0
  -15.5362  -30.2968   23.7677 H   0  0  0  0  0  0
  -15.8673  -28.0839   22.7018 H   0  0  0  0  0  0
  -24.5891  -30.7068   25.7793 H   0  0  0  0  0  0
  -24.8887  -32.2877   26.4890 H   0  0  0  0  0  0
  -25.8022  -30.8902   27.0249 H   0  0  0  0  0  0
  -26.2942  -29.6766   24.1195 H   0  0  0  0  0  0
  -27.4043  -29.7277   25.4695 H   0  0  0  0  0  0
  -27.8792  -30.4311   23.9417 H   0  0  0  0  0  0
  -27.2695  -33.3626   26.2075 H   0  0  0  0  0  0
  -28.3873  -32.6872   25.0331 H   0  0  0  0  0  0
  -28.0723  -31.8443   26.5421 H   0  0  0  0  0  0
  -28.2579  -38.0106   24.7526 H   0  0  0  0  0  0
  -28.1093  -36.2647   24.6267 H   0  0  0  0  0  0
  -27.2299  -37.1419   25.8861 H   0  0  0  0  0  0
  -20.9364  -29.8798   21.6938 H   0  0  0  0  0  0
  -26.0166  -38.2852   24.1435 H   0  0  0  0  0  0
  -31.8014  -19.4740   19.9510 H   0  0  0  0  0  0
  -30.9193  -21.7628   19.9272 H   0  0  0  0  0  0
  -27.9233  -17.4325   22.5414 H   0  0  0  0  0  0
  -27.4605  -17.0671   20.8643 H   0  0  0  0  0  0
  -25.9234  -18.6659   22.6768 H   0  0  0  0  0  0
  -25.6873  -18.5749   20.9404 H   0  0  0  0  0  0
  -31.4340  -17.1264   21.5325 H   0  0  0  0  0  0
  -31.3371  -17.0926   19.8045 H   0  0  0  0  0  0
  -29.4894  -24.1529   21.4561 H   0  0  0  0  0  0
  -29.7946  -23.8177   19.7661 H   0  0  0  0  0  0
  -27.0984  -24.8601   20.7402 H   0  0  0  0  0  0
  -27.6769  -24.7850   19.0910 H   0  0  0  0  0  0
  -26.2709  -20.8241   21.0213 H   0  0  0  0  0  0
  -27.4555  -22.5665   21.1748 H   0  0  0  0  0  0
  -29.0516  -15.7291   20.9997 H   0  0  0  0  0  0
  1 25  1  0  0  0
  1 30  2  0  0  0
  1 84  1  0  0  0
  2  3  1  0  0  0
  2 25  1  0  0  0
  2 85  1  0  0  0
  2 86  1  0  0  0
  3  4  1  0  0  0
  3 87  1  0  0  0
  3 88  1  0  0  0
  4  5  1  0  0  0
  4 89  1  0  0  0
  4 90  1  0  0  0
  5  6  1  0  0  0
  5 26  1  0  0  0
  5 91  1  0  0  0
  6 25  1  0  0  0
  6 92  1  0  0  0
  6 93  1  0  0  0
  7  8  2  0  0  0
  7 26  1  0  0  0
  7 29  1  0  0  0
  8  9  1  0  0  0
  8 22  1  0  0  0
  9 10  1  0  0  0
  9 27  2  0  0  0
 10 11  2  0  0  0
 10 15  1  0  0  0
 11 12  1  0  0  0
 11 94  1  0  0  0
 12 13  2  0  0  0
 12 95  1  0  0  0
 13 14  1  0  0  0
 13 31  1  0  0  0
 14 15  2  0  0  0
 14 96  1  0  0  0
 15 97  1  0  0  0
 16 17  2  0  0  0
 16 21  1  0  0  0
 16 31  1  0  0  0
 17 18  1  0  0  0
 17 98  1  0  0  0
 18 19  2  0  0  0
 18 99  1  0  0  0
 19 20  1  0  0  0
 19 24  1  0  0  0
 20 21  2  0  0  0
 20100  1  0  0  0
 21 23  1  0  0  0
 22 28  1  0  0  0
 22 32  2  0  0  0
 26 27  1  0  0  0
 28101  1  0  0  0
 28102  1  0  0  0
 29103  1  0  0  0
 29104  1  0  0  0
 33 34  1  0  0  0
 33 66  1  0  0  0
 33 70  2  0  0  0
 34 36  1  0  0  0
 34 59  1  0  0  0
 34105  1  0  0  0
 35 44  2  0  0  0
 35 45  1  0  0  0
 35 68  1  0  0  0
 36 56  1  0  0  0
 36106  1  0  0  0
 37 39  1  0  0  0
 37 47  1  0  0  0
 37 66  1  0  0  0
 37107  1  0  0  0
 38 43  2  0  0  0
 38 46  1  0  0  0
 38 47  1  0  0  0
 39 64  1  0  0  0
 39 67  2  0  0  0
 40 52  1  0  0  0
 40 53  2  0  0  0
 40 58  1  0  0  0
 41108  1  0  0  0
 41109  1  0  0  0
 41110  1  0  0  0
 41 48  1  0  0  0
 42 43  1  0  0  0
 42 66  1  0  0  0
 42111  1  0  0  0
 42112  1  0  0  0
 43 44  1  0  0  0
 44113  1  0  0  0
 45 46  2  0  0  0
 45114  1  0  0  0
 46115  1  0  0  0
 47116  1  0  0  0
 47117  1  0  0  0
 48 56  1  0  0  0
 48 65  1  0  0  0
 48118  1  0  0  0
 49 50  1  0  0  0
 49 53  1  0  0  0
 49 64  1  0  0  0
 49119  1  0  0  0
 50 51  1  0  0  0
 50120  1  0  0  0
 50121  1  0  0  0
 51 52  1  0  0  0
 51122  1  0  0  0
 51123  1  0  0  0
 52124  1  0  0  0
 52125  1  0  0  0
 53 54  1  0  0  0
 54 55  2  0  0  0
 54126  1  0  0  0
 55 57  1  0  0  0
 55127  1  0  0  0
 56 69  2  0  0  0
 57 58  2  0  0  0
 57128  1  0  0  0
 58129  1  0  0  0
 59 60  1  0  0  0
 59 61  1  0  0  0
 59 62  1  0  0  0
 60130  1  0  0  0
 60131  1  0  0  0
 60132  1  0  0  0
 61133  1  0  0  0
 61134  1  0  0  0
 61135  1  0  0  0
 62136  1  0  0  0
 62137  1  0  0  0
 62138  1  0  0  0
 63 65  1  0  0  0
 63139  1  0  0  0
 63140  1  0  0  0
 63141  1  0  0  0
 64142  1  0  0  0
 65143  1  0  0  0
 68 81  1  0  0  0
 71 72  2  0  0  0
 71 74  1  0  0  0
 71144  1  0  0  0
 72 76  1  0  0  0
 72145  1  0  0  0
 73 74  2  0  0  0
 73 75  1  0  0  0
 73 77  1  0  0  0
 74 79  1  0  0  0
 75 76  2  0  0  0
 75 82  1  0  0  0
 76 83  1  0  0  0
 77 78  1  0  0  0
 77146  1  0  0  0
 77147  1  0  0  0
 78 82  1  0  0  0
 78148  1  0  0  0
 78149  1  0  0  0
 79 84  1  0  0  0
 79150  1  0  0  0
 79151  1  0  0  0
 80 81  1  0  0  0
 80 83  1  0  0  0
 80152  1  0  0  0
 80153  1  0  0  0
 81154  1  0  0  0
 81155  1  0  0  0
 82156  1  0  0  0
 83157  1  0  0  0
 84158  1  0  0  0
M  ISO  4   1 100  68 101  81 101  84 100
M  END
> <chiral flag>
0

> <version>
0

> <s_m_source_file>
/data/baiqing/PycharmProjects/Reinvent-master-3.2/result/LINK_invent/BTK/process_docking_weight1_custom_product_contain_oxygen_bond_distance_aromatic_linkinvent_7_9_3/rearranged_h_0006.sdf

> <i_m_source_file_index>
63

> <r_mmod_Potential_Energy-OPLS-2005>
-5.28902626037598

> <r_mmod_Stretch_Energy-OPLS-2005>
69.0560760498047

> <r_mmod_Bend_Energy-OPLS-2005>
198.037658691406

> <r_mmod_Torsional_Energy-OPLS-2005>
207.285598754883

> <r_mmod_Improper_Torsional_Energy-OPLS-2005>
10.8016471862793

> <r_mmod_Van_der_Waal_Energy-OPLS-2005>
148.516632080078

> <r_mmod_Electrostatic_Energy-OPLS-2005>
-450.751770019531

> <r_mmod_Solvation_Energy-OPLS-2005>
-236.214096069336

> <b_mmod_Minimization_Converged-OPLS-2005>
0

> <r_mmod_RMS_Derivative-OPLS-2005>
1.46622085571289

$$$$
64
                    3D
 Structure written by MMmdl.
150158  0  0  1  0            999 V2000
  -30.4148  -15.4922   20.3454 C   0  0  0  0  0  0
  -30.4110  -12.9824   19.5307 C   0  0  0  0  0  0
  -29.5316  -12.6171   18.3075 C   0  0  0  0  0  0
  -28.0998  -12.2931   18.7540 C   0  0  0  0  0  0
  -27.5933  -13.3012   19.8128 C   0  0  2  0  0  0
  -28.6164  -13.6083   20.9311 C   0  0  0  0  0  0
  -25.2318  -13.8297   20.5816 C   0  0  0  0  0  0
  -24.1698  -13.0448   20.9295 C   0  0  0  0  0  0
  -24.6389  -11.6955   20.8780 C   0  0  0  0  0  0
  -23.9103  -10.4296   21.0409 C   0  0  0  0  0  0
  -24.3645   -9.4206   21.9185 C   0  0  0  0  0  0
  -23.6310   -8.2245   22.0753 C   0  0  0  0  0  0
  -22.4288   -8.0288   21.3547 C   0  0  0  0  0  0
  -21.9934   -9.0264   20.4647 C   0  0  0  0  0  0
  -22.7274  -10.2138   20.3057 C   0  0  0  0  0  0
  -21.6857   -6.0739   22.5278 C   0  0  0  0  0  0
  -21.4020   -6.5642   23.8212 C   0  0  0  0  0  0
  -21.3661   -5.6795   24.9175 C   0  0  0  0  0  0
  -21.6045   -4.3057   24.7224 C   0  0  0  0  0  0
  -21.8818   -3.8148   23.4345 C   0  0  0  0  0  0
  -21.9193   -4.6965   22.3401 C   0  0  0  0  0  0
  -22.7712  -13.5178   21.1930 C   0  0  0  0  0  0
  -22.1660   -4.2152   21.0978 F   0  0  0  0  0  0
  -21.5625   -3.4541   25.7736 F   0  0  0  0  0  0
  -29.8063  -14.1788   20.2668 N   0  0  0  0  0  0
  -26.2749  -12.9614   20.3259 N   0  0  0  0  0  0
  -25.9332  -11.6691   20.5733 N   0  0  0  0  0  0
  -22.0377  -12.8149   22.0478 N   0  0  0  0  0  0
  -25.3945  -15.2037   20.4269 N   0  0  0  0  0  0
  -31.6422  -15.3537   20.1831 O   0  0  0  0  0  0
  -21.6648   -6.8887   21.4242 O   0  0  0  0  0  0
  -22.3392  -14.5479   20.6769 O   0  0  0  0  0  0
  -24.6761  -31.8082   23.1573 C   0  0  0  0  0  0
  -25.9378  -32.4506   23.8095 C   0  0  1  0  0  0
  -27.2183  -26.7801   20.2035 C   0  0  0  0  0  0
  -25.5988  -33.8328   24.1988 N   0  0  0  0  0  0
  -23.4981  -30.4133   21.5094 C   0  0  2  0  0  0
  -24.9534  -28.7703   20.1125 C   0  0  0  0  0  0
  -22.7733  -29.4356   22.4730 C   0  0  0  0  0  0
  -18.0336  -28.1414   22.8464 C   0  0  0  0  0  0
  -24.1495  -36.7174   23.2652 C   0  0  0  0  0  0
  -26.0742  -30.5659   21.4102 C   0  0  0  0  0  0
  -26.1392  -29.1397   20.7580 C   0  0  0  0  0  0
  -27.2594  -28.1690   20.7749 C   0  0  0  0  0  0
  -26.0047  -26.6016   19.4972 C   0  0  0  0  0  0
  -24.9207  -27.5264   19.4589 C   0  0  0  0  0  0
  -23.7467  -29.7168   20.1409 C   0  0  0  0  0  0
  -25.4141  -36.2918   24.0287 C   0  0  1  0  0  0
  -20.5967  -28.3770   23.1160 C   0  0  2  0  0  0
  -20.6802  -26.9438   22.5404 C   0  0  0  0  0  0
  -19.5774  -26.6372   21.5219 C   0  0  0  0  0  0
  -18.1959  -26.7944   22.1626 C   0  0  0  0  0  0
  -19.1600  -28.8916   23.2795 C   0  0  0  0  0  0
  -18.9506  -30.1501   23.8837 C   0  0  0  0  0  0
  -17.6496  -30.6599   24.0554 C   0  0  0  0  0  0
  -25.9116  -34.9307   23.4971 C   0  0  0  0  0  0
  -16.5387  -29.9082   23.6346 C   0  0  0  0  0  0
  -16.7317  -28.6504   23.0366 C   0  0  0  0  0  0
  -26.4578  -31.6511   25.0687 C   0  0  0  0  0  0
  -25.3662  -31.3808   26.1315 C   0  0  0  0  0  0
  -27.0500  -30.2857   24.6532 C   0  0  0  0  0  0
  -27.6035  -32.4360   25.7504 C   0  0  0  0  0  0
  -27.5564  -37.1745   24.8468 C   0  0  0  0  0  0
  -21.4386  -29.3035   22.3489 N   0  0  0  0  0  0
  -26.4274  -37.3670   23.9406 N   0  0  0  0  0  0
  -24.7720  -30.9605   22.0785 N   0  0  0  0  0  0
  -23.4217  -28.7949   23.3039 O   0  0  0  0  0  0
  -28.1927  -25.6027   20.3084 O   0  0  0  0  0  0
  -26.5749  -34.8871   22.4582 O   0  0  0  0  0  0
  -23.5798  -32.1121   23.6578 O   0  0  0  0  0  0
  -28.5071  -17.7105   20.5805 C   0  0  0  0  0  0
  -30.5849  -18.1983   19.7660 C   0  0  0  0  0  0
  -28.2678  -19.4130   20.8770 C   0  0  0  0  0  0
  -30.3409  -19.8585   20.1141 C   0  0  0  0  0  0
  -28.9045  -22.2980   20.5810 C   0  0  0  0  0  0
  -28.0493  -23.9000   20.0444 C   0  0  0  0  0  0
  -29.8418  -16.9299   20.3046 N   0  0  0  0  0  0
  -28.9707  -20.6109   20.1293 N   0  3  0  0  0  0
  -31.4189  -13.1938   19.1716 H   0  0  0  0  0  0
  -30.5243  -12.1258   20.1973 H   0  0  0  0  0  0
  -29.9583  -11.7722   17.7652 H   0  0  0  0  0  0
  -29.5159  -13.4558   17.6099 H   0  0  0  0  0  0
  -28.1069  -11.2901   19.1826 H   0  0  0  0  0  0
  -27.4261  -12.2575   17.8971 H   0  0  0  0  0  0
  -27.4652  -14.2308   19.2561 H   0  0  0  0  0  0
  -28.8479  -12.7237   21.5263 H   0  0  0  0  0  0
  -28.2077  -14.3485   21.6208 H   0  0  0  0  0  0
  -25.2783   -9.5681   22.4771 H   0  0  0  0  0  0
  -24.0011   -7.4637   22.7477 H   0  0  0  0  0  0
  -21.0860   -8.8794   19.8954 H   0  0  0  0  0  0
  -22.3731  -10.9682   19.6172 H   0  0  0  0  0  0
  -21.2019   -7.6152   23.9718 H   0  0  0  0  0  0
  -21.1482   -6.0523   25.9079 H   0  0  0  0  0  0
  -22.0594   -2.7609   23.2843 H   0  0  0  0  0  0
  -22.4019  -11.9822   22.4865 H   0  0  0  0  0  0
  -21.0990  -13.1150   22.2692 H   0  0  0  0  0  0
  -24.6241  -15.8535   20.5418 H   0  0  0  0  0  0
  -26.2417  -15.6450   20.0948 H   0  0  0  0  0  0
  -26.7457  -32.4999   23.0809 H   0  0  0  0  0  0
  -25.0055  -33.9378   25.0086 H   0  0  0  0  0  0
  -22.8191  -31.2487   21.3262 H   0  0  0  0  0  0
  -23.3767  -35.9493   23.3276 H   0  0  0  0  0  0
  -24.3564  -36.8867   22.2074 H   0  0  0  0  0  0
  -23.7247  -37.6343   23.6746 H   0  0  0  0  0  0
  -26.2712  -31.2963   20.6245 H   0  0  0  0  0  0
  -26.9279  -30.6288   22.0728 H   0  0  0  0  0  0
  -28.1513  -28.4530   21.3153 H   0  0  0  0  0  0
  -25.8532  -25.6561   18.9966 H   0  0  0  0  0  0
  -24.0243  -27.2375   18.9273 H   0  0  0  0  0  0
  -23.9164  -30.4800   19.3805 H   0  0  0  0  0  0
  -22.8527  -29.1803   19.8184 H   0  0  0  0  0  0
  -25.1347  -36.1692   25.0778 H   0  0  0  0  0  0
  -21.0056  -28.3389   24.1284 H   0  0  0  0  0  0
  -20.5670  -26.2395   23.3660 H   0  0  0  0  0  0
  -21.6663  -26.7387   22.1219 H   0  0  0  0  0  0
  -19.6928  -25.6266   21.1289 H   0  0  0  0  0  0
  -19.6709  -27.3149   20.6721 H   0  0  0  0  0  0
  -17.4227  -26.6693   21.4029 H   0  0  0  0  0  0
  -18.0345  -26.0097   22.9033 H   0  0  0  0  0  0
  -19.7980  -30.7335   24.2177 H   0  0  0  0  0  0
  -17.5045  -31.6270   24.5172 H   0  0  0  0  0  0
  -15.5383  -30.2966   23.7696 H   0  0  0  0  0  0
  -15.8720  -28.0798   22.7115 H   0  0  0  0  0  0
  -24.5867  -30.7134   25.7620 H   0  0  0  0  0  0
  -24.8828  -32.3024   26.4565 H   0  0  0  0  0  0
  -25.7857  -30.9089   27.0209 H   0  0  0  0  0  0
  -26.3195  -29.6485   24.1536 H   0  0  0  0  0  0
  -27.3968  -29.7285   25.5243 H   0  0  0  0  0  0
  -27.9162  -30.3998   24.0013 H   0  0  0  0  0  0
  -27.2573  -33.3718   26.1904 H   0  0  0  0  0  0
  -28.3938  -32.6831   25.0404 H   0  0  0  0  0  0
  -28.0602  -31.8612   26.5570 H   0  0  0  0  0  0
  -28.2558  -38.0061   24.7505 H   0  0  0  0  0  0
  -28.1083  -36.2584   24.6306 H   0  0  0  0  0  0
  -27.2279  -37.1398   25.8870 H   0  0  0  0  0  0
  -20.9672  -29.8709   21.6583 H   0  0  0  0  0  0
  -26.0107  -38.2723   24.1408 H   0  0  0  0  0  0
  -27.8886  -17.4764   19.7135 H   0  0  0  0  0  0
  -28.0223  -17.1782   21.3995 H   0  0  0  0  0  0
  -31.6441  -18.0140   19.9484 H   0  0  0  0  0  0
  -30.4908  -18.1107   18.6828 H   0  0  0  0  0  0
  -28.4967  -19.5651   21.9330 H   0  0  0  0  0  0
  -27.1964  -19.6045   20.8119 H   0  0  0  0  0  0
  -30.9825  -20.4214   19.4362 H   0  0  0  0  0  0
  -30.7806  -20.0318   21.0978 H   0  0  0  0  0  0
  -28.7760  -22.2650   21.6623 H   0  0  0  0  0  0
  -29.9520  -22.5739   20.4635 H   0  0  0  0  0  0
  -26.9983  -23.7157   20.2660 H   0  0  0  0  0  0
  -28.0914  -23.8508   18.9566 H   0  0  0  0  0  0
  -28.6395  -20.5811   19.1761 H   0  0  0  0  0  0
  1 25  1  0  0  0
  1 30  2  0  0  0
  1 77  1  0  0  0
  2  3  1  0  0  0
  2 25  1  0  0  0
  2 79  1  0  0  0
  2 80  1  0  0  0
  3  4  1  0  0  0
  3 81  1  0  0  0
  3 82  1  0  0  0
  4  5  1  0  0  0
  4 83  1  0  0  0
  4 84  1  0  0  0
  5  6  1  0  0  0
  5 26  1  0  0  0
  5 85  1  0  0  0
  6 25  1  0  0  0
  6 86  1  0  0  0
  6 87  1  0  0  0
  7  8  2  0  0  0
  7 26  1  0  0  0
  7 29  1  0  0  0
  8  9  1  0  0  0
  8 22  1  0  0  0
  9 10  1  0  0  0
  9 27  2  0  0  0
 10 11  2  0  0  0
 10 15  1  0  0  0
 11 12  1  0  0  0
 11 88  1  0  0  0
 12 13  2  0  0  0
 12 89  1  0  0  0
 13 14  1  0  0  0
 13 31  1  0  0  0
 14 15  2  0  0  0
 14 90  1  0  0  0
 15 91  1  0  0  0
 16 17  2  0  0  0
 16 21  1  0  0  0
 16 31  1  0  0  0
 17 18  1  0  0  0
 17 92  1  0  0  0
 18 19  2  0  0  0
 18 93  1  0  0  0
 19 20  1  0  0  0
 19 24  1  0  0  0
 20 21  2  0  0  0
 20 94  1  0  0  0
 21 23  1  0  0  0
 22 28  1  0  0  0
 22 32  2  0  0  0
 26 27  1  0  0  0
 28 95  1  0  0  0
 28 96  1  0  0  0
 29 97  1  0  0  0
 29 98  1  0  0  0
 33 34  1  0  0  0
 33 66  1  0  0  0
 33 70  2  0  0  0
 34 36  1  0  0  0
 34 59  1  0  0  0
 34 99  1  0  0  0
 35 44  2  0  0  0
 35 45  1  0  0  0
 35 68  1  0  0  0
 36 56  1  0  0  0
 36100  1  0  0  0
 37 39  1  0  0  0
 37 47  1  0  0  0
 37 66  1  0  0  0
 37101  1  0  0  0
 38 43  2  0  0  0
 38 46  1  0  0  0
 38 47  1  0  0  0
 39 64  1  0  0  0
 39 67  2  0  0  0
 40 52  1  0  0  0
 40 53  2  0  0  0
 40 58  1  0  0  0
 41102  1  0  0  0
 41103  1  0  0  0
 41104  1  0  0  0
 41 48  1  0  0  0
 42 43  1  0  0  0
 42 66  1  0  0  0
 42105  1  0  0  0
 42106  1  0  0  0
 43 44  1  0  0  0
 44107  1  0  0  0
 45 46  2  0  0  0
 45108  1  0  0  0
 46109  1  0  0  0
 47110  1  0  0  0
 47111  1  0  0  0
 48 56  1  0  0  0
 48 65  1  0  0  0
 48112  1  0  0  0
 49 50  1  0  0  0
 49 53  1  0  0  0
 49 64  1  0  0  0
 49113  1  0  0  0
 50 51  1  0  0  0
 50114  1  0  0  0
 50115  1  0  0  0
 51 52  1  0  0  0
 51116  1  0  0  0
 51117  1  0  0  0
 52118  1  0  0  0
 52119  1  0  0  0
 53 54  1  0  0  0
 54 55  2  0  0  0
 54120  1  0  0  0
 55 57  1  0  0  0
 55121  1  0  0  0
 56 69  2  0  0  0
 57 58  2  0  0  0
 57122  1  0  0  0
 58123  1  0  0  0
 59 60  1  0  0  0
 59 61  1  0  0  0
 59 62  1  0  0  0
 60124  1  0  0  0
 60125  1  0  0  0
 60126  1  0  0  0
 61127  1  0  0  0
 61128  1  0  0  0
 61129  1  0  0  0
 62130  1  0  0  0
 62131  1  0  0  0
 62132  1  0  0  0
 63 65  1  0  0  0
 63133  1  0  0  0
 63134  1  0  0  0
 63135  1  0  0  0
 64136  1  0  0  0
 65137  1  0  0  0
 68 76  1  0  0  0
 71 73  1  0  0  0
 71 77  1  0  0  0
 71138  1  0  0  0
 71139  1  0  0  0
 72 74  1  0  0  0
 72 77  1  0  0  0
 72140  1  0  0  0
 72141  1  0  0  0
 73 78  1  0  0  0
 73142  1  0  0  0
 73143  1  0  0  0
 74 78  1  0  0  0
 74144  1  0  0  0
 74145  1  0  0  0
 75 76  1  0  0  0
 75146  1  0  0  0
 75147  1  0  0  0
 75 78  1  0  0  0
 76148  1  0  0  0
 76149  1  0  0  0
 78150  1  0  0  0
M  CHG  1  78   1
M  ISO  4   1 100  68 101  76 101  77 100
M  END
> <chiral flag>
0

> <version>
0

> <s_m_source_file>
/data/baiqing/PycharmProjects/Reinvent-master-3.2/result/LINK_invent/BTK/process_docking_weight1_custom_product_contain_oxygen_bond_distance_aromatic_linkinvent_7_9_3/rearranged_h_0006.sdf

> <i_m_source_file_index>
64

> <r_mmod_Potential_Energy-OPLS-2005>
2069.70849609375

> <r_mmod_Stretch_Energy-OPLS-2005>
822.303466796875

> <r_mmod_Bend_Energy-OPLS-2005>
682.106689453125

> <r_mmod_Torsional_Energy-OPLS-2005>
364.669525146484

> <r_mmod_Improper_Torsional_Energy-OPLS-2005>
7.53518962860107

> <r_mmod_Van_der_Waal_Energy-OPLS-2005>
115.253486633301

> <r_mmod_Electrostatic_Energy-OPLS-2005>
-187.556671142578

> <r_mmod_Solvation_Energy-OPLS-2005>
-448.615417480469

> <b_mmod_Minimization_Converged-OPLS-2005>
0

> <r_mmod_RMS_Derivative-OPLS-2005>
0.569041132926941

$$$$
65
                    3D
 Structure written by MMmdl.
158167  0  0  1  0            999 V2000
  -30.7036  -14.4358   20.5724 C   0  0  0  0  0  0
  -30.4214  -12.2856   19.4137 C   0  0  0  0  0  0
  -29.4884  -12.4945   18.2028 C   0  0  0  0  0  0
  -28.0093  -12.3598   18.6160 C   0  0  0  0  0  0
  -27.6604  -13.1942   19.8762 C   0  0  2  0  0  0
  -28.7016  -12.9619   20.9943 C   0  0  0  0  0  0
  -25.2596  -13.8130   20.5694 C   0  0  0  0  0  0
  -24.1824  -13.0419   20.9185 C   0  0  0  0  0  0
  -24.6350  -11.6885   20.8726 C   0  0  0  0  0  0
  -23.9006  -10.4281   21.0398 C   0  0  0  0  0  0
  -24.3573   -9.4203   21.9175 C   0  0  0  0  0  0
  -23.6263   -8.2231   22.0748 C   0  0  0  0  0  0
  -22.4249   -8.0256   21.3538 C   0  0  0  0  0  0
  -21.9871   -9.0223   20.4638 C   0  0  0  0  0  0
  -22.7181  -10.2116   20.3042 C   0  0  0  0  0  0
  -21.6844   -6.0714   22.5281 C   0  0  0  0  0  0
  -21.4001   -6.5622   23.8211 C   0  0  0  0  0  0
  -21.3669   -5.6779   24.9180 C   0  0  0  0  0  0
  -21.6050   -4.3044   24.7234 C   0  0  0  0  0  0
  -21.8823   -3.8130   23.4356 C   0  0  0  0  0  0
  -21.9188   -4.6942   22.3407 C   0  0  0  0  0  0
  -22.7852  -13.5232   21.1859 C   0  0  0  0  0  0
  -22.1657   -4.2125   21.0985 F   0  0  0  0  0  0
  -21.5650   -3.4533   25.7752 F   0  0  0  0  0  0
  -30.0351  -13.2602   20.4436 N   0  0  0  0  0  0
  -26.3007  -12.9271   20.3368 N   0  0  0  0  0  0
  -25.9271  -11.6447   20.5749 N   0  0  0  0  0  0
  -22.0484  -12.8222   22.0419 N   0  0  0  0  0  0
  -25.4368  -15.1842   20.4132 N   0  0  0  0  0  0
  -31.8233  -14.6310   20.0926 O   0  0  0  0  0  0
  -21.6627   -6.8849   21.4237 O   0  0  0  0  0  0
  -22.3548  -14.5542   20.6722 O   0  0  0  0  0  0
  -24.6145  -31.8700   23.2144 C   0  0  0  0  0  0
  -25.9037  -32.4829   23.8419 C   0  0  1  0  0  0
  -27.2346  -27.4410   20.0960 C   0  0  0  0  0  0
  -25.5911  -33.8625   24.2346 N   0  0  0  0  0  0
  -23.4028  -30.4946   21.5541 C   0  0  2  0  0  0
  -24.8441  -28.9571   20.1230 C   0  0  0  0  0  0
  -22.7443  -29.4677   22.5001 C   0  0  0  0  0  0
  -18.0271  -28.1366   22.8532 C   0  0  0  0  0  0
  -24.1491  -36.7306   23.2639 C   0  0  0  0  0  0
  -25.9309  -30.8380   21.3663 C   0  0  0  0  0  0
  -26.0049  -29.4721   20.7125 C   0  0  0  0  0  0
  -27.2023  -28.7230   20.6891 C   0  0  0  0  0  0
  -26.0492  -26.9339   19.5127 C   0  0  0  0  0  0
  -24.8611  -27.6877   19.5219 C   0  0  0  0  0  0
  -23.6072  -29.8250   20.1686 C   0  0  0  0  0  0
  -25.4114  -36.3111   24.0346 C   0  0  1  0  0  0
  -20.5884  -28.3671   23.1300 C   0  0  2  0  0  0
  -20.6835  -26.9435   22.5348 C   0  0  0  0  0  0
  -19.5739  -26.6384   21.5220 C   0  0  0  0  0  0
  -18.1942  -26.7886   22.1715 C   0  0  0  0  0  0
  -19.1526  -28.8840   23.2893 C   0  0  0  0  0  0
  -18.9454  -30.1457   23.8882 C   0  0  0  0  0  0
  -17.6451  -30.6601   24.0560 C   0  0  0  0  0  0
  -25.9036  -34.9475   23.5142 C   0  0  0  0  0  0
  -16.5339  -29.9089   23.6351 C   0  0  0  0  0  0
  -16.7257  -28.6494   23.0384 C   0  0  0  0  0  0
  -26.4479  -31.6606   25.0736 C   0  0  0  0  0  0
  -25.3744  -31.3703   26.1484 C   0  0  0  0  0  0
  -27.0313  -30.3048   24.6116 C   0  0  0  0  0  0
  -27.6064  -32.4324   25.7489 C   0  0  0  0  0  0
  -27.5595  -37.1808   24.8472 C   0  0  0  0  0  0
  -21.4171  -29.3071   22.3759 N   0  0  0  0  0  0
  -26.4309  -37.3791   23.9406 N   0  0  0  0  0  0
  -24.6680  -31.0812   22.1038 N   0  0  0  0  0  0
  -23.4228  -28.8188   23.3002 O   0  0  0  0  0  0
  -28.4283  -26.7453   20.1031 O   0  0  0  0  0  0
  -26.5583  -34.8927   22.4691 O   0  0  0  0  0  0
  -23.5346  -32.1453   23.7539 O   0  0  0  0  0  0
  -27.1478  -19.3717   19.4653 C   0  0  0  0  0  0
  -27.4684  -18.1605   18.8256 C   0  0  0  0  0  0
  -28.9199  -18.9742   21.0880 C   0  0  0  0  0  0
  -27.8890  -19.8032   20.5872 C   0  0  0  0  0  0
  -29.2245  -17.7354   20.4746 C   0  0  0  0  0  0
  -28.5119  -17.3534   19.3126 C   0  0  0  0  0  0
  -26.9532  -22.3517   20.5669 C   0  0  0  0  0  0
  -28.5969  -22.0921   21.8047 C   0  0  0  0  0  0
  -27.5301  -21.1155   21.2888 C   0  0  2  0  0  0
  -30.3289  -16.8565   21.0661 C   0  0  0  0  0  0
  -27.9033  -24.6533   21.2947 C   0  0  0  0  0  0
  -28.4148  -25.3137   19.9949 C   0  0  0  0  0  0
  -27.8212  -23.1959   21.2122 N   0  0  0  0  0  0
  -29.9968  -15.4295   21.1312 N   0  0  0  0  0  0
  -26.0630  -22.5858   19.7746 O   0  0  0  0  0  0
  -28.8168  -16.2114   18.6518 F   0  0  0  0  0  0
  -31.4648  -12.3887   19.1086 H   0  0  0  0  0  0
  -30.3262  -11.2719   19.8063 H   0  0  0  0  0  0
  -29.7237  -11.7687   17.4235 H   0  0  0  0  0  0
  -29.6600  -13.4815   17.7677 H   0  0  0  0  0  0
  -27.8121  -11.3037   18.8030 H   0  0  0  0  0  0
  -27.3600  -12.6473   17.7889 H   0  0  0  0  0  0
  -27.7079  -14.2411   19.5838 H   0  0  0  0  0  0
  -28.6719  -11.9237   21.3282 H   0  0  0  0  0  0
  -28.4642  -13.5552   21.8790 H   0  0  0  0  0  0
  -25.2720   -9.5694   22.4746 H   0  0  0  0  0  0
  -23.9982   -7.4623   22.7457 H   0  0  0  0  0  0
  -21.0814   -8.8718   19.8934 H   0  0  0  0  0  0
  -22.3623  -10.9647   19.6149 H   0  0  0  0  0  0
  -21.1978   -7.6127   23.9708 H   0  0  0  0  0  0
  -21.1497   -6.0513   25.9083 H   0  0  0  0  0  0
  -22.0592   -2.7586   23.2868 H   0  0  0  0  0  0
  -22.4066  -11.9867   22.4808 H   0  0  0  0  0  0
  -21.1101  -13.1257   22.2621 H   0  0  0  0  0  0
  -24.6790  -15.8463   20.5347 H   0  0  0  0  0  0
  -26.2954  -15.6163   20.0974 H   0  0  0  0  0  0
  -26.7112  -32.5545   23.1195 H   0  0  0  0  0  0
  -25.0106  -33.9810   25.0525 H   0  0  0  0  0  0
  -22.6906  -31.3112   21.4156 H   0  0  0  0  0  0
  -23.3751  -35.9641   23.3309 H   0  0  0  0  0  0
  -24.3590  -36.8900   22.2051 H   0  0  0  0  0  0
  -23.7246  -37.6524   23.6631 H   0  0  0  0  0  0
  -26.0487  -31.6072   20.6014 H   0  0  0  0  0  0
  -26.8155  -30.8823   21.9903 H   0  0  0  0  0  0
  -28.1022  -29.1206   21.1383 H   0  0  0  0  0  0
  -26.0119  -25.9623   19.0443 H   0  0  0  0  0  0
  -23.9671  -27.2834   19.0663 H   0  0  0  0  0  0
  -23.7176  -30.5977   19.4063 H   0  0  0  0  0  0
  -22.7285  -29.2467   19.8766 H   0  0  0  0  0  0
  -25.1289  -36.2004   25.0845 H   0  0  0  0  0  0
  -20.9991  -28.3242   24.1410 H   0  0  0  0  0  0
  -20.5878  -26.2251   23.3511 H   0  0  0  0  0  0
  -21.6684  -26.7605   22.0979 H   0  0  0  0  0  0
  -19.6922  -25.6311   21.1234 H   0  0  0  0  0  0
  -19.6581  -27.3211   20.6766 H   0  0  0  0  0  0
  -17.4133  -26.6526   21.4207 H   0  0  0  0  0  0
  -18.0468  -26.0066   22.9183 H   0  0  0  0  0  0
  -19.7952  -30.7276   24.2204 H   0  0  0  0  0  0
  -17.4992  -31.6308   24.5072 H   0  0  0  0  0  0
  -15.5327  -30.3015   23.7611 H   0  0  0  0  0  0
  -15.8649  -28.0839   22.7122 H   0  0  0  0  0  0
  -24.5911  -30.7064   25.7814 H   0  0  0  0  0  0
  -24.8940  -32.2852   26.4956 H   0  0  0  0  0  0
  -25.8101  -30.8851   27.0222 H   0  0  0  0  0  0
  -26.2863  -29.6792   24.1185 H   0  0  0  0  0  0
  -27.4102  -29.7307   25.4578 H   0  0  0  0  0  0
  -27.8690  -30.4352   23.9255 H   0  0  0  0  0  0
  -27.2687  -33.3603   26.2112 H   0  0  0  0  0  0
  -28.3848  -32.6914   25.0299 H   0  0  0  0  0  0
  -28.0759  -31.8411   26.5367 H   0  0  0  0  0  0
  -28.2617  -38.0099   24.7508 H   0  0  0  0  0  0
  -28.1080  -36.2628   24.6307 H   0  0  0  0  0  0
  -27.2295  -37.1474   25.8870 H   0  0  0  0  0  0
  -20.9315  -29.8965   21.7144 H   0  0  0  0  0  0
  -26.0204  -38.2882   24.1378 H   0  0  0  0  0  0
  -26.3266  -19.9645   19.0832 H   0  0  0  0  0  0
  -26.9101  -17.8451   17.9565 H   0  0  0  0  0  0
  -29.4771  -19.2861   21.9611 H   0  0  0  0  0  0
  -29.5795  -21.9591   21.3471 H   0  0  0  0  0  0
  -28.6704  -22.1143   22.8939 H   0  0  0  0  0  0
  -26.8856  -20.8384   22.1235 H   0  0  0  0  0  0
  -30.5590  -17.1870   22.0796 H   0  0  0  0  0  0
  -31.2329  -17.0294   20.4796 H   0  0  0  0  0  0
  -26.9150  -25.0366   21.5470 H   0  0  0  0  0  0
  -28.5550  -24.9223   22.1267 H   0  0  0  0  0  0
  -27.8695  -24.9704   19.1171 H   0  0  0  0  0  0
  -29.4441  -24.9955   19.8253 H   0  0  0  0  0  0
  -29.0898  -15.1886   21.4968 H   0  0  0  0  0  0
  1 25  1  0  0  0
  1 30  2  0  0  0
  1 84  1  0  0  0
  2  3  1  0  0  0
  2 25  1  0  0  0
  2 87  1  0  0  0
  2 88  1  0  0  0
  3  4  1  0  0  0
  3 89  1  0  0  0
  3 90  1  0  0  0
  4  5  1  0  0  0
  4 91  1  0  0  0
  4 92  1  0  0  0
  5  6  1  0  0  0
  5 26  1  0  0  0
  5 93  1  0  0  0
  6 25  1  0  0  0
  6 94  1  0  0  0
  6 95  1  0  0  0
  7  8  2  0  0  0
  7 26  1  0  0  0
  7 29  1  0  0  0
  8  9  1  0  0  0
  8 22  1  0  0  0
  9 10  1  0  0  0
  9 27  2  0  0  0
 10 11  2  0  0  0
 10 15  1  0  0  0
 11 12  1  0  0  0
 11 96  1  0  0  0
 12 13  2  0  0  0
 12 97  1  0  0  0
 13 14  1  0  0  0
 13 31  1  0  0  0
 14 15  2  0  0  0
 14 98  1  0  0  0
 15 99  1  0  0  0
 16 17  2  0  0  0
 16 21  1  0  0  0
 16 31  1  0  0  0
 17 18  1  0  0  0
 17100  1  0  0  0
 18 19  2  0  0  0
 18101  1  0  0  0
 19 20  1  0  0  0
 19 24  1  0  0  0
 20 21  2  0  0  0
 20102  1  0  0  0
 21 23  1  0  0  0
 22 28  1  0  0  0
 22 32  2  0  0  0
 26 27  1  0  0  0
 28103  1  0  0  0
 28104  1  0  0  0
 29105  1  0  0  0
 29106  1  0  0  0
 33 34  1  0  0  0
 33 66  1  0  0  0
 33 70  2  0  0  0
 34 36  1  0  0  0
 34 59  1  0  0  0
 34107  1  0  0  0
 35 44  2  0  0  0
 35 45  1  0  0  0
 35 68  1  0  0  0
 36 56  1  0  0  0
 36108  1  0  0  0
 37 39  1  0  0  0
 37 47  1  0  0  0
 37 66  1  0  0  0
 37109  1  0  0  0
 38 43  2  0  0  0
 38 46  1  0  0  0
 38 47  1  0  0  0
 39 64  1  0  0  0
 39 67  2  0  0  0
 40 52  1  0  0  0
 40 53  2  0  0  0
 40 58  1  0  0  0
 41110  1  0  0  0
 41111  1  0  0  0
 41112  1  0  0  0
 41 48  1  0  0  0
 42 43  1  0  0  0
 42 66  1  0  0  0
 42113  1  0  0  0
 42114  1  0  0  0
 43 44  1  0  0  0
 44115  1  0  0  0
 45 46  2  0  0  0
 45116  1  0  0  0
 46117  1  0  0  0
 47118  1  0  0  0
 47119  1  0  0  0
 48 56  1  0  0  0
 48 65  1  0  0  0
 48120  1  0  0  0
 49 50  1  0  0  0
 49 53  1  0  0  0
 49 64  1  0  0  0
 49121  1  0  0  0
 50 51  1  0  0  0
 50122  1  0  0  0
 50123  1  0  0  0
 51 52  1  0  0  0
 51124  1  0  0  0
 51125  1  0  0  0
 52126  1  0  0  0
 52127  1  0  0  0
 53 54  1  0  0  0
 54 55  2  0  0  0
 54128  1  0  0  0
 55 57  1  0  0  0
 55129  1  0  0  0
 56 69  2  0  0  0
 57 58  2  0  0  0
 57130  1  0  0  0
 58131  1  0  0  0
 59 60  1  0  0  0
 59 61  1  0  0  0
 59 62  1  0  0  0
 60132  1  0  0  0
 60133  1  0  0  0
 60134  1  0  0  0
 61135  1  0  0  0
 61136  1  0  0  0
 61137  1  0  0  0
 62138  1  0  0  0
 62139  1  0  0  0
 62140  1  0  0  0
 63 65  1  0  0  0
 63141  1  0  0  0
 63142  1  0  0  0
 63143  1  0  0  0
 64144  1  0  0  0
 65145  1  0  0  0
 68 82  1  0  0  0
 71 72  2  0  0  0
 71 74  1  0  0  0
 71146  1  0  0  0
 72 76  1  0  0  0
 72147  1  0  0  0
 73 74  2  0  0  0
 73 75  1  0  0  0
 73148  1  0  0  0
 74 79  1  0  0  0
 75 76  2  0  0  0
 75 80  1  0  0  0
 76 86  1  0  0  0
 77 79  1  0  0  0
 77 83  1  0  0  0
 77 85  2  0  0  0
 78 79  1  0  0  0
 78 83  1  0  0  0
 78149  1  0  0  0
 78150  1  0  0  0
 79151  1  0  0  0
 80 84  1  0  0  0
 80152  1  0  0  0
 80153  1  0  0  0
 81 82  1  0  0  0
 81 83  1  0  0  0
 81154  1  0  0  0
 81155  1  0  0  0
 82156  1  0  0  0
 82157  1  0  0  0
 84158  1  0  0  0
M  ISO  4   1 100  68 101  82 101  84 100
M  END
> <chiral flag>
0

> <version>
0

> <s_m_source_file>
/data/baiqing/PycharmProjects/Reinvent-master-3.2/result/LINK_invent/BTK/process_docking_weight1_custom_product_contain_oxygen_bond_distance_aromatic_linkinvent_7_9_3/rearranged_h_0006.sdf

> <i_m_source_file_index>
65

> <r_mmod_Potential_Energy-OPLS-2005>
-101.934211730957

> <r_mmod_Stretch_Energy-OPLS-2005>
34.4078483581543

> <r_mmod_Bend_Energy-OPLS-2005>
96.8991851806641

> <r_mmod_Torsional_Energy-OPLS-2005>
208.431655883789

> <r_mmod_Improper_Torsional_Energy-OPLS-2005>
3.77934741973877

> <r_mmod_Van_der_Waal_Energy-OPLS-2005>
142.809753417969

> <r_mmod_Electrostatic_Energy-OPLS-2005>
-372.105499267578

> <r_mmod_Solvation_Energy-OPLS-2005>
-227.072128295898

> <b_mmod_Minimization_Converged-OPLS-2005>
0

> <r_mmod_RMS_Derivative-OPLS-2005>
3.0833261013031

$$$$
66
                    3D
 Structure written by MMmdl.
148156  0  0  1  0            999 V2000
  -30.5226  -14.9136   20.4293 C   0  0  0  0  0  0
  -30.4488  -12.5603   19.4982 C   0  0  0  0  0  0
  -29.5250  -12.5321   18.2568 C   0  0  0  0  0  0
  -28.0550  -12.3244   18.6701 C   0  0  0  0  0  0
  -27.6383  -13.2414   19.8495 C   0  0  2  0  0  0
  -28.6811  -13.2255   20.9888 C   0  0  0  0  0  0
  -25.2494  -13.8203   20.5706 C   0  0  0  0  0  0
  -24.1795  -13.0436   20.9210 C   0  0  0  0  0  0
  -24.6401  -11.6919   20.8745 C   0  0  0  0  0  0
  -23.9079  -10.4292   21.0403 C   0  0  0  0  0  0
  -24.3626   -9.4207   21.9182 C   0  0  0  0  0  0
  -23.6297   -8.2244   22.0754 C   0  0  0  0  0  0
  -22.4279   -8.0283   21.3544 C   0  0  0  0  0  0
  -21.9917   -9.0257   20.4646 C   0  0  0  0  0  0
  -22.7249  -10.2135   20.3054 C   0  0  0  0  0  0
  -21.6855   -6.0736   22.5278 C   0  0  0  0  0  0
  -21.4016   -6.5640   23.8212 C   0  0  0  0  0  0
  -21.3660   -5.6793   24.9174 C   0  0  0  0  0  0
  -21.6044   -4.3055   24.7224 C   0  0  0  0  0  0
  -21.8819   -3.8147   23.4346 C   0  0  0  0  0  0
  -21.9193   -4.6964   22.3402 C   0  0  0  0  0  0
  -22.7815  -13.5211   21.1870 C   0  0  0  0  0  0
  -22.1661   -4.2149   21.0979 F   0  0  0  0  0  0
  -21.5628   -3.4539   25.7737 F   0  0  0  0  0  0
  -29.9669  -13.6374   20.4070 N   0  0  0  0  0  0
  -26.2926  -12.9425   20.3279 N   0  0  0  0  0  0
  -25.9337  -11.6558   20.5748 N   0  0  0  0  0  0
  -22.0468  -12.8199   22.0429 N   0  0  0  0  0  0
  -25.4167  -15.1930   20.4140 N   0  0  0  0  0  0
  -31.7033  -15.0368   20.0837 O   0  0  0  0  0  0
  -21.6642   -6.8880   21.4241 O   0  0  0  0  0  0
  -22.3493  -14.5514   20.6716 O   0  0  0  0  0  0
  -24.6423  -31.8444   23.1888 C   0  0  0  0  0  0
  -25.9199  -32.4695   23.8273 C   0  0  1  0  0  0
  -27.2228  -27.1462   20.1370 C   0  0  0  0  0  0
  -25.5949  -33.8501   24.2189 N   0  0  0  0  0  0
  -23.4453  -30.4641   21.5340 C   0  0  2  0  0  0
  -24.8948  -28.8943   20.1061 C   0  0  0  0  0  0
  -22.7561  -29.4546   22.4858 C   0  0  0  0  0  0
  -18.0303  -28.1394   22.8478 C   0  0  0  0  0  0
  -24.1492  -36.7257   23.2643 C   0  0  0  0  0  0
  -26.0005  -30.7197   21.3874 C   0  0  0  0  0  0
  -26.0703  -29.3328   20.7265 C   0  0  0  0  0  0
  -27.2296  -28.4721   20.7308 C   0  0  0  0  0  0
  -26.0157  -26.8055   19.4837 C   0  0  0  0  0  0
  -24.8798  -27.6434   19.4725 C   0  0  0  0  0  0
  -23.6705  -29.7946   20.1522 C   0  0  0  0  0  0
  -25.4124  -36.3033   24.0316 C   0  0  1  0  0  0
  -20.5915  -28.3718   23.1237 C   0  0  2  0  0  0
  -20.6787  -26.9422   22.5404 C   0  0  0  0  0  0
  -19.5761  -26.6380   21.5212 C   0  0  0  0  0  0
  -18.1943  -26.7932   22.1625 C   0  0  0  0  0  0
  -19.1560  -28.8875   23.2850 C   0  0  0  0  0  0
  -18.9477  -30.1471   23.8874 C   0  0  0  0  0  0
  -17.6474  -30.6591   24.0559 C   0  0  0  0  0  0
  -25.9073  -34.9407   23.5062 C   0  0  0  0  0  0
  -16.5365  -29.9084   23.6336 C   0  0  0  0  0  0
  -16.7288  -28.6503   23.0356 C   0  0  0  0  0  0
  -26.4525  -31.6565   25.0714 C   0  0  0  0  0  0
  -25.3712  -31.3753   26.1411 C   0  0  0  0  0  0
  -27.0395  -30.2962   24.6298 C   0  0  0  0  0  0
  -27.6050  -32.4337   25.7501 C   0  0  0  0  0  0
  -27.5576  -37.1786   24.8466 C   0  0  0  0  0  0
  -21.4254  -29.3044   22.3608 N   0  0  0  0  0  0
  -26.4288  -37.3745   23.9407 N   0  0  0  0  0  0
  -24.7157  -31.0306   22.0918 N   0  0  0  0  0  0
  -23.4208  -28.8095   23.3007 O   0  0  0  0  0  0
  -28.2920  -26.1843   20.2527 O   0  0  0  0  0  0
  -26.5661  -34.8904   22.4642 O   0  0  0  0  0  0
  -23.5544  -32.1318   23.7113 O   0  0  0  0  0  0
  -30.3165  -19.7861   19.5251 C   0  0  0  0  0  0
  -30.5013  -18.3516   19.6948 C   0  0  0  0  0  0
  -28.5259  -19.7830   21.0447 C   0  0  0  0  0  0
  -29.3103  -20.5993   20.1649 C   0  0  0  0  0  0
  -29.6774  -17.5391   20.5377 C   0  0  0  0  0  0
  -28.6877  -18.3442   21.2057 C   0  0  0  0  0  0
  -29.1426  -22.1578   19.8196 C   0  0  0  0  0  0
  -28.4874  -23.3182   20.2993 C   0  0  0  0  0  0
  -28.3578  -24.7906   19.5758 C   0  0  0  0  0  0
  -29.6890  -16.0185   20.7144 N   0  0  0  0  0  0
  -27.8287  -17.7024   22.0342 F   0  0  0  0  0  0
  -31.4828  -12.7223   19.1895 H   0  0  0  0  0  0
  -30.4396  -11.5964   20.0096 H   0  0  0  0  0  0
  -29.8360  -11.7431   17.5708 H   0  0  0  0  0  0
  -29.6213  -13.4703   17.7082 H   0  0  0  0  0  0
  -27.9399  -11.2792   18.9595 H   0  0  0  0  0  0
  -27.3943  -12.4780   17.8160 H   0  0  0  0  0  0
  -27.6147  -14.2529   19.4432 H   0  0  0  0  0  0
  -28.7560  -12.2334   21.4365 H   0  0  0  0  0  0
  -28.3841  -13.9002   21.7930 H   0  0  0  0  0  0
  -25.2771   -9.5682   22.4757 H   0  0  0  0  0  0
  -24.0004   -7.4636   22.7475 H   0  0  0  0  0  0
  -21.0846   -8.8780   19.8953 H   0  0  0  0  0  0
  -22.3708  -10.9675   19.6164 H   0  0  0  0  0  0
  -21.2010   -7.6149   23.9715 H   0  0  0  0  0  0
  -21.1481   -6.0523   25.9076 H   0  0  0  0  0  0
  -22.0598   -2.7609   23.2847 H   0  0  0  0  0  0
  -22.4094  -11.9865   22.4818 H   0  0  0  0  0  0
  -21.1084  -13.1217   22.2638 H   0  0  0  0  0  0
  -24.6517  -15.8462   20.5420 H   0  0  0  0  0  0
  -26.2676  -15.6407   20.0993 H   0  0  0  0  0  0
  -26.7261  -32.5300   23.0998 H   0  0  0  0  0  0
  -25.0072  -33.9617   25.0320 H   0  0  0  0  0  0
  -22.7474  -31.2899   21.3808 H   0  0  0  0  0  0
  -23.3757  -35.9585   23.3293 H   0  0  0  0  0  0
  -24.3575  -36.8901   22.2059 H   0  0  0  0  0  0
  -23.7244  -37.6448   23.6688 H   0  0  0  0  0  0
  -26.1574  -31.4758   20.6168 H   0  0  0  0  0  0
  -26.8704  -30.7674   22.0308 H   0  0  0  0  0  0
  -28.1224  -28.8010   21.2440 H   0  0  0  0  0  0
  -25.8864  -25.8471   19.0096 H   0  0  0  0  0  0
  -23.9788  -27.2992   18.9834 H   0  0  0  0  0  0
  -23.8050  -30.5699   19.3970 H   0  0  0  0  0  0
  -22.7855  -29.2359   19.8423 H   0  0  0  0  0  0
  -25.1313  -36.1861   25.0808 H   0  0  0  0  0  0
  -21.0009  -28.3309   24.1358 H   0  0  0  0  0  0
  -20.5682  -26.2331   23.3623 H   0  0  0  0  0  0
  -21.6653  -26.7428   22.1202 H   0  0  0  0  0  0
  -19.6922  -25.6285   21.1256 H   0  0  0  0  0  0
  -19.6698  -27.3178   20.6732 H   0  0  0  0  0  0
  -17.4210  -26.6673   21.4031 H   0  0  0  0  0  0
  -18.0345  -26.0080   22.9029 H   0  0  0  0  0  0
  -19.7952  -30.7294   24.2233 H   0  0  0  0  0  0
  -17.5026  -31.6269   24.5165 H   0  0  0  0  0  0
  -15.5364  -30.2979   23.7672 H   0  0  0  0  0  0
  -15.8689  -28.0814   22.7085 H   0  0  0  0  0  0
  -24.5889  -30.7105   25.7730 H   0  0  0  0  0  0
  -24.8904  -32.2937   26.4791 H   0  0  0  0  0  0
  -25.7995  -30.8952   27.0219 H   0  0  0  0  0  0
  -26.3016  -29.6679   24.1298 H   0  0  0  0  0  0
  -27.4002  -29.7267   25.4874 H   0  0  0  0  0  0
  -27.8925  -30.4200   23.9621 H   0  0  0  0  0  0
  -27.2635  -33.3653   26.2026 H   0  0  0  0  0  0
  -28.3888  -32.6875   25.0351 H   0  0  0  0  0  0
  -28.0690  -31.8501   26.5463 H   0  0  0  0  0  0
  -28.2587  -38.0088   24.7509 H   0  0  0  0  0  0
  -28.1078  -36.2616   24.6299 H   0  0  0  0  0  0
  -27.2290  -37.1438   25.8869 H   0  0  0  0  0  0
  -20.9463  -29.8757   21.6789 H   0  0  0  0  0  0
  -26.0155  -38.2813   24.1408 H   0  0  0  0  0  0
  -30.9845  -20.2807   18.8337 H   0  0  0  0  0  0
  -31.2841  -17.8700   19.1264 H   0  0  0  0  0  0
  -27.7275  -20.2587   21.5946 H   0  0  0  0  0  0
  -29.6598  -22.3727   18.8945 H   0  0  0  0  0  0
  -27.9340  -23.2313   21.2231 H   0  0  0  0  0  0
  -27.5417  -24.6799   18.8692 H   0  0  0  0  0  0
  -29.2302  -24.8542   18.9253 H   0  0  0  0  0  0
  -28.8203  -15.6985   21.1162 H   0  0  0  0  0  0
  1 25  1  0  0  0
  1 30  2  0  0  0
  1 80  1  0  0  0
  2  3  1  0  0  0
  2 25  1  0  0  0
  2 82  1  0  0  0
  2 83  1  0  0  0
  3  4  1  0  0  0
  3 84  1  0  0  0
  3 85  1  0  0  0
  4  5  1  0  0  0
  4 86  1  0  0  0
  4 87  1  0  0  0
  5  6  1  0  0  0
  5 26  1  0  0  0
  5 88  1  0  0  0
  6 25  1  0  0  0
  6 89  1  0  0  0
  6 90  1  0  0  0
  7  8  2  0  0  0
  7 26  1  0  0  0
  7 29  1  0  0  0
  8  9  1  0  0  0
  8 22  1  0  0  0
  9 10  1  0  0  0
  9 27  2  0  0  0
 10 11  2  0  0  0
 10 15  1  0  0  0
 11 12  1  0  0  0
 11 91  1  0  0  0
 12 13  2  0  0  0
 12 92  1  0  0  0
 13 14  1  0  0  0
 13 31  1  0  0  0
 14 15  2  0  0  0
 14 93  1  0  0  0
 15 94  1  0  0  0
 16 17  2  0  0  0
 16 21  1  0  0  0
 16 31  1  0  0  0
 17 18  1  0  0  0
 17 95  1  0  0  0
 18 19  2  0  0  0
 18 96  1  0  0  0
 19 20  1  0  0  0
 19 24  1  0  0  0
 20 21  2  0  0  0
 20 97  1  0  0  0
 21 23  1  0  0  0
 22 28  1  0  0  0
 22 32  2  0  0  0
 26 27  1  0  0  0
 28 98  1  0  0  0
 28 99  1  0  0  0
 29100  1  0  0  0
 29101  1  0  0  0
 33 34  1  0  0  0
 33 66  1  0  0  0
 33 70  2  0  0  0
 34 36  1  0  0  0
 34 59  1  0  0  0
 34102  1  0  0  0
 35 44  2  0  0  0
 35 45  1  0  0  0
 35 68  1  0  0  0
 36 56  1  0  0  0
 36103  1  0  0  0
 37 39  1  0  0  0
 37 47  1  0  0  0
 37 66  1  0  0  0
 37104  1  0  0  0
 38 43  2  0  0  0
 38 46  1  0  0  0
 38 47  1  0  0  0
 39 64  1  0  0  0
 39 67  2  0  0  0
 40 52  1  0  0  0
 40 53  2  0  0  0
 40 58  1  0  0  0
 41105  1  0  0  0
 41106  1  0  0  0
 41107  1  0  0  0
 41 48  1  0  0  0
 42 43  1  0  0  0
 42 66  1  0  0  0
 42108  1  0  0  0
 42109  1  0  0  0
 43 44  1  0  0  0
 44110  1  0  0  0
 45 46  2  0  0  0
 45111  1  0  0  0
 46112  1  0  0  0
 47113  1  0  0  0
 47114  1  0  0  0
 48 56  1  0  0  0
 48 65  1  0  0  0
 48115  1  0  0  0
 49 50  1  0  0  0
 49 53  1  0  0  0
 49 64  1  0  0  0
 49116  1  0  0  0
 50 51  1  0  0  0
 50117  1  0  0  0
 50118  1  0  0  0
 51 52  1  0  0  0
 51119  1  0  0  0
 51120  1  0  0  0
 52121  1  0  0  0
 52122  1  0  0  0
 53 54  1  0  0  0
 54 55  2  0  0  0
 54123  1  0  0  0
 55 57  1  0  0  0
 55124  1  0  0  0
 56 69  2  0  0  0
 57 58  2  0  0  0
 57125  1  0  0  0
 58126  1  0  0  0
 59 60  1  0  0  0
 59 61  1  0  0  0
 59 62  1  0  0  0
 60127  1  0  0  0
 60128  1  0  0  0
 60129  1  0  0  0
 61130  1  0  0  0
 61131  1  0  0  0
 61132  1  0  0  0
 62133  1  0  0  0
 62134  1  0  0  0
 62135  1  0  0  0
 63 65  1  0  0  0
 63136  1  0  0  0
 63137  1  0  0  0
 63138  1  0  0  0
 64139  1  0  0  0
 65140  1  0  0  0
 68 79  1  0  0  0
 71 72  2  0  0  0
 71 74  1  0  0  0
 71141  1  0  0  0
 72 75  1  0  0  0
 72142  1  0  0  0
 73 74  2  0  0  0
 73 76  1  0  0  0
 73143  1  0  0  0
 74 77  1  0  0  0
 75 76  2  0  0  0
 75 80  1  0  0  0
 76 81  1  0  0  0
 77 78  2  0  0  0
 77144  1  0  0  0
 78 79  1  0  0  0
 78145  1  0  0  0
 79146  1  0  0  0
 79147  1  0  0  0
 80148  1  0  0  0
M  ISO  4   1 100  68 101  79 101  80 100
M  END
> <chiral flag>
0

> <version>
0

> <s_m_source_file>
/data/baiqing/PycharmProjects/Reinvent-master-3.2/result/LINK_invent/BTK/process_docking_weight1_custom_product_contain_oxygen_bond_distance_aromatic_linkinvent_7_9_3/rearranged_h_0006.sdf

> <i_m_source_file_index>
66

> <r_mmod_Potential_Energy-OPLS-2005>
399.312713623047

> <r_mmod_Stretch_Energy-OPLS-2005>
213.372772216797

> <r_mmod_Bend_Energy-OPLS-2005>
260.7060546875

> <r_mmod_Torsional_Energy-OPLS-2005>
214.760696411133

> <r_mmod_Improper_Torsional_Energy-OPLS-2005>
4.42288541793823

> <r_mmod_Van_der_Waal_Energy-OPLS-2005>
132.536224365234

> <r_mmod_Electrostatic_Energy-OPLS-2005>
-400.437469482422

> <r_mmod_Solvation_Energy-OPLS-2005>
-201.287734985352

> <b_mmod_Minimization_Converged-OPLS-2005>
0

> <r_mmod_RMS_Derivative-OPLS-2005>
0.155435532331467

$$$$
67
                    3D
 Structure written by MMmdl.
166175  0  0  1  0            999 V2000
  -30.7646  -14.3615   20.6888 C   0  0  0  0  0  0
  -30.4165  -12.2955   19.3842 C   0  0  0  0  0  0
  -29.4738  -12.5357   18.1890 C   0  0  0  0  0  0
  -28.0024  -12.3806   18.6124 C   0  0  0  0  0  0
  -27.6656  -13.2014   19.8833 C   0  0  2  0  0  0
  -28.7049  -12.9336   20.9957 C   0  0  0  0  0  0
  -25.2585  -13.8177   20.5645 C   0  0  0  0  0  0
  -24.1835  -13.0461   20.9177 C   0  0  0  0  0  0
  -24.6377  -11.6930   20.8725 C   0  0  0  0  0  0
  -23.9036  -10.4315   21.0384 C   0  0  0  0  0  0
  -24.3603   -9.4233   21.9152 C   0  0  0  0  0  0
  -23.6287   -8.2261   22.0732 C   0  0  0  0  0  0
  -22.4260   -8.0293   21.3530 C   0  0  0  0  0  0
  -21.9887   -9.0270   20.4635 C   0  0  0  0  0  0
  -22.7212  -10.2149   20.3039 C   0  0  0  0  0  0
  -21.6873   -6.0756   22.5278 C   0  0  0  0  0  0
  -21.4031   -6.5655   23.8215 C   0  0  0  0  0  0
  -21.3640   -5.6798   24.9174 C   0  0  0  0  0  0
  -21.6025   -4.3058   24.7225 C   0  0  0  0  0  0
  -21.8818   -3.8158   23.4348 C   0  0  0  0  0  0
  -21.9205   -4.6981   22.3409 C   0  0  0  0  0  0
  -22.7864  -13.5263   21.1862 C   0  0  0  0  0  0
  -22.1677   -4.2169   21.0988 F   0  0  0  0  0  0
  -21.5592   -3.4535   25.7731 F   0  0  0  0  0  0
  -30.0509  -13.2274   20.4614 N   0  0  0  0  0  0
  -26.3031  -12.9334   20.3402 N   0  0  0  0  0  0
  -25.9296  -11.6504   20.5761 N   0  0  0  0  0  0
  -22.0522  -12.8242   22.0430 N   0  0  0  0  0  0
  -25.4275  -15.1880   20.3952 N   0  0  0  0  0  0
  -31.7754  -14.6703   20.0500 O   0  0  0  0  0  0
  -21.6635   -6.8886   21.4234 O   0  0  0  0  0  0
  -22.3542  -14.5576   20.6740 O   0  0  0  0  0  0
  -24.6089  -31.8709   23.2125 C   0  0  0  0  0  0
  -25.8989  -32.4842   23.8433 C   0  0  1  0  0  0
  -27.2480  -27.4487   20.1073 C   0  0  0  0  0  0
  -25.5863  -33.8643   24.2365 N   0  0  0  0  0  0
  -23.3986  -30.4928   21.5489 C   0  0  2  0  0  0
  -24.8512  -28.9571   20.1166 C   0  0  0  0  0  0
  -22.7385  -29.4685   22.4979 C   0  0  0  0  0  0
  -18.0272  -28.1345   22.8475 C   0  0  0  0  0  0
  -24.1486  -36.7319   23.2645 C   0  0  0  0  0  0
  -25.9256  -30.8389   21.3673 C   0  0  0  0  0  0
  -26.0041  -29.4725   20.7189 C   0  0  0  0  0  0
  -27.1985  -28.7229   20.7181 C   0  0  0  0  0  0
  -26.0764  -26.9451   19.4943 C   0  0  0  0  0  0
  -24.8808  -27.6914   19.5037 C   0  0  0  0  0  0
  -23.6107  -29.8215   20.1645 C   0  0  0  0  0  0
  -25.4101  -36.3129   24.0356 C   0  0  1  0  0  0
  -20.5856  -28.3657   23.1306 C   0  0  2  0  0  0
  -20.6769  -26.9385   22.5418 C   0  0  0  0  0  0
  -19.5760  -26.6370   21.5198 C   0  0  0  0  0  0
  -18.1938  -26.7906   22.1582 C   0  0  0  0  0  0
  -19.1507  -28.8813   23.2894 C   0  0  0  0  0  0
  -18.9439  -30.1423   23.8901 C   0  0  0  0  0  0
  -17.6428  -30.6552   24.0555 C   0  0  0  0  0  0
  -25.9018  -34.9489   23.5161 C   0  0  0  0  0  0
  -16.5325  -29.9043   23.6295 C   0  0  0  0  0  0
  -16.7255  -28.6459   23.0317 C   0  0  0  0  0  0
  -26.4438  -31.6610   25.0753 C   0  0  0  0  0  0
  -25.3731  -31.3695   26.1527 C   0  0  0  0  0  0
  -27.0270  -30.3057   24.6103 C   0  0  0  0  0  0
  -27.6032  -32.4334   25.7484 C   0  0  0  0  0  0
  -27.5583  -37.1814   24.8470 C   0  0  0  0  0  0
  -21.4113  -29.3042   22.3717 N   0  0  0  0  0  0
  -26.4293  -37.3804   23.9418 N   0  0  0  0  0  0
  -24.6612  -31.0828   22.1009 N   0  0  0  0  0  0
  -23.4177  -28.8251   23.3019 O   0  0  0  0  0  0
  -28.4511  -26.7730   20.1432 O   0  0  0  0  0  0
  -26.5592  -34.8922   22.4731 O   0  0  0  0  0  0
  -23.5283  -32.1459   23.7525 O   0  0  0  0  0  0
  -24.4687  -21.1508   23.2440 C   0  0  0  0  0  0
  -24.2631  -22.2031   22.3387 C   0  0  0  0  0  0
  -25.5971  -20.3232   23.1006 C   0  0  0  0  0  0
  -27.3916  -18.2759   21.4398 C   0  0  0  0  0  0
  -28.9269  -19.8289   22.4906 C   0  0  0  0  0  0
  -25.2031  -22.4426   21.3213 C   0  0  0  0  0  0
  -28.3873  -17.2804   21.4353 C   0  0  0  0  0  0
  -29.9275  -18.8327   22.4934 C   0  0  0  0  0  0
  -27.6429  -19.5575   21.9763 C   0  0  0  0  0  0
  -26.5457  -20.5387   22.0768 C   0  0  0  0  0  0
  -29.6649  -17.5437   21.9785 C   0  0  0  0  0  0
  -26.3638  -21.6444   21.1954 C   0  0  0  0  0  0
  -30.7578  -16.4738   22.0262 C   0  0  0  0  0  0
  -27.3471  -21.9718   20.0666 C   0  0  0  0  0  0
  -27.8942  -24.3959   20.6608 C   0  0  0  0  0  0
  -28.5568  -25.4140   19.7016 C   0  0  0  0  0  0
  -30.2992  -15.1271   21.6795 N   0  0  0  0  0  0
  -28.3601  -23.0020   20.4122 N   0  3  0  0  0  0
  -31.4562  -12.4088   19.0691 H   0  0  0  0  0  0
  -30.3246  -11.2700   19.7425 H   0  0  0  0  0  0
  -29.7032  -11.8375   17.3825 H   0  0  0  0  0  0
  -29.6337  -13.5367   17.7844 H   0  0  0  0  0  0
  -27.8170  -11.3208   18.7970 H   0  0  0  0  0  0
  -27.3387  -12.6634   17.7947 H   0  0  0  0  0  0
  -27.7267  -14.2562   19.6150 H   0  0  0  0  0  0
  -28.6628  -11.8868   21.3029 H   0  0  0  0  0  0
  -28.4494  -13.5011   21.8912 H   0  0  0  0  0  0
  -25.2769   -9.5739   22.4699 H   0  0  0  0  0  0
  -24.0014   -7.4670   22.7452 H   0  0  0  0  0  0
  -21.0819   -8.8805   19.8952 H   0  0  0  0  0  0
  -22.3674  -10.9682   19.6144 H   0  0  0  0  0  0
  -21.2039   -7.6165   23.9725 H   0  0  0  0  0  0
  -21.1437   -6.0526   25.9071 H   0  0  0  0  0  0
  -22.0608   -2.7623   23.2847 H   0  0  0  0  0  0
  -22.4177  -11.9924   22.4821 H   0  0  0  0  0  0
  -21.1138  -13.1226   22.2648 H   0  0  0  0  0  0
  -24.6556  -15.8385   20.4854 H   0  0  0  0  0  0
  -26.2749  -15.6203   20.0506 H   0  0  0  0  0  0
  -26.7080  -32.5584   23.1221 H   0  0  0  0  0  0
  -25.0033  -33.9835   25.0517 H   0  0  0  0  0  0
  -22.6840  -31.3082   21.4073 H   0  0  0  0  0  0
  -23.3752  -35.9651   23.3322 H   0  0  0  0  0  0
  -24.3577  -36.8907   22.2059 H   0  0  0  0  0  0
  -23.7229  -37.6523   23.6637 H   0  0  0  0  0  0
  -26.0389  -31.6046   20.5991 H   0  0  0  0  0  0
  -26.8118  -30.8942   21.9876 H   0  0  0  0  0  0
  -28.0857  -29.1169   21.1951 H   0  0  0  0  0  0
  -26.0626  -25.9836   19.0022 H   0  0  0  0  0  0
  -23.9952  -27.2871   19.0329 H   0  0  0  0  0  0
  -23.7143  -30.5929   19.4003 H   0  0  0  0  0  0
  -22.7386  -29.2346   19.8724 H   0  0  0  0  0  0
  -25.1267  -36.2016   25.0848 H   0  0  0  0  0  0
  -20.9952  -28.3235   24.1420 H   0  0  0  0  0  0
  -20.5641  -26.2254   23.3595 H   0  0  0  0  0  0
  -21.6647  -26.7435   22.1217 H   0  0  0  0  0  0
  -19.6938  -25.6290   21.1209 H   0  0  0  0  0  0
  -19.6701  -27.3183   20.6730 H   0  0  0  0  0  0
  -17.4223  -26.6666   21.3957 H   0  0  0  0  0  0
  -18.0312  -26.0028   22.8941 H   0  0  0  0  0  0
  -19.7904  -30.7250   24.2270 H   0  0  0  0  0  0
  -17.4954  -31.6232   24.5157 H   0  0  0  0  0  0
  -15.5311  -30.2918   23.7603 H   0  0  0  0  0  0
  -15.8669  -28.0768   22.7000 H   0  0  0  0  0  0
  -24.5880  -30.7063   25.7870 H   0  0  0  0  0  0
  -24.8958  -32.2849   26.5042 H   0  0  0  0  0  0
  -25.8114  -30.8819   27.0250 H   0  0  0  0  0  0
  -26.2805  -29.6826   24.1160 H   0  0  0  0  0  0
  -27.4052  -29.7274   25.4544 H   0  0  0  0  0  0
  -27.8640  -30.4390   23.9244 H   0  0  0  0  0  0
  -27.2652  -33.3608   26.2118 H   0  0  0  0  0  0
  -28.3780  -32.6944   25.0265 H   0  0  0  0  0  0
  -28.0773  -31.8445   26.5340 H   0  0  0  0  0  0
  -28.2612  -38.0104   24.7505 H   0  0  0  0  0  0
  -28.1064  -36.2628   24.6297 H   0  0  0  0  0  0
  -27.2307  -37.1479   25.8878 H   0  0  0  0  0  0
  -20.9276  -29.8757   21.6927 H   0  0  0  0  0  0
  -26.0193  -38.2893   24.1390 H   0  0  0  0  0  0
  -23.7557  -20.9680   24.0353 H   0  0  0  0  0  0
  -23.3823  -22.8255   22.4210 H   0  0  0  0  0  0
  -25.7344  -19.4970   23.7856 H   0  0  0  0  0  0
  -26.4097  -18.0388   21.0539 H   0  0  0  0  0  0
  -29.1358  -20.7961   22.9241 H   0  0  0  0  0  0
  -25.0133  -23.2494   20.6263 H   0  0  0  0  0  0
  -28.1448  -16.3099   21.0278 H   0  0  0  0  0  0
  -30.8975  -19.0580   22.9159 H   0  0  0  0  0  0
  -31.5739  -16.7942   21.3760 H   0  0  0  0  0  0
  -31.1731  -16.4388   23.0342 H   0  0  0  0  0  0
  -26.7911  -22.2973   19.1855 H   0  0  0  0  0  0
  -27.8709  -21.0637   19.7632 H   0  0  0  0  0  0
  -26.8139  -24.4788   20.5959 H   0  0  0  0  0  0
  -28.1515  -24.6487   21.6905 H   0  0  0  0  0  0
  -28.1983  -25.3031   18.6776 H   0  0  0  0  0  0
  -29.6269  -25.2076   19.6624 H   0  0  0  0  0  0
  -29.5148  -14.7640   22.1983 H   0  0  0  0  0  0
  -29.0086  -23.0284   19.6400 H   0  0  0  0  0  0
  -28.8802  -22.6842   21.2128 H   0  0  0  0  0  0
  1 25  1  0  0  0
  1 30  2  0  0  0
  1 87  1  0  0  0
  2  3  1  0  0  0
  2 25  1  0  0  0
  2 89  1  0  0  0
  2 90  1  0  0  0
  3  4  1  0  0  0
  3 91  1  0  0  0
  3 92  1  0  0  0
  4  5  1  0  0  0
  4 93  1  0  0  0
  4 94  1  0  0  0
  5  6  1  0  0  0
  5 26  1  0  0  0
  5 95  1  0  0  0
  6 25  1  0  0  0
  6 96  1  0  0  0
  6 97  1  0  0  0
  7  8  2  0  0  0
  7 26  1  0  0  0
  7 29  1  0  0  0
  8  9  1  0  0  0
  8 22  1  0  0  0
  9 10  1  0  0  0
  9 27  2  0  0  0
 10 11  2  0  0  0
 10 15  1  0  0  0
 11 12  1  0  0  0
 11 98  1  0  0  0
 12 13  2  0  0  0
 12 99  1  0  0  0
 13 14  1  0  0  0
 13 31  1  0  0  0
 14 15  2  0  0  0
 14100  1  0  0  0
 15101  1  0  0  0
 16 17  2  0  0  0
 16 21  1  0  0  0
 16 31  1  0  0  0
 17 18  1  0  0  0
 17102  1  0  0  0
 18 19  2  0  0  0
 18103  1  0  0  0
 19 20  1  0  0  0
 19 24  1  0  0  0
 20 21  2  0  0  0
 20104  1  0  0  0
 21 23  1  0  0  0
 22 28  1  0  0  0
 22 32  2  0  0  0
 26 27  1  0  0  0
 28105  1  0  0  0
 28106  1  0  0  0
 29107  1  0  0  0
 29108  1  0  0  0
 33 34  1  0  0  0
 33 66  1  0  0  0
 33 70  2  0  0  0
 34 36  1  0  0  0
 34 59  1  0  0  0
 34109  1  0  0  0
 35 44  2  0  0  0
 35 45  1  0  0  0
 35 68  1  0  0  0
 36 56  1  0  0  0
 36110  1  0  0  0
 37 39  1  0  0  0
 37 47  1  0  0  0
 37 66  1  0  0  0
 37111  1  0  0  0
 38 43  2  0  0  0
 38 46  1  0  0  0
 38 47  1  0  0  0
 39 64  1  0  0  0
 39 67  2  0  0  0
 40 52  1  0  0  0
 40 53  2  0  0  0
 40 58  1  0  0  0
 41112  1  0  0  0
 41113  1  0  0  0
 41114  1  0  0  0
 41 48  1  0  0  0
 42 43  1  0  0  0
 42 66  1  0  0  0
 42115  1  0  0  0
 42116  1  0  0  0
 43 44  1  0  0  0
 44117  1  0  0  0
 45 46  2  0  0  0
 45118  1  0  0  0
 46119  1  0  0  0
 47120  1  0  0  0
 47121  1  0  0  0
 48 56  1  0  0  0
 48 65  1  0  0  0
 48122  1  0  0  0
 49 50  1  0  0  0
 49 53  1  0  0  0
 49 64  1  0  0  0
 49123  1  0  0  0
 50 51  1  0  0  0
 50124  1  0  0  0
 50125  1  0  0  0
 51 52  1  0  0  0
 51126  1  0  0  0
 51127  1  0  0  0
 52128  1  0  0  0
 52129  1  0  0  0
 53 54  1  0  0  0
 54 55  2  0  0  0
 54130  1  0  0  0
 55 57  1  0  0  0
 55131  1  0  0  0
 56 69  2  0  0  0
 57 58  2  0  0  0
 57132  1  0  0  0
 58133  1  0  0  0
 59 60  1  0  0  0
 59 61  1  0  0  0
 59 62  1  0  0  0
 60134  1  0  0  0
 60135  1  0  0  0
 60136  1  0  0  0
 61137  1  0  0  0
 61138  1  0  0  0
 61139  1  0  0  0
 62140  1  0  0  0
 62141  1  0  0  0
 62142  1  0  0  0
 63 65  1  0  0  0
 63143  1  0  0  0
 63144  1  0  0  0
 63145  1  0  0  0
 64146  1  0  0  0
 65147  1  0  0  0
 68 86  1  0  0  0
 71 72  2  0  0  0
 71 73  1  0  0  0
 71148  1  0  0  0
 72 76  1  0  0  0
 72149  1  0  0  0
 73 80  2  0  0  0
 73150  1  0  0  0
 74 77  2  0  0  0
 74 79  1  0  0  0
 74151  1  0  0  0
 75 78  1  0  0  0
 75 79  2  0  0  0
 75152  1  0  0  0
 76 82  2  0  0  0
 76153  1  0  0  0
 77 81  1  0  0  0
 77154  1  0  0  0
 78 81  2  0  0  0
 78155  1  0  0  0
 79 80  1  0  0  0
 80 82  1  0  0  0
 81 83  1  0  0  0
 82 84  1  0  0  0
 83 87  1  0  0  0
 83156  1  0  0  0
 83157  1  0  0  0
 84 88  1  0  0  0
 84158  1  0  0  0
 84159  1  0  0  0
 85 86  1  0  0  0
 85 88  1  0  0  0
 85160  1  0  0  0
 85161  1  0  0  0
 86162  1  0  0  0
 86163  1  0  0  0
 87164  1  0  0  0
 88165  1  0  0  0
 88166  1  0  0  0
M  CHG  1  88   1
M  ISO  4   1 100  68 101  86 101  87 100
M  END
> <chiral flag>
0

> <version>
0

> <s_m_source_file>
/data/baiqing/PycharmProjects/Reinvent-master-3.2/result/LINK_invent/BTK/process_docking_weight1_custom_product_contain_oxygen_bond_distance_aromatic_linkinvent_7_9_3/rearranged_h_0006.sdf

> <i_m_source_file_index>
67

> <r_mmod_Potential_Energy-OPLS-2005>
-272.491180419922

> <r_mmod_Stretch_Energy-OPLS-2005>
37.2415161132812

> <r_mmod_Bend_Energy-OPLS-2005>
105.369728088379

> <r_mmod_Torsional_Energy-OPLS-2005>
200.699523925781

> <r_mmod_Improper_Torsional_Energy-OPLS-2005>
2.32940721511841

> <r_mmod_Van_der_Waal_Energy-OPLS-2005>
163.343109130859

> <r_mmod_Electrostatic_Energy-OPLS-2005>
-338.433624267578

> <r_mmod_Solvation_Energy-OPLS-2005>
-451.794067382812

> <b_mmod_Minimization_Converged-OPLS-2005>
0

> <r_mmod_RMS_Derivative-OPLS-2005>
2.77059769630432

$$$$
68
                    3D
 Structure written by MMmdl.
194204  0  0  1  0            999 V2000
  -30.7146  -14.4769   20.4850 C   0  0  0  0  0  0
  -30.4027  -12.2875   19.4373 C   0  0  0  0  0  0
  -29.4869  -12.4694   18.2100 C   0  0  0  0  0  0
  -28.0078  -12.3444   18.6231 C   0  0  0  0  0  0
  -27.6502  -13.2118   19.8600 C   0  0  2  0  0  0
  -28.6914  -13.0484   20.9890 C   0  0  0  0  0  0
  -25.2551  -13.8194   20.5695 C   0  0  0  0  0  0
  -24.1820  -13.0464   20.9221 C   0  0  0  0  0  0
  -24.6379  -11.6934   20.8765 C   0  0  0  0  0  0
  -23.9056  -10.4308   21.0418 C   0  0  0  0  0  0
  -24.3612   -9.4218   21.9188 C   0  0  0  0  0  0
  -23.6288   -8.2249   22.0753 C   0  0  0  0  0  0
  -22.4273   -8.0289   21.3540 C   0  0  0  0  0  0
  -21.9911   -9.0266   20.4638 C   0  0  0  0  0  0
  -22.7233  -10.2149   20.3057 C   0  0  0  0  0  0
  -21.6849   -6.0738   22.5271 C   0  0  0  0  0  0
  -21.4014   -6.5638   23.8208 C   0  0  0  0  0  0
  -21.3660   -5.6787   24.9174 C   0  0  0  0  0  0
  -21.6043   -4.3054   24.7220 C   0  0  0  0  0  0
  -21.8823   -3.8151   23.4337 C   0  0  0  0  0  0
  -21.9193   -4.6964   22.3393 C   0  0  0  0  0  0
  -22.7842  -13.5244   21.1888 C   0  0  0  0  0  0
  -22.1661   -4.2159   21.0970 F   0  0  0  0  0  0
  -21.5633   -3.4537   25.7731 F   0  0  0  0  0  0
  -30.0168  -13.3127   20.4185 N   0  0  0  0  0  0
  -26.2961  -12.9355   20.3306 N   0  0  0  0  0  0
  -25.9292  -11.6510   20.5760 N   0  0  0  0  0  0
  -22.0477  -12.8215   22.0417 N   0  0  0  0  0  0
  -25.4289  -15.1901   20.4073 N   0  0  0  0  0  0
  -31.9209  -14.5174   20.2484 O   0  0  0  0  0  0
  -21.6642   -6.8888   21.4237 O   0  0  0  0  0  0
  -22.3527  -14.5541   20.6717 O   0  0  0  0  0  0
  -24.6142  -31.8690   23.2080 C   0  0  0  0  0  0
  -25.9043  -32.4821   23.8401 C   0  0  1  0  0  0
  -27.2389  -27.4328   20.1112 C   0  0  0  0  0  0
  -25.5922  -33.8622   24.2346 N   0  0  0  0  0  0
  -23.4042  -30.4881   21.5494 C   0  0  2  0  0  0
  -24.8561  -28.9439   20.1243 C   0  0  0  0  0  0
  -22.7432  -29.4643   22.4980 C   0  0  0  0  0  0
  -18.0272  -28.1317   22.8473 C   0  0  0  0  0  0
  -24.1483  -36.7290   23.2638 C   0  0  0  0  0  0
  -25.9317  -30.8246   21.3709 C   0  0  0  0  0  0
  -26.0099  -29.4554   20.7304 C   0  0  0  0  0  0
  -27.2067  -28.7030   20.7325 C   0  0  0  0  0  0
  -26.0740  -26.9341   19.4978 C   0  0  0  0  0  0
  -24.8783  -27.6777   19.5105 C   0  0  0  0  0  0
  -23.6198  -29.8175   20.1654 C   0  0  0  0  0  0
  -25.4102  -36.3102   24.0328 C   0  0  1  0  0  0
  -20.5877  -28.3637   23.1296 C   0  0  2  0  0  0
  -20.6768  -26.9373   22.5404 C   0  0  0  0  0  0
  -19.5754  -26.6357   21.5164 C   0  0  0  0  0  0
  -18.1921  -26.7883   22.1575 C   0  0  0  0  0  0
  -19.1518  -28.8802   23.2883 C   0  0  0  0  0  0
  -18.9493  -30.1424   23.8891 C   0  0  0  0  0  0
  -17.6481  -30.6578   24.0541 C   0  0  0  0  0  0
  -25.9019  -34.9474   23.5131 C   0  0  0  0  0  0
  -16.5365  -29.9071   23.6295 C   0  0  0  0  0  0
  -16.7266  -28.6462   23.0344 C   0  0  0  0  0  0
  -26.4469  -31.6616   25.0743 C   0  0  0  0  0  0
  -25.3746  -31.3691   26.1516 C   0  0  0  0  0  0
  -27.0318  -30.3063   24.6085 C   0  0  0  0  0  0
  -27.6048  -32.4343   25.7494 C   0  0  0  0  0  0
  -27.5574  -37.1816   24.8461 C   0  0  0  0  0  0
  -21.4167  -29.2996   22.3731 N   0  0  0  0  0  0
  -26.4300  -37.3787   23.9372 N   0  0  0  0  0  0
  -24.6672  -31.0767   22.1004 N   0  0  0  0  0  0
  -23.4223  -28.8194   23.3018 O   0  0  0  0  0  0
  -28.3882  -26.6854   20.0407 O   0  0  0  0  0  0
  -26.5561  -34.8935   22.4677 O   0  0  0  0  0  0
  -23.5342  -32.1468   23.7463 O   0  0  0  0  0  0
  -31.1314  -19.4657   19.0483 C   0  0  0  0  0  0
  -30.0585  -19.3543   19.9455 C   0  0  0  0  0  0
  -24.5148  -19.6328   20.0078 C   0  0  0  0  0  0
  -25.7487  -19.0498   20.3498 C   0  0  0  0  0  0
  -25.1140  -21.6274   21.2774 C   0  0  0  0  0  0
  -31.3682  -17.0573   19.0981 C   0  0  0  0  0  0
  -26.3577  -21.0603   21.6494 C   0  0  0  0  0  0
  -24.1763  -20.9114   20.4986 C   0  0  0  0  0  0
  -31.8073  -18.3097   18.6344 C   0  0  0  0  0  0
  -29.6628  -18.1067   20.4952 C   0  0  0  0  0  0
  -27.4559  -21.5084   22.4567 C   0  0  0  0  0  0
  -26.6418  -19.7379   21.1934 C   0  0  0  0  0  0
  -30.3398  -16.9185   20.0726 C   0  0  0  0  0  0
  -28.3245  -20.4387   22.5431 C   0  0  0  0  0  0
  -29.5931  -20.3342   23.3337 C   0  0  0  0  0  0
  -22.8046  -22.8770   19.6122 C   0  0  0  0  0  0
  -21.9558  -21.4639   21.5460 C   0  0  0  0  0  0
  -35.4146  -17.8328   17.5564 C   0  0  0  0  0  0
  -34.6266  -19.2846   19.3770 C   0  0  0  0  0  0
  -28.5365  -18.0762   21.5408 C   0  0  0  0  0  0
  -33.0166  -18.3989   17.7113 C   0  0  0  0  0  0
  -27.5398  -22.8451   23.1641 C   0  0  0  0  0  0
  -27.9604  -24.6359   21.3987 C   0  0  0  0  0  0
  -28.7382  -25.9703   21.2311 C   0  0  0  0  0  0
  -22.7817  -21.4769   20.2478 C   0  0  0  0  0  0
  -27.8613  -19.3741   21.7537 N   0  0  0  0  0  0
  -29.9799  -15.6125   20.5845 N   0  0  0  0  0  0
  -28.4684  -23.8349   22.5533 N   0  3  0  0  0  0
  -34.2864  -18.1808   18.4492 N   0  3  0  0  0  0
  -31.4508  -12.3536   19.1387 H   0  0  0  0  0  0
  -30.2780  -11.2918   19.8668 H   0  0  0  0  0  0
  -29.7203  -11.7204   17.4521 H   0  0  0  0  0  0
  -29.6640  -13.4414   17.7472 H   0  0  0  0  0  0
  -27.8152  -11.2924   18.8401 H   0  0  0  0  0  0
  -27.3595  -12.6016   17.7841 H   0  0  0  0  0  0
  -27.6791  -14.2486   19.5262 H   0  0  0  0  0  0
  -28.6639  -12.0341   21.3903 H   0  0  0  0  0  0
  -28.4754  -13.7147   21.8255 H   0  0  0  0  0  0
  -25.2754   -9.5695   22.4769 H   0  0  0  0  0  0
  -23.9996   -7.4637   22.7475 H   0  0  0  0  0  0
  -21.0847   -8.8787   19.8933 H   0  0  0  0  0  0
  -22.3691  -10.9700   19.6174 H   0  0  0  0  0  0
  -21.2008   -7.6149   23.9714 H   0  0  0  0  0  0
  -21.1477   -6.0521   25.9077 H   0  0  0  0  0  0
  -22.0602   -2.7615   23.2834 H   0  0  0  0  0  0
  -22.4067  -11.9859   22.4782 H   0  0  0  0  0  0
  -21.1095  -13.1226   22.2612 H   0  0  0  0  0  0
  -24.6647  -15.8458   20.5258 H   0  0  0  0  0  0
  -26.2565  -15.6093   20.0080 H   0  0  0  0  0  0
  -26.7132  -32.5499   23.1190 H   0  0  0  0  0  0
  -25.0169  -33.9783   25.0563 H   0  0  0  0  0  0
  -22.6903  -31.3019   21.4057 H   0  0  0  0  0  0
  -23.3753  -35.9620   23.3294 H   0  0  0  0  0  0
  -24.3609  -36.8901   22.2064 H   0  0  0  0  0  0
  -23.7249  -37.6482   23.6681 H   0  0  0  0  0  0
  -26.0479  -31.5913   20.6040 H   0  0  0  0  0  0
  -26.8182  -30.8773   21.9921 H   0  0  0  0  0  0
  -28.0991  -29.0975   21.2004 H   0  0  0  0  0  0
  -26.0991  -25.9705   19.0048 H   0  0  0  0  0  0
  -23.9964  -27.2769   19.0312 H   0  0  0  0  0  0
  -23.7416  -30.5933   19.4080 H   0  0  0  0  0  0
  -22.7438  -29.2406   19.8639 H   0  0  0  0  0  0
  -25.1288  -36.1944   25.0825 H   0  0  0  0  0  0
  -20.9947  -28.3232   24.1423 H   0  0  0  0  0  0
  -20.5620  -26.2258   23.3614 H   0  0  0  0  0  0
  -21.6642  -26.7411   22.1202 H   0  0  0  0  0  0
  -19.6926  -25.6254   21.1225 H   0  0  0  0  0  0
  -19.6677  -27.3161   20.6673 H   0  0  0  0  0  0
  -17.4173  -26.6641   21.3982 H   0  0  0  0  0  0
  -18.0296  -26.0030   22.8977 H   0  0  0  0  0  0
  -19.7974  -30.7203   24.2293 H   0  0  0  0  0  0
  -17.5036  -31.6254   24.5167 H   0  0  0  0  0  0
  -15.5355  -30.2953   23.7642 H   0  0  0  0  0  0
  -15.8662  -28.0791   22.7053 H   0  0  0  0  0  0
  -24.5968  -30.6956   25.7895 H   0  0  0  0  0  0
  -24.8888  -32.2829   26.4960 H   0  0  0  0  0  0
  -25.8174  -30.8941   27.0290 H   0  0  0  0  0  0
  -26.2864  -29.6790   24.1201 H   0  0  0  0  0  0
  -27.4152  -29.7329   25.4528 H   0  0  0  0  0  0
  -27.8667  -30.4344   23.9195 H   0  0  0  0  0  0
  -27.2657  -33.3657   26.2053 H   0  0  0  0  0  0
  -28.3892  -32.6886   25.0344 H   0  0  0  0  0  0
  -28.0667  -31.8466   26.5442 H   0  0  0  0  0  0
  -28.2607  -38.0113   24.7523 H   0  0  0  0  0  0
  -28.1087  -36.2654   24.6284 H   0  0  0  0  0  0
  -27.2306  -37.1424   25.8879 H   0  0  0  0  0  0
  -20.9335  -29.8787   21.7021 H   0  0  0  0  0  0
  -26.0178  -38.2848   24.1423 H   0  0  0  0  0  0
  -31.4278  -20.4427   18.6904 H   0  0  0  0  0  0
  -29.5638  -20.2736   20.2178 H   0  0  0  0  0  0
  -23.8173  -19.0790   19.3950 H   0  0  0  0  0  0
  -25.9852  -18.0575   19.9939 H   0  0  0  0  0  0
  -24.8632  -22.6138   21.6398 H   0  0  0  0  0  0
  -31.8739  -16.2002   18.6802 H   0  0  0  0  0  0
  -29.6894  -21.1523   24.0475 H   0  0  0  0  0  0
  -30.4693  -20.3537   22.6834 H   0  0  0  0  0  0
  -29.6259  -19.4085   23.9093 H   0  0  0  0  0  0
  -23.3710  -22.8786   18.6806 H   0  0  0  0  0  0
  -23.2437  -23.6212   20.2786 H   0  0  0  0  0  0
  -21.7922  -23.2088   19.3761 H   0  0  0  0  0  0
  -21.8744  -20.4551   21.9519 H   0  0  0  0  0  0
  -20.9434  -21.8292   21.3757 H   0  0  0  0  0  0
  -22.4068  -22.0908   22.3171 H   0  0  0  0  0  0
  -36.3072  -17.5979   18.1379 H   0  0  0  0  0  0
  -35.6595  -18.6515   16.8781 H   0  0  0  0  0  0
  -35.1814  -16.9522   16.9568 H   0  0  0  0  0  0
  -35.5679  -19.0840   19.8894 H   0  0  0  0  0  0
  -33.8637  -19.4027   20.1467 H   0  0  0  0  0  0
  -34.7284  -20.2342   18.8491 H   0  0  0  0  0  0
  -28.9389  -17.7216   22.4896 H   0  0  0  0  0  0
  -27.7934  -17.3351   21.2418 H   0  0  0  0  0  0
  -33.0406  -19.3609   17.1980 H   0  0  0  0  0  0
  -32.9026  -17.6420   16.9352 H   0  0  0  0  0  0
  -27.8596  -22.6859   24.1951 H   0  0  0  0  0  0
  -26.5498  -23.2941   23.2468 H   0  0  0  0  0  0
  -28.0471  -24.0356   20.4921 H   0  0  0  0  0  0
  -26.9049  -24.8649   21.5316 H   0  0  0  0  0  0
  -29.8043  -25.7562   21.1613 H   0  0  0  0  0  0
  -28.6204  -26.6120   22.1086 H   0  0  0  0  0  0
  -22.2763  -20.8182   19.5387 H   0  0  0  0  0  0
  -29.0326  -15.4930   20.9046 H   0  0  0  0  0  0
  -29.3387  -23.3836   22.3185 H   0  0  0  0  0  0
  -28.6776  -24.4850   23.2951 H   0  0  0  0  0  0
  -34.1339  -17.3657   19.0232 H   0  0  0  0  0  0
  1 25  1  0  0  0
  1 30  2  0  0  0
  1 97  1  0  0  0
  2  3  1  0  0  0
  2 25  1  0  0  0
  2100  1  0  0  0
  2101  1  0  0  0
  3  4  1  0  0  0
  3102  1  0  0  0
  3103  1  0  0  0
  4  5  1  0  0  0
  4104  1  0  0  0
  4105  1  0  0  0
  5  6  1  0  0  0
  5 26  1  0  0  0
  5106  1  0  0  0
  6 25  1  0  0  0
  6107  1  0  0  0
  6108  1  0  0  0
  7  8  2  0  0  0
  7 26  1  0  0  0
  7 29  1  0  0  0
  8  9  1  0  0  0
  8 22  1  0  0  0
  9 10  1  0  0  0
  9 27  2  0  0  0
 10 11  2  0  0  0
 10 15  1  0  0  0
 11 12  1  0  0  0
 11109  1  0  0  0
 12 13  2  0  0  0
 12110  1  0  0  0
 13 14  1  0  0  0
 13 31  1  0  0  0
 14 15  2  0  0  0
 14111  1  0  0  0
 15112  1  0  0  0
 16 17  2  0  0  0
 16 21  1  0  0  0
 16 31  1  0  0  0
 17 18  1  0  0  0
 17113  1  0  0  0
 18 19  2  0  0  0
 18114  1  0  0  0
 19 20  1  0  0  0
 19 24  1  0  0  0
 20 21  2  0  0  0
 20115  1  0  0  0
 21 23  1  0  0  0
 22 28  1  0  0  0
 22 32  2  0  0  0
 26 27  1  0  0  0
 28116  1  0  0  0
 28117  1  0  0  0
 29118  1  0  0  0
 29119  1  0  0  0
 33 34  1  0  0  0
 33 66  1  0  0  0
 33 70  2  0  0  0
 34 36  1  0  0  0
 34 59  1  0  0  0
 34120  1  0  0  0
 35 44  2  0  0  0
 35 45  1  0  0  0
 35 68  1  0  0  0
 36 56  1  0  0  0
 36121  1  0  0  0
 37 39  1  0  0  0
 37 47  1  0  0  0
 37 66  1  0  0  0
 37122  1  0  0  0
 38 43  2  0  0  0
 38 46  1  0  0  0
 38 47  1  0  0  0
 39 64  1  0  0  0
 39 67  2  0  0  0
 40 52  1  0  0  0
 40 53  2  0  0  0
 40 58  1  0  0  0
 41123  1  0  0  0
 41124  1  0  0  0
 41125  1  0  0  0
 41 48  1  0  0  0
 42 43  1  0  0  0
 42 66  1  0  0  0
 42126  1  0  0  0
 42127  1  0  0  0
 43 44  1  0  0  0
 44128  1  0  0  0
 45 46  2  0  0  0
 45129  1  0  0  0
 46130  1  0  0  0
 47131  1  0  0  0
 47132  1  0  0  0
 48 56  1  0  0  0
 48 65  1  0  0  0
 48133  1  0  0  0
 49 50  1  0  0  0
 49 53  1  0  0  0
 49 64  1  0  0  0
 49134  1  0  0  0
 50 51  1  0  0  0
 50135  1  0  0  0
 50136  1  0  0  0
 51 52  1  0  0  0
 51137  1  0  0  0
 51138  1  0  0  0
 52139  1  0  0  0
 52140  1  0  0  0
 53 54  1  0  0  0
 54 55  2  0  0  0
 54141  1  0  0  0
 55 57  1  0  0  0
 55142  1  0  0  0
 56 69  2  0  0  0
 57 58  2  0  0  0
 57143  1  0  0  0
 58144  1  0  0  0
 59 60  1  0  0  0
 59 61  1  0  0  0
 59 62  1  0  0  0
 60145  1  0  0  0
 60146  1  0  0  0
 60147  1  0  0  0
 61148  1  0  0  0
 61149  1  0  0  0
 61150  1  0  0  0
 62151  1  0  0  0
 62152  1  0  0  0
 62153  1  0  0  0
 63 65  1  0  0  0
 63154  1  0  0  0
 63155  1  0  0  0
 63156  1  0  0  0
 64157  1  0  0  0
 65158  1  0  0  0
 68 94  1  0  0  0
 71 72  2  0  0  0
 71 79  1  0  0  0
 71159  1  0  0  0
 72 80  1  0  0  0
 72160  1  0  0  0
 73 74  2  0  0  0
 73 78  1  0  0  0
 73161  1  0  0  0
 74 82  1  0  0  0
 74162  1  0  0  0
 75 77  1  0  0  0
 75 78  2  0  0  0
 75163  1  0  0  0
 76 79  2  0  0  0
 76 83  1  0  0  0
 76164  1  0  0  0
 77 81  1  0  0  0
 77 82  2  0  0  0
 78 95  1  0  0  0
 79 91  1  0  0  0
 80 83  2  0  0  0
 80 90  1  0  0  0
 81 84  2  0  0  0
 81 92  1  0  0  0
 82 96  1  0  0  0
 83 97  1  0  0  0
 84 85  1  0  0  0
 84 96  1  0  0  0
 85165  1  0  0  0
 85166  1  0  0  0
 85167  1  0  0  0
 86168  1  0  0  0
 86169  1  0  0  0
 86170  1  0  0  0
 86 95  1  0  0  0
 87 95  1  0  0  0
 87171  1  0  0  0
 87172  1  0  0  0
 87173  1  0  0  0
 88174  1  0  0  0
 88175  1  0  0  0
 88176  1  0  0  0
 88 99  1  0  0  0
 89 99  1  0  0  0
 89177  1  0  0  0
 89178  1  0  0  0
 89179  1  0  0  0
 90 96  1  0  0  0
 90180  1  0  0  0
 90181  1  0  0  0
 91 99  1  0  0  0
 91182  1  0  0  0
 91183  1  0  0  0
 92 98  1  0  0  0
 92184  1  0  0  0
 92185  1  0  0  0
 93 94  1  0  0  0
 93 98  1  0  0  0
 93186  1  0  0  0
 93187  1  0  0  0
 94188  1  0  0  0
 94189  1  0  0  0
 95190  1  0  0  0
 97191  1  0  0  0
 98192  1  0  0  0
 98193  1  0  0  0
 99194  1  0  0  0
M  CHG  2  98   1  99   1
M  ISO  4   1 100  68 101  94 101  97 100
M  END
> <chiral flag>
0

> <version>
0

> <s_m_source_file>
/data/baiqing/PycharmProjects/Reinvent-master-3.2/result/LINK_invent/BTK/process_docking_weight1_custom_product_contain_oxygen_bond_distance_aromatic_linkinvent_7_9_3/rearranged_h_0006.sdf

> <i_m_source_file_index>
68

> <r_mmod_Potential_Energy-OPLS-2005>
-331.059265136719

> <r_mmod_Stretch_Energy-OPLS-2005>
46.4428939819336

> <r_mmod_Bend_Energy-OPLS-2005>
108.540428161621

> <r_mmod_Torsional_Energy-OPLS-2005>
253.51171875

> <r_mmod_Improper_Torsional_Energy-OPLS-2005>
6.59279346466064

> <r_mmod_Van_der_Waal_Energy-OPLS-2005>
154.578872680664

> <r_mmod_Electrostatic_Energy-OPLS-2005>
-112.557991027832

> <r_mmod_Solvation_Energy-OPLS-2005>
-811.893981933594

> <b_mmod_Minimization_Converged-OPLS-2005>
0

> <r_mmod_RMS_Derivative-OPLS-2005>
4.40790414810181

$$$$
69
                    3D
 Structure written by MMmdl.
152160  0  0  1  0            999 V2000
  -30.5267  -14.9034   20.4296 C   0  0  0  0  0  0
  -30.4493  -12.5550   19.4933 C   0  0  0  0  0  0
  -29.5240  -12.5292   18.2533 C   0  0  0  0  0  0
  -28.0547  -12.3188   18.6679 C   0  0  0  0  0  0
  -27.6384  -13.2338   19.8482 C   0  0  2  0  0  0
  -28.6820  -13.2198   20.9863 C   0  0  0  0  0  0
  -25.2502  -13.8182   20.5706 C   0  0  0  0  0  0
  -24.1806  -13.0427   20.9242 C   0  0  0  0  0  0
  -24.6400  -11.6908   20.8762 C   0  0  0  0  0  0
  -23.9074  -10.4287   21.0414 C   0  0  0  0  0  0
  -24.3623   -9.4200   21.9190 C   0  0  0  0  0  0
  -23.6294   -8.2238   22.0756 C   0  0  0  0  0  0
  -22.4276   -8.0280   21.3544 C   0  0  0  0  0  0
  -21.9915   -9.0256   20.4648 C   0  0  0  0  0  0
  -22.7247  -10.2134   20.3061 C   0  0  0  0  0  0
  -21.6853   -6.0736   22.5279 C   0  0  0  0  0  0
  -21.4015   -6.5640   23.8212 C   0  0  0  0  0  0
  -21.3658   -5.6792   24.9174 C   0  0  0  0  0  0
  -21.6044   -4.3055   24.7225 C   0  0  0  0  0  0
  -21.8819   -3.8147   23.4347 C   0  0  0  0  0  0
  -21.9192   -4.6963   22.3402 C   0  0  0  0  0  0
  -22.7825  -13.5212   21.1886 C   0  0  0  0  0  0
  -22.1661   -4.2149   21.0980 F   0  0  0  0  0  0
  -21.5627   -3.4539   25.7738 F   0  0  0  0  0  0
  -29.9674  -13.6302   20.4026 N   0  0  0  0  0  0
  -26.2921  -12.9389   20.3257 N   0  0  0  0  0  0
  -25.9328  -11.6533   20.5745 N   0  0  0  0  0  0
  -22.0466  -12.8203   22.0438 N   0  0  0  0  0  0
  -25.4151  -15.1901   20.4093 N   0  0  0  0  0  0
  -31.7129  -15.0253   20.1048 O   0  0  0  0  0  0
  -21.6637   -6.8879   21.4241 O   0  0  0  0  0  0
  -22.3509  -14.5511   20.6720 O   0  0  0  0  0  0
  -24.6412  -31.8456   23.1899 C   0  0  0  0  0  0
  -25.9193  -32.4703   23.8282 C   0  0  1  0  0  0
  -27.2212  -27.1581   20.1448 C   0  0  0  0  0  0
  -25.5949  -33.8509   24.2197 N   0  0  0  0  0  0
  -23.4441  -30.4652   21.5349 C   0  0  2  0  0  0
  -24.8945  -28.8968   20.1081 C   0  0  0  0  0  0
  -22.7557  -29.4551   22.4865 C   0  0  0  0  0  0
  -18.0303  -28.1394   22.8477 C   0  0  0  0  0  0
  -24.1491  -36.7260   23.2642 C   0  0  0  0  0  0
  -25.9985  -30.7254   21.3870 C   0  0  0  0  0  0
  -26.0702  -29.3390   20.7276 C   0  0  0  0  0  0
  -27.2332  -28.4845   20.7317 C   0  0  0  0  0  0
  -26.0219  -26.8166   19.4794 C   0  0  0  0  0  0
  -24.8821  -27.6482   19.4693 C   0  0  0  0  0  0
  -23.6695  -29.7956   20.1534 C   0  0  0  0  0  0
  -25.4124  -36.3037   24.0316 C   0  0  1  0  0  0
  -20.5913  -28.3717   23.1239 C   0  0  2  0  0  0
  -20.6786  -26.9421   22.5405 C   0  0  0  0  0  0
  -19.5761  -26.6380   21.5212 C   0  0  0  0  0  0
  -18.1942  -26.7932   22.1623 C   0  0  0  0  0  0
  -19.1559  -28.8873   23.2851 C   0  0  0  0  0  0
  -18.9476  -30.1470   23.8876 C   0  0  0  0  0  0
  -17.6473  -30.6590   24.0559 C   0  0  0  0  0  0
  -25.9072  -34.9411   23.5065 C   0  0  0  0  0  0
  -16.5364  -29.9084   23.6336 C   0  0  0  0  0  0
  -16.7287  -28.6503   23.0356 C   0  0  0  0  0  0
  -26.4523  -31.6567   25.0717 C   0  0  0  0  0  0
  -25.3713  -31.3754   26.1417 C   0  0  0  0  0  0
  -27.0389  -30.2965   24.6292 C   0  0  0  0  0  0
  -27.6053  -32.4334   25.7502 C   0  0  0  0  0  0
  -27.5576  -37.1786   24.8465 C   0  0  0  0  0  0
  -21.4252  -29.3044   22.3613 N   0  0  0  0  0  0
  -26.4289  -37.3748   23.9406 N   0  0  0  0  0  0
  -24.7141  -31.0328   22.0925 N   0  0  0  0  0  0
  -23.4208  -28.8101   23.3011 O   0  0  0  0  0  0
  -28.2792  -26.1853   20.2314 O   0  0  0  0  0  0
  -26.5657  -34.8905   22.4643 O   0  0  0  0  0  0
  -23.5535  -32.1325   23.7129 O   0  0  0  0  0  0
  -29.7987  -19.9622   21.2043 C   0  0  0  0  0  0
  -30.0656  -18.5332   21.3470 C   0  0  0  0  0  0
  -28.7127  -19.5197   19.1665 C   0  0  0  0  0  0
  -28.9820  -18.0961   19.2814 C   0  0  0  0  0  0
  -29.0746  -20.5378   20.1074 C   0  0  0  0  0  0
  -29.6713  -17.5133   20.4055 C   0  0  0  0  0  0
  -28.9516  -23.3519   20.4410 C   0  0  0  0  0  0
  -28.0345  -24.6787   19.9623 C   0  0  0  0  0  0
  -28.4389  -17.1883   18.1778 C   0  0  0  0  0  0
  -29.6901  -16.0098   20.6991 N   0  0  0  0  0  0
  -28.6442  -21.9412   19.8704 N   0  0  0  0  0  0
  -28.0888  -17.8677   17.0843 F   0  0  0  0  0  0
  -29.3455  -16.2830   17.8097 F   0  0  0  0  0  0
  -27.3604  -16.5515   18.6312 F   0  0  0  0  0  0
  -31.4826  -12.7188   19.1834 H   0  0  0  0  0  0
  -30.4409  -11.5904   20.0034 H   0  0  0  0  0  0
  -29.8351  -11.7426   17.5645 H   0  0  0  0  0  0
  -29.6181  -13.4693   17.7073 H   0  0  0  0  0  0
  -27.9409  -11.2733   18.9567 H   0  0  0  0  0  0
  -27.3931  -12.4729   17.8147 H   0  0  0  0  0  0
  -27.6160  -14.2423   19.4414 H   0  0  0  0  0  0
  -28.7576  -12.2279   21.4345 H   0  0  0  0  0  0
  -28.3859  -13.8951   21.7905 H   0  0  0  0  0  0
  -25.2768   -9.5672   22.4765 H   0  0  0  0  0  0
  -23.9998   -7.4627   22.7475 H   0  0  0  0  0  0
  -21.0844   -8.8781   19.8955 H   0  0  0  0  0  0
  -22.3708  -10.9676   19.6171 H   0  0  0  0  0  0
  -21.2010   -7.6149   23.9716 H   0  0  0  0  0  0
  -21.1479   -6.0523   25.9076 H   0  0  0  0  0  0
  -22.0599   -2.7609   23.2848 H   0  0  0  0  0  0
  -22.4084  -11.9870   22.4836 H   0  0  0  0  0  0
  -21.1081  -13.1225   22.2633 H   0  0  0  0  0  0
  -24.6239  -15.8196   20.4800 H   0  0  0  0  0  0
  -26.2037  -15.6084   19.9291 H   0  0  0  0  0  0
  -26.7258  -32.5316   23.1012 H   0  0  0  0  0  0
  -25.0074  -33.9628   25.0330 H   0  0  0  0  0  0
  -22.7456  -31.2905   21.3818 H   0  0  0  0  0  0
  -23.3756  -35.9589   23.3297 H   0  0  0  0  0  0
  -24.3575  -36.8899   22.2058 H   0  0  0  0  0  0
  -23.7245  -37.6453   23.6684 H   0  0  0  0  0  0
  -26.1528  -31.4814   20.6159 H   0  0  0  0  0  0
  -26.8694  -30.7743   22.0291 H   0  0  0  0  0  0
  -28.1272  -28.8161   21.2410 H   0  0  0  0  0  0
  -25.9296  -25.8657   18.9767 H   0  0  0  0  0  0
  -23.9858  -27.3060   18.9702 H   0  0  0  0  0  0
  -23.8030  -30.5708   19.3980 H   0  0  0  0  0  0
  -22.7852  -29.2356   19.8438 H   0  0  0  0  0  0
  -25.1312  -36.1868   25.0808 H   0  0  0  0  0  0
  -21.0005  -28.3306   24.1360 H   0  0  0  0  0  0
  -20.5677  -26.2330   23.3623 H   0  0  0  0  0  0
  -21.6653  -26.7427   22.1205 H   0  0  0  0  0  0
  -19.6922  -25.6285   21.1255 H   0  0  0  0  0  0
  -19.6699  -27.3178   20.6732 H   0  0  0  0  0  0
  -17.4211  -26.6674   21.4028 H   0  0  0  0  0  0
  -18.0344  -26.0080   22.9026 H   0  0  0  0  0  0
  -19.7952  -30.7291   24.2236 H   0  0  0  0  0  0
  -17.5027  -31.6268   24.5164 H   0  0  0  0  0  0
  -15.5363  -30.2979   23.7672 H   0  0  0  0  0  0
  -15.8688  -28.0814   22.7083 H   0  0  0  0  0  0
  -24.5895  -30.7099   25.7739 H   0  0  0  0  0  0
  -24.8901  -32.2937   26.4793 H   0  0  0  0  0  0
  -25.8001  -30.8961   27.0226 H   0  0  0  0  0  0
  -26.3006  -29.6687   24.1291 H   0  0  0  0  0  0
  -27.3997  -29.7265   25.4864 H   0  0  0  0  0  0
  -27.8915  -30.4203   23.9612 H   0  0  0  0  0  0
  -27.2643  -33.3649   26.2034 H   0  0  0  0  0  0
  -28.3889  -32.6873   25.0350 H   0  0  0  0  0  0
  -28.0696  -31.8493   26.5459 H   0  0  0  0  0  0
  -28.2589  -38.0086   24.7506 H   0  0  0  0  0  0
  -28.1076  -36.2615   24.6301 H   0  0  0  0  0  0
  -27.2292  -37.1443   25.8868 H   0  0  0  0  0  0
  -20.9459  -29.8758   21.6794 H   0  0  0  0  0  0
  -26.0156  -38.2817   24.1408 H   0  0  0  0  0  0
  -30.1291  -20.6177   21.9977 H   0  0  0  0  0  0
  -30.5573  -18.2132   22.2544 H   0  0  0  0  0  0
  -28.1565  -19.8422   18.2997 H   0  0  0  0  0  0
  -28.9202  -23.2879   21.5293 H   0  0  0  0  0  0
  -29.9921  -23.5661   20.1941 H   0  0  0  0  0  0
  -27.0342  -24.4638   20.3389 H   0  0  0  0  0  0
  -27.9515  -24.6081   18.8773 H   0  0  0  0  0  0
  -28.7835  -15.6755   20.9895 H   0  0  0  0  0  0
  -28.0494  -22.0224   19.0486 H   0  0  0  0  0  0
  1 25  1  0  0  0
  1 30  2  0  0  0
  1 80  1  0  0  0
  2  3  1  0  0  0
  2 25  1  0  0  0
  2 85  1  0  0  0
  2 86  1  0  0  0
  3  4  1  0  0  0
  3 87  1  0  0  0
  3 88  1  0  0  0
  4  5  1  0  0  0
  4 89  1  0  0  0
  4 90  1  0  0  0
  5  6  1  0  0  0
  5 26  1  0  0  0
  5 91  1  0  0  0
  6 25  1  0  0  0
  6 92  1  0  0  0
  6 93  1  0  0  0
  7  8  2  0  0  0
  7 26  1  0  0  0
  7 29  1  0  0  0
  8  9  1  0  0  0
  8 22  1  0  0  0
  9 10  1  0  0  0
  9 27  2  0  0  0
 10 11  2  0  0  0
 10 15  1  0  0  0
 11 12  1  0  0  0
 11 94  1  0  0  0
 12 13  2  0  0  0
 12 95  1  0  0  0
 13 14  1  0  0  0
 13 31  1  0  0  0
 14 15  2  0  0  0
 14 96  1  0  0  0
 15 97  1  0  0  0
 16 17  2  0  0  0
 16 21  1  0  0  0
 16 31  1  0  0  0
 17 18  1  0  0  0
 17 98  1  0  0  0
 18 19  2  0  0  0
 18 99  1  0  0  0
 19 20  1  0  0  0
 19 24  1  0  0  0
 20 21  2  0  0  0
 20100  1  0  0  0
 21 23  1  0  0  0
 22 28  1  0  0  0
 22 32  2  0  0  0
 26 27  1  0  0  0
 28101  1  0  0  0
 28102  1  0  0  0
 29103  1  0  0  0
 29104  1  0  0  0
 33 34  1  0  0  0
 33 66  1  0  0  0
 33 70  2  0  0  0
 34 36  1  0  0  0
 34 59  1  0  0  0
 34105  1  0  0  0
 35 44  2  0  0  0
 35 45  1  0  0  0
 35 68  1  0  0  0
 36 56  1  0  0  0
 36106  1  0  0  0
 37 39  1  0  0  0
 37 47  1  0  0  0
 37 66  1  0  0  0
 37107  1  0  0  0
 38 43  2  0  0  0
 38 46  1  0  0  0
 38 47  1  0  0  0
 39 64  1  0  0  0
 39 67  2  0  0  0
 40 52  1  0  0  0
 40 53  2  0  0  0
 40 58  1  0  0  0
 41108  1  0  0  0
 41109  1  0  0  0
 41110  1  0  0  0
 41 48  1  0  0  0
 42 43  1  0  0  0
 42 66  1  0  0  0
 42111  1  0  0  0
 42112  1  0  0  0
 43 44  1  0  0  0
 44113  1  0  0  0
 45 46  2  0  0  0
 45114  1  0  0  0
 46115  1  0  0  0
 47116  1  0  0  0
 47117  1  0  0  0
 48 56  1  0  0  0
 48 65  1  0  0  0
 48118  1  0  0  0
 49 50  1  0  0  0
 49 53  1  0  0  0
 49 64  1  0  0  0
 49119  1  0  0  0
 50 51  1  0  0  0
 50120  1  0  0  0
 50121  1  0  0  0
 51 52  1  0  0  0
 51122  1  0  0  0
 51123  1  0  0  0
 52124  1  0  0  0
 52125  1  0  0  0
 53 54  1  0  0  0
 54 55  2  0  0  0
 54126  1  0  0  0
 55 57  1  0  0  0
 55127  1  0  0  0
 56 69  2  0  0  0
 57 58  2  0  0  0
 57128  1  0  0  0
 58129  1  0  0  0
 59 60  1  0  0  0
 59 61  1  0  0  0
 59 62  1  0  0  0
 60130  1  0  0  0
 60131  1  0  0  0
 60132  1  0  0  0
 61133  1  0  0  0
 61134  1  0  0  0
 61135  1  0  0  0
 62136  1  0  0  0
 62137  1  0  0  0
 62138  1  0  0  0
 63 65  1  0  0  0
 63139  1  0  0  0
 63140  1  0  0  0
 63141  1  0  0  0
 64142  1  0  0  0
 65143  1  0  0  0
 68 78  1  0  0  0
 71 72  2  0  0  0
 71 75  1  0  0  0
 71144  1  0  0  0
 72 76  1  0  0  0
 72145  1  0  0  0
 73 74  1  0  0  0
 73 75  2  0  0  0
 73146  1  0  0  0
 74 76  2  0  0  0
 74 79  1  0  0  0
 75 81  1  0  0  0
 76 80  1  0  0  0
 77 78  1  0  0  0
 77 81  1  0  0  0
 77147  1  0  0  0
 77148  1  0  0  0
 78149  1  0  0  0
 78150  1  0  0  0
 79 82  1  0  0  0
 79 83  1  0  0  0
 79 84  1  0  0  0
 80151  1  0  0  0
 81152  1  0  0  0
M  ISO  4   1 100  68 101  78 101  80 100
M  END
> <chiral flag>
0

> <version>
0

> <s_m_source_file>
/data/baiqing/PycharmProjects/Reinvent-master-3.2/result/LINK_invent/BTK/process_docking_weight1_custom_product_contain_oxygen_bond_distance_aromatic_linkinvent_7_9_3/rearranged_h_0006.sdf

> <i_m_source_file_index>
69

> <r_mmod_Potential_Energy-OPLS-2005>
439.895233154297

> <r_mmod_Stretch_Energy-OPLS-2005>
208.099212646484

> <r_mmod_Bend_Energy-OPLS-2005>
261.662719726562

> <r_mmod_Torsional_Energy-OPLS-2005>
237.483016967773

> <r_mmod_Improper_Torsional_Energy-OPLS-2005>
7.02390193939209

> <r_mmod_Van_der_Waal_Energy-OPLS-2005>
132.200210571289

> <r_mmod_Electrostatic_Energy-OPLS-2005>
-355.661407470703

> <r_mmod_Solvation_Energy-OPLS-2005>
-219.284393310547

> <b_mmod_Minimization_Converged-OPLS-2005>
0

> <r_mmod_RMS_Derivative-OPLS-2005>
0.212868377566338

$$$$
70
                    3D
 Structure written by MMmdl.
169178  0  0  1  0            999 V2000
  -30.6383  -14.5509   20.4875 C   0  0  0  0  0  0
  -30.4185  -12.3044   19.4217 C   0  0  0  0  0  0
  -29.5047  -12.4823   18.1879 C   0  0  0  0  0  0
  -28.0178  -12.3549   18.5893 C   0  0  0  0  0  0
  -27.6586  -13.1965   19.8485 C   0  0  2  0  0  0
  -28.7022  -12.9931   20.9736 C   0  0  0  0  0  0
  -25.2660  -13.8074   20.5660 C   0  0  0  0  0  0
  -24.1914  -13.0407   20.9151 C   0  0  0  0  0  0
  -24.6404  -11.6854   20.8663 C   0  0  0  0  0  0
  -23.9043  -10.4275   21.0362 C   0  0  0  0  0  0
  -24.3607   -9.4219   21.9155 C   0  0  0  0  0  0
  -23.6305   -8.2254   22.0718 C   0  0  0  0  0  0
  -22.4274   -8.0303   21.3536 C   0  0  0  0  0  0
  -21.9908   -9.0239   20.4586 C   0  0  0  0  0  0
  -22.7206  -10.2124   20.3012 C   0  0  0  0  0  0
  -21.6849   -6.0759   22.5301 C   0  0  0  0  0  0
  -21.3971   -6.5632   23.8236 C   0  0  0  0  0  0
  -21.3682   -5.6764   24.9184 C   0  0  0  0  0  0
  -21.6105   -4.3035   24.7231 C   0  0  0  0  0  0
  -21.8797   -3.8141   23.4319 C   0  0  0  0  0  0
  -21.9164   -4.6985   22.3383 C   0  0  0  0  0  0
  -22.7941  -13.5273   21.1808 C   0  0  0  0  0  0
  -22.1657   -4.2176   21.0972 F   0  0  0  0  0  0
  -21.5656   -3.4514   25.7729 F   0  0  0  0  0  0
  -30.0287  -13.3212   20.4242 N   0  0  0  0  0  0
  -26.3037  -12.9195   20.3160 N   0  0  0  0  0  0
  -25.9321  -11.6370   20.5620 N   0  0  0  0  0  0
  -22.0538  -12.8310   22.0314 N   0  0  0  0  0  0
  -25.4535  -15.1799   20.4257 N   0  0  0  0  0  0
  -31.7523  -14.7572   20.0014 O   0  0  0  0  0  0
  -21.6645   -6.8900   21.4259 O   0  0  0  0  0  0
  -22.3677  -14.5603   20.6618 O   0  0  0  0  0  0
  -24.6231  -31.8643   23.2097 C   0  0  0  0  0  0
  -25.9102  -32.4800   23.8378 C   0  0  1  0  0  0
  -27.2132  -27.3664   20.1125 C   0  0  0  0  0  0
  -25.5962  -33.8608   24.2291 N   0  0  0  0  0  0
  -23.4094  -30.4903   21.5525 C   0  0  2  0  0  0
  -24.8471  -28.9517   20.1110 C   0  0  0  0  0  0
  -22.7430  -29.4640   22.4987 C   0  0  0  0  0  0
  -18.0281  -28.1369   22.8497 C   0  0  0  0  0  0
  -24.1512  -36.7319   23.2633 C   0  0  0  0  0  0
  -25.9420  -30.8088   21.3723 C   0  0  0  0  0  0
  -26.0089  -29.4405   20.7156 C   0  0  0  0  0  0
  -27.1926  -28.6556   20.7120 C   0  0  0  0  0  0
  -26.0293  -26.9141   19.4839 C   0  0  0  0  0  0
  -24.8563  -27.6930   19.4888 C   0  0  0  0  0  0
  -23.6150  -29.8309   20.1642 C   0  0  0  0  0  0
  -25.4129  -36.3092   24.0332 C   0  0  1  0  0  0
  -20.5858  -28.3650   23.1328 C   0  0  2  0  0  0
  -20.6767  -26.9393   22.5423 C   0  0  0  0  0  0
  -19.5741  -26.6371   21.5230 C   0  0  0  0  0  0
  -18.1911  -26.7925   22.1616 C   0  0  0  0  0  0
  -19.1520  -28.8830   23.2900 C   0  0  0  0  0  0
  -18.9454  -30.1438   23.8907 C   0  0  0  0  0  0
  -17.6444  -30.6574   24.0566 C   0  0  0  0  0  0
  -25.9055  -34.9459   23.5084 C   0  0  0  0  0  0
  -16.5344  -29.9064   23.6330 C   0  0  0  0  0  0
  -16.7261  -28.6483   23.0359 C   0  0  0  0  0  0
  -26.4489  -31.6604   25.0734 C   0  0  0  0  0  0
  -25.3751  -31.3747   26.1484 C   0  0  0  0  0  0
  -27.0301  -30.3039   24.6140 C   0  0  0  0  0  0
  -27.6049  -32.4337   25.7510 C   0  0  0  0  0  0
  -27.5600  -37.1822   24.8446 C   0  0  0  0  0  0
  -21.4156  -29.3019   22.3744 N   0  0  0  0  0  0
  -26.4299  -37.3788   23.9403 N   0  0  0  0  0  0
  -24.6764  -31.0698   22.1018 N   0  0  0  0  0  0
  -23.4200  -28.8194   23.3040 O   0  0  0  0  0  0
  -28.3861  -26.6163   20.1759 O   0  0  0  0  0  0
  -26.5609  -34.8893   22.4630 O   0  0  0  0  0  0
  -23.5430  -32.1443   23.7444 O   0  0  0  0  0  0
  -30.5552  -22.7164   18.9187 C   0  0  0  0  0  0
  -28.8581  -18.0757   18.1516 C   0  0  0  0  0  0
  -30.1462  -18.8011   22.1168 C   0  0  0  0  0  0
  -29.4323  -16.7903   18.7511 C   0  0  0  0  0  0
  -30.4415  -20.3173   21.9964 C   0  0  0  0  0  0
  -29.7629  -19.2602   18.5056 C   0  0  0  0  0  0
  -30.2869  -18.2359   20.6880 C   0  0  1  0  0  0
  -29.5150  -16.8985   20.2933 C   0  0  2  0  0  0
  -30.3720  -20.6632   20.4875 C   0  0  2  0  0  0
  -28.3737  -24.1306   20.9265 C   0  0  0  0  0  0
  -28.4485  -25.2134   19.7761 C   0  0  0  0  0  0
  -29.6956  -22.0566   20.0194 C   0  0  1  0  0  0
  -29.7407  -19.4205   19.9652 N   0  0  0  0  0  0
  -30.3116  -22.4820   17.6352 N   0  0  0  0  0  0
  -29.8405  -15.5685   20.9202 N   0  0  0  0  0  0
  -29.5222  -23.1394   21.0491 N   0  3  0  0  0  0
  -31.4194  -23.5365   19.2414 O   0  0  0  0  0  0
  -31.4674  -12.3646   19.1281 H   0  0  0  0  0  0
  -30.2855  -11.2947   19.8185 H   0  0  0  0  0  0
  -29.7541  -11.7359   17.4308 H   0  0  0  0  0  0
  -29.6918  -13.4492   17.7175 H   0  0  0  0  0  0
  -27.8304  -11.2959   18.7759 H   0  0  0  0  0  0
  -27.3736  -12.6270   17.7491 H   0  0  0  0  0  0
  -27.6949  -14.2402   19.5411 H   0  0  0  0  0  0
  -28.6846  -11.9516   21.3015 H   0  0  0  0  0  0
  -28.4661  -13.5870   21.8557 H   0  0  0  0  0  0
  -25.2769   -9.5727   22.4717 H   0  0  0  0  0  0
  -24.0041   -7.4652   22.7421 H   0  0  0  0  0  0
  -21.0837   -8.8688   19.8896 H   0  0  0  0  0  0
  -22.3627  -10.9654   19.6110 H   0  0  0  0  0  0
  -21.1937   -7.6140   23.9740 H   0  0  0  0  0  0
  -21.1565   -6.0502   25.9094 H   0  0  0  0  0  0
  -22.0558   -2.7616   23.2791 H   0  0  0  0  0  0
  -22.4044  -12.0039   22.4908 H   0  0  0  0  0  0
  -21.1096  -13.1247   22.2273 H   0  0  0  0  0  0
  -24.7024  -15.8447   20.5838 H   0  0  0  0  0  0
  -26.3374  -15.6188   20.2107 H   0  0  0  0  0  0
  -26.7157  -32.5460   23.1128 H   0  0  0  0  0  0
  -25.0202  -33.9762   25.0501 H   0  0  0  0  0  0
  -22.7001  -31.3083   21.4181 H   0  0  0  0  0  0
  -23.3773  -35.9655   23.3287 H   0  0  0  0  0  0
  -24.3594  -36.8957   22.2045 H   0  0  0  0  0  0
  -23.7254  -37.6512   23.6670 H   0  0  0  0  0  0
  -26.0678  -31.5737   20.6045 H   0  0  0  0  0  0
  -26.8237  -30.8471   21.9973 H   0  0  0  0  0  0
  -28.0868  -29.0303   21.1892 H   0  0  0  0  0  0
  -25.9618  -25.9662   18.9768 H   0  0  0  0  0  0
  -23.9667  -27.3143   19.0059 H   0  0  0  0  0  0
  -23.7331  -30.6116   19.4103 H   0  0  0  0  0  0
  -22.7304  -29.2663   19.8638 H   0  0  0  0  0  0
  -25.1310  -36.1969   25.0836 H   0  0  0  0  0  0
  -20.9941  -28.3204   24.1456 H   0  0  0  0  0  0
  -20.5670  -26.2278   23.3607 H   0  0  0  0  0  0
  -21.6636  -26.7432   22.1212 H   0  0  0  0  0  0
  -19.6896  -25.6282   21.1263 H   0  0  0  0  0  0
  -19.6693  -27.3176   20.6758 H   0  0  0  0  0  0
  -17.4211  -26.6725   21.3996 H   0  0  0  0  0  0
  -18.0262  -26.0042   22.8979 H   0  0  0  0  0  0
  -19.7912  -30.7268   24.2290 H   0  0  0  0  0  0
  -17.4979  -31.6258   24.5151 H   0  0  0  0  0  0
  -15.5322  -30.2962   23.7635 H   0  0  0  0  0  0
  -15.8671  -28.0784   22.7082 H   0  0  0  0  0  0
  -24.5881  -30.7156   25.7836 H   0  0  0  0  0  0
  -24.9012  -32.2923   26.4970 H   0  0  0  0  0  0
  -25.8088  -30.8880   27.0221 H   0  0  0  0  0  0
  -26.2852  -29.6824   24.1182 H   0  0  0  0  0  0
  -27.4023  -29.7254   25.4590 H   0  0  0  0  0  0
  -27.8705  -30.4316   23.9324 H   0  0  0  0  0  0
  -27.2636  -33.3572   26.2177 H   0  0  0  0  0  0
  -28.3823  -32.7015   25.0360 H   0  0  0  0  0  0
  -28.0772  -31.8445   26.5364 H   0  0  0  0  0  0
  -28.2611  -38.0126   24.7500 H   0  0  0  0  0  0
  -28.1101  -36.2661   24.6274 H   0  0  0  0  0  0
  -27.2304  -37.1455   25.8838 H   0  0  0  0  0  0
  -20.9340  -29.8806   21.7010 H   0  0  0  0  0  0
  -26.0200  -38.2882   24.1379 H   0  0  0  0  0  0
  -27.8534  -18.2453   18.5412 H   0  0  0  0  0  0
  -28.7490  -17.9889   17.0665 H   0  0  0  0  0  0
  -29.1232  -18.6875   22.4888 H   0  0  0  0  0  0
  -30.8087  -18.3257   22.8426 H   0  0  0  0  0  0
  -30.4172  -16.6186   18.3177 H   0  0  0  0  0  0
  -28.8097  -15.9525   18.4454 H   0  0  0  0  0  0
  -31.4356  -20.5497   22.3915 H   0  0  0  0  0  0
  -29.7324  -20.8801   22.6032 H   0  0  0  0  0  0
  -29.3459  -20.1381   18.0143 H   0  0  0  0  0  0
  -30.7750  -19.1165   18.1155 H   0  0  0  0  0  0
  -31.3450  -18.1236   20.4528 H   0  0  0  0  0  0
  -28.4906  -17.0551   20.6305 H   0  0  0  0  0  0
  -31.4023  -20.6356   20.1170 H   0  0  0  0  0  0
  -27.4255  -23.5890   20.8672 H   0  0  0  0  0  0
  -28.3235  -24.6682   21.8732 H   0  0  0  0  0  0
  -27.7341  -24.9578   18.9988 H   0  0  0  0  0  0
  -29.4045  -25.1388   19.2674 H   0  0  0  0  0  0
  -28.6963  -21.8371   19.6420 H   0  0  0  0  0  0
  -29.6375  -21.7911   17.3374 H   0  0  0  0  0  0
  -30.8050  -23.0110   16.9308 H   0  0  0  0  0  0
  -29.0845  -15.2151   21.4880 H   0  0  0  0  0  0
  -29.4818  -22.7223   21.9610 H   0  0  0  0  0  0
  -30.3887  -23.6585   20.9826 H   0  0  0  0  0  0
  1 25  1  0  0  0
  1 30  2  0  0  0
  1 85  1  0  0  0
  2  3  1  0  0  0
  2 25  1  0  0  0
  2 88  1  0  0  0
  2 89  1  0  0  0
  3  4  1  0  0  0
  3 90  1  0  0  0
  3 91  1  0  0  0
  4  5  1  0  0  0
  4 92  1  0  0  0
  4 93  1  0  0  0
  5  6  1  0  0  0
  5 26  1  0  0  0
  5 94  1  0  0  0
  6 25  1  0  0  0
  6 95  1  0  0  0
  6 96  1  0  0  0
  7  8  2  0  0  0
  7 26  1  0  0  0
  7 29  1  0  0  0
  8  9  1  0  0  0
  8 22  1  0  0  0
  9 10  1  0  0  0
  9 27  2  0  0  0
 10 11  2  0  0  0
 10 15  1  0  0  0
 11 12  1  0  0  0
 11 97  1  0  0  0
 12 13  2  0  0  0
 12 98  1  0  0  0
 13 14  1  0  0  0
 13 31  1  0  0  0
 14 15  2  0  0  0
 14 99  1  0  0  0
 15100  1  0  0  0
 16 17  2  0  0  0
 16 21  1  0  0  0
 16 31  1  0  0  0
 17 18  1  0  0  0
 17101  1  0  0  0
 18 19  2  0  0  0
 18102  1  0  0  0
 19 20  1  0  0  0
 19 24  1  0  0  0
 20 21  2  0  0  0
 20103  1  0  0  0
 21 23  1  0  0  0
 22 28  1  0  0  0
 22 32  2  0  0  0
 26 27  1  0  0  0
 28104  1  0  0  0
 28105  1  0  0  0
 29106  1  0  0  0
 29107  1  0  0  0
 33 34  1  0  0  0
 33 66  1  0  0  0
 33 70  2  0  0  0
 34 36  1  0  0  0
 34 59  1  0  0  0
 34108  1  0  0  0
 35 44  2  0  0  0
 35 45  1  0  0  0
 35 68  1  0  0  0
 36 56  1  0  0  0
 36109  1  0  0  0
 37 39  1  0  0  0
 37 47  1  0  0  0
 37 66  1  0  0  0
 37110  1  0  0  0
 38 43  2  0  0  0
 38 46  1  0  0  0
 38 47  1  0  0  0
 39 64  1  0  0  0
 39 67  2  0  0  0
 40 52  1  0  0  0
 40 53  2  0  0  0
 40 58  1  0  0  0
 41111  1  0  0  0
 41112  1  0  0  0
 41113  1  0  0  0
 41 48  1  0  0  0
 42 43  1  0  0  0
 42 66  1  0  0  0
 42114  1  0  0  0
 42115  1  0  0  0
 43 44  1  0  0  0
 44116  1  0  0  0
 45 46  2  0  0  0
 45117  1  0  0  0
 46118  1  0  0  0
 47119  1  0  0  0
 47120  1  0  0  0
 48 56  1  0  0  0
 48 65  1  0  0  0
 48121  1  0  0  0
 49 50  1  0  0  0
 49 53  1  0  0  0
 49 64  1  0  0  0
 49122  1  0  0  0
 50 51  1  0  0  0
 50123  1  0  0  0
 50124  1  0  0  0
 51 52  1  0  0  0
 51125  1  0  0  0
 51126  1  0  0  0
 52127  1  0  0  0
 52128  1  0  0  0
 53 54  1  0  0  0
 54 55  2  0  0  0
 54129  1  0  0  0
 55 57  1  0  0  0
 55130  1  0  0  0
 56 69  2  0  0  0
 57 58  2  0  0  0
 57131  1  0  0  0
 58132  1  0  0  0
 59 60  1  0  0  0
 59 61  1  0  0  0
 59 62  1  0  0  0
 60133  1  0  0  0
 60134  1  0  0  0
 60135  1  0  0  0
 61136  1  0  0  0
 61137  1  0  0  0
 61138  1  0  0  0
 62139  1  0  0  0
 62140  1  0  0  0
 62141  1  0  0  0
 63 65  1  0  0  0
 63142  1  0  0  0
 63143  1  0  0  0
 63144  1  0  0  0
 64145  1  0  0  0
 65146  1  0  0  0
 68 81  1  0  0  0
 71 82  1  0  0  0
 71 84  1  0  0  0
 71 87  2  0  0  0
 72 74  1  0  0  0
 72 76  1  0  0  0
 72147  1  0  0  0
 72148  1  0  0  0
 73 75  1  0  0  0
 73149  1  0  0  0
 73150  1  0  0  0
 73 77  1  0  0  0
 74 78  1  0  0  0
 74151  1  0  0  0
 74152  1  0  0  0
 75153  1  0  0  0
 75154  1  0  0  0
 75 79  1  0  0  0
 76155  1  0  0  0
 76156  1  0  0  0
 76 83  1  0  0  0
 77 78  1  0  0  0
 77 83  1  0  0  0
 77157  1  0  0  0
 78 85  1  0  0  0
 78158  1  0  0  0
 79 82  1  0  0  0
 79 83  1  0  0  0
 79159  1  0  0  0
 80 81  1  0  0  0
 80 86  1  0  0  0
 80160  1  0  0  0
 80161  1  0  0  0
 81162  1  0  0  0
 81163  1  0  0  0
 82 86  1  0  0  0
 82164  1  0  0  0
 84165  1  0  0  0
 84166  1  0  0  0
 85167  1  0  0  0
 86168  1  0  0  0
 86169  1  0  0  0
M  CHG  1  86   1
M  ISO  4   1 100  68 101  81 101  85 100
M  END
> <chiral flag>
0

> <version>
0

> <s_m_source_file>
/data/baiqing/PycharmProjects/Reinvent-master-3.2/result/LINK_invent/BTK/process_docking_weight1_custom_product_contain_oxygen_bond_distance_aromatic_linkinvent_7_9_3/rearranged_h_0006.sdf

> <i_m_source_file_index>
70

> <r_mmod_Potential_Energy-OPLS-2005>
-112.823692321777

> <r_mmod_Stretch_Energy-OPLS-2005>
75.9623947143555

> <r_mmod_Bend_Energy-OPLS-2005>
204.97380065918

> <r_mmod_Torsional_Energy-OPLS-2005>
317.249816894531

> <r_mmod_Improper_Torsional_Energy-OPLS-2005>
7.73931121826172

> <r_mmod_Van_der_Waal_Energy-OPLS-2005>
129.03401184082

> <r_mmod_Electrostatic_Energy-OPLS-2005>
-415.679412841797

> <r_mmod_Solvation_Energy-OPLS-2005>
-460.143737792969

> <b_mmod_Minimization_Converged-OPLS-2005>
0

> <r_mmod_RMS_Derivative-OPLS-2005>
8.21437644958496

$$$$
71
                    3D
 Structure written by MMmdl.
172182  0  0  1  0            999 V2000
  -30.6765  -14.5039   20.5229 C   0  0  0  0  0  0
  -30.4272  -12.3174   19.4155 C   0  0  0  0  0  0
  -29.4908  -12.4993   18.2022 C   0  0  0  0  0  0
  -28.0132  -12.3328   18.6174 C   0  0  0  0  0  0
  -27.6527  -13.1642   19.8762 C   0  0  2  0  0  0
  -28.7079  -12.9876   20.9918 C   0  0  0  0  0  0
  -25.2613  -13.8014   20.5730 C   0  0  0  0  0  0
  -24.1818  -13.0356   20.9196 C   0  0  0  0  0  0
  -24.6328  -11.6811   20.8764 C   0  0  0  0  0  0
  -23.9003  -10.4231   21.0409 C   0  0  0  0  0  0
  -24.3573   -9.4155   21.9185 C   0  0  0  0  0  0
  -23.6253   -8.2193   22.0752 C   0  0  0  0  0  0
  -22.4245   -8.0230   21.3524 C   0  0  0  0  0  0
  -21.9869   -9.0203   20.4633 C   0  0  0  0  0  0
  -22.7183  -10.2091   20.3049 C   0  0  0  0  0  0
  -21.6844   -6.0713   22.5286 C   0  0  0  0  0  0
  -21.4003   -6.5620   23.8210 C   0  0  0  0  0  0
  -21.3660   -5.6770   24.9170 C   0  0  0  0  0  0
  -21.6048   -4.3040   24.7220 C   0  0  0  0  0  0
  -21.8824   -3.8136   23.4342 C   0  0  0  0  0  0
  -21.9188   -4.6953   22.3397 C   0  0  0  0  0  0
  -22.7858  -13.5222   21.1841 C   0  0  0  0  0  0
  -22.1666   -4.2139   21.0974 F   0  0  0  0  0  0
  -21.5637   -3.4529   25.7739 F   0  0  0  0  0  0
  -30.0294  -13.3081   20.4244 N   0  0  0  0  0  0
  -26.2981  -12.9082   20.3433 N   0  0  0  0  0  0
  -25.9238  -11.6295   20.5822 N   0  0  0  0  0  0
  -22.0458  -12.8246   22.0384 N   0  0  0  0  0  0
  -25.4379  -15.1736   20.4209 N   0  0  0  0  0  0
  -31.8293  -14.6754   20.1193 O   0  0  0  0  0  0
  -21.6609   -6.8836   21.4236 O   0  0  0  0  0  0
  -22.3604  -14.5552   20.6690 O   0  0  0  0  0  0
  -24.6099  -31.8685   23.2123 C   0  0  0  0  0  0
  -25.9012  -32.4830   23.8410 C   0  0  1  0  0  0
  -27.2472  -27.4529   20.1139 C   0  0  0  0  0  0
  -25.5877  -33.8633   24.2347 N   0  0  0  0  0  0
  -23.3988  -30.4895   21.5499 C   0  0  2  0  0  0
  -24.8529  -28.9584   20.1140 C   0  0  0  0  0  0
  -22.7397  -29.4648   22.5001 C   0  0  0  0  0  0
  -18.0264  -28.1365   22.8485 C   0  0  0  0  0  0
  -24.1483  -36.7323   23.2641 C   0  0  0  0  0  0
  -25.9227  -30.8416   21.3643 C   0  0  0  0  0  0
  -26.0053  -29.4748   20.7193 C   0  0  0  0  0  0
  -27.2031  -28.7277   20.7256 C   0  0  0  0  0  0
  -26.0867  -26.9560   19.4867 C   0  0  0  0  0  0
  -24.8866  -27.6962   19.4942 C   0  0  0  0  0  0
  -23.6096  -29.8184   20.1645 C   0  0  0  0  0  0
  -25.4108  -36.3128   24.0338 C   0  0  1  0  0  0
  -20.5850  -28.3641   23.1332 C   0  0  2  0  0  0
  -20.6747  -26.9379   22.5427 C   0  0  0  0  0  0
  -19.5736  -26.6369   21.5217 C   0  0  0  0  0  0
  -18.1903  -26.7916   22.1606 C   0  0  0  0  0  0
  -19.1519  -28.8824   23.2897 C   0  0  0  0  0  0
  -18.9445  -30.1438   23.8906 C   0  0  0  0  0  0
  -17.6447  -30.6580   24.0553 C   0  0  0  0  0  0
  -25.9023  -34.9489   23.5142 C   0  0  0  0  0  0
  -16.5333  -29.9078   23.6331 C   0  0  0  0  0  0
  -16.7253  -28.6492   23.0353 C   0  0  0  0  0  0
  -26.4459  -31.6596   25.0724 C   0  0  0  0  0  0
  -25.3739  -31.3681   26.1478 C   0  0  0  0  0  0
  -27.0290  -30.3040   24.6089 C   0  0  0  0  0  0
  -27.6045  -32.4300   25.7496 C   0  0  0  0  0  0
  -27.5590  -37.1813   24.8459 C   0  0  0  0  0  0
  -21.4125  -29.3027   22.3759 N   0  0  0  0  0  0
  -26.4300  -37.3806   23.9413 N   0  0  0  0  0  0
  -24.6613  -31.0798   22.1012 N   0  0  0  0  0  0
  -23.4177  -28.8199   23.3037 O   0  0  0  0  0  0
  -28.3798  -26.6687   20.1078 O   0  0  0  0  0  0
  -26.5585  -34.8926   22.4707 O   0  0  0  0  0  0
  -23.5304  -32.1440   23.7531 O   0  0  0  0  0  0
  -25.6447  -17.6810   16.5961 C   0  0  0  0  0  0
  -25.8190  -19.0574   16.3671 C   0  0  0  0  0  0
  -26.5069  -17.0112   17.4822 C   0  0  0  0  0  0
  -26.8484  -19.7589   17.0226 C   0  0  0  0  0  0
  -31.2632  -18.9886   21.3777 C   0  0  0  0  0  0
  -31.1276  -17.5913   21.4539 C   0  0  0  0  0  0
  -28.3783  -17.0400   19.0233 C   0  0  0  0  0  0
  -27.5291  -17.7200   18.1487 C   0  0  0  0  0  0
  -27.7244  -19.0992   17.9234 C   0  0  0  0  0  0
  -29.3521  -17.7024   19.7940 C   0  0  0  0  0  0
  -29.5299  -19.1176   19.6364 C   0  0  0  0  0  0
  -30.4416  -19.7772   20.5334 C   0  0  0  0  0  0
  -28.7900  -19.7730   18.5862 C   0  0  0  0  0  0
  -30.1436  -16.9348   20.6979 C   0  0  0  0  0  0
  -29.9476  -24.2203   22.1620 C   0  0  0  0  0  0
  -29.9899  -25.3330   21.3991 C   0  0  0  0  0  0
  -29.1788  -21.1422   18.0242 C   0  0  0  0  0  0
  -30.5604  -21.3106   20.6846 C   0  0  0  0  0  0
  -31.0702  -23.1887   22.2648 C   0  0  0  0  0  0
  -28.9466  -26.4432   21.4005 C   0  0  0  0  0  0
  -29.9033  -15.5349   20.9205 N   0  0  0  0  0  0
  -30.6560  -21.7735   22.0850 N   0  3  0  0  0  0
  -31.4698  -12.4274   19.1135 H   0  0  0  0  0  0
  -30.3415  -11.3090   19.8227 H   0  0  0  0  0  0
  -29.7477  -11.7830   17.4203 H   0  0  0  0  0  0
  -29.6356  -13.4891   17.7680 H   0  0  0  0  0  0
  -27.8363  -11.2733   18.8059 H   0  0  0  0  0  0
  -27.3597  -12.6065   17.7887 H   0  0  0  0  0  0
  -27.6599  -14.1910   19.5616 H   0  0  0  0  0  0
  -28.7017  -11.9556   21.3464 H   0  0  0  0  0  0
  -28.4744  -13.6007   21.8620 H   0  0  0  0  0  0
  -25.2707   -9.5651   22.4767 H   0  0  0  0  0  0
  -23.9962   -7.4599   22.7474 H   0  0  0  0  0  0
  -21.0816   -8.8711   19.8937 H   0  0  0  0  0  0
  -22.3633  -10.9639   19.6172 H   0  0  0  0  0  0
  -21.1988   -7.6123   23.9724 H   0  0  0  0  0  0
  -21.1494   -6.0490   25.9074 H   0  0  0  0  0  0
  -22.0612   -2.7603   23.2843 H   0  0  0  0  0  0
  -22.4045  -11.9912   22.4800 H   0  0  0  0  0  0
  -21.1085  -13.1312   22.2551 H   0  0  0  0  0  0
  -24.6665  -15.8200   20.5423 H   0  0  0  0  0  0
  -26.2969  -15.6377   20.1621 H   0  0  0  0  0  0
  -26.7098  -32.5560   23.1194 H   0  0  0  0  0  0
  -25.0025  -33.9801   25.0488 H   0  0  0  0  0  0
  -22.6870  -31.3044   21.4082 H   0  0  0  0  0  0
  -23.3755  -35.9640   23.3289 H   0  0  0  0  0  0
  -24.3581  -36.8958   22.2056 H   0  0  0  0  0  0
  -23.7209  -37.6513   23.6666 H   0  0  0  0  0  0
  -26.0285  -31.6089   20.5957 H   0  0  0  0  0  0
  -26.8119  -30.9017   21.9803 H   0  0  0  0  0  0
  -28.0870  -29.1332   21.1974 H   0  0  0  0  0  0
  -26.1063  -25.9856   19.0113 H   0  0  0  0  0  0
  -24.0021  -27.2937   19.0205 H   0  0  0  0  0  0
  -23.7064  -30.5898   19.3997 H   0  0  0  0  0  0
  -22.7371  -29.2290   19.8751 H   0  0  0  0  0  0
  -25.1291  -36.2005   25.0830 H   0  0  0  0  0  0
  -20.9925  -28.3197   24.1455 H   0  0  0  0  0  0
  -20.5645  -26.2252   23.3619 H   0  0  0  0  0  0
  -21.6618  -26.7423   22.1221 H   0  0  0  0  0  0
  -19.6884  -25.6272   21.1259 H   0  0  0  0  0  0
  -19.6695  -27.3183   20.6752 H   0  0  0  0  0  0
  -17.4189  -26.6701   21.3988 H   0  0  0  0  0  0
  -18.0267  -26.0052   22.8995 H   0  0  0  0  0  0
  -19.7919  -30.7254   24.2282 H   0  0  0  0  0  0
  -17.4994  -31.6282   24.5119 H   0  0  0  0  0  0
  -15.5330  -30.2978   23.7653 H   0  0  0  0  0  0
  -15.8645  -28.0814   22.7061 H   0  0  0  0  0  0
  -24.5895  -30.7056   25.7801 H   0  0  0  0  0  0
  -24.8946  -32.2826   26.4976 H   0  0  0  0  0  0
  -25.8080  -30.8799   27.0213 H   0  0  0  0  0  0
  -26.2832  -29.6803   24.1141 H   0  0  0  0  0  0
  -27.4069  -29.7267   25.4540 H   0  0  0  0  0  0
  -27.8663  -30.4366   23.9231 H   0  0  0  0  0  0
  -27.2675  -33.3588   26.2114 H   0  0  0  0  0  0
  -28.3841  -32.6878   25.0314 H   0  0  0  0  0  0
  -28.0730  -31.8392   26.5381 H   0  0  0  0  0  0
  -28.2597  -38.0124   24.7540 H   0  0  0  0  0  0
  -28.1100  -36.2656   24.6252 H   0  0  0  0  0  0
  -27.2305  -37.1425   25.8860 H   0  0  0  0  0  0
  -20.9285  -29.8758   21.6993 H   0  0  0  0  0  0
  -26.0195  -38.2881   24.1436 H   0  0  0  0  0  0
  -24.8493  -17.1419   16.1006 H   0  0  0  0  0  0
  -25.1567  -19.5803   15.6905 H   0  0  0  0  0  0
  -26.3695  -15.9520   17.6554 H   0  0  0  0  0  0
  -26.9208  -20.8182   16.8304 H   0  0  0  0  0  0
  -32.0023  -19.4518   22.0149 H   0  0  0  0  0  0
  -31.7468  -17.0336   22.1409 H   0  0  0  0  0  0
  -28.2631  -15.9843   19.0967 H   0  0  0  0  0  0
  -29.0887  -24.0477   22.7968 H   0  0  0  0  0  0
  -30.8432  -25.5044   20.7575 H   0  0  0  0  0  0
  -29.0582  -21.1704   16.9408 H   0  0  0  0  0  0
  -30.2356  -21.3598   18.1601 H   0  0  0  0  0  0
  -28.5646  -21.9376   18.4477 H   0  0  0  0  0  0
  -29.6765  -21.8240   20.3228 H   0  0  0  0  0  0
  -31.4241  -21.6567   20.1140 H   0  0  0  0  0  0
  -31.4826  -23.2787   23.2708 H   0  0  0  0  0  0
  -31.8835  -23.4410   21.5828 H   0  0  0  0  0  0
  -29.4357  -27.3512   21.7542 H   0  0  0  0  0  0
  -28.1652  -26.2019   22.1228 H   0  0  0  0  0  0
  -28.9554  -15.2786   21.1480 H   0  0  0  0  0  0
  -31.3590  -21.2035   22.5244 H   0  0  0  0  0  0
  -29.7906  -21.5977   22.5658 H   0  0  0  0  0  0
  1 25  1  0  0  0
  1 30  2  0  0  0
  1 91  1  0  0  0
  2  3  1  0  0  0
  2 25  1  0  0  0
  2 93  1  0  0  0
  2 94  1  0  0  0
  3  4  1  0  0  0
  3 95  1  0  0  0
  3 96  1  0  0  0
  4  5  1  0  0  0
  4 97  1  0  0  0
  4 98  1  0  0  0
  5  6  1  0  0  0
  5 26  1  0  0  0
  5 99  1  0  0  0
  6 25  1  0  0  0
  6100  1  0  0  0
  6101  1  0  0  0
  7  8  2  0  0  0
  7 26  1  0  0  0
  7 29  1  0  0  0
  8  9  1  0  0  0
  8 22  1  0  0  0
  9 10  1  0  0  0
  9 27  2  0  0  0
 10 11  2  0  0  0
 10 15  1  0  0  0
 11 12  1  0  0  0
 11102  1  0  0  0
 12 13  2  0  0  0
 12103  1  0  0  0
 13 14  1  0  0  0
 13 31  1  0  0  0
 14 15  2  0  0  0
 14104  1  0  0  0
 15105  1  0  0  0
 16 17  2  0  0  0
 16 21  1  0  0  0
 16 31  1  0  0  0
 17 18  1  0  0  0
 17106  1  0  0  0
 18 19  2  0  0  0
 18107  1  0  0  0
 19 20  1  0  0  0
 19 24  1  0  0  0
 20 21  2  0  0  0
 20108  1  0  0  0
 21 23  1  0  0  0
 22 28  1  0  0  0
 22 32  2  0  0  0
 26 27  1  0  0  0
 28109  1  0  0  0
 28110  1  0  0  0
 29111  1  0  0  0
 29112  1  0  0  0
 33 34  1  0  0  0
 33 66  1  0  0  0
 33 70  2  0  0  0
 34 36  1  0  0  0
 34 59  1  0  0  0
 34113  1  0  0  0
 35 44  2  0  0  0
 35 45  1  0  0  0
 35 68  1  0  0  0
 36 56  1  0  0  0
 36114  1  0  0  0
 37 39  1  0  0  0
 37 47  1  0  0  0
 37 66  1  0  0  0
 37115  1  0  0  0
 38 43  2  0  0  0
 38 46  1  0  0  0
 38 47  1  0  0  0
 39 64  1  0  0  0
 39 67  2  0  0  0
 40 52  1  0  0  0
 40 53  2  0  0  0
 40 58  1  0  0  0
 41116  1  0  0  0
 41117  1  0  0  0
 41118  1  0  0  0
 41 48  1  0  0  0
 42 43  1  0  0  0
 42 66  1  0  0  0
 42119  1  0  0  0
 42120  1  0  0  0
 43 44  1  0  0  0
 44121  1  0  0  0
 45 46  2  0  0  0
 45122  1  0  0  0
 46123  1  0  0  0
 47124  1  0  0  0
 47125  1  0  0  0
 48 56  1  0  0  0
 48 65  1  0  0  0
 48126  1  0  0  0
 49 50  1  0  0  0
 49 53  1  0  0  0
 49 64  1  0  0  0
 49127  1  0  0  0
 50 51  1  0  0  0
 50128  1  0  0  0
 50129  1  0  0  0
 51 52  1  0  0  0
 51130  1  0  0  0
 51131  1  0  0  0
 52132  1  0  0  0
 52133  1  0  0  0
 53 54  1  0  0  0
 54 55  2  0  0  0
 54134  1  0  0  0
 55 57  1  0  0  0
 55135  1  0  0  0
 56 69  2  0  0  0
 57 58  2  0  0  0
 57136  1  0  0  0
 58137  1  0  0  0
 59 60  1  0  0  0
 59 61  1  0  0  0
 59 62  1  0  0  0
 60138  1  0  0  0
 60139  1  0  0  0
 60140  1  0  0  0
 61141  1  0  0  0
 61142  1  0  0  0
 61143  1  0  0  0
 62144  1  0  0  0
 62145  1  0  0  0
 62146  1  0  0  0
 63 65  1  0  0  0
 63147  1  0  0  0
 63148  1  0  0  0
 63149  1  0  0  0
 64150  1  0  0  0
 65151  1  0  0  0
 68 90  1  0  0  0
 71 72  2  0  0  0
 71 73  1  0  0  0
 71152  1  0  0  0
 72 74  1  0  0  0
 72153  1  0  0  0
 73 78  2  0  0  0
 73154  1  0  0  0
 74 79  2  0  0  0
 74155  1  0  0  0
 75 76  1  0  0  0
 75 82  2  0  0  0
 75156  1  0  0  0
 76 84  2  0  0  0
 76157  1  0  0  0
 77 78  1  0  0  0
 77 80  2  0  0  0
 77158  1  0  0  0
 78 79  1  0  0  0
 79 83  1  0  0  0
 80 81  1  0  0  0
 80 84  1  0  0  0
 81 82  1  0  0  0
 81 83  2  0  0  0
 82 88  1  0  0  0
 83 87  1  0  0  0
 84 91  1  0  0  0
 85 86  2  0  0  0
 85 89  1  0  0  0
 85159  1  0  0  0
 86 90  1  0  0  0
 86160  1  0  0  0
 87161  1  0  0  0
 87162  1  0  0  0
 87163  1  0  0  0
 88 92  1  0  0  0
 88164  1  0  0  0
 88165  1  0  0  0
 89 92  1  0  0  0
 89166  1  0  0  0
 89167  1  0  0  0
 90168  1  0  0  0
 90169  1  0  0  0
 91170  1  0  0  0
 92171  1  0  0  0
 92172  1  0  0  0
M  CHG  1  92   1
M  ISO  4   1 100  68 101  90 101  91 100
M  END
> <chiral flag>
0

> <version>
0

> <s_m_source_file>
/data/baiqing/PycharmProjects/Reinvent-master-3.2/result/LINK_invent/BTK/process_docking_weight1_custom_product_contain_oxygen_bond_distance_aromatic_linkinvent_7_9_3/rearranged_h_0006.sdf

> <i_m_source_file_index>
71

> <r_mmod_Potential_Energy-OPLS-2005>
-158.917785644531

> <r_mmod_Stretch_Energy-OPLS-2005>
49.524486541748

> <r_mmod_Bend_Energy-OPLS-2005>
106.580558776855

> <r_mmod_Torsional_Energy-OPLS-2005>
261.516265869141

> <r_mmod_Improper_Torsional_Energy-OPLS-2005>
6.15412044525146

> <r_mmod_Van_der_Waal_Energy-OPLS-2005>
199.601699829102

> <r_mmod_Electrostatic_Energy-OPLS-2005>
-327.514770507812

> <r_mmod_Solvation_Energy-OPLS-2005>
-470.408325195312

> <b_mmod_Minimization_Converged-OPLS-2005>
0

> <r_mmod_RMS_Derivative-OPLS-2005>
2.67826867103577

$$$$
72
                    3D
 Structure written by MMmdl.
154163  0  0  1  0            999 V2000
  -30.3407  -15.6343   20.3653 C   0  0  0  0  0  0
  -30.4021  -13.0853   19.5510 C   0  0  0  0  0  0
  -29.5316  -12.6504   18.3375 C   0  0  0  0  0  0
  -28.1179  -12.2851   18.8015 C   0  0  0  0  0  0
  -27.5916  -13.3061   19.8326 C   0  0  2  0  0  0
  -28.6066  -13.6585   20.9486 C   0  0  0  0  0  0
  -25.2298  -13.8311   20.5888 C   0  0  0  0  0  0
  -24.1671  -13.0464   20.9342 C   0  0  0  0  0  0
  -24.6350  -11.6971   20.8829 C   0  0  0  0  0  0
  -23.9058  -10.4308   21.0440 C   0  0  0  0  0  0
  -24.3625   -9.4222   21.9216 C   0  0  0  0  0  0
  -23.6303   -8.2258   22.0791 C   0  0  0  0  0  0
  -22.4294   -8.0287   21.3557 C   0  0  0  0  0  0
  -21.9900   -9.0268   20.4682 C   0  0  0  0  0  0
  -22.7217  -10.2153   20.3103 C   0  0  0  0  0  0
  -21.6850   -6.0748   22.5300 C   0  0  0  0  0  0
  -21.3994   -6.5651   23.8221 C   0  0  0  0  0  0
  -21.3670   -5.6804   24.9187 C   0  0  0  0  0  0
  -21.6055   -4.3074   24.7255 C   0  0  0  0  0  0
  -21.8805   -3.8155   23.4367 C   0  0  0  0  0  0
  -21.9178   -4.6964   22.3416 C   0  0  0  0  0  0
  -22.7691  -13.5220   21.1952 C   0  0  0  0  0  0
  -22.1657   -4.2132   21.1007 F   0  0  0  0  0  0
  -21.5619   -3.4582   25.7775 F   0  0  0  0  0  0
  -29.7677  -14.2863   20.2738 N   0  0  0  0  0  0
  -26.2743  -12.9624   20.3399 N   0  0  0  0  0  0
  -25.9292  -11.6704   20.5850 N   0  0  0  0  0  0
  -22.0355  -12.8197   22.0500 N   0  0  0  0  0  0
  -25.3937  -15.2047   20.4315 N   0  0  0  0  0  0
  -31.5675  -15.4940   20.1822 O   0  0  0  0  0  0
  -21.6667   -6.8879   21.4255 O   0  0  0  0  0  0
  -22.3392  -14.5528   20.6768 O   0  0  0  0  0  0
  -24.6792  -31.7978   23.1545 C   0  0  0  0  0  0
  -25.9402  -32.4456   23.8106 C   0  0  1  0  0  0
  -27.2407  -26.7129   20.2380 C   0  0  0  0  0  0
  -25.5985  -33.8300   24.1967 N   0  0  0  0  0  0
  -23.5079  -30.3984   21.4995 C   0  0  2  0  0  0
  -24.9753  -28.7406   20.1089 C   0  0  0  0  0  0
  -22.7759  -29.4280   22.4659 C   0  0  0  0  0  0
  -18.0317  -28.1376   22.8426 C   0  0  0  0  0  0
  -24.1501  -36.7156   23.2648 C   0  0  0  0  0  0
  -26.0865  -30.5332   21.4287 C   0  0  0  0  0  0
  -26.1529  -29.1017   20.7724 C   0  0  0  0  0  0
  -27.2609  -28.1100   20.8141 C   0  0  0  0  0  0
  -26.0451  -26.5613   19.4932 C   0  0  0  0  0  0
  -24.9637  -27.4973   19.4414 C   0  0  0  0  0  0
  -23.7689  -29.6936   20.1328 C   0  0  0  0  0  0
  -25.4167  -36.2888   24.0262 C   0  0  1  0  0  0
  -20.5964  -28.3744   23.1099 C   0  0  2  0  0  0
  -20.6788  -26.9402   22.5365 C   0  0  0  0  0  0
  -19.5781  -26.6331   21.5179 C   0  0  0  0  0  0
  -18.1970  -26.7893   22.1606 C   0  0  0  0  0  0
  -19.1591  -28.8889   23.2741 C   0  0  0  0  0  0
  -18.9507  -30.1487   23.8783 C   0  0  0  0  0  0
  -17.6497  -30.6574   24.0533 C   0  0  0  0  0  0
  -25.9136  -34.9271   23.4964 C   0  0  0  0  0  0
  -16.5380  -29.9040   23.6357 C   0  0  0  0  0  0
  -16.7311  -28.6460   23.0370 C   0  0  0  0  0  0
  -26.4601  -31.6517   25.0760 C   0  0  0  0  0  0
  -25.3641  -31.3863   26.1374 C   0  0  0  0  0  0
  -27.0545  -30.2826   24.6735 C   0  0  0  0  0  0
  -27.6027  -32.4402   25.7561 C   0  0  0  0  0  0
  -27.5592  -37.1731   24.8463 C   0  0  0  0  0  0
  -21.4403  -29.2994   22.3424 N   0  0  0  0  0  0
  -26.4284  -37.3660   23.9402 N   0  0  0  0  0  0
  -24.7809  -30.9433   22.0786 N   0  0  0  0  0  0
  -23.4221  -28.7878   23.3006 O   0  0  0  0  0  0
  -28.2198  -25.5321   20.4636 O   0  0  0  0  0  0
  -26.5765  -34.8828   22.4580 O   0  0  0  0  0  0
  -23.5823  -32.1060   23.6501 O   0  0  0  0  0  0
  -29.8101  -26.1896   17.7143 C   0  0  0  0  0  0
  -29.6032  -25.0749   18.1654 C   0  0  0  0  0  0
  -27.3426  -21.3941   22.6554 C   0  0  0  0  0  0
  -27.6796  -20.0503   22.3749 C   0  0  0  0  0  0
  -27.6629  -22.4872   21.8191 C   0  0  0  0  0  0
  -28.8389  -20.8137   20.3985 C   0  0  0  0  0  0
  -28.4387  -19.6512   21.2531 C   0  0  0  0  0  0
  -28.3712  -22.3861   20.6023 C   0  0  0  0  0  0
  -29.6786  -19.9037   19.3966 C   0  0  0  0  0  0
  -28.6427  -17.9415   21.1000 C   0  0  0  0  0  0
  -30.4205  -18.4195   19.7912 C   0  0  0  0  0  0
  -29.3411  -23.7709   18.8057 C   0  0  0  0  0  0
  -29.7316  -17.0861   20.3110 N   0  0  0  0  0  0
  -28.3571  -23.8376   19.8907 N   0  0  0  0  0  0
  -29.8585  -20.3071   18.2462 O   0  0  0  0  0  0
  -31.4011  -13.3246   19.1884 H   0  0  0  0  0  0
  -30.5489  -12.2483   20.2370 H   0  0  0  0  0  0
  -29.9856  -11.7976   17.8312 H   0  0  0  0  0  0
  -29.4780  -13.4618   17.6120 H   0  0  0  0  0  0
  -28.1646  -11.3015   19.2729 H   0  0  0  0  0  0
  -27.4342  -12.1954   17.9582 H   0  0  0  0  0  0
  -27.4506  -14.2182   19.2517 H   0  0  0  0  0  0
  -28.8825  -12.7858   21.5447 H   0  0  0  0  0  0
  -28.1724  -14.3767   21.6467 H   0  0  0  0  0  0
  -25.2722   -9.5750   22.4840 H   0  0  0  0  0  0
  -23.9990   -7.4680   22.7548 H   0  0  0  0  0  0
  -21.0793   -8.8791   19.9032 H   0  0  0  0  0  0
  -22.3601  -10.9732   19.6288 H   0  0  0  0  0  0
  -21.1986   -7.6166   23.9707 H   0  0  0  0  0  0
  -21.1505   -6.0571   25.9087 H   0  0  0  0  0  0
  -22.0564   -2.7622   23.2899 H   0  0  0  0  0  0
  -22.3945  -11.9804   22.4782 H   0  0  0  0  0  0
  -21.1053  -13.1329   22.2898 H   0  0  0  0  0  0
  -24.6233  -15.8540   20.5475 H   0  0  0  0  0  0
  -26.2392  -15.6473   20.0952 H   0  0  0  0  0  0
  -26.7479  -32.4898   23.0816 H   0  0  0  0  0  0
  -25.0077  -33.9387   25.0074 H   0  0  0  0  0  0
  -22.8315  -31.2338   21.3096 H   0  0  0  0  0  0
  -23.3785  -35.9463   23.3249 H   0  0  0  0  0  0
  -24.3554  -36.8890   22.2077 H   0  0  0  0  0  0
  -23.7268  -37.6317   23.6771 H   0  0  0  0  0  0
  -26.3155  -31.2696   20.6580 H   0  0  0  0  0  0
  -26.9226  -30.5774   22.1141 H   0  0  0  0  0  0
  -28.1301  -28.3870   21.3949 H   0  0  0  0  0  0
  -25.9059  -25.6134   18.9935 H   0  0  0  0  0  0
  -24.0775  -27.2183   18.8902 H   0  0  0  0  0  0
  -23.9424  -30.4581   19.3741 H   0  0  0  0  0  0
  -22.8758  -29.1567   19.8065 H   0  0  0  0  0  0
  -25.1390  -36.1654   25.0744 H   0  0  0  0  0  0
  -21.0048  -28.3350   24.1231 H   0  0  0  0  0  0
  -20.5624  -26.2368   23.3635 H   0  0  0  0  0  0
  -21.6643  -26.7322   22.1216 H   0  0  0  0  0  0
  -19.6938  -25.6218   21.1275 H   0  0  0  0  0  0
  -19.6721  -27.3072   20.6654 H   0  0  0  0  0  0
  -17.4235  -26.6594   21.4028 H   0  0  0  0  0  0
  -18.0399  -26.0049   22.9027 H   0  0  0  0  0  0
  -19.7990  -30.7315   24.2093 H   0  0  0  0  0  0
  -17.5055  -31.6252   24.5147 H   0  0  0  0  0  0
  -15.5385  -30.2919   23.7734 H   0  0  0  0  0  0
  -15.8704  -28.0758   22.7139 H   0  0  0  0  0  0
  -24.5700  -30.7402   25.7638 H   0  0  0  0  0  0
  -24.9012  -32.3114   26.4795 H   0  0  0  0  0  0
  -25.7763  -30.8954   27.0193 H   0  0  0  0  0  0
  -26.3287  -29.6389   24.1763 H   0  0  0  0  0  0
  -27.3943  -29.7366   25.5553 H   0  0  0  0  0  0
  -27.9286  -30.3932   24.0309 H   0  0  0  0  0  0
  -27.2514  -33.3702   26.2042 H   0  0  0  0  0  0
  -28.3868  -32.6990   25.0428 H   0  0  0  0  0  0
  -28.0663  -31.8641   26.5584 H   0  0  0  0  0  0
  -28.2552  -38.0073   24.7537 H   0  0  0  0  0  0
  -28.1127  -36.2610   24.6241 H   0  0  0  0  0  0
  -27.2281  -37.1297   25.8843 H   0  0  0  0  0  0
  -20.9700  -29.8680   21.6525 H   0  0  0  0  0  0
  -26.0112  -38.2696   24.1409 H   0  0  0  0  0  0
  -29.9767  -27.1886   17.3663 H   0  0  0  0  0  0
  -26.7678  -21.6022   23.5476 H   0  0  0  0  0  0
  -27.3192  -19.2972   23.0623 H   0  0  0  0  0  0
  -27.3132  -23.4623   22.1293 H   0  0  0  0  0  0
  -27.6805  -17.5837   20.7212 H   0  0  0  0  0  0
  -28.6896  -17.5616   22.1220 H   0  0  0  0  0  0
  -31.1344  -18.6959   20.5684 H   0  0  0  0  0  0
  -31.0521  -18.1422   18.9461 H   0  0  0  0  0  0
  -30.2914  -23.3909   19.1880 H   0  0  0  0  0  0
  -28.9972  -23.0815   18.0342 H   0  0  0  0  0  0
  1 25  1  0  0  0
  1 30  2  0  0  0
  1 83  1  0  0  0
  2  3  1  0  0  0
  2 25  1  0  0  0
  2 86  1  0  0  0
  2 87  1  0  0  0
  3  4  1  0  0  0
  3 88  1  0  0  0
  3 89  1  0  0  0
  4  5  1  0  0  0
  4 90  1  0  0  0
  4 91  1  0  0  0
  5  6  1  0  0  0
  5 26  1  0  0  0
  5 92  1  0  0  0
  6 25  1  0  0  0
  6 93  1  0  0  0
  6 94  1  0  0  0
  7  8  2  0  0  0
  7 26  1  0  0  0
  7 29  1  0  0  0
  8  9  1  0  0  0
  8 22  1  0  0  0
  9 10  1  0  0  0
  9 27  2  0  0  0
 10 11  2  0  0  0
 10 15  1  0  0  0
 11 12  1  0  0  0
 11 95  1  0  0  0
 12 13  2  0  0  0
 12 96  1  0  0  0
 13 14  1  0  0  0
 13 31  1  0  0  0
 14 15  2  0  0  0
 14 97  1  0  0  0
 15 98  1  0  0  0
 16 17  2  0  0  0
 16 21  1  0  0  0
 16 31  1  0  0  0
 17 18  1  0  0  0
 17 99  1  0  0  0
 18 19  2  0  0  0
 18100  1  0  0  0
 19 20  1  0  0  0
 19 24  1  0  0  0
 20 21  2  0  0  0
 20101  1  0  0  0
 21 23  1  0  0  0
 22 28  1  0  0  0
 22 32  2  0  0  0
 26 27  1  0  0  0
 28102  1  0  0  0
 28103  1  0  0  0
 29104  1  0  0  0
 29105  1  0  0  0
 33 34  1  0  0  0
 33 66  1  0  0  0
 33 70  2  0  0  0
 34 36  1  0  0  0
 34 59  1  0  0  0
 34106  1  0  0  0
 35 44  2  0  0  0
 35 45  1  0  0  0
 35 68  1  0  0  0
 36 56  1  0  0  0
 36107  1  0  0  0
 37 39  1  0  0  0
 37 47  1  0  0  0
 37 66  1  0  0  0
 37108  1  0  0  0
 38 43  2  0  0  0
 38 46  1  0  0  0
 38 47  1  0  0  0
 39 64  1  0  0  0
 39 67  2  0  0  0
 40 52  1  0  0  0
 40 53  2  0  0  0
 40 58  1  0  0  0
 41109  1  0  0  0
 41110  1  0  0  0
 41111  1  0  0  0
 41 48  1  0  0  0
 42 43  1  0  0  0
 42 66  1  0  0  0
 42112  1  0  0  0
 42113  1  0  0  0
 43 44  1  0  0  0
 44114  1  0  0  0
 45 46  2  0  0  0
 45115  1  0  0  0
 46116  1  0  0  0
 47117  1  0  0  0
 47118  1  0  0  0
 48 56  1  0  0  0
 48 65  1  0  0  0
 48119  1  0  0  0
 49 50  1  0  0  0
 49 53  1  0  0  0
 49 64  1  0  0  0
 49120  1  0  0  0
 50 51  1  0  0  0
 50121  1  0  0  0
 50122  1  0  0  0
 51 52  1  0  0  0
 51123  1  0  0  0
 51124  1  0  0  0
 52125  1  0  0  0
 52126  1  0  0  0
 53 54  1  0  0  0
 54 55  2  0  0  0
 54127  1  0  0  0
 55 57  1  0  0  0
 55128  1  0  0  0
 56 69  2  0  0  0
 57 58  2  0  0  0
 57129  1  0  0  0
 58130  1  0  0  0
 59 60  1  0  0  0
 59 61  1  0  0  0
 59 62  1  0  0  0
 60131  1  0  0  0
 60132  1  0  0  0
 60133  1  0  0  0
 61134  1  0  0  0
 61135  1  0  0  0
 61136  1  0  0  0
 62137  1  0  0  0
 62138  1  0  0  0
 62139  1  0  0  0
 63 65  1  0  0  0
 63140  1  0  0  0
 63141  1  0  0  0
 63142  1  0  0  0
 64143  1  0  0  0
 65144  1  0  0  0
 68 84  1  0  0  0
 71 72  3  0  0  0
 71145  1  0  0  0
 72 82  1  0  0  0
 73 74  2  0  0  0
 73 75  1  0  0  0
 73146  1  0  0  0
 74 77  1  0  0  0
 74147  1  0  0  0
 75 78  2  0  0  0
 75148  1  0  0  0
 76 77  2  0  0  0
 76 78  1  0  0  0
 76 79  1  0  0  0
 77 80  1  0  0  0
 78 84  1  0  0  0
 79 81  1  0  0  0
 79 85  2  0  0  0
 80 83  1  0  0  0
 80149  1  0  0  0
 80150  1  0  0  0
 81 83  1  0  0  0
 81151  1  0  0  0
 81152  1  0  0  0
 82 84  1  0  0  0
 82153  1  0  0  0
 82154  1  0  0  0
M  ISO  4   1 100  68 101  83 100  84 101
M  END
> <chiral flag>
0

> <version>
0

> <s_m_source_file>
/data/baiqing/PycharmProjects/Reinvent-master-3.2/result/LINK_invent/BTK/process_docking_weight1_custom_product_contain_oxygen_bond_distance_aromatic_linkinvent_7_9_3/rearranged_h_0006.sdf

> <i_m_source_file_index>
72

> <r_mmod_Potential_Energy-OPLS-2005>
2404.40673828125

> <r_mmod_Stretch_Energy-OPLS-2005>
925.455871582031

> <r_mmod_Bend_Energy-OPLS-2005>
747.36083984375

> <r_mmod_Torsional_Energy-OPLS-2005>
263.964080810547

> <r_mmod_Improper_Torsional_Energy-OPLS-2005>
15.8994035720825

> <r_mmod_Van_der_Waal_Energy-OPLS-2005>
135.677490234375

> <r_mmod_Electrostatic_Energy-OPLS-2005>
-341.643280029297

> <r_mmod_Solvation_Energy-OPLS-2005>
-231.699462890625

> <b_mmod_Minimization_Converged-OPLS-2005>
0

> <r_mmod_RMS_Derivative-OPLS-2005>
5.94056558609009

$$$$
73
                    3D
 Structure written by MMmdl.
161169  0  0  1  0            999 V2000
  -30.7478  -14.3921   20.6058 C   0  0  0  0  0  0
  -30.4053  -12.2609   19.4173 C   0  0  0  0  0  0
  -29.4810  -12.4759   18.2032 C   0  0  0  0  0  0
  -28.0084  -12.3376   18.6283 C   0  0  0  0  0  0
  -27.6606  -13.1978   19.8715 C   0  0  2  0  0  0
  -28.7003  -12.9925   20.9961 C   0  0  0  0  0  0
  -25.2601  -13.8143   20.5702 C   0  0  0  0  0  0
  -24.1845  -13.0434   20.9188 C   0  0  0  0  0  0
  -24.6380  -11.6898   20.8741 C   0  0  0  0  0  0
  -23.9044  -10.4289   21.0403 C   0  0  0  0  0  0
  -24.3588   -9.4212   21.9192 C   0  0  0  0  0  0
  -23.6281   -8.2245   22.0764 C   0  0  0  0  0  0
  -22.4267   -8.0271   21.3542 C   0  0  0  0  0  0
  -21.9905   -9.0238   20.4632 C   0  0  0  0  0  0
  -22.7224  -10.2120   20.3049 C   0  0  0  0  0  0
  -21.6844   -6.0731   22.5278 C   0  0  0  0  0  0
  -21.4011   -6.5632   23.8212 C   0  0  0  0  0  0
  -21.3661   -5.6784   24.9168 C   0  0  0  0  0  0
  -21.6045   -4.3048   24.7221 C   0  0  0  0  0  0
  -21.8819   -3.8145   23.4341 C   0  0  0  0  0  0
  -21.9196   -4.6960   22.3396 C   0  0  0  0  0  0
  -22.7871  -13.5240   21.1844 C   0  0  0  0  0  0
  -22.1668   -4.2150   21.0976 F   0  0  0  0  0  0
  -21.5626   -3.4534   25.7739 F   0  0  0  0  0  0
  -30.0369  -13.2488   20.4427 N   0  0  0  0  0  0
  -26.3015  -12.9306   20.3368 N   0  0  0  0  0  0
  -25.9301  -11.6470   20.5789 N   0  0  0  0  0  0
  -22.0495  -12.8211   22.0359 N   0  0  0  0  0  0
  -25.4370  -15.1865   20.4112 N   0  0  0  0  0  0
  -31.8438  -14.5527   20.0602 O   0  0  0  0  0  0
  -21.6635   -6.8869   21.4242 O   0  0  0  0  0  0
  -22.3576  -14.5571   20.6718 O   0  0  0  0  0  0
  -24.6071  -31.8699   23.2125 C   0  0  0  0  0  0
  -25.8994  -32.4821   23.8399 C   0  0  1  0  0  0
  -27.2527  -27.4844   20.1013 C   0  0  0  0  0  0
  -25.5912  -33.8610   24.2362 N   0  0  0  0  0  0
  -23.3956  -30.4900   21.5500 C   0  0  2  0  0  0
  -24.8490  -28.9626   20.1120 C   0  0  0  0  0  0
  -22.7404  -29.4617   22.5007 C   0  0  0  0  0  0
  -18.0269  -28.1334   22.8475 C   0  0  0  0  0  0
  -24.1499  -36.7281   23.2642 C   0  0  0  0  0  0
  -25.9125  -30.8574   21.3524 C   0  0  0  0  0  0
  -25.9982  -29.4898   20.7116 C   0  0  0  0  0  0
  -27.2006  -28.7580   20.7120 C   0  0  0  0  0  0
  -26.0935  -26.9677   19.4866 C   0  0  0  0  0  0
  -24.8877  -27.6961   19.4979 C   0  0  0  0  0  0
  -23.6042  -29.8191   20.1631 C   0  0  0  0  0  0
  -25.4116  -36.3100   24.0359 C   0  0  1  0  0  0
  -20.5854  -28.3591   23.1324 C   0  0  2  0  0  0
  -20.6736  -26.9334   22.5389 C   0  0  0  0  0  0
  -19.5727  -26.6363   21.5161 C   0  0  0  0  0  0
  -18.1904  -26.7881   22.1594 C   0  0  0  0  0  0
  -19.1516  -28.8786   23.2886 C   0  0  0  0  0  0
  -18.9450  -30.1388   23.8906 C   0  0  0  0  0  0
  -17.6457  -30.6547   24.0546 C   0  0  0  0  0  0
  -25.9035  -34.9467   23.5148 C   0  0  0  0  0  0
  -16.5354  -29.9057   23.6305 C   0  0  0  0  0  0
  -16.7259  -28.6470   23.0339 C   0  0  0  0  0  0
  -26.4472  -31.6565   25.0674 C   0  0  0  0  0  0
  -25.3775  -31.3585   26.1436 C   0  0  0  0  0  0
  -27.0319  -30.3072   24.5880 C   0  0  0  0  0  0
  -27.6029  -32.4266   25.7491 C   0  0  0  0  0  0
  -27.5577  -37.1818   24.8475 C   0  0  0  0  0  0
  -21.4141  -29.2993   22.3779 N   0  0  0  0  0  0
  -26.4303  -37.3772   23.9406 N   0  0  0  0  0  0
  -24.6566  -31.0856   22.0987 N   0  0  0  0  0  0
  -23.4210  -28.8131   23.2994 O   0  0  0  0  0  0
  -28.3955  -26.7242   20.0630 O   0  0  0  0  0  0
  -26.5545  -34.8923   22.4676 O   0  0  0  0  0  0
  -23.5286  -32.1409   23.7580 O   0  0  0  0  0  0
  -31.3648  -21.6167   22.4274 C   0  0  0  0  0  0
  -30.8358  -22.9176   22.3657 C   0  0  0  0  0  0
  -29.6974  -20.8644   20.8203 C   0  0  0  0  0  0
  -30.8032  -20.5815   21.6547 C   0  0  0  0  0  0
  -29.1468  -22.1668   20.7633 C   0  0  0  0  0  0
  -29.7299  -23.2024   21.5331 C   0  0  0  0  0  0
  -31.4493  -19.2025   21.6727 C   0  0  0  0  0  0
  -30.1615  -15.5715   21.4042 C   0  0  0  0  0  0
  -31.0997  -16.8034   21.3480 C   0  0  0  0  0  0
  -29.2496  -26.8200   21.2004 C   0  0  0  0  0  0
  -30.0857  -25.5443   21.2870 C   0  0  0  0  0  0
  -27.9570  -22.4620   19.8497 C   0  0  0  0  0  0
  -30.4819  -18.0871   21.7480 N   0  3  0  0  0  0
  -29.1816  -24.4610   21.4837 O   0  0  0  0  0  0
  -27.5261  -21.3631   19.2255 F   0  0  0  0  0  0
  -26.9383  -22.9541   20.5581 F   0  0  0  0  0  0
  -28.3064  -23.3518   18.9182 F   0  0  0  0  0  0
  -31.4528  -12.3257   19.1144 H   0  0  0  0  0  0
  -30.2787  -11.2522   19.8166 H   0  0  0  0  0  0
  -29.7092  -11.7446   17.4254 H   0  0  0  0  0  0
  -29.6546  -13.4595   17.7651 H   0  0  0  0  0  0
  -27.8339  -11.2849   18.8561 H   0  0  0  0  0  0
  -27.3435  -12.5799   17.7981 H   0  0  0  0  0  0
  -27.7062  -14.2411   19.5581 H   0  0  0  0  0  0
  -28.6560  -11.9701   21.3748 H   0  0  0  0  0  0
  -28.4671  -13.6300   21.8490 H   0  0  0  0  0  0
  -25.2717   -9.5697   22.4790 H   0  0  0  0  0  0
  -23.9978   -7.4641   22.7496 H   0  0  0  0  0  0
  -21.0845   -8.8739   19.8933 H   0  0  0  0  0  0
  -22.3678  -10.9652   19.6158 H   0  0  0  0  0  0
  -21.2000   -7.6142   23.9716 H   0  0  0  0  0  0
  -21.1485   -6.0513   25.9074 H   0  0  0  0  0  0
  -22.0598   -2.7611   23.2839 H   0  0  0  0  0  0
  -22.4077  -11.9819   22.4678 H   0  0  0  0  0  0
  -21.1112  -13.1227   22.2555 H   0  0  0  0  0  0
  -24.6719  -15.8441   20.5175 H   0  0  0  0  0  0
  -26.2914  -15.6199   20.0840 H   0  0  0  0  0  0
  -26.7070  -32.5594   23.1180 H   0  0  0  0  0  0
  -25.0157  -33.9775   25.0579 H   0  0  0  0  0  0
  -22.6792  -31.3027   21.4105 H   0  0  0  0  0  0
  -23.3774  -35.9595   23.3295 H   0  0  0  0  0  0
  -24.3611  -36.8878   22.2057 H   0  0  0  0  0  0
  -23.7243  -37.6491   23.6636 H   0  0  0  0  0  0
  -26.0042  -31.6207   20.5792 H   0  0  0  0  0  0
  -26.8098  -30.9269   21.9548 H   0  0  0  0  0  0
  -28.0828  -29.1868   21.1656 H   0  0  0  0  0  0
  -26.1272  -25.9970   19.0089 H   0  0  0  0  0  0
  -24.0046  -27.2864   19.0276 H   0  0  0  0  0  0
  -23.7052  -30.5952   19.4020 H   0  0  0  0  0  0
  -22.7341  -29.2285   19.8685 H   0  0  0  0  0  0
  -25.1282  -36.1983   25.0852 H   0  0  0  0  0  0
  -20.9926  -28.3121   24.1453 H   0  0  0  0  0  0
  -20.5598  -26.2188   23.3555 H   0  0  0  0  0  0
  -21.6612  -26.7346   22.1200 H   0  0  0  0  0  0
  -19.6893  -25.6291   21.1137 H   0  0  0  0  0  0
  -19.6685  -27.3220   20.6720 H   0  0  0  0  0  0
  -17.4165  -26.6608   21.4009 H   0  0  0  0  0  0
  -18.0317  -26.0013   22.8985 H   0  0  0  0  0  0
  -19.7933  -30.7141   24.2345 H   0  0  0  0  0  0
  -17.5025  -31.6245   24.5111 H   0  0  0  0  0  0
  -15.5359  -30.2962   23.7608 H   0  0  0  0  0  0
  -15.8652  -28.0787   22.7078 H   0  0  0  0  0  0
  -24.5946  -30.6941   25.7745 H   0  0  0  0  0  0
  -24.8973  -32.2715   26.4961 H   0  0  0  0  0  0
  -25.8164  -30.8686   27.0138 H   0  0  0  0  0  0
  -26.2812  -29.6855   24.0970 H   0  0  0  0  0  0
  -27.4275  -29.7235   25.4198 H   0  0  0  0  0  0
  -27.8554  -30.4496   23.8872 H   0  0  0  0  0  0
  -27.2611  -33.3533   26.2104 H   0  0  0  0  0  0
  -28.3871  -32.6860   25.0367 H   0  0  0  0  0  0
  -28.0650  -31.8350   26.5408 H   0  0  0  0  0  0
  -28.2560  -38.0140   24.7525 H   0  0  0  0  0  0
  -28.1102  -36.2666   24.6304 H   0  0  0  0  0  0
  -27.2264  -37.1462   25.8866 H   0  0  0  0  0  0
  -20.9291  -29.8827   21.7109 H   0  0  0  0  0  0
  -26.0197  -38.2844   24.1411 H   0  0  0  0  0  0
  -32.2232  -21.4294   23.0585 H   0  0  0  0  0  0
  -31.2848  -23.6865   22.9764 H   0  0  0  0  0  0
  -29.2701  -20.0878   20.2042 H   0  0  0  0  0  0
  -32.1322  -19.1204   22.5207 H   0  0  0  0  0  0
  -32.0632  -19.1202   20.7743 H   0  0  0  0  0  0
  -29.1919  -15.8186   20.9722 H   0  0  0  0  0  0
  -29.9922  -15.2725   22.4377 H   0  0  0  0  0  0
  -31.4624  -16.9475   20.3276 H   0  0  0  0  0  0
  -31.9784  -16.6158   21.9685 H   0  0  0  0  0  0
  -29.9003  -27.6903   21.1133 H   0  0  0  0  0  0
  -28.6759  -26.9262   22.1237 H   0  0  0  0  0  0
  -30.7912  -25.6388   22.1118 H   0  0  0  0  0  0
  -30.6582  -25.4083   20.3676 H   0  0  0  0  0  0
  -29.7178  -18.2914   21.1266 H   0  0  0  0  0  0
  -30.1217  -18.0331   22.6866 H   0  0  0  0  0  0
  1 25  1  0  0  0
  1 30  2  0  0  0
  1 78  1  0  0  0
  2  3  1  0  0  0
  2 25  1  0  0  0
  2 88  1  0  0  0
  2 89  1  0  0  0
  3  4  1  0  0  0
  3 90  1  0  0  0
  3 91  1  0  0  0
  4  5  1  0  0  0
  4 92  1  0  0  0
  4 93  1  0  0  0
  5  6  1  0  0  0
  5 26  1  0  0  0
  5 94  1  0  0  0
  6 25  1  0  0  0
  6 95  1  0  0  0
  6 96  1  0  0  0
  7  8  2  0  0  0
  7 26  1  0  0  0
  7 29  1  0  0  0
  8  9  1  0  0  0
  8 22  1  0  0  0
  9 10  1  0  0  0
  9 27  2  0  0  0
 10 11  2  0  0  0
 10 15  1  0  0  0
 11 12  1  0  0  0
 11 97  1  0  0  0
 12 13  2  0  0  0
 12 98  1  0  0  0
 13 14  1  0  0  0
 13 31  1  0  0  0
 14 15  2  0  0  0
 14 99  1  0  0  0
 15100  1  0  0  0
 16 17  2  0  0  0
 16 21  1  0  0  0
 16 31  1  0  0  0
 17 18  1  0  0  0
 17101  1  0  0  0
 18 19  2  0  0  0
 18102  1  0  0  0
 19 20  1  0  0  0
 19 24  1  0  0  0
 20 21  2  0  0  0
 20103  1  0  0  0
 21 23  1  0  0  0
 22 28  1  0  0  0
 22 32  2  0  0  0
 26 27  1  0  0  0
 28104  1  0  0  0
 28105  1  0  0  0
 29106  1  0  0  0
 29107  1  0  0  0
 33 34  1  0  0  0
 33 66  1  0  0  0
 33 70  2  0  0  0
 34 36  1  0  0  0
 34 59  1  0  0  0
 34108  1  0  0  0
 35 44  2  0  0  0
 35 45  1  0  0  0
 35 68  1  0  0  0
 36 56  1  0  0  0
 36109  1  0  0  0
 37 39  1  0  0  0
 37 47  1  0  0  0
 37 66  1  0  0  0
 37110  1  0  0  0
 38 43  2  0  0  0
 38 46  1  0  0  0
 38 47  1  0  0  0
 39 64  1  0  0  0
 39 67  2  0  0  0
 40 52  1  0  0  0
 40 53  2  0  0  0
 40 58  1  0  0  0
 41111  1  0  0  0
 41112  1  0  0  0
 41113  1  0  0  0
 41 48  1  0  0  0
 42 43  1  0  0  0
 42 66  1  0  0  0
 42114  1  0  0  0
 42115  1  0  0  0
 43 44  1  0  0  0
 44116  1  0  0  0
 45 46  2  0  0  0
 45117  1  0  0  0
 46118  1  0  0  0
 47119  1  0  0  0
 47120  1  0  0  0
 48 56  1  0  0  0
 48 65  1  0  0  0
 48121  1  0  0  0
 49 50  1  0  0  0
 49 53  1  0  0  0
 49 64  1  0  0  0
 49122  1  0  0  0
 50 51  1  0  0  0
 50123  1  0  0  0
 50124  1  0  0  0
 51 52  1  0  0  0
 51125  1  0  0  0
 51126  1  0  0  0
 52127  1  0  0  0
 52128  1  0  0  0
 53 54  1  0  0  0
 54 55  2  0  0  0
 54129  1  0  0  0
 55 57  1  0  0  0
 55130  1  0  0  0
 56 69  2  0  0  0
 57 58  2  0  0  0
 57131  1  0  0  0
 58132  1  0  0  0
 59 60  1  0  0  0
 59 61  1  0  0  0
 59 62  1  0  0  0
 60133  1  0  0  0
 60134  1  0  0  0
 60135  1  0  0  0
 61136  1  0  0  0
 61137  1  0  0  0
 61138  1  0  0  0
 62139  1  0  0  0
 62140  1  0  0  0
 62141  1  0  0  0
 63 65  1  0  0  0
 63142  1  0  0  0
 63143  1  0  0  0
 63144  1  0  0  0
 64145  1  0  0  0
 65146  1  0  0  0
 68 80  1  0  0  0
 71 72  2  0  0  0
 71 74  1  0  0  0
 71147  1  0  0  0
 72 76  1  0  0  0
 72148  1  0  0  0
 73 74  2  0  0  0
 73 75  1  0  0  0
 73149  1  0  0  0
 74 77  1  0  0  0
 75 76  2  0  0  0
 75 82  1  0  0  0
 76 84  1  0  0  0
 77 83  1  0  0  0
 77150  1  0  0  0
 77151  1  0  0  0
 78 79  1  0  0  0
 78152  1  0  0  0
 78153  1  0  0  0
 79 83  1  0  0  0
 79154  1  0  0  0
 79155  1  0  0  0
 80 81  1  0  0  0
 80156  1  0  0  0
 80157  1  0  0  0
 81 84  1  0  0  0
 81158  1  0  0  0
 81159  1  0  0  0
 82 85  1  0  0  0
 82 86  1  0  0  0
 82 87  1  0  0  0
 83160  1  0  0  0
 83161  1  0  0  0
M  CHG  1  83   1
M  ISO  4   1 100  68 101  78 100  80 101
M  END
> <chiral flag>
0

> <version>
0

> <s_m_source_file>
/data/baiqing/PycharmProjects/Reinvent-master-3.2/result/LINK_invent/BTK/process_docking_weight1_custom_product_contain_oxygen_bond_distance_aromatic_linkinvent_7_9_3/rearranged_h_0006.sdf

> <i_m_source_file_index>
73

> <r_mmod_Potential_Energy-OPLS-2005>
-192.708724975586

> <r_mmod_Stretch_Energy-OPLS-2005>
32.1559944152832

> <r_mmod_Bend_Energy-OPLS-2005>
90.0548324584961

> <r_mmod_Torsional_Energy-OPLS-2005>
184.803833007812

> <r_mmod_Improper_Torsional_Energy-OPLS-2005>
2.42059302330017

> <r_mmod_Van_der_Waal_Energy-OPLS-2005>
161.212326049805

> <r_mmod_Electrostatic_Energy-OPLS-2005>
-191.213684082031

> <r_mmod_Solvation_Energy-OPLS-2005>
-480.761322021484

> <b_mmod_Minimization_Converged-OPLS-2005>
0

> <r_mmod_RMS_Derivative-OPLS-2005>
2.74506950378418

$$$$
74
                    3D
 Structure written by MMmdl.
186195  0  0  1  0            999 V2000
  -30.7369  -14.4843   20.5189 C   0  0  0  0  0  0
  -30.4102  -12.2997   19.4468 C   0  0  0  0  0  0
  -29.4978  -12.4670   18.2167 C   0  0  0  0  0  0
  -28.0204  -12.3318   18.6294 C   0  0  0  0  0  0
  -27.6515  -13.2093   19.8562 C   0  0  2  0  0  0
  -28.6924  -13.0704   20.9895 C   0  0  0  0  0  0
  -25.2518  -13.8021   20.5624 C   0  0  0  0  0  0
  -24.1812  -13.0348   20.9263 C   0  0  0  0  0  0
  -24.6392  -11.6840   20.8806 C   0  0  0  0  0  0
  -23.9067  -10.4238   21.0451 C   0  0  0  0  0  0
  -24.3612   -9.4145   21.9222 C   0  0  0  0  0  0
  -23.6256   -8.2206   22.0779 C   0  0  0  0  0  0
  -22.4249   -8.0264   21.3558 C   0  0  0  0  0  0
  -21.9892   -9.0253   20.4676 C   0  0  0  0  0  0
  -22.7246  -10.2112   20.3085 C   0  0  0  0  0  0
  -21.6833   -6.0725   22.5299 C   0  0  0  0  0  0
  -21.4007   -6.5636   23.8232 C   0  0  0  0  0  0
  -21.3636   -5.6792   24.9188 C   0  0  0  0  0  0
  -21.6044   -4.3063   24.7249 C   0  0  0  0  0  0
  -21.8806   -3.8145   23.4374 C   0  0  0  0  0  0
  -21.9180   -4.6953   22.3421 C   0  0  0  0  0  0
  -22.7840  -13.5188   21.1877 C   0  0  0  0  0  0
  -22.1645   -4.2141   21.0999 F   0  0  0  0  0  0
  -21.5619   -3.4546   25.7757 F   0  0  0  0  0  0
  -30.0221  -13.3316   20.4218 N   0  0  0  0  0  0
  -26.2973  -12.9263   20.3271 N   0  0  0  0  0  0
  -25.9326  -11.6439   20.5806 N   0  0  0  0  0  0
  -22.0428  -12.8234   22.0427 N   0  0  0  0  0  0
  -25.4109  -15.1665   20.3805 N   0  0  0  0  0  0
  -31.9130  -14.5365   20.1586 O   0  0  0  0  0  0
  -21.6610   -6.8867   21.4260 O   0  0  0  0  0  0
  -22.3582  -14.5504   20.6689 O   0  0  0  0  0  0
  -24.6129  -31.8715   23.2079 C   0  0  0  0  0  0
  -25.9038  -32.4832   23.8379 C   0  0  1  0  0  0
  -27.2212  -27.4418   20.0933 C   0  0  0  0  0  0
  -25.5931  -33.8630   24.2345 N   0  0  0  0  0  0
  -23.3973  -30.4954   21.5504 C   0  0  2  0  0  0
  -24.8400  -28.9607   20.1153 C   0  0  0  0  0  0
  -22.7401  -29.4663   22.4976 C   0  0  0  0  0  0
  -18.0272  -28.1340   22.8477 C   0  0  0  0  0  0
  -24.1493  -36.7301   23.2626 C   0  0  0  0  0  0
  -25.9250  -30.8378   21.3592 C   0  0  0  0  0  0
  -26.0011  -29.4709   20.7100 C   0  0  0  0  0  0
  -27.1980  -28.7203   20.6917 C   0  0  0  0  0  0
  -26.0438  -26.9425   19.4958 C   0  0  0  0  0  0
  -24.8536  -27.6945   19.5044 C   0  0  0  0  0  0
  -23.6047  -29.8323   20.1635 C   0  0  0  0  0  0
  -25.4108  -36.3108   24.0341 C   0  0  1  0  0  0
  -20.5852  -28.3646   23.1327 C   0  0  2  0  0  0
  -20.6751  -26.9376   22.5435 C   0  0  0  0  0  0
  -19.5749  -26.6330   21.5211 C   0  0  0  0  0  0
  -18.1923  -26.7877   22.1622 C   0  0  0  0  0  0
  -19.1511  -28.8812   23.2891 C   0  0  0  0  0  0
  -18.9436  -30.1409   23.8907 C   0  0  0  0  0  0
  -17.6440  -30.6558   24.0523 C   0  0  0  0  0  0
  -25.9030  -34.9483   23.5138 C   0  0  0  0  0  0
  -16.5337  -29.9047   23.6287 C   0  0  0  0  0  0
  -16.7260  -28.6453   23.0337 C   0  0  0  0  0  0
  -26.4477  -31.6584   25.0684 C   0  0  0  0  0  0
  -25.3740  -31.3717   26.1445 C   0  0  0  0  0  0
  -27.0297  -30.3040   24.5989 C   0  0  0  0  0  0
  -27.6080  -32.4269   25.7453 C   0  0  0  0  0  0
  -27.5584  -37.1803   24.8466 C   0  0  0  0  0  0
  -21.4128  -29.3033   22.3738 N   0  0  0  0  0  0
  -26.4310  -37.3777   23.9397 N   0  0  0  0  0  0
  -24.6628  -31.0814   22.0984 N   0  0  0  0  0  0
  -23.4196  -28.8199   23.2998 O   0  0  0  0  0  0
  -28.3812  -26.7016   20.0936 O   0  0  0  0  0  0
  -26.5572  -34.8941   22.4675 O   0  0  0  0  0  0
  -23.5330  -32.1502   23.7486 O   0  0  0  0  0  0
  -32.2478  -18.5765   19.9464 C   0  0  0  0  0  0
  -31.5869  -17.3306   19.8854 C   0  0  0  0  0  0
  -30.9478  -19.1706   21.8911 C   0  0  0  0  0  0
  -31.9702  -19.5026   20.9735 C   0  0  0  0  0  0
  -30.5916  -16.9528   20.8288 C   0  0  0  0  0  0
  -30.2160  -17.9845   21.7320 C   0  0  0  0  0  0
  -27.5438  -21.8453   20.0724 C   0  0  0  0  0  0
  -29.4522  -18.9688   23.7512 C   0  0  0  0  0  0
  -30.4750  -19.9558   23.1204 C   0  0  0  0  0  0
  -29.7960  -21.2907   22.7435 C   0  0  0  0  0  0
  -31.6225  -20.2350   24.1078 C   0  0  0  0  0  0
  -32.2432  -21.6569   19.9863 C   0  0  0  0  0  0
  -34.0939  -20.5623   21.2067 C   0  0  0  0  0  0
  -26.1434  -18.4639   21.1007 C   0  0  0  0  0  0
  -26.5488  -18.0825   22.5535 C   0  0  0  0  0  0
  -28.0878  -24.2442   19.6986 C   0  0  0  0  0  0
  -27.0141  -19.4517   20.2852 C   0  0  0  0  0  0
  -27.8584  -17.2611   22.7242 C   0  0  0  0  0  0
  -28.2688  -25.4060   20.7008 C   0  0  0  0  0  0
  -30.0568  -15.6098   20.8554 N   0  0  0  0  0  0
  -27.2750  -23.1477   20.2588 N   0  0  0  0  0  0
  -32.6550  -20.7248   21.0322 N   0  0  0  0  0  0
  -26.7562  -20.8715   20.5675 N   0  3  0  0  0  0
  -29.0057  -18.1741   22.5961 N   0  3  1  0  0  0
  -28.6439  -21.4926   19.3843 F   0  0  0  0  0  0
  -31.4569  -12.3653   19.1441 H   0  0  0  0  0  0
  -30.2928  -11.3064   19.8852 H   0  0  0  0  0  0
  -29.7455  -11.7145   17.4660 H   0  0  0  0  0  0
  -29.6714  -13.4367   17.7489 H   0  0  0  0  0  0
  -27.8451  -11.2817   18.8673 H   0  0  0  0  0  0
  -27.3688  -12.5664   17.7866 H   0  0  0  0  0  0
  -27.6748  -14.2429   19.5115 H   0  0  0  0  0  0
  -28.6640  -12.0694   21.4201 H   0  0  0  0  0  0
  -28.4619  -13.7554   21.8073 H   0  0  0  0  0  0
  -25.2753   -9.5597   22.4806 H   0  0  0  0  0  0
  -23.9943   -7.4586   22.7496 H   0  0  0  0  0  0
  -21.0816   -8.8798   19.8988 H   0  0  0  0  0  0
  -22.3729  -10.9665   19.6200 H   0  0  0  0  0  0
  -21.2015   -7.6154   23.9741 H   0  0  0  0  0  0
  -21.1454   -6.0524   25.9094 H   0  0  0  0  0  0
  -22.0601   -2.7614   23.2889 H   0  0  0  0  0  0
  -22.3969  -11.9901   22.4865 H   0  0  0  0  0  0
  -21.1071  -13.1341   22.2609 H   0  0  0  0  0  0
  -24.5707  -15.7332   20.3527 H   0  0  0  0  0  0
  -26.1360  -15.5180   19.7698 H   0  0  0  0  0  0
  -26.7096  -32.5586   23.1138 H   0  0  0  0  0  0
  -25.0173  -33.9782   25.0560 H   0  0  0  0  0  0
  -22.6834  -31.3113   21.4153 H   0  0  0  0  0  0
  -23.3757  -35.9631   23.3310 H   0  0  0  0  0  0
  -24.3600  -36.8883   22.2032 H   0  0  0  0  0  0
  -23.7264  -37.6518   23.6630 H   0  0  0  0  0  0
  -26.0305  -31.6011   20.5874 H   0  0  0  0  0  0
  -26.8161  -30.8985   21.9720 H   0  0  0  0  0  0
  -28.1002  -29.1054   21.1441 H   0  0  0  0  0  0
  -26.0277  -25.9812   19.0089 H   0  0  0  0  0  0
  -23.9606  -27.2989   19.0394 H   0  0  0  0  0  0
  -23.7172  -30.6123   19.4116 H   0  0  0  0  0  0
  -22.7282  -29.2574   19.8611 H   0  0  0  0  0  0
  -25.1273  -36.1964   25.0835 H   0  0  0  0  0  0
  -20.9928  -28.3220   24.1456 H   0  0  0  0  0  0
  -20.5604  -26.2255   23.3625 H   0  0  0  0  0  0
  -21.6627  -26.7386   22.1262 H   0  0  0  0  0  0
  -19.6909  -25.6225   21.1270 H   0  0  0  0  0  0
  -19.6685  -27.3120   20.6720 H   0  0  0  0  0  0
  -17.4182  -26.6600   21.4029 H   0  0  0  0  0  0
  -18.0335  -26.0024   22.9029 H   0  0  0  0  0  0
  -19.7922  -30.7195   24.2295 H   0  0  0  0  0  0
  -17.5000  -31.6247   24.5102 H   0  0  0  0  0  0
  -15.5336  -30.2946   23.7567 H   0  0  0  0  0  0
  -15.8669  -28.0747   22.7071 H   0  0  0  0  0  0
  -24.5908  -30.7051   25.7809 H   0  0  0  0  0  0
  -24.8921  -32.2879   26.4865 H   0  0  0  0  0  0
  -25.8093  -30.8926   27.0226 H   0  0  0  0  0  0
  -26.2821  -29.6818   24.1049 H   0  0  0  0  0  0
  -27.4136  -29.7245   25.4391 H   0  0  0  0  0  0
  -27.8625  -30.4388   23.9089 H   0  0  0  0  0  0
  -27.2735  -33.3566   26.2080 H   0  0  0  0  0  0
  -28.3892  -32.6829   25.0280 H   0  0  0  0  0  0
  -28.0750  -31.8336   26.5326 H   0  0  0  0  0  0
  -28.2604  -38.0091   24.7492 H   0  0  0  0  0  0
  -28.1084  -36.2624   24.6320 H   0  0  0  0  0  0
  -27.2312  -37.1482   25.8874 H   0  0  0  0  0  0
  -20.9261  -29.8806   21.7026 H   0  0  0  0  0  0
  -26.0202  -38.2862   24.1391 H   0  0  0  0  0  0
  -32.9960  -18.8043   19.2021 H   0  0  0  0  0  0
  -31.8793  -16.6639   19.0889 H   0  0  0  0  0  0
  -28.6356  -19.4774   24.2683 H   0  0  0  0  0  0
  -29.9259  -18.2892   24.4596 H   0  0  0  0  0  0
  -28.9497  -21.1439   22.0804 H   0  0  0  0  0  0
  -30.4854  -21.9706   22.2453 H   0  0  0  0  0  0
  -29.4257  -21.8080   23.6297 H   0  0  0  0  0  0
  -32.1783  -19.3270   24.3407 H   0  0  0  0  0  0
  -31.2436  -20.6433   25.0450 H   0  0  0  0  0  0
  -32.3286  -20.9593   23.7045 H   0  0  0  0  0  0
  -31.1865  -21.5505   19.7377 H   0  0  0  0  0  0
  -32.8145  -21.4936   19.0721 H   0  0  0  0  0  0
  -32.4077  -22.6865   20.3063 H   0  0  0  0  0  0
  -34.3142  -19.8039   21.9611 H   0  0  0  0  0  0
  -34.5483  -21.4998   21.5325 H   0  0  0  0  0  0
  -34.5770  -20.2643   20.2737 H   0  0  0  0  0  0
  -25.1211  -18.8451   21.1199 H   0  0  0  0  0  0
  -26.0822  -17.5567   20.5117 H   0  0  0  0  0  0
  -25.7389  -17.4678   22.9474 H   0  0  0  0  0  0
  -26.5487  -18.9675   23.1907 H   0  0  0  0  0  0
  -29.0635  -23.8806   19.3778 H   0  0  0  0  0  0
  -27.5910  -24.5880   18.7930 H   0  0  0  0  0  0
  -26.8058  -19.3021   19.2248 H   0  0  0  0  0  0
  -28.0760  -19.2392   20.3922 H   0  0  0  0  0  0
  -27.8809  -16.4660   21.9815 H   0  0  0  0  0  0
  -27.8900  -16.7813   23.7040 H   0  0  0  0  0  0
  -29.1903  -25.2372   21.2567 H   0  0  0  0  0  0
  -27.4817  -25.3973   21.4572 H   0  0  0  0  0  0
  -29.1197  -15.4629   21.1928 H   0  0  0  0  0  0
  -26.4328  -23.4070   20.7469 H   0  0  0  0  0  0
  -25.8864  -21.1163   21.0155 H   0  0  0  0  0  0
  -28.4978  -18.8891   22.1073 H   0  0  0  0  0  0
  1 25  1  0  0  0
  1 30  2  0  0  0
  1 90  1  0  0  0
  2  3  1  0  0  0
  2 25  1  0  0  0
  2 96  1  0  0  0
  2 97  1  0  0  0
  3  4  1  0  0  0
  3 98  1  0  0  0
  3 99  1  0  0  0
  4  5  1  0  0  0
  4100  1  0  0  0
  4101  1  0  0  0
  5  6  1  0  0  0
  5 26  1  0  0  0
  5102  1  0  0  0
  6 25  1  0  0  0
  6103  1  0  0  0
  6104  1  0  0  0
  7  8  2  0  0  0
  7 26  1  0  0  0
  7 29  1  0  0  0
  8  9  1  0  0  0
  8 22  1  0  0  0
  9 10  1  0  0  0
  9 27  2  0  0  0
 10 11  2  0  0  0
 10 15  1  0  0  0
 11 12  1  0  0  0
 11105  1  0  0  0
 12 13  2  0  0  0
 12106  1  0  0  0
 13 14  1  0  0  0
 13 31  1  0  0  0
 14 15  2  0  0  0
 14107  1  0  0  0
 15108  1  0  0  0
 16 17  2  0  0  0
 16 21  1  0  0  0
 16 31  1  0  0  0
 17 18  1  0  0  0
 17109  1  0  0  0
 18 19  2  0  0  0
 18110  1  0  0  0
 19 20  1  0  0  0
 19 24  1  0  0  0
 20 21  2  0  0  0
 20111  1  0  0  0
 21 23  1  0  0  0
 22 28  1  0  0  0
 22 32  2  0  0  0
 26 27  1  0  0  0
 28112  1  0  0  0
 28113  1  0  0  0
 29114  1  0  0  0
 29115  1  0  0  0
 33 34  1  0  0  0
 33 66  1  0  0  0
 33 70  2  0  0  0
 34 36  1  0  0  0
 34 59  1  0  0  0
 34116  1  0  0  0
 35 44  2  0  0  0
 35 45  1  0  0  0
 35 68  1  0  0  0
 36 56  1  0  0  0
 36117  1  0  0  0
 37 39  1  0  0  0
 37 47  1  0  0  0
 37 66  1  0  0  0
 37118  1  0  0  0
 38 43  2  0  0  0
 38 46  1  0  0  0
 38 47  1  0  0  0
 39 64  1  0  0  0
 39 67  2  0  0  0
 40 52  1  0  0  0
 40 53  2  0  0  0
 40 58  1  0  0  0
 41119  1  0  0  0
 41120  1  0  0  0
 41121  1  0  0  0
 41 48  1  0  0  0
 42 43  1  0  0  0
 42 66  1  0  0  0
 42122  1  0  0  0
 42123  1  0  0  0
 43 44  1  0  0  0
 44124  1  0  0  0
 45 46  2  0  0  0
 45125  1  0  0  0
 46126  1  0  0  0
 47127  1  0  0  0
 47128  1  0  0  0
 48 56  1  0  0  0
 48 65  1  0  0  0
 48129  1  0  0  0
 49 50  1  0  0  0
 49 53  1  0  0  0
 49 64  1  0  0  0
 49130  1  0  0  0
 50 51  1  0  0  0
 50131  1  0  0  0
 50132  1  0  0  0
 51 52  1  0  0  0
 51133  1  0  0  0
 51134  1  0  0  0
 52135  1  0  0  0
 52136  1  0  0  0
 53 54  1  0  0  0
 54 55  2  0  0  0
 54137  1  0  0  0
 55 57  1  0  0  0
 55138  1  0  0  0
 56 69  2  0  0  0
 57 58  2  0  0  0
 57139  1  0  0  0
 58140  1  0  0  0
 59 60  1  0  0  0
 59 61  1  0  0  0
 59 62  1  0  0  0
 60141  1  0  0  0
 60142  1  0  0  0
 60143  1  0  0  0
 61144  1  0  0  0
 61145  1  0  0  0
 61146  1  0  0  0
 62147  1  0  0  0
 62148  1  0  0  0
 62149  1  0  0  0
 63 65  1  0  0  0
 63150  1  0  0  0
 63151  1  0  0  0
 63152  1  0  0  0
 64153  1  0  0  0
 65154  1  0  0  0
 68 89  1  0  0  0
 71 72  2  0  0  0
 71 74  1  0  0  0
 71155  1  0  0  0
 72 75  1  0  0  0
 72156  1  0  0  0
 73 74  2  0  0  0
 73 76  1  0  0  0
 73 79  1  0  0  0
 74 92  1  0  0  0
 75 76  2  0  0  0
 75 90  1  0  0  0
 76 94  1  0  0  0
 77 91  1  0  0  0
 77 93  2  0  0  0
 77 95  1  0  0  0
 78 79  1  0  0  0
 78 94  1  0  0  0
 78157  1  0  0  0
 78158  1  0  0  0
 79 80  1  0  0  0
 79 81  1  0  0  0
 80159  1  0  0  0
 80160  1  0  0  0
 80161  1  0  0  0
 81162  1  0  0  0
 81163  1  0  0  0
 81164  1  0  0  0
 82 92  1  0  0  0
 82165  1  0  0  0
 82166  1  0  0  0
 82167  1  0  0  0
 83 92  1  0  0  0
 83168  1  0  0  0
 83169  1  0  0  0
 83170  1  0  0  0
 84 85  1  0  0  0
 84 87  1  0  0  0
 84171  1  0  0  0
 84172  1  0  0  0
 85 88  1  0  0  0
 85173  1  0  0  0
 85174  1  0  0  0
 86 89  1  0  0  0
 86 91  1  0  0  0
 86175  1  0  0  0
 86176  1  0  0  0
 87 93  1  0  0  0
 87177  1  0  0  0
 87178  1  0  0  0
 88179  1  0  0  0
 88180  1  0  0  0
 88 94  1  0  0  0
 89181  1  0  0  0
 89182  1  0  0  0
 90183  1  0  0  0
 91184  1  0  0  0
 93185  1  0  0  0
 94186  1  0  0  0
M  CHG  2  93   1  94   1
M  ISO  4   1 100  68 101  89 101  90 100
M  END
> <chiral flag>
0

> <version>
0

> <s_m_source_file>
/data/baiqing/PycharmProjects/Reinvent-master-3.2/result/LINK_invent/BTK/process_docking_weight1_custom_product_contain_oxygen_bond_distance_aromatic_linkinvent_7_9_3/rearranged_h_0006.sdf

> <i_m_source_file_index>
74

> <r_mmod_Potential_Energy-OPLS-2005>
-204.098373413086

> <r_mmod_Stretch_Energy-OPLS-2005>
41.0829963684082

> <r_mmod_Bend_Energy-OPLS-2005>
218.967391967773

> <r_mmod_Torsional_Energy-OPLS-2005>
335.849670410156

> <r_mmod_Improper_Torsional_Energy-OPLS-2005>
11.8204851150513

> <r_mmod_Van_der_Waal_Energy-OPLS-2005>
138.273056030273

> <r_mmod_Electrostatic_Energy-OPLS-2005>
-28.1204414367676

> <r_mmod_Solvation_Energy-OPLS-2005>
-943.1240234375

> <b_mmod_Minimization_Converged-OPLS-2005>
0

> <r_mmod_RMS_Derivative-OPLS-2005>
3.2260844707489

$$$$
75
                    3D
 Structure written by MMmdl.
170178  0  0  1  0            999 V2000
  -30.7332  -14.3746   20.6008 C   0  0  0  0  0  0
  -30.4086  -12.2504   19.4198 C   0  0  0  0  0  0
  -29.4918  -12.5061   18.2076 C   0  0  0  0  0  0
  -28.0088  -12.3833   18.6099 C   0  0  0  0  0  0
  -27.6654  -13.1965   19.8870 C   0  0  2  0  0  0
  -28.7020  -12.9395   21.0047 C   0  0  0  0  0  0
  -25.2629  -13.8151   20.5657 C   0  0  0  0  0  0
  -24.1868  -13.0449   20.9166 C   0  0  0  0  0  0
  -24.6396  -11.6913   20.8733 C   0  0  0  0  0  0
  -23.9065  -10.4303   21.0406 C   0  0  0  0  0  0
  -24.3619   -9.4218   21.9184 C   0  0  0  0  0  0
  -23.6297   -8.2250   22.0749 C   0  0  0  0  0  0
  -22.4279   -8.0291   21.3541 C   0  0  0  0  0  0
  -21.9918   -9.0264   20.4648 C   0  0  0  0  0  0
  -22.7238  -10.2142   20.3061 C   0  0  0  0  0  0
  -21.6863   -6.0749   22.5281 C   0  0  0  0  0  0
  -21.4009   -6.5643   23.8218 C   0  0  0  0  0  0
  -21.3658   -5.6787   24.9176 C   0  0  0  0  0  0
  -21.6057   -4.3056   24.7222 C   0  0  0  0  0  0
  -21.8823   -3.8153   23.4335 C   0  0  0  0  0  0
  -21.9194   -4.6975   22.3395 C   0  0  0  0  0  0
  -22.7890  -13.5262   21.1843 C   0  0  0  0  0  0
  -22.1673   -4.2168   21.0967 F   0  0  0  0  0  0
  -21.5625   -3.4538   25.7728 F   0  0  0  0  0  0
  -30.0437  -13.2167   20.4624 N   0  0  0  0  0  0
  -26.3046  -12.9288   20.3413 N   0  0  0  0  0  0
  -25.9316  -11.6466   20.5791 N   0  0  0  0  0  0
  -22.0530  -12.8244   22.0382 N   0  0  0  0  0  0
  -25.4422  -15.1856   20.3979 N   0  0  0  0  0  0
  -31.8343  -14.5781   20.0812 O   0  0  0  0  0  0
  -21.6651   -6.8885   21.4243 O   0  0  0  0  0  0
  -22.3586  -14.5575   20.6708 O   0  0  0  0  0  0
  -24.6040  -31.8732   23.2135 C   0  0  0  0  0  0
  -25.8958  -32.4851   23.8418 C   0  0  1  0  0  0
  -27.2625  -27.5005   20.1148 C   0  0  0  0  0  0
  -25.5852  -33.8645   24.2347 N   0  0  0  0  0  0
  -23.3894  -30.4917   21.5526 C   0  0  2  0  0  0
  -24.8406  -28.9599   20.1207 C   0  0  0  0  0  0
  -22.7358  -29.4660   22.5045 C   0  0  0  0  0  0
  -18.0253  -28.1356   22.8491 C   0  0  0  0  0  0
  -24.1485  -36.7321   23.2643 C   0  0  0  0  0  0
  -25.9034  -30.8646   21.3498 C   0  0  0  0  0  0
  -25.9868  -29.4974   20.7139 C   0  0  0  0  0  0
  -27.1938  -28.7804   20.7117 C   0  0  0  0  0  0
  -26.1003  -26.9683   19.5170 C   0  0  0  0  0  0
  -24.8887  -27.6893   19.5197 C   0  0  0  0  0  0
  -23.5943  -29.8136   20.1690 C   0  0  0  0  0  0
  -25.4101  -36.3124   24.0348 C   0  0  1  0  0  0
  -20.5836  -28.3617   23.1352 C   0  0  2  0  0  0
  -20.6742  -26.9366   22.5425 C   0  0  0  0  0  0
  -19.5726  -26.6367   21.5207 C   0  0  0  0  0  0
  -18.1901  -26.7908   22.1613 C   0  0  0  0  0  0
  -19.1502  -28.8802   23.2923 C   0  0  0  0  0  0
  -18.9442  -30.1416   23.8926 C   0  0  0  0  0  0
  -17.6450  -30.6571   24.0567 C   0  0  0  0  0  0
  -25.9015  -34.9484   23.5146 C   0  0  0  0  0  0
  -16.5338  -29.9082   23.6321 C   0  0  0  0  0  0
  -16.7248  -28.6498   23.0338 C   0  0  0  0  0  0
  -26.4422  -31.6611   25.0714 C   0  0  0  0  0  0
  -25.3719  -31.3709   26.1496 C   0  0  0  0  0  0
  -27.0246  -30.3084   24.5990 C   0  0  0  0  0  0
  -27.6012  -32.4327   25.7463 C   0  0  0  0  0  0
  -27.5583  -37.1812   24.8470 C   0  0  0  0  0  0
  -21.4096  -29.3003   22.3786 N   0  0  0  0  0  0
  -26.4301  -37.3791   23.9407 N   0  0  0  0  0  0
  -24.6500  -31.0903   22.0990 N   0  0  0  0  0  0
  -23.4174  -28.8214   23.3059 O   0  0  0  0  0  0
  -28.4141  -26.7504   20.0439 O   0  0  0  0  0  0
  -26.5578  -34.8927   22.4707 O   0  0  0  0  0  0
  -23.5256  -32.1434   23.7586 O   0  0  0  0  0  0
  -29.2548  -16.9479   17.6532 C   0  0  0  0  0  0
  -31.7535  -24.4694   19.4130 C   0  0  0  0  0  0
  -29.4188  -17.3687   19.8301 C   0  0  2  0  0  0
  -34.2418  -24.2690   19.2835 C   0  0  0  0  0  0
  -33.0236  -25.1520   18.9722 C   0  0  0  0  0  0
  -30.3594  -16.7758   20.9161 C   0  0  0  0  0  0
  -30.6931  -20.8840   18.9871 C   0  0  0  0  0  0
  -30.7772  -26.5623   20.3967 C   0  0  0  0  0  0
  -30.4820  -22.2968   19.5324 C   0  0  0  0  0  0
  -29.7141  -19.8552   19.5742 C   0  0  0  0  0  0
  -29.4411  -26.9545   21.0211 C   0  0  0  0  0  0
  -29.0559  -16.3954   18.7961 N   0  0  0  0  0  0
  -29.7332  -18.2268   17.7012 N   0  0  0  0  0  0
  -30.7785  -25.1398   20.0572 N   0  0  0  0  0  0
  -30.0595  -15.3682   21.1927 N   0  0  0  0  0  0
  -31.5998  -23.1629   19.1355 N   0  3  0  0  0  0
  -30.0571  -18.4955   19.1041 N   0  3  2  0  0  0
  -31.4577  -12.3195   19.1275 H   0  0  0  0  0  0
  -30.2724  -11.2336   19.7906 H   0  0  0  0  0  0
  -29.7217  -11.8009   17.4071 H   0  0  0  0  0  0
  -29.6837  -13.5023   17.8032 H   0  0  0  0  0  0
  -27.7917  -11.3260   18.7696 H   0  0  0  0  0  0
  -27.3713  -12.7014   17.7847 H   0  0  0  0  0  0
  -27.7214  -14.2495   19.6194 H   0  0  0  0  0  0
  -28.6564  -11.8993   21.3305 H   0  0  0  0  0  0
  -28.4729  -13.5275   21.8948 H   0  0  0  0  0  0
  -25.2762   -9.5702   22.4757 H   0  0  0  0  0  0
  -24.0025   -7.4641   22.7453 H   0  0  0  0  0  0
  -21.0856   -8.8781   19.8937 H   0  0  0  0  0  0
  -22.3702  -10.9688   19.6172 H   0  0  0  0  0  0
  -21.2000   -7.6149   23.9730 H   0  0  0  0  0  0
  -21.1474   -6.0511   25.9082 H   0  0  0  0  0  0
  -22.0599   -2.7619   23.2828 H   0  0  0  0  0  0
  -22.4139  -11.9888   22.4736 H   0  0  0  0  0  0
  -21.1149  -13.1287   22.2615 H   0  0  0  0  0  0
  -24.6740  -15.8448   20.4687 H   0  0  0  0  0  0
  -26.2874  -15.5980   20.0221 H   0  0  0  0  0  0
  -26.7046  -32.5609   23.1217 H   0  0  0  0  0  0
  -25.0026  -33.9828   25.0515 H   0  0  0  0  0  0
  -22.6727  -31.3040   21.4127 H   0  0  0  0  0  0
  -23.3740  -35.9664   23.3327 H   0  0  0  0  0  0
  -24.3591  -36.8902   22.2056 H   0  0  0  0  0  0
  -23.7244  -37.6540   23.6631 H   0  0  0  0  0  0
  -25.9911  -31.6240   20.5717 H   0  0  0  0  0  0
  -26.7991  -30.9376   21.9544 H   0  0  0  0  0  0
  -28.0511  -29.2622   21.1492 H   0  0  0  0  0  0
  -26.1375  -25.9924   19.0528 H   0  0  0  0  0  0
  -24.0079  -27.2636   19.0588 H   0  0  0  0  0  0
  -23.6900  -30.5823   19.4007 H   0  0  0  0  0  0
  -22.7241  -29.2188   19.8852 H   0  0  0  0  0  0
  -25.1279  -36.2003   25.0846 H   0  0  0  0  0  0
  -20.9915  -28.3154   24.1476 H   0  0  0  0  0  0
  -20.5616  -26.2221   23.3596 H   0  0  0  0  0  0
  -21.6621  -26.7404   22.1230 H   0  0  0  0  0  0
  -19.6892  -25.6286   21.1212 H   0  0  0  0  0  0
  -19.6676  -27.3202   20.6755 H   0  0  0  0  0  0
  -17.4177  -26.6654   21.4014 H   0  0  0  0  0  0
  -18.0306  -26.0040   22.8997 H   0  0  0  0  0  0
  -19.7927  -30.7214   24.2304 H   0  0  0  0  0  0
  -17.5015  -31.6258   24.5154 H   0  0  0  0  0  0
  -15.5338  -30.2996   23.7633 H   0  0  0  0  0  0
  -15.8646  -28.0834   22.7030 H   0  0  0  0  0  0
  -24.5871  -30.7063   25.7864 H   0  0  0  0  0  0
  -24.8930  -32.2869   26.4966 H   0  0  0  0  0  0
  -25.8097  -30.8879   27.0239 H   0  0  0  0  0  0
  -26.2763  -29.6871   24.1048 H   0  0  0  0  0  0
  -27.4099  -29.7272   25.4377 H   0  0  0  0  0  0
  -27.8547  -30.4478   23.9059 H   0  0  0  0  0  0
  -27.2629  -33.3613   26.2073 H   0  0  0  0  0  0
  -28.3787  -32.6906   25.0263 H   0  0  0  0  0  0
  -28.0703  -31.8432   26.5350 H   0  0  0  0  0  0
  -28.2607  -38.0099   24.7505 H   0  0  0  0  0  0
  -28.1065  -36.2630   24.6304 H   0  0  0  0  0  0
  -27.2307  -37.1485   25.8876 H   0  0  0  0  0  0
  -20.9238  -29.8749   21.7042 H   0  0  0  0  0  0
  -26.0197  -38.2878   24.1386 H   0  0  0  0  0  0
  -29.0948  -16.4849   16.6773 H   0  0  0  0  0  0
  -28.4983  -17.7125   20.3062 H   0  0  0  0  0  0
  -35.1615  -24.7486   18.9526 H   0  0  0  0  0  0
  -34.1863  -23.3008   18.7869 H   0  0  0  0  0  0
  -34.3250  -24.0935   20.3567 H   0  0  0  0  0  0
  -33.1519  -26.1120   19.4707 H   0  0  0  0  0  0
  -32.9642  -25.3576   17.9025 H   0  0  0  0  0  0
  -30.2443  -17.3367   21.8440 H   0  0  0  0  0  0
  -31.4057  -16.9096   20.6374 H   0  0  0  0  0  0
  -31.7162  -20.5702   19.2015 H   0  0  0  0  0  0
  -30.5958  -20.9089   17.9006 H   0  0  0  0  0  0
  -31.5851  -26.7643   21.0994 H   0  0  0  0  0  0
  -30.9630  -27.1594   19.5030 H   0  0  0  0  0  0
  -30.4356  -22.2707   20.6216 H   0  0  0  0  0  0
  -29.5395  -22.7102   19.1719 H   0  0  0  0  0  0
  -28.6826  -20.0989   19.3172 H   0  0  0  0  0  0
  -29.7843  -19.8777   20.6627 H   0  0  0  0  0  0
  -29.5610  -27.9712   21.3804 H   0  0  0  0  0  0
  -29.2316  -26.3381   21.8967 H   0  0  0  0  0  0
  -30.2340  -18.7010   16.9586 H   0  0  0  0  0  0
  -29.9169  -24.6700   20.2969 H   0  0  0  0  0  0
  -29.1494  -15.1428   21.5642 H   0  0  0  0  0  0
  -32.3430  -22.7173   18.6120 H   0  0  0  0  0  0
  -31.0530  -18.3703   19.2141 H   0  0  0  0  0  0
  1 25  1  0  0  0
  1 30  2  0  0  0
  1 85  1  0  0  0
  2  3  1  0  0  0
  2 25  1  0  0  0
  2 88  1  0  0  0
  2 89  1  0  0  0
  3  4  1  0  0  0
  3 90  1  0  0  0
  3 91  1  0  0  0
  4  5  1  0  0  0
  4 92  1  0  0  0
  4 93  1  0  0  0
  5  6  1  0  0  0
  5 26  1  0  0  0
  5 94  1  0  0  0
  6 25  1  0  0  0
  6 95  1  0  0  0
  6 96  1  0  0  0
  7  8  2  0  0  0
  7 26  1  0  0  0
  7 29  1  0  0  0
  8  9  1  0  0  0
  8 22  1  0  0  0
  9 10  1  0  0  0
  9 27  2  0  0  0
 10 11  2  0  0  0
 10 15  1  0  0  0
 11 12  1  0  0  0
 11 97  1  0  0  0
 12 13  2  0  0  0
 12 98  1  0  0  0
 13 14  1  0  0  0
 13 31  1  0  0  0
 14 15  2  0  0  0
 14 99  1  0  0  0
 15100  1  0  0  0
 16 17  2  0  0  0
 16 21  1  0  0  0
 16 31  1  0  0  0
 17 18  1  0  0  0
 17101  1  0  0  0
 18 19  2  0  0  0
 18102  1  0  0  0
 19 20  1  0  0  0
 19 24  1  0  0  0
 20 21  2  0  0  0
 20103  1  0  0  0
 21 23  1  0  0  0
 22 28  1  0  0  0
 22 32  2  0  0  0
 26 27  1  0  0  0
 28104  1  0  0  0
 28105  1  0  0  0
 29106  1  0  0  0
 29107  1  0  0  0
 33 34  1  0  0  0
 33 66  1  0  0  0
 33 70  2  0  0  0
 34 36  1  0  0  0
 34 59  1  0  0  0
 34108  1  0  0  0
 35 44  2  0  0  0
 35 45  1  0  0  0
 35 68  1  0  0  0
 36 56  1  0  0  0
 36109  1  0  0  0
 37 39  1  0  0  0
 37 47  1  0  0  0
 37 66  1  0  0  0
 37110  1  0  0  0
 38 43  2  0  0  0
 38 46  1  0  0  0
 38 47  1  0  0  0
 39 64  1  0  0  0
 39 67  2  0  0  0
 40 52  1  0  0  0
 40 53  2  0  0  0
 40 58  1  0  0  0
 41111  1  0  0  0
 41112  1  0  0  0
 41113  1  0  0  0
 41 48  1  0  0  0
 42 43  1  0  0  0
 42 66  1  0  0  0
 42114  1  0  0  0
 42115  1  0  0  0
 43 44  1  0  0  0
 44116  1  0  0  0
 45 46  2  0  0  0
 45117  1  0  0  0
 46118  1  0  0  0
 47119  1  0  0  0
 47120  1  0  0  0
 48 56  1  0  0  0
 48 65  1  0  0  0
 48121  1  0  0  0
 49 50  1  0  0  0
 49 53  1  0  0  0
 49 64  1  0  0  0
 49122  1  0  0  0
 50 51  1  0  0  0
 50123  1  0  0  0
 50124  1  0  0  0
 51 52  1  0  0  0
 51125  1  0  0  0
 51126  1  0  0  0
 52127  1  0  0  0
 52128  1  0  0  0
 53 54  1  0  0  0
 54 55  2  0  0  0
 54129  1  0  0  0
 55 57  1  0  0  0
 55130  1  0  0  0
 56 69  2  0  0  0
 57 58  2  0  0  0
 57131  1  0  0  0
 58132  1  0  0  0
 59 60  1  0  0  0
 59 61  1  0  0  0
 59 62  1  0  0  0
 60133  1  0  0  0
 60134  1  0  0  0
 60135  1  0  0  0
 61136  1  0  0  0
 61137  1  0  0  0
 61138  1  0  0  0
 62139  1  0  0  0
 62140  1  0  0  0
 62141  1  0  0  0
 63 65  1  0  0  0
 63142  1  0  0  0
 63143  1  0  0  0
 63144  1  0  0  0
 64145  1  0  0  0
 65146  1  0  0  0
 68 81  1  0  0  0
 71 82  2  0  0  0
 71 83  1  0  0  0
 71147  1  0  0  0
 72 75  1  0  0  0
 72 84  1  0  0  0
 72 86  2  0  0  0
 73 76  1  0  0  0
 73 82  1  0  0  0
 73 87  1  0  0  0
 73148  1  0  0  0
 74 75  1  0  0  0
 74149  1  0  0  0
 74150  1  0  0  0
 74151  1  0  0  0
 75152  1  0  0  0
 75153  1  0  0  0
 76 85  1  0  0  0
 76154  1  0  0  0
 76155  1  0  0  0
 77 79  1  0  0  0
 77 80  1  0  0  0
 77156  1  0  0  0
 77157  1  0  0  0
 78 81  1  0  0  0
 78 84  1  0  0  0
 78158  1  0  0  0
 78159  1  0  0  0
 79 86  1  0  0  0
 79160  1  0  0  0
 79161  1  0  0  0
 80162  1  0  0  0
 80163  1  0  0  0
 80 87  1  0  0  0
 81164  1  0  0  0
 81165  1  0  0  0
 83 87  1  0  0  0
 83166  1  0  0  0
 84167  1  0  0  0
 85168  1  0  0  0
 86169  1  0  0  0
 87170  1  0  0  0
M  CHG  2  86   1  87   1
M  ISO  4   1 100  68 101  81 101  85 100
M  END
> <chiral flag>
0

> <version>
0

> <s_m_source_file>
/data/baiqing/PycharmProjects/Reinvent-master-3.2/result/LINK_invent/BTK/process_docking_weight1_custom_product_contain_oxygen_bond_distance_aromatic_linkinvent_7_9_3/rearranged_h_0006.sdf

> <i_m_source_file_index>
75

> <r_mmod_Potential_Energy-OPLS-2005>
-314.893646240234

> <r_mmod_Stretch_Energy-OPLS-2005>
32.1856803894043

> <r_mmod_Bend_Energy-OPLS-2005>
134.722152709961

> <r_mmod_Torsional_Energy-OPLS-2005>
241.849868774414

> <r_mmod_Improper_Torsional_Energy-OPLS-2005>
7.63458108901978

> <r_mmod_Van_der_Waal_Energy-OPLS-2005>
144.847793579102

> <r_mmod_Electrostatic_Energy-OPLS-2005>
42.5206069946289

> <r_mmod_Solvation_Energy-OPLS-2005>
-925.621398925781

> <b_mmod_Minimization_Converged-OPLS-2005>
0

> <r_mmod_RMS_Derivative-OPLS-2005>
2.29198503494263

$$$$
76
                    3D
 Structure written by MMmdl.
156164  0  0  1  0            999 V2000
  -30.7000  -14.4912   20.5047 C   0  0  0  0  0  0
  -30.4155  -12.3095   19.4086 C   0  0  0  0  0  0
  -29.4887  -12.5074   18.1920 C   0  0  0  0  0  0
  -28.0057  -12.3888   18.6058 C   0  0  0  0  0  0
  -27.6561  -13.2146   19.8771 C   0  0  2  0  0  0
  -28.7124  -13.0022   20.9875 C   0  0  0  0  0  0
  -25.2547  -13.8151   20.5697 C   0  0  0  0  0  0
  -24.1815  -13.0425   20.9202 C   0  0  0  0  0  0
  -24.6376  -11.6898   20.8756 C   0  0  0  0  0  0
  -23.9047  -10.4279   21.0404 C   0  0  0  0  0  0
  -24.3588   -9.4204   21.9191 C   0  0  0  0  0  0
  -23.6274   -8.2228   22.0757 C   0  0  0  0  0  0
  -22.4267   -8.0254   21.3536 C   0  0  0  0  0  0
  -21.9898   -9.0233   20.4646 C   0  0  0  0  0  0
  -22.7218  -10.2120   20.3063 C   0  0  0  0  0  0
  -21.6851   -6.0714   22.5277 C   0  0  0  0  0  0
  -21.4017   -6.5618   23.8217 C   0  0  0  0  0  0
  -21.3672   -5.6780   24.9195 C   0  0  0  0  0  0
  -21.6050   -4.3044   24.7246 C   0  0  0  0  0  0
  -21.8822   -3.8120   23.4372 C   0  0  0  0  0  0
  -21.9190   -4.6935   22.3421 C   0  0  0  0  0  0
  -22.7829  -13.5228   21.1858 C   0  0  0  0  0  0
  -22.1652   -4.2105   21.1003 F   0  0  0  0  0  0
  -21.5631   -3.4546   25.7766 F   0  0  0  0  0  0
  -30.0247  -13.3130   20.4104 N   0  0  0  0  0  0
  -26.3005  -12.9348   20.3410 N   0  0  0  0  0  0
  -25.9323  -11.6496   20.5790 N   0  0  0  0  0  0
  -22.0471  -12.8222   22.0407 N   0  0  0  0  0  0
  -25.4221  -15.1865   20.4100 N   0  0  0  0  0  0
  -31.8733  -14.6116   20.1549 O   0  0  0  0  0  0
  -21.6646   -6.8848   21.4226 O   0  0  0  0  0  0
  -22.3520  -14.5544   20.6729 O   0  0  0  0  0  0
  -24.6145  -31.8665   23.2060 C   0  0  0  0  0  0
  -25.9028  -32.4807   23.8381 C   0  0  1  0  0  0
  -27.2511  -27.4295   20.0840 C   0  0  0  0  0  0
  -25.5892  -33.8610   24.2312 N   0  0  0  0  0  0
  -23.4079  -30.4882   21.5413 C   0  0  2  0  0  0
  -24.8583  -28.9510   20.1113 C   0  0  0  0  0  0
  -22.7427  -29.4696   22.4926 C   0  0  0  0  0  0
  -18.0307  -28.1416   22.8502 C   0  0  0  0  0  0
  -24.1487  -36.7310   23.2642 C   0  0  0  0  0  0
  -25.9371  -30.8289   21.3639 C   0  0  0  0  0  0
  -26.0146  -29.4597   20.7139 C   0  0  0  0  0  0
  -27.2074  -28.7023   20.7031 C   0  0  0  0  0  0
  -26.0749  -26.9401   19.4696 C   0  0  0  0  0  0
  -24.8843  -27.6917   19.4872 C   0  0  0  0  0  0
  -23.6180  -29.8138   20.1599 C   0  0  0  0  0  0
  -25.4106  -36.3107   24.0342 C   0  0  1  0  0  0
  -20.5881  -28.3781   23.1322 C   0  0  2  0  0  0
  -20.6769  -26.9466   22.5584 C   0  0  0  0  0  0
  -19.5854  -26.6434   21.5299 C   0  0  0  0  0  0
  -18.2048  -26.7925   22.1741 C   0  0  0  0  0  0
  -19.1527  -28.8943   23.2874 C   0  0  0  0  0  0
  -18.9426  -30.1572   23.8834 C   0  0  0  0  0  0
  -17.6410  -30.6677   24.0465 C   0  0  0  0  0  0
  -25.9034  -34.9473   23.5120 C   0  0  0  0  0  0
  -16.5336  -29.9095   23.6291 C   0  0  0  0  0  0
  -16.7283  -28.6500   23.0354 C   0  0  0  0  0  0
  -26.4470  -31.6587   25.0714 C   0  0  0  0  0  0
  -25.3756  -31.3658   26.1464 C   0  0  0  0  0  0
  -27.0312  -30.3033   24.6099 C   0  0  0  0  0  0
  -27.6059  -32.4292   25.7472 C   0  0  0  0  0  0
  -27.5570  -37.1802   24.8467 C   0  0  0  0  0  0
  -21.4172  -29.3042   22.3599 N   0  0  0  0  0  0
  -26.4293  -37.3781   23.9401 N   0  0  0  0  0  0
  -24.6712  -31.0776   22.0941 N   0  0  0  0  0  0
  -23.4165  -28.8326   23.3077 O   0  0  0  0  0  0
  -28.4466  -26.7338   20.1080 O   0  0  0  0  0  0
  -26.5610  -34.8929   22.4687 O   0  0  0  0  0  0
  -23.5323  -32.1433   23.7441 O   0  0  0  0  0  0
  -28.0156  -18.1193   20.2771 C   0  0  0  0  0  0
  -27.6889  -19.4846   20.1229 C   0  0  0  0  0  0
  -29.6026  -18.6941   22.0237 C   0  0  0  0  0  0
  -28.9403  -17.7082   21.2611 C   0  0  0  0  0  0
  -28.2839  -20.4655   20.9488 C   0  0  0  0  0  0
  -29.2718  -20.0618   21.8760 C   0  0  0  0  0  0
  -29.1684  -16.2174   21.5128 C   0  0  0  0  0  0
  -27.7229  -21.8947   20.9571 C   0  0  0  0  0  0
  -27.9315  -24.3093   20.4458 C   0  0  0  0  0  0
  -28.5655  -25.4088   19.5585 C   0  0  0  0  0  0
  -29.9476  -15.6032   20.4451 N   0  0  0  0  0  0
  -28.4809  -22.9347   20.2199 N   0  3  0  0  0  0
  -29.8744  -20.9879   22.6593 F   0  0  0  0  0  0
  -31.4603  -12.3971   19.1045 H   0  0  0  0  0  0
  -30.3019  -11.3016   19.8131 H   0  0  0  0  0  0
  -29.7215  -11.7749   17.4184 H   0  0  0  0  0  0
  -29.6709  -13.4872   17.7456 H   0  0  0  0  0  0
  -27.7958  -11.3325   18.7776 H   0  0  0  0  0  0
  -27.3621  -12.6960   17.7798 H   0  0  0  0  0  0
  -27.6904  -14.2630   19.5835 H   0  0  0  0  0  0
  -28.6974  -11.9682   21.3334 H   0  0  0  0  0  0
  -28.5042  -13.6055   21.8701 H   0  0  0  0  0  0
  -25.2727   -9.5700   22.4792 H   0  0  0  0  0  0
  -23.9999   -7.4627   22.7489 H   0  0  0  0  0  0
  -21.0824   -8.8746   19.8954 H   0  0  0  0  0  0
  -22.3653  -10.9666   19.6185 H   0  0  0  0  0  0
  -21.2004   -7.6128   23.9700 H   0  0  0  0  0  0
  -21.1500   -6.0527   25.9091 H   0  0  0  0  0  0
  -22.0591   -2.7574   23.2908 H   0  0  0  0  0  0
  -22.4086  -11.9888   22.4810 H   0  0  0  0  0  0
  -21.1087  -13.1249   22.2619 H   0  0  0  0  0  0
  -24.6497  -15.8376   20.5100 H   0  0  0  0  0  0
  -26.2727  -15.6225   20.0772 H   0  0  0  0  0  0
  -26.7126  -32.5516   23.1169 H   0  0  0  0  0  0
  -25.0038  -33.9781   25.0453 H   0  0  0  0  0  0
  -22.7002  -31.3057   21.3919 H   0  0  0  0  0  0
  -23.3750  -35.9642   23.3321 H   0  0  0  0  0  0
  -24.3563  -36.8920   22.2055 H   0  0  0  0  0  0
  -23.7269  -37.6530   23.6645 H   0  0  0  0  0  0
  -26.0539  -31.5956   20.5950 H   0  0  0  0  0  0
  -26.8203  -30.8805   21.9885 H   0  0  0  0  0  0
  -28.1004  -29.0911   21.1709 H   0  0  0  0  0  0
  -26.0529  -25.9848   18.9675 H   0  0  0  0  0  0
  -23.9991  -27.2997   19.0045 H   0  0  0  0  0  0
  -23.7259  -30.5799   19.3909 H   0  0  0  0  0  0
  -22.7463  -29.2277   19.8660 H   0  0  0  0  0  0
  -25.1291  -36.1967   25.0842 H   0  0  0  0  0  0
  -20.9964  -28.3492   24.1448 H   0  0  0  0  0  0
  -20.5458  -26.2480   23.3861 H   0  0  0  0  0  0
  -21.6708  -26.7362   22.1603 H   0  0  0  0  0  0
  -19.6817  -27.3333   20.6888 H   0  0  0  0  0  0
  -19.7073  -25.6381   21.1265 H   0  0  0  0  0  0
  -17.4281  -26.6422   21.4215 H   0  0  0  0  0  0
  -18.0656  -26.0199   22.9306 H   0  0  0  0  0  0
  -19.7888  -30.7470   24.2109 H   0  0  0  0  0  0
  -17.4917  -31.6416   24.4937 H   0  0  0  0  0  0
  -15.5325  -30.2995   23.7579 H   0  0  0  0  0  0
  -15.8684  -28.0808   22.7077 H   0  0  0  0  0  0
  -24.5939  -30.6996   25.7780 H   0  0  0  0  0  0
  -24.8943  -32.2807   26.4935 H   0  0  0  0  0  0
  -25.8132  -30.8804   27.0200 H   0  0  0  0  0  0
  -26.2867  -29.6778   24.1160 H   0  0  0  0  0  0
  -27.4106  -29.7265   25.4547 H   0  0  0  0  0  0
  -27.8680  -30.4359   23.9232 H   0  0  0  0  0  0
  -27.2699  -33.3588   26.2066 H   0  0  0  0  0  0
  -28.3851  -32.6855   25.0280 H   0  0  0  0  0  0
  -28.0743  -31.8404   26.5374 H   0  0  0  0  0  0
  -28.2594  -38.0092   24.7480 H   0  0  0  0  0  0
  -28.1067  -36.2619   24.6325 H   0  0  0  0  0  0
  -27.2270  -37.1472   25.8868 H   0  0  0  0  0  0
  -20.9429  -29.8479   21.6525 H   0  0  0  0  0  0
  -26.0188  -38.2856   24.1397 H   0  0  0  0  0  0
  -27.5103  -17.3819   19.6676 H   0  0  0  0  0  0
  -26.9249  -19.7618   19.4109 H   0  0  0  0  0  0
  -30.3386  -18.4044   22.7604 H   0  0  0  0  0  0
  -29.6412  -16.0576   22.4824 H   0  0  0  0  0  0
  -28.1836  -15.7541   21.5704 H   0  0  0  0  0  0
  -27.6013  -22.2012   21.9963 H   0  0  0  0  0  0
  -26.7191  -21.8656   20.5325 H   0  0  0  0  0  0
  -26.8528  -24.2974   20.2933 H   0  0  0  0  0  0
  -28.0885  -24.5662   21.4935 H   0  0  0  0  0  0
  -28.1980  -25.3591   18.5331 H   0  0  0  0  0  0
  -29.6379  -25.2225   19.4903 H   0  0  0  0  0  0
  -30.4276  -16.3153   19.9162 H   0  0  0  0  0  0
  -28.4545  -22.7065   19.2384 H   0  0  0  0  0  0
  -29.4423  -22.9101   20.5205 H   0  0  0  0  0  0
  1 25  1  0  0  0
  1 30  2  0  0  0
  1 81  1  0  0  0
  2  3  1  0  0  0
  2 25  1  0  0  0
  2 84  1  0  0  0
  2 85  1  0  0  0
  3  4  1  0  0  0
  3 86  1  0  0  0
  3 87  1  0  0  0
  4  5  1  0  0  0
  4 88  1  0  0  0
  4 89  1  0  0  0
  5  6  1  0  0  0
  5 26  1  0  0  0
  5 90  1  0  0  0
  6 25  1  0  0  0
  6 91  1  0  0  0
  6 92  1  0  0  0
  7  8  2  0  0  0
  7 26  1  0  0  0
  7 29  1  0  0  0
  8  9  1  0  0  0
  8 22  1  0  0  0
  9 10  1  0  0  0
  9 27  2  0  0  0
 10 11  2  0  0  0
 10 15  1  0  0  0
 11 12  1  0  0  0
 11 93  1  0  0  0
 12 13  2  0  0  0
 12 94  1  0  0  0
 13 14  1  0  0  0
 13 31  1  0  0  0
 14 15  2  0  0  0
 14 95  1  0  0  0
 15 96  1  0  0  0
 16 17  2  0  0  0
 16 21  1  0  0  0
 16 31  1  0  0  0
 17 18  1  0  0  0
 17 97  1  0  0  0
 18 19  2  0  0  0
 18 98  1  0  0  0
 19 20  1  0  0  0
 19 24  1  0  0  0
 20 21  2  0  0  0
 20 99  1  0  0  0
 21 23  1  0  0  0
 22 28  1  0  0  0
 22 32  2  0  0  0
 26 27  1  0  0  0
 28100  1  0  0  0
 28101  1  0  0  0
 29102  1  0  0  0
 29103  1  0  0  0
 33 34  1  0  0  0
 33 66  1  0  0  0
 33 70  2  0  0  0
 34 36  1  0  0  0
 34 59  1  0  0  0
 34104  1  0  0  0
 35 44  2  0  0  0
 35 45  1  0  0  0
 35 68  1  0  0  0
 36 56  1  0  0  0
 36105  1  0  0  0
 37 39  1  0  0  0
 37 47  1  0  0  0
 37 66  1  0  0  0
 37106  1  0  0  0
 38 43  2  0  0  0
 38 46  1  0  0  0
 38 47  1  0  0  0
 39 64  1  0  0  0
 39 67  2  0  0  0
 40 52  1  0  0  0
 40 53  2  0  0  0
 40 58  1  0  0  0
 41107  1  0  0  0
 41108  1  0  0  0
 41109  1  0  0  0
 41 48  1  0  0  0
 42 43  1  0  0  0
 42 66  1  0  0  0
 42110  1  0  0  0
 42111  1  0  0  0
 43 44  1  0  0  0
 44112  1  0  0  0
 45 46  2  0  0  0
 45113  1  0  0  0
 46114  1  0  0  0
 47115  1  0  0  0
 47116  1  0  0  0
 48 56  1  0  0  0
 48 65  1  0  0  0
 48117  1  0  0  0
 49 50  1  0  0  0
 49 53  1  0  0  0
 49 64  1  0  0  0
 49118  1  0  0  0
 50 51  1  0  0  0
 50119  1  0  0  0
 50120  1  0  0  0
 51 52  1  0  0  0
 51121  1  0  0  0
 51122  1  0  0  0
 52123  1  0  0  0
 52124  1  0  0  0
 53 54  1  0  0  0
 54 55  2  0  0  0
 54125  1  0  0  0
 55 57  1  0  0  0
 55126  1  0  0  0
 56 69  2  0  0  0
 57 58  2  0  0  0
 57127  1  0  0  0
 58128  1  0  0  0
 59 60  1  0  0  0
 59 61  1  0  0  0
 59 62  1  0  0  0
 60129  1  0  0  0
 60130  1  0  0  0
 60131  1  0  0  0
 61132  1  0  0  0
 61133  1  0  0  0
 61134  1  0  0  0
 62135  1  0  0  0
 62136  1  0  0  0
 62137  1  0  0  0
 63 65  1  0  0  0
 63138  1  0  0  0
 63139  1  0  0  0
 63140  1  0  0  0
 64141  1  0  0  0
 65142  1  0  0  0
 68 80  1  0  0  0
 71 72  2  0  0  0
 71 74  1  0  0  0
 71143  1  0  0  0
 72 75  1  0  0  0
 72144  1  0  0  0
 73 74  2  0  0  0
 73 76  1  0  0  0
 73145  1  0  0  0
 74 77  1  0  0  0
 75 76  2  0  0  0
 75 78  1  0  0  0
 76 83  1  0  0  0
 77 81  1  0  0  0
 77146  1  0  0  0
 77147  1  0  0  0
 78 82  1  0  0  0
 78148  1  0  0  0
 78149  1  0  0  0
 79 80  1  0  0  0
 79 82  1  0  0  0
 79150  1  0  0  0
 79151  1  0  0  0
 80152  1  0  0  0
 80153  1  0  0  0
 81154  1  0  0  0
 82155  1  0  0  0
 82156  1  0  0  0
M  CHG  1  82   1
M  ISO  4   1 100  68 101  80 101  81 100
M  END
> <chiral flag>
0

> <version>
0

> <s_m_source_file>
/data/baiqing/PycharmProjects/Reinvent-master-3.2/result/LINK_invent/BTK/process_docking_weight1_custom_product_contain_oxygen_bond_distance_aromatic_linkinvent_7_9_3/rearranged_h_0006.sdf

> <i_m_source_file_index>
76

> <r_mmod_Potential_Energy-OPLS-2005>
-213.977172851562

> <r_mmod_Stretch_Energy-OPLS-2005>
36.7383193969727

> <r_mmod_Bend_Energy-OPLS-2005>
116.539627075195

> <r_mmod_Torsional_Energy-OPLS-2005>
246.718734741211

> <r_mmod_Improper_Torsional_Energy-OPLS-2005>
22.7279376983643

> <r_mmod_Van_der_Waal_Energy-OPLS-2005>
140.657730102539

> <r_mmod_Electrostatic_Energy-OPLS-2005>
-342.795043945312

> <r_mmod_Solvation_Energy-OPLS-2005>
-452.553894042969

> <b_mmod_Minimization_Converged-OPLS-2005>
0

> <r_mmod_RMS_Derivative-OPLS-2005>
4.38506698608398

$$$$
77
                    3D
 Structure written by MMmdl.
165174  0  0  1  0            999 V2000
  -30.6992  -14.4395   20.5468 C   0  0  0  0  0  0
  -30.4121  -12.2791   19.4015 C   0  0  0  0  0  0
  -29.4782  -12.5015   18.1946 C   0  0  0  0  0  0
  -28.0002  -12.3644   18.6128 C   0  0  0  0  0  0
  -27.6555  -13.1920   19.8802 C   0  0  2  0  0  0
  -28.7064  -12.9675   20.9933 C   0  0  0  0  0  0
  -25.2555  -13.8099   20.5713 C   0  0  0  0  0  0
  -24.1800  -13.0398   20.9210 C   0  0  0  0  0  0
  -24.6334  -11.6860   20.8771 C   0  0  0  0  0  0
  -23.8993  -10.4268   21.0422 C   0  0  0  0  0  0
  -24.3567   -9.4190   21.9209 C   0  0  0  0  0  0
  -23.6264   -8.2213   22.0759 C   0  0  0  0  0  0
  -22.4256   -8.0257   21.3539 C   0  0  0  0  0  0
  -21.9873   -9.0221   20.4642 C   0  0  0  0  0  0
  -22.7169  -10.2119   20.3055 C   0  0  0  0  0  0
  -21.6827   -6.0722   22.5285 C   0  0  0  0  0  0
  -21.3988   -6.5629   23.8215 C   0  0  0  0  0  0
  -21.3675   -5.6795   24.9190 C   0  0  0  0  0  0
  -21.6069   -4.3057   24.7238 C   0  0  0  0  0  0
  -21.8814   -3.8136   23.4354 C   0  0  0  0  0  0
  -21.9171   -4.6951   22.3411 C   0  0  0  0  0  0
  -22.7836  -13.5234   21.1876 C   0  0  0  0  0  0
  -22.1641   -4.2137   21.0987 F   0  0  0  0  0  0
  -21.5656   -3.4542   25.7744 F   0  0  0  0  0  0
  -30.0358  -13.2593   20.4287 N   0  0  0  0  0  0
  -26.2986  -12.9236   20.3449 N   0  0  0  0  0  0
  -25.9260  -11.6418   20.5837 N   0  0  0  0  0  0
  -22.0433  -12.8239   22.0421 N   0  0  0  0  0  0
  -25.4249  -15.1817   20.4090 N   0  0  0  0  0  0
  -31.8524  -14.6173   20.1433 O   0  0  0  0  0  0
  -21.6623   -6.8857   21.4239 O   0  0  0  0  0  0
  -22.3558  -14.5559   20.6735 O   0  0  0  0  0  0
  -24.6074  -31.8708   23.2122 C   0  0  0  0  0  0
  -25.8993  -32.4837   23.8413 C   0  0  1  0  0  0
  -27.2727  -27.4777   20.0962 C   0  0  0  0  0  0
  -25.5866  -33.8632   24.2346 N   0  0  0  0  0  0
  -23.3967  -30.4869   21.5522 C   0  0  2  0  0  0
  -24.8533  -28.9502   20.1255 C   0  0  0  0  0  0
  -22.7379  -29.4662   22.5055 C   0  0  0  0  0  0
  -18.0258  -28.1359   22.8490 C   0  0  0  0  0  0
  -24.1473  -36.7323   23.2640 C   0  0  0  0  0  0
  -25.9187  -30.8451   21.3642 C   0  0  0  0  0  0
  -26.0046  -29.4779   20.7214 C   0  0  0  0  0  0
  -27.2108  -28.7478   20.7187 C   0  0  0  0  0  0
  -26.1019  -26.9569   19.5072 C   0  0  0  0  0  0
  -24.8920  -27.6809   19.5220 C   0  0  0  0  0  0
  -23.6059  -29.8032   20.1726 C   0  0  0  0  0  0
  -25.4098  -36.3124   24.0342 C   0  0  1  0  0  0
  -20.5840  -28.3633   23.1336 C   0  0  2  0  0  0
  -20.6750  -26.9374   22.5423 C   0  0  0  0  0  0
  -19.5731  -26.6369   21.5214 C   0  0  0  0  0  0
  -18.1902  -26.7908   22.1611 C   0  0  0  0  0  0
  -19.1503  -28.8819   23.2903 C   0  0  0  0  0  0
  -18.9433  -30.1439   23.8891 C   0  0  0  0  0  0
  -17.6432  -30.6577   24.0538 C   0  0  0  0  0  0
  -25.9012  -34.9480   23.5146 C   0  0  0  0  0  0
  -16.5325  -29.9067   23.6333 C   0  0  0  0  0  0
  -16.7242  -28.6482   23.0362 C   0  0  0  0  0  0
  -26.4452  -31.6606   25.0721 C   0  0  0  0  0  0
  -25.3739  -31.3684   26.1480 C   0  0  0  0  0  0
  -27.0279  -30.3045   24.6079 C   0  0  0  0  0  0
  -27.6019  -32.4328   25.7484 C   0  0  0  0  0  0
  -27.5584  -37.1814   24.8462 C   0  0  0  0  0  0
  -21.4125  -29.3009   22.3770 N   0  0  0  0  0  0
  -26.4295  -37.3803   23.9404 N   0  0  0  0  0  0
  -24.6585  -31.0822   22.1017 N   0  0  0  0  0  0
  -23.4160  -28.8235   23.3117 O   0  0  0  0  0  0
  -28.4128  -26.7016   20.0089 O   0  0  0  0  0  0
  -26.5582  -34.8926   22.4705 O   0  0  0  0  0  0
  -23.5287  -32.1441   23.7542 O   0  0  0  0  0  0
  -32.0459  -21.6611   21.2339 C   0  0  0  0  0  0
  -31.7522  -20.2872   21.3744 C   0  0  0  0  0  0
  -30.2307  -21.8781   19.6367 C   0  0  0  0  0  0
  -31.2954  -22.4646   20.3488 C   0  0  0  0  0  0
  -30.6962  -19.6840   20.6459 C   0  0  0  0  0  0
  -29.9194  -20.5151   19.7941 C   0  0  0  0  0  0
  -30.2911  -17.5296   19.5284 C   0  0  0  0  0  0
  -30.9046  -17.5406   21.9170 C   0  0  0  0  0  0
  -29.3816  -16.3212   19.7817 C   0  0  0  0  0  0
  -30.0938  -16.2346   22.1194 C   0  0  0  0  0  0
  -31.6461  -23.9303   20.1142 C   0  0  0  0  0  0
  -30.7821  -26.2608   20.1796 C   0  0  0  0  0  0
  -29.6185  -27.1694   20.6156 C   0  0  0  0  0  0
  -30.4143  -18.3004   20.7644 N   0  0  0  0  0  0
  -29.9133  -15.4863   20.8675 N   0  0  0  0  0  0
  -30.5968  -24.8509   20.6044 N   0  3  0  0  0  0
  -28.8455  -20.0267   19.1267 F   0  0  0  0  0  0
  -31.4540  -12.3732   19.0926 H   0  0  0  0  0  0
  -30.3045  -11.2649   19.7885 H   0  0  0  0  0  0
  -29.7070  -11.7891   17.4012 H   0  0  0  0  0  0
  -29.6490  -13.4921   17.7704 H   0  0  0  0  0  0
  -27.8035  -11.3076   18.7959 H   0  0  0  0  0  0
  -27.3503  -12.6513   17.7853 H   0  0  0  0  0  0
  -27.6849  -14.2391   19.5912 H   0  0  0  0  0  0
  -28.6765  -11.9349   21.3453 H   0  0  0  0  0  0
  -28.4866  -13.5842   21.8652 H   0  0  0  0  0  0
  -25.2684   -9.5679   22.4831 H   0  0  0  0  0  0
  -23.9966   -7.4593   22.7474 H   0  0  0  0  0  0
  -21.0812   -8.8718   19.8948 H   0  0  0  0  0  0
  -22.3600  -10.9675   19.6192 H   0  0  0  0  0  0
  -21.1956   -7.6130   23.9710 H   0  0  0  0  0  0
  -21.1525   -6.0529   25.9098 H   0  0  0  0  0  0
  -22.0574   -2.7591   23.2853 H   0  0  0  0  0  0
  -22.3981  -11.9885   22.4830 H   0  0  0  0  0  0
  -21.1067  -13.1338   22.2626 H   0  0  0  0  0  0
  -24.6584  -15.8354   20.5217 H   0  0  0  0  0  0
  -26.2865  -15.6254   20.1171 H   0  0  0  0  0  0
  -26.7066  -32.5579   23.1193 H   0  0  0  0  0  0
  -25.0019  -33.9799   25.0500 H   0  0  0  0  0  0
  -22.6821  -31.2994   21.4062 H   0  0  0  0  0  0
  -23.3736  -35.9657   23.3315 H   0  0  0  0  0  0
  -24.3570  -36.8921   22.2051 H   0  0  0  0  0  0
  -23.7219  -37.6532   23.6641 H   0  0  0  0  0  0
  -26.0236  -31.6097   20.5937 H   0  0  0  0  0  0
  -26.8060  -30.9058   21.9817 H   0  0  0  0  0  0
  -28.0764  -29.1853   21.1932 H   0  0  0  0  0  0
  -26.1323  -25.9870   19.0312 H   0  0  0  0  0  0
  -24.0088  -27.2577   19.0660 H   0  0  0  0  0  0
  -23.6949  -30.5645   19.3976 H   0  0  0  0  0  0
  -22.7372  -29.2023   19.8954 H   0  0  0  0  0  0
  -25.1287  -36.1993   25.0843 H   0  0  0  0  0  0
  -20.9905  -28.3172   24.1464 H   0  0  0  0  0  0
  -20.5645  -26.2236   23.3606 H   0  0  0  0  0  0
  -21.6623  -26.7438   22.1204 H   0  0  0  0  0  0
  -19.6888  -25.6282   21.1242 H   0  0  0  0  0  0
  -19.6683  -27.3186   20.6750 H   0  0  0  0  0  0
  -17.4192  -26.6674   21.3991 H   0  0  0  0  0  0
  -18.0284  -26.0040   22.8990 H   0  0  0  0  0  0
  -19.7917  -30.7260   24.2236 H   0  0  0  0  0  0
  -17.4994  -31.6265   24.5114 H   0  0  0  0  0  0
  -15.5326  -30.2957   23.7677 H   0  0  0  0  0  0
  -15.8642  -28.0793   22.7092 H   0  0  0  0  0  0
  -24.5886  -30.7070   25.7821 H   0  0  0  0  0  0
  -24.8966  -32.2830   26.5006 H   0  0  0  0  0  0
  -25.8102  -30.8795   27.0196 H   0  0  0  0  0  0
  -26.2818  -29.6814   24.1140 H   0  0  0  0  0  0
  -27.4053  -29.7277   25.4536 H   0  0  0  0  0  0
  -27.8648  -30.4376   23.9222 H   0  0  0  0  0  0
  -27.2611  -33.3601   26.2120 H   0  0  0  0  0  0
  -28.3798  -32.6952   25.0296 H   0  0  0  0  0  0
  -28.0726  -31.8427   26.5365 H   0  0  0  0  0  0
  -28.2607  -38.0110   24.7525 H   0  0  0  0  0  0
  -28.1081  -36.2645   24.6278 H   0  0  0  0  0  0
  -27.2297  -37.1437   25.8863 H   0  0  0  0  0  0
  -20.9292  -29.8679   21.6944 H   0  0  0  0  0  0
  -26.0192  -38.2884   24.1417 H   0  0  0  0  0  0
  -32.8717  -22.0819   21.7925 H   0  0  0  0  0  0
  -32.3724  -19.7051   22.0400 H   0  0  0  0  0  0
  -29.6372  -22.4679   18.9533 H   0  0  0  0  0  0
  -29.8935  -18.1055   18.6950 H   0  0  0  0  0  0
  -31.2793  -17.1974   19.2068 H   0  0  0  0  0  0
  -31.9599  -17.3042   21.7692 H   0  0  0  0  0  0
  -30.8403  -18.1387   22.8286 H   0  0  0  0  0  0
  -29.2776  -15.7502   18.8555 H   0  0  0  0  0  0
  -28.3777  -16.6566   20.0443 H   0  0  0  0  0  0
  -29.1029  -16.4712   22.5102 H   0  0  0  0  0  0
  -30.5695  -15.6108   22.8780 H   0  0  0  0  0  0
  -31.7902  -24.0728   19.0418 H   0  0  0  0  0  0
  -32.5983  -24.1728   20.5878 H   0  0  0  0  0  0
  -31.7173  -26.6441   20.5920 H   0  0  0  0  0  0
  -30.8786  -26.3055   19.0937 H   0  0  0  0  0  0
  -29.8424  -28.1868   20.2906 H   0  0  0  0  0  0
  -29.5195  -27.1811   21.7025 H   0  0  0  0  0  0
  -30.5618  -24.7922   21.6094 H   0  0  0  0  0  0
  -29.7079  -24.5384   20.2504 H   0  0  0  0  0  0
  1 25  1  0  0  0
  1 30  2  0  0  0
  1 85  1  0  0  0
  2  3  1  0  0  0
  2 25  1  0  0  0
  2 88  1  0  0  0
  2 89  1  0  0  0
  3  4  1  0  0  0
  3 90  1  0  0  0
  3 91  1  0  0  0
  4  5  1  0  0  0
  4 92  1  0  0  0
  4 93  1  0  0  0
  5  6  1  0  0  0
  5 26  1  0  0  0
  5 94  1  0  0  0
  6 25  1  0  0  0
  6 95  1  0  0  0
  6 96  1  0  0  0
  7  8  2  0  0  0
  7 26  1  0  0  0
  7 29  1  0  0  0
  8  9  1  0  0  0
  8 22  1  0  0  0
  9 10  1  0  0  0
  9 27  2  0  0  0
 10 11  2  0  0  0
 10 15  1  0  0  0
 11 12  1  0  0  0
 11 97  1  0  0  0
 12 13  2  0  0  0
 12 98  1  0  0  0
 13 14  1  0  0  0
 13 31  1  0  0  0
 14 15  2  0  0  0
 14 99  1  0  0  0
 15100  1  0  0  0
 16 17  2  0  0  0
 16 21  1  0  0  0
 16 31  1  0  0  0
 17 18  1  0  0  0
 17101  1  0  0  0
 18 19  2  0  0  0
 18102  1  0  0  0
 19 20  1  0  0  0
 19 24  1  0  0  0
 20 21  2  0  0  0
 20103  1  0  0  0
 21 23  1  0  0  0
 22 28  1  0  0  0
 22 32  2  0  0  0
 26 27  1  0  0  0
 28104  1  0  0  0
 28105  1  0  0  0
 29106  1  0  0  0
 29107  1  0  0  0
 33 34  1  0  0  0
 33 66  1  0  0  0
 33 70  2  0  0  0
 34 36  1  0  0  0
 34 59  1  0  0  0
 34108  1  0  0  0
 35 44  2  0  0  0
 35 45  1  0  0  0
 35 68  1  0  0  0
 36 56  1  0  0  0
 36109  1  0  0  0
 37 39  1  0  0  0
 37 47  1  0  0  0
 37 66  1  0  0  0
 37110  1  0  0  0
 38 43  2  0  0  0
 38 46  1  0  0  0
 38 47  1  0  0  0
 39 64  1  0  0  0
 39 67  2  0  0  0
 40 52  1  0  0  0
 40 53  2  0  0  0
 40 58  1  0  0  0
 41111  1  0  0  0
 41112  1  0  0  0
 41113  1  0  0  0
 41 48  1  0  0  0
 42 43  1  0  0  0
 42 66  1  0  0  0
 42114  1  0  0  0
 42115  1  0  0  0
 43 44  1  0  0  0
 44116  1  0  0  0
 45 46  2  0  0  0
 45117  1  0  0  0
 46118  1  0  0  0
 47119  1  0  0  0
 47120  1  0  0  0
 48 56  1  0  0  0
 48 65  1  0  0  0
 48121  1  0  0  0
 49 50  1  0  0  0
 49 53  1  0  0  0
 49 64  1  0  0  0
 49122  1  0  0  0
 50 51  1  0  0  0
 50123  1  0  0  0
 50124  1  0  0  0
 51 52  1  0  0  0
 51125  1  0  0  0
 51126  1  0  0  0
 52127  1  0  0  0
 52128  1  0  0  0
 53 54  1  0  0  0
 54 55  2  0  0  0
 54129  1  0  0  0
 55 57  1  0  0  0
 55130  1  0  0  0
 56 69  2  0  0  0
 57 58  2  0  0  0
 57131  1  0  0  0
 58132  1  0  0  0
 59 60  1  0  0  0
 59 61  1  0  0  0
 59 62  1  0  0  0
 60133  1  0  0  0
 60134  1  0  0  0
 60135  1  0  0  0
 61136  1  0  0  0
 61137  1  0  0  0
 61138  1  0  0  0
 62139  1  0  0  0
 62140  1  0  0  0
 62141  1  0  0  0
 63 65  1  0  0  0
 63142  1  0  0  0
 63143  1  0  0  0
 63144  1  0  0  0
 64145  1  0  0  0
 65146  1  0  0  0
 68 83  1  0  0  0
 71 72  2  0  0  0
 71 74  1  0  0  0
 71147  1  0  0  0
 72 75  1  0  0  0
 72148  1  0  0  0
 73 74  2  0  0  0
 73 76  1  0  0  0
 73149  1  0  0  0
 74 81  1  0  0  0
 75 76  2  0  0  0
 75 84  1  0  0  0
 76 87  1  0  0  0
 77 79  1  0  0  0
 77 84  1  0  0  0
 77150  1  0  0  0
 77151  1  0  0  0
 78 80  1  0  0  0
 78 84  1  0  0  0
 78152  1  0  0  0
 78153  1  0  0  0
 79 85  1  0  0  0
 79154  1  0  0  0
 79155  1  0  0  0
 80 85  1  0  0  0
 80156  1  0  0  0
 80157  1  0  0  0
 81 86  1  0  0  0
 81158  1  0  0  0
 81159  1  0  0  0
 82 83  1  0  0  0
 82 86  1  0  0  0
 82160  1  0  0  0
 82161  1  0  0  0
 83162  1  0  0  0
 83163  1  0  0  0
 86164  1  0  0  0
 86165  1  0  0  0
M  CHG  1  86   1
M  ISO  4   1 100  68 101  83 101  85 100
M  END
> <chiral flag>
0

> <version>
0

> <s_m_source_file>
/data/baiqing/PycharmProjects/Reinvent-master-3.2/result/LINK_invent/BTK/process_docking_weight1_custom_product_contain_oxygen_bond_distance_aromatic_linkinvent_7_9_3/rearranged_h_0006.sdf

> <i_m_source_file_index>
77

> <r_mmod_Potential_Energy-OPLS-2005>
-17.5759334564209

> <r_mmod_Stretch_Energy-OPLS-2005>
36.6128807067871

> <r_mmod_Bend_Energy-OPLS-2005>
104.838592529297

> <r_mmod_Torsional_Energy-OPLS-2005>
342.936065673828

> <r_mmod_Improper_Torsional_Energy-OPLS-2005>
11.3922815322876

> <r_mmod_Van_der_Waal_Energy-OPLS-2005>
164.237655639648

> <r_mmod_Electrostatic_Energy-OPLS-2005>
-234.813919067383

> <r_mmod_Solvation_Energy-OPLS-2005>
-453.011535644531

> <b_mmod_Minimization_Converged-OPLS-2005>
0

> <r_mmod_RMS_Derivative-OPLS-2005>
2.48225402832031

$$$$
78
                    3D
 Structure written by MMmdl.
163172  0  0  1  0            999 V2000
  -30.7251  -14.3753   20.6702 C   0  0  0  0  0  0
  -30.4296  -12.2810   19.3947 C   0  0  0  0  0  0
  -29.4945  -12.5230   18.1926 C   0  0  0  0  0  0
  -28.0170  -12.3758   18.6069 C   0  0  0  0  0  0
  -27.6719  -13.1909   19.8794 C   0  0  2  0  0  0
  -28.7055  -12.9039   20.9909 C   0  0  0  0  0  0
  -25.2645  -13.8128   20.5633 C   0  0  0  0  0  0
  -24.1865  -13.0438   20.9130 C   0  0  0  0  0  0
  -24.6383  -11.6894   20.8696 C   0  0  0  0  0  0
  -23.9032  -10.4289   21.0389 C   0  0  0  0  0  0
  -24.3585   -9.4213   21.9169 C   0  0  0  0  0  0
  -23.6261   -8.2257   22.0758 C   0  0  0  0  0  0
  -22.4250   -8.0281   21.3551 C   0  0  0  0  0  0
  -21.9875   -9.0254   20.4663 C   0  0  0  0  0  0
  -22.7201  -10.2131   20.3048 C   0  0  0  0  0  0
  -21.6851   -6.0717   22.5270 C   0  0  0  0  0  0
  -21.4027   -6.5624   23.8204 C   0  0  0  0  0  0
  -21.3656   -5.6779   24.9165 C   0  0  0  0  0  0
  -21.6041   -4.3043   24.7226 C   0  0  0  0  0  0
  -21.8814   -3.8128   23.4352 C   0  0  0  0  0  0
  -21.9202   -4.6945   22.3405 C   0  0  0  0  0  0
  -22.7894  -13.5273   21.1794 C   0  0  0  0  0  0
  -22.1663   -4.2134   21.0982 F   0  0  0  0  0  0
  -21.5624   -3.4521   25.7736 F   0  0  0  0  0  0
  -30.0541  -13.2112   20.4678 N   0  0  0  0  0  0
  -26.3068  -12.9267   20.3328 N   0  0  0  0  0  0
  -25.9306  -11.6444   20.5711 N   0  0  0  0  0  0
  -22.0518  -12.8298   22.0359 N   0  0  0  0  0  0
  -25.4415  -15.1832   20.4026 N   0  0  0  0  0  0
  -31.7529  -14.6900   20.0599 O   0  0  0  0  0  0
  -21.6640   -6.8861   21.4231 O   0  0  0  0  0  0
  -22.3597  -14.5587   20.6642 O   0  0  0  0  0  0
  -24.6062  -31.8706   23.2135 C   0  0  0  0  0  0
  -25.8977  -32.4847   23.8421 C   0  0  1  0  0  0
  -27.2600  -27.4907   20.0887 C   0  0  0  0  0  0
  -25.5844  -33.8634   24.2347 N   0  0  0  0  0  0
  -23.3917  -30.4954   21.5513 C   0  0  2  0  0  0
  -24.8446  -28.9652   20.1201 C   0  0  0  0  0  0
  -22.7365  -29.4674   22.5004 C   0  0  0  0  0  0
  -18.0262  -28.1395   22.8508 C   0  0  0  0  0  0
  -24.1474  -36.7339   23.2648 C   0  0  0  0  0  0
  -25.9120  -30.8608   21.3513 C   0  0  0  0  0  0
  -25.9981  -29.4953   20.7073 C   0  0  0  0  0  0
  -27.2068  -28.7720   20.6910 C   0  0  0  0  0  0
  -26.0813  -26.9582   19.5242 C   0  0  0  0  0  0
  -24.8780  -27.6904   19.5290 C   0  0  0  0  0  0
  -23.6010  -29.8245   20.1670 C   0  0  0  0  0  0
  -25.4088  -36.3124   24.0356 C   0  0  1  0  0  0
  -20.5845  -28.3659   23.1343 C   0  0  2  0  0  0
  -20.6744  -26.9398   22.5430 C   0  0  0  0  0  0
  -19.5725  -26.6406   21.5216 C   0  0  0  0  0  0
  -18.1901  -26.7941   22.1639 C   0  0  0  0  0  0
  -19.1513  -28.8846   23.2926 C   0  0  0  0  0  0
  -18.9449  -30.1455   23.8931 C   0  0  0  0  0  0
  -17.6455  -30.6599   24.0591 C   0  0  0  0  0  0
  -25.9006  -34.9488   23.5153 C   0  0  0  0  0  0
  -16.5347  -29.9106   23.6339 C   0  0  0  0  0  0
  -16.7256  -28.6532   23.0342 C   0  0  0  0  0  0
  -26.4454  -31.6620   25.0719 C   0  0  0  0  0  0
  -25.3757  -31.3696   26.1502 C   0  0  0  0  0  0
  -27.0279  -30.3076   24.6044 C   0  0  0  0  0  0
  -27.6078  -32.4308   25.7435 C   0  0  0  0  0  0
  -27.5574  -37.1814   24.8470 C   0  0  0  0  0  0
  -21.4103  -29.3032   22.3754 N   0  0  0  0  0  0
  -26.4274  -37.3805   23.9422 N   0  0  0  0  0  0
  -24.6553  -31.0869   22.0998 N   0  0  0  0  0  0
  -23.4162  -28.8214   23.3024 O   0  0  0  0  0  0
  -28.3881  -26.7026   20.0328 O   0  0  0  0  0  0
  -26.5588  -34.8936   22.4725 O   0  0  0  0  0  0
  -23.5272  -32.1426   23.7550 O   0  0  0  0  0  0
  -28.2304  -18.3058   21.7618 C   0  0  0  0  0  0
  -28.5916  -16.9392   21.8131 C   0  0  0  0  0  0
  -30.9306  -17.4721   21.2290 C   0  0  0  0  0  0
  -29.2473  -19.2199   21.4452 C   0  0  0  0  0  0
  -30.5380  -18.8231   21.1966 C   0  0  0  0  0  0
  -29.9237  -16.5193   21.5380 C   0  0  0  0  0  0
  -29.2058  -20.6985   21.3299 C   0  0  0  0  0  0
  -31.3306  -20.0512   20.9369 C   0  0  0  0  0  0
  -31.1165  -23.2072   22.2126 C   0  0  0  0  0  0
  -30.8552  -22.5050   20.8622 C   0  0  0  0  0  0
  -31.6283  -24.6534   22.0855 C   0  0  0  0  0  0
  -30.7066  -26.2054   20.3535 C   0  0  0  0  0  0
  -29.6702  -27.3170   20.1463 C   0  0  0  0  0  0
  -30.4692  -21.0983   21.0379 N   0  0  0  0  0  0
  -30.1921  -15.1352   21.6349 N   0  0  0  0  0  0
  -30.5653  -25.6070   21.7011 N   0  3  0  0  0  0
  -28.1997  -21.4001   21.4855 O   0  0  0  0  0  0
  -32.5422  -20.0800   20.6920 O   0  0  0  0  0  0
  -31.4739  -12.3907   19.0947 H   0  0  0  0  0  0
  -30.3312  -11.2533   19.7484 H   0  0  0  0  0  0
  -29.7296  -11.8239   17.3886 H   0  0  0  0  0  0
  -29.6638  -13.5224   17.7882 H   0  0  0  0  0  0
  -27.8243  -11.3169   18.7838 H   0  0  0  0  0  0
  -27.3660  -12.6701   17.7833 H   0  0  0  0  0  0
  -27.7410  -14.2471   19.6186 H   0  0  0  0  0  0
  -28.6671  -11.8513   21.2770 H   0  0  0  0  0  0
  -28.4394  -13.4442   21.8990 H   0  0  0  0  0  0
  -25.2736   -9.5698   22.4733 H   0  0  0  0  0  0
  -23.9977   -7.4657   22.7481 H   0  0  0  0  0  0
  -21.0806   -8.8765   19.8980 H   0  0  0  0  0  0
  -22.3651  -10.9659   19.6153 H   0  0  0  0  0  0
  -21.2025   -7.6133   23.9700 H   0  0  0  0  0  0
  -21.1479   -6.0510   25.9065 H   0  0  0  0  0  0
  -22.0605   -2.7592   23.2852 H   0  0  0  0  0  0
  -22.4108  -11.9964   22.4786 H   0  0  0  0  0  0
  -21.1156  -13.1375   22.2555 H   0  0  0  0  0  0
  -24.6764  -15.8412   20.4975 H   0  0  0  0  0  0
  -26.2895  -15.6115   20.0527 H   0  0  0  0  0  0
  -26.7046  -32.5617   23.1196 H   0  0  0  0  0  0
  -24.9939  -33.9805   25.0458 H   0  0  0  0  0  0
  -22.6782  -31.3104   21.4122 H   0  0  0  0  0  0
  -23.3711  -35.9698   23.3313 H   0  0  0  0  0  0
  -24.3574  -36.8944   22.2062 H   0  0  0  0  0  0
  -23.7254  -37.6558   23.6659 H   0  0  0  0  0  0
  -25.9999  -31.6238   20.5759 H   0  0  0  0  0  0
  -26.8067  -30.9311   21.9560 H   0  0  0  0  0  0
  -28.0713  -29.2231   21.1520 H   0  0  0  0  0  0
  -26.1006  -25.9769   19.0702 H   0  0  0  0  0  0
  -23.9871  -27.2703   19.0829 H   0  0  0  0  0  0
  -23.7065  -30.5997   19.4064 H   0  0  0  0  0  0
  -22.7279  -29.2397   19.8708 H   0  0  0  0  0  0
  -25.1249  -36.1986   25.0845 H   0  0  0  0  0  0
  -20.9956  -28.3224   24.1456 H   0  0  0  0  0  0
  -20.5646  -26.2256   23.3606 H   0  0  0  0  0  0
  -21.6613  -26.7447   22.1220 H   0  0  0  0  0  0
  -19.6866  -25.6321   21.1219 H   0  0  0  0  0  0
  -19.6658  -27.3239   20.6758 H   0  0  0  0  0  0
  -17.4168  -26.6715   21.4037 H   0  0  0  0  0  0
  -18.0306  -26.0068   22.9026 H   0  0  0  0  0  0
  -19.7932  -30.7267   24.2293 H   0  0  0  0  0  0
  -17.5020  -31.6274   24.5205 H   0  0  0  0  0  0
  -15.5351  -30.3026   23.7638 H   0  0  0  0  0  0
  -15.8662  -28.0877   22.7006 H   0  0  0  0  0  0
  -24.5915  -30.7052   25.7851 H   0  0  0  0  0  0
  -24.8960  -32.2835   26.5014 H   0  0  0  0  0  0
  -25.8149  -30.8830   27.0221 H   0  0  0  0  0  0
  -26.2779  -29.6780   24.1231 H   0  0  0  0  0  0
  -27.4221  -29.7362   25.4464 H   0  0  0  0  0  0
  -27.8544  -30.4422   23.9057 H   0  0  0  0  0  0
  -27.2764  -33.3613   26.2052 H   0  0  0  0  0  0
  -28.3854  -32.6841   25.0214 H   0  0  0  0  0  0
  -28.0788  -31.8394   26.5298 H   0  0  0  0  0  0
  -28.2601  -38.0096   24.7491 H   0  0  0  0  0  0
  -28.1052  -36.2632   24.6298 H   0  0  0  0  0  0
  -27.2308  -37.1471   25.8877 H   0  0  0  0  0  0
  -20.9237  -29.8774   21.7014 H   0  0  0  0  0  0
  -26.0163  -38.2887   24.1396 H   0  0  0  0  0  0
  -27.2203  -18.6342   21.9630 H   0  0  0  0  0  0
  -27.8302  -16.2126   22.0622 H   0  0  0  0  0  0
  -31.9568  -17.1898   21.0367 H   0  0  0  0  0  0
  -31.8675  -22.6384   22.7625 H   0  0  0  0  0  0
  -30.2203  -23.1882   22.8349 H   0  0  0  0  0  0
  -31.7463  -22.5642   20.2351 H   0  0  0  0  0  0
  -30.0724  -23.0263   20.3087 H   0  0  0  0  0  0
  -32.4856  -24.7086   21.4127 H   0  0  0  0  0  0
  -31.9999  -24.9755   23.0590 H   0  0  0  0  0  0
  -31.7047  -26.6338   20.2545 H   0  0  0  0  0  0
  -30.6087  -25.4398   19.5826 H   0  0  0  0  0  0
  -29.8829  -27.8697   19.2307 H   0  0  0  0  0  0
  -29.7474  -28.0157   20.9778 H   0  0  0  0  0  0
  -29.4944  -14.6216   22.1512 H   0  0  0  0  0  0
  -30.5877  -26.3565   22.3765 H   0  0  0  0  0  0
  -29.6614  -25.1688   21.7856 H   0  0  0  0  0  0
  1 25  1  0  0  0
  1 30  2  0  0  0
  1 85  1  0  0  0
  2  3  1  0  0  0
  2 25  1  0  0  0
  2 89  1  0  0  0
  2 90  1  0  0  0
  3  4  1  0  0  0
  3 91  1  0  0  0
  3 92  1  0  0  0
  4  5  1  0  0  0
  4 93  1  0  0  0
  4 94  1  0  0  0
  5  6  1  0  0  0
  5 26  1  0  0  0
  5 95  1  0  0  0
  6 25  1  0  0  0
  6 96  1  0  0  0
  6 97  1  0  0  0
  7  8  2  0  0  0
  7 26  1  0  0  0
  7 29  1  0  0  0
  8  9  1  0  0  0
  8 22  1  0  0  0
  9 10  1  0  0  0
  9 27  2  0  0  0
 10 11  2  0  0  0
 10 15  1  0  0  0
 11 12  1  0  0  0
 11 98  1  0  0  0
 12 13  2  0  0  0
 12 99  1  0  0  0
 13 14  1  0  0  0
 13 31  1  0  0  0
 14 15  2  0  0  0
 14100  1  0  0  0
 15101  1  0  0  0
 16 17  2  0  0  0
 16 21  1  0  0  0
 16 31  1  0  0  0
 17 18  1  0  0  0
 17102  1  0  0  0
 18 19  2  0  0  0
 18103  1  0  0  0
 19 20  1  0  0  0
 19 24  1  0  0  0
 20 21  2  0  0  0
 20104  1  0  0  0
 21 23  1  0  0  0
 22 28  1  0  0  0
 22 32  2  0  0  0
 26 27  1  0  0  0
 28105  1  0  0  0
 28106  1  0  0  0
 29107  1  0  0  0
 29108  1  0  0  0
 33 34  1  0  0  0
 33 66  1  0  0  0
 33 70  2  0  0  0
 34 36  1  0  0  0
 34 59  1  0  0  0
 34109  1  0  0  0
 35 44  2  0  0  0
 35 45  1  0  0  0
 35 68  1  0  0  0
 36 56  1  0  0  0
 36110  1  0  0  0
 37 39  1  0  0  0
 37 47  1  0  0  0
 37 66  1  0  0  0
 37111  1  0  0  0
 38 43  2  0  0  0
 38 46  1  0  0  0
 38 47  1  0  0  0
 39 64  1  0  0  0
 39 67  2  0  0  0
 40 52  1  0  0  0
 40 53  2  0  0  0
 40 58  1  0  0  0
 41112  1  0  0  0
 41113  1  0  0  0
 41114  1  0  0  0
 41 48  1  0  0  0
 42 43  1  0  0  0
 42 66  1  0  0  0
 42115  1  0  0  0
 42116  1  0  0  0
 43 44  1  0  0  0
 44117  1  0  0  0
 45 46  2  0  0  0
 45118  1  0  0  0
 46119  1  0  0  0
 47120  1  0  0  0
 47121  1  0  0  0
 48 56  1  0  0  0
 48 65  1  0  0  0
 48122  1  0  0  0
 49 50  1  0  0  0
 49 53  1  0  0  0
 49 64  1  0  0  0
 49123  1  0  0  0
 50 51  1  0  0  0
 50124  1  0  0  0
 50125  1  0  0  0
 51 52  1  0  0  0
 51126  1  0  0  0
 51127  1  0  0  0
 52128  1  0  0  0
 52129  1  0  0  0
 53 54  1  0  0  0
 54 55  2  0  0  0
 54130  1  0  0  0
 55 57  1  0  0  0
 55131  1  0  0  0
 56 69  2  0  0  0
 57 58  2  0  0  0
 57132  1  0  0  0
 58133  1  0  0  0
 59 60  1  0  0  0
 59 61  1  0  0  0
 59 62  1  0  0  0
 60134  1  0  0  0
 60135  1  0  0  0
 60136  1  0  0  0
 61137  1  0  0  0
 61138  1  0  0  0
 61139  1  0  0  0
 62140  1  0  0  0
 62141  1  0  0  0
 62142  1  0  0  0
 63 65  1  0  0  0
 63143  1  0  0  0
 63144  1  0  0  0
 63145  1  0  0  0
 64146  1  0  0  0
 65147  1  0  0  0
 68 83  1  0  0  0
 71 72  2  0  0  0
 71 74  1  0  0  0
 71148  1  0  0  0
 72 76  1  0  0  0
 72149  1  0  0  0
 73 75  1  0  0  0
 73 76  2  0  0  0
 73150  1  0  0  0
 74 75  2  0  0  0
 74 77  1  0  0  0
 75 78  1  0  0  0
 76 85  1  0  0  0
 77 84  1  0  0  0
 77 87  2  0  0  0
 78 84  1  0  0  0
 78 88  2  0  0  0
 79 80  1  0  0  0
 79 81  1  0  0  0
 79151  1  0  0  0
 79152  1  0  0  0
 80 84  1  0  0  0
 80153  1  0  0  0
 80154  1  0  0  0
 81 86  1  0  0  0
 81155  1  0  0  0
 81156  1  0  0  0
 82 83  1  0  0  0
 82 86  1  0  0  0
 82157  1  0  0  0
 82158  1  0  0  0
 83159  1  0  0  0
 83160  1  0  0  0
 85161  1  0  0  0
 86162  1  0  0  0
 86163  1  0  0  0
M  CHG  1  86   1
M  ISO  4   1 100  68 101  83 101  85 100
M  END
> <chiral flag>
0

> <version>
0

> <s_m_source_file>
/data/baiqing/PycharmProjects/Reinvent-master-3.2/result/LINK_invent/BTK/process_docking_weight1_custom_product_contain_oxygen_bond_distance_aromatic_linkinvent_7_9_3/rearranged_h_0006.sdf

> <i_m_source_file_index>
78

> <r_mmod_Potential_Energy-OPLS-2005>
-101.20783996582

> <r_mmod_Stretch_Energy-OPLS-2005>
37.1694564819336

> <r_mmod_Bend_Energy-OPLS-2005>
187.33821105957

> <r_mmod_Torsional_Energy-OPLS-2005>
254.797485351562

> <r_mmod_Improper_Torsional_Energy-OPLS-2005>
5.34399271011353

> <r_mmod_Van_der_Waal_Energy-OPLS-2005>
145.284301757812

> <r_mmod_Electrostatic_Energy-OPLS-2005>
-276.692993164062

> <r_mmod_Solvation_Energy-OPLS-2005>
-460.879913330078

> <b_mmod_Minimization_Converged-OPLS-2005>
0

> <r_mmod_RMS_Derivative-OPLS-2005>
2.19727563858032

$$$$
79
                    3D
 Structure written by MMmdl.
146154  0  0  1  0            999 V2000
  -30.4115  -15.2360   20.3782 C   0  0  0  0  0  0
  -30.4481  -12.7847   19.5253 C   0  0  0  0  0  0
  -29.5392  -12.5763   18.2863 C   0  0  0  0  0  0
  -28.0839  -12.3050   18.7091 C   0  0  0  0  0  0
  -27.6174  -13.2684   19.8287 C   0  0  2  0  0  0
  -28.6520  -13.4066   20.9660 C   0  0  0  0  0  0
  -25.2410  -13.8235   20.5726 C   0  0  0  0  0  0
  -24.1757  -13.0435   20.9256 C   0  0  0  0  0  0
  -24.6402  -11.6929   20.8762 C   0  0  0  0  0  0
  -23.9092  -10.4292   21.0408 C   0  0  0  0  0  0
  -24.3635   -9.4205   21.9186 C   0  0  0  0  0  0
  -23.6303   -8.2243   22.0755 C   0  0  0  0  0  0
  -22.4285   -8.0283   21.3545 C   0  0  0  0  0  0
  -21.9926   -9.0258   20.4646 C   0  0  0  0  0  0
  -22.7262  -10.2133   20.3057 C   0  0  0  0  0  0
  -21.6856   -6.0738   22.5279 C   0  0  0  0  0  0
  -21.4016   -6.5641   23.8212 C   0  0  0  0  0  0
  -21.3660   -5.6793   24.9174 C   0  0  0  0  0  0
  -21.6044   -4.3056   24.7224 C   0  0  0  0  0  0
  -21.8819   -3.8148   23.4345 C   0  0  0  0  0  0
  -21.9193   -4.6965   22.3402 C   0  0  0  0  0  0
  -22.7775  -13.5193   21.1903 C   0  0  0  0  0  0
  -22.1662   -4.2150   21.0979 F   0  0  0  0  0  0
  -21.5628   -3.4539   25.7737 F   0  0  0  0  0  0
  -29.8901  -13.9137   20.3521 N   0  0  0  0  0  0
  -26.2837  -12.9497   20.3215 N   0  0  0  0  0  0
  -25.9337  -11.6609   20.5720 N   0  0  0  0  0  0
  -22.0430  -12.8175   22.0455 N   0  0  0  0  0  0
  -25.4038  -15.1969   20.4127 N   0  0  0  0  0  0
  -31.6257  -15.2922   20.1320 O   0  0  0  0  0  0
  -21.6644   -6.8883   21.4242 O   0  0  0  0  0  0
  -22.3456  -14.5496   20.6744 O   0  0  0  0  0  0
  -24.6599  -31.8252   23.1717 C   0  0  0  0  0  0
  -25.9291  -32.4596   23.8175 C   0  0  1  0  0  0
  -27.2227  -26.9453   20.1894 C   0  0  0  0  0  0
  -25.5969  -33.8410   24.2082 N   0  0  0  0  0  0
  -23.4743  -30.4358   21.5198 C   0  0  2  0  0  0
  -24.9285  -28.8210   20.1157 C   0  0  0  0  0  0
  -22.7652  -29.4446   22.4789 C   0  0  0  0  0  0
  -18.0319  -28.1410   22.8469 C   0  0  0  0  0  0
  -24.1494  -36.7211   23.2650 C   0  0  0  0  0  0
  -26.0410  -30.6352   21.4018 C   0  0  0  0  0  0
  -26.1083  -29.2238   20.7538 C   0  0  0  0  0  0
  -27.2475  -28.3037   20.7717 C   0  0  0  0  0  0
  -26.0181  -26.6905   19.4983 C   0  0  0  0  0  0
  -24.9062  -27.5730   19.4704 C   0  0  0  0  0  0
  -23.7142  -29.7481   20.1469 C   0  0  0  0  0  0
  -25.4137  -36.2973   24.0300 C   0  0  1  0  0  0
  -20.5943  -28.3750   23.1196 C   0  0  2  0  0  0
  -20.6796  -26.9435   22.5405 C   0  0  0  0  0  0
  -19.5771  -26.6379   21.5216 C   0  0  0  0  0  0
  -18.1952  -26.7944   22.1623 C   0  0  0  0  0  0
  -19.1580  -28.8901   23.2820 C   0  0  0  0  0  0
  -18.9493  -30.1492   23.8854 C   0  0  0  0  0  0
  -17.6487  -30.6600   24.0557 C   0  0  0  0  0  0
  -25.9095  -34.9354   23.5012 C   0  0  0  0  0  0
  -16.5377  -29.9089   23.6344 C   0  0  0  0  0  0
  -16.7301  -28.6509   23.0362 C   0  0  0  0  0  0
  -26.4553  -31.6537   25.0698 C   0  0  0  0  0  0
  -25.3684  -31.3786   26.1357 C   0  0  0  0  0  0
  -27.0451  -30.2907   24.6421 C   0  0  0  0  0  0
  -27.6047  -32.4345   25.7498 C   0  0  0  0  0  0
  -27.5563  -37.1775   24.8476 C   0  0  0  0  0  0
  -21.4324  -29.3041   22.3541 N   0  0  0  0  0  0
  -26.4288  -37.3700   23.9393 N   0  0  0  0  0  0
  -24.7460  -30.9928   22.0847 N   0  0  0  0  0  0
  -23.4208  -28.8021   23.3029 O   0  0  0  0  0  0
  -28.2587  -25.8777   20.2125 O   0  0  0  0  0  0
  -26.5705  -34.8886   22.4608 O   0  0  0  0  0  0
  -23.5674  -32.1218   23.6818 O   0  0  0  0  0  0
  -28.0770  -20.3125   20.6106 C   0  0  0  0  0  0
  -28.2727  -18.8348   20.6575 C   0  0  0  0  0  0
  -30.4901  -19.0659   20.1263 C   0  0  0  0  0  0
  -29.0793  -21.3247   20.3118 C   0  0  0  0  0  0
  -29.4903  -18.0508   20.4259 C   0  0  0  0  0  0
  -30.3028  -20.5464   20.0773 C   0  0  0  0  0  0
  -29.0269  -23.0813   20.2873 C   0  0  0  0  0  0
  -29.5522  -16.4316   20.5083 N   0  0  0  0  0  0
  -27.8750  -24.2284   20.2741 N   0  0  0  0  0  0
  -31.4112  -21.2681   19.7859 F   0  0  0  0  0  0
  -31.4662  -12.9987   19.1970 H   0  0  0  0  0  0
  -30.5164  -11.8690   20.1148 H   0  0  0  0  0  0
  -29.9126  -11.7546   17.6736 H   0  0  0  0  0  0
  -29.5747  -13.4679   17.6585 H   0  0  0  0  0  0
  -28.0311  -11.2762   19.0674 H   0  0  0  0  0  0
  -27.4171  -12.3641   17.8481 H   0  0  0  0  0  0
  -27.5435  -14.2440   19.3472 H   0  0  0  0  0  0
  -28.8109  -12.4568   21.4787 H   0  0  0  0  0  0
  -28.2968  -14.1096   21.7211 H   0  0  0  0  0  0
  -25.2777   -9.5679   22.4765 H   0  0  0  0  0  0
  -24.0008   -7.4635   22.7477 H   0  0  0  0  0  0
  -21.0857   -8.8783   19.8951 H   0  0  0  0  0  0
  -22.3723  -10.9675   19.6167 H   0  0  0  0  0  0
  -21.2010   -7.6149   23.9717 H   0  0  0  0  0  0
  -21.1482   -6.0522   25.9077 H   0  0  0  0  0  0
  -22.0598   -2.7610   23.2845 H   0  0  0  0  0  0
  -22.4059  -11.9840   22.4841 H   0  0  0  0  0  0
  -21.1043  -13.1184   22.2661 H   0  0  0  0  0  0
  -24.6236  -15.8381   20.5082 H   0  0  0  0  0  0
  -26.2233  -15.6315   20.0105 H   0  0  0  0  0  0
  -26.7358  -32.5141   23.0889 H   0  0  0  0  0  0
  -25.0068  -33.9492   25.0200 H   0  0  0  0  0  0
  -22.7866  -31.2665   21.3481 H   0  0  0  0  0  0
  -23.3754  -35.9547   23.3323 H   0  0  0  0  0  0
  -24.3558  -36.8842   22.2062 H   0  0  0  0  0  0
  -23.7264  -37.6410   23.6696 H   0  0  0  0  0  0
  -26.2181  -31.3735   20.6186 H   0  0  0  0  0  0
  -26.9027  -30.6955   22.0546 H   0  0  0  0  0  0
  -28.1447  -28.6119   21.2895 H   0  0  0  0  0  0
  -25.9133  -25.7382   18.9981 H   0  0  0  0  0  0
  -24.0108  -27.2596   18.9514 H   0  0  0  0  0  0
  -23.8689  -30.5148   19.3868 H   0  0  0  0  0  0
  -22.8246  -29.2006   19.8306 H   0  0  0  0  0  0
  -25.1340  -36.1779   25.0794 H   0  0  0  0  0  0
  -21.0030  -28.3358   24.1319 H   0  0  0  0  0  0
  -20.5680  -26.2369   23.3643 H   0  0  0  0  0  0
  -21.6660  -26.7414   22.1210 H   0  0  0  0  0  0
  -19.6931  -25.6279   21.1274 H   0  0  0  0  0  0
  -19.6711  -27.3167   20.6729 H   0  0  0  0  0  0
  -17.4221  -26.6687   21.4027 H   0  0  0  0  0  0
  -18.0347  -26.0098   22.9032 H   0  0  0  0  0  0
  -19.7969  -30.7320   24.2202 H   0  0  0  0  0  0
  -17.5039  -31.6276   24.5167 H   0  0  0  0  0  0
  -15.5376  -30.2977   23.7695 H   0  0  0  0  0  0
  -15.8701  -28.0813   22.7102 H   0  0  0  0  0  0
  -24.5880  -30.7118   25.7669 H   0  0  0  0  0  0
  -24.8857  -32.2987   26.4660 H   0  0  0  0  0  0
  -25.7919  -30.9036   27.0216 H   0  0  0  0  0  0
  -26.3118  -29.6581   24.1407 H   0  0  0  0  0  0
  -27.3972  -29.7270   25.5071 H   0  0  0  0  0  0
  -27.9061  -30.4096   23.9840 H   0  0  0  0  0  0
  -27.2617  -33.3690   26.1950 H   0  0  0  0  0  0
  -28.3922  -32.6832   25.0372 H   0  0  0  0  0  0
  -28.0642  -31.8555   26.5518 H   0  0  0  0  0  0
  -28.2603  -38.0046   24.7459 H   0  0  0  0  0  0
  -28.1035  -36.2569   24.6391 H   0  0  0  0  0  0
  -27.2265  -37.1524   25.8877 H   0  0  0  0  0  0
  -20.9575  -29.8722   21.6665 H   0  0  0  0  0  0
  -26.0142  -38.2769   24.1361 H   0  0  0  0  0  0
  -27.0829  -20.6747   20.8318 H   0  0  0  0  0  0
  -27.3873  -18.2646   20.9024 H   0  0  0  0  0  0
  -31.4875  -18.7080   19.9168 H   0  0  0  0  0  0
  -29.6395  -23.3299   19.4203 H   0  0  0  0  0  0
  -29.6521  -23.3551   21.1378 H   0  0  0  0  0  0
  -28.6295  -16.0752   20.7059 H   0  0  0  0  0  0
  -27.3230  -24.1215   21.1210 H   0  0  0  0  0  0
  1 25  1  0  0  0
  1 30  2  0  0  0
  1 78  1  0  0  0
  2  3  1  0  0  0
  2 25  1  0  0  0
  2 81  1  0  0  0
  2 82  1  0  0  0
  3  4  1  0  0  0
  3 83  1  0  0  0
  3 84  1  0  0  0
  4  5  1  0  0  0
  4 85  1  0  0  0
  4 86  1  0  0  0
  5  6  1  0  0  0
  5 26  1  0  0  0
  5 87  1  0  0  0
  6 25  1  0  0  0
  6 88  1  0  0  0
  6 89  1  0  0  0
  7  8  2  0  0  0
  7 26  1  0  0  0
  7 29  1  0  0  0
  8  9  1  0  0  0
  8 22  1  0  0  0
  9 10  1  0  0  0
  9 27  2  0  0  0
 10 11  2  0  0  0
 10 15  1  0  0  0
 11 12  1  0  0  0
 11 90  1  0  0  0
 12 13  2  0  0  0
 12 91  1  0  0  0
 13 14  1  0  0  0
 13 31  1  0  0  0
 14 15  2  0  0  0
 14 92  1  0  0  0
 15 93  1  0  0  0
 16 17  2  0  0  0
 16 21  1  0  0  0
 16 31  1  0  0  0
 17 18  1  0  0  0
 17 94  1  0  0  0
 18 19  2  0  0  0
 18 95  1  0  0  0
 19 20  1  0  0  0
 19 24  1  0  0  0
 20 21  2  0  0  0
 20 96  1  0  0  0
 21 23  1  0  0  0
 22 28  1  0  0  0
 22 32  2  0  0  0
 26 27  1  0  0  0
 28 97  1  0  0  0
 28 98  1  0  0  0
 29 99  1  0  0  0
 29100  1  0  0  0
 33 34  1  0  0  0
 33 66  1  0  0  0
 33 70  2  0  0  0
 34 36  1  0  0  0
 34 59  1  0  0  0
 34101  1  0  0  0
 35 44  2  0  0  0
 35 45  1  0  0  0
 35 68  1  0  0  0
 36 56  1  0  0  0
 36102  1  0  0  0
 37 39  1  0  0  0
 37 47  1  0  0  0
 37 66  1  0  0  0
 37103  1  0  0  0
 38 43  2  0  0  0
 38 46  1  0  0  0
 38 47  1  0  0  0
 39 64  1  0  0  0
 39 67  2  0  0  0
 40 52  1  0  0  0
 40 53  2  0  0  0
 40 58  1  0  0  0
 41104  1  0  0  0
 41105  1  0  0  0
 41106  1  0  0  0
 41 48  1  0  0  0
 42 43  1  0  0  0
 42 66  1  0  0  0
 42107  1  0  0  0
 42108  1  0  0  0
 43 44  1  0  0  0
 44109  1  0  0  0
 45 46  2  0  0  0
 45110  1  0  0  0
 46111  1  0  0  0
 47112  1  0  0  0
 47113  1  0  0  0
 48 56  1  0  0  0
 48 65  1  0  0  0
 48114  1  0  0  0
 49 50  1  0  0  0
 49 53  1  0  0  0
 49 64  1  0  0  0
 49115  1  0  0  0
 50 51  1  0  0  0
 50116  1  0  0  0
 50117  1  0  0  0
 51 52  1  0  0  0
 51118  1  0  0  0
 51119  1  0  0  0
 52120  1  0  0  0
 52121  1  0  0  0
 53 54  1  0  0  0
 54 55  2  0  0  0
 54122  1  0  0  0
 55 57  1  0  0  0
 55123  1  0  0  0
 56 69  2  0  0  0
 57 58  2  0  0  0
 57124  1  0  0  0
 58125  1  0  0  0
 59 60  1  0  0  0
 59 61  1  0  0  0
 59 62  1  0  0  0
 60126  1  0  0  0
 60127  1  0  0  0
 60128  1  0  0  0
 61129  1  0  0  0
 61130  1  0  0  0
 61131  1  0  0  0
 62132  1  0  0  0
 62133  1  0  0  0
 62134  1  0  0  0
 63 65  1  0  0  0
 63135  1  0  0  0
 63136  1  0  0  0
 63137  1  0  0  0
 64138  1  0  0  0
 65139  1  0  0  0
 68 79  1  0  0  0
 71 72  2  0  0  0
 71 74  1  0  0  0
 71140  1  0  0  0
 72 75  1  0  0  0
 72141  1  0  0  0
 73 75  2  0  0  0
 73 76  1  0  0  0
 73142  1  0  0  0
 74 76  2  0  0  0
 74 77  1  0  0  0
 75 78  1  0  0  0
 76 80  1  0  0  0
 77 79  1  0  0  0
 77143  1  0  0  0
 77144  1  0  0  0
 78145  1  0  0  0
 79146  1  0  0  0
M  ISO  4   1 100  68 101  78 100  79 101
M  END
> <chiral flag>
0

> <version>
0

> <s_m_source_file>
/data/baiqing/PycharmProjects/Reinvent-master-3.2/result/LINK_invent/BTK/process_docking_weight1_custom_product_contain_oxygen_bond_distance_aromatic_linkinvent_7_9_3/rearranged_h_0006.sdf

> <i_m_source_file_index>
79

> <r_mmod_Potential_Energy-OPLS-2005>
1131.50427246094

> <r_mmod_Stretch_Energy-OPLS-2005>
494.5185546875

> <r_mmod_Bend_Energy-OPLS-2005>
431.97265625

> <r_mmod_Torsional_Energy-OPLS-2005>
213.545684814453

> <r_mmod_Improper_Torsional_Energy-OPLS-2005>
3.83938789367676

> <r_mmod_Van_der_Waal_Energy-OPLS-2005>
127.036819458008

> <r_mmod_Electrostatic_Energy-OPLS-2005>
-344.446197509766

> <r_mmod_Solvation_Energy-OPLS-2005>
-220.450500488281

> <b_mmod_Minimization_Converged-OPLS-2005>
0

> <r_mmod_RMS_Derivative-OPLS-2005>
0.236234650015831

$$$$
80
                    3D
 Structure written by MMmdl.
151159  0  0  1  0            999 V2000
  -30.5189  -14.9203   20.4310 C   0  0  0  0  0  0
  -30.4489  -12.5652   19.5002 C   0  0  0  0  0  0
  -29.5257  -12.5342   18.2582 C   0  0  0  0  0  0
  -28.0561  -12.3243   18.6711 C   0  0  0  0  0  0
  -27.6379  -13.2419   19.8494 C   0  0  2  0  0  0
  -28.6798  -13.2282   20.9895 C   0  0  0  0  0  0
  -25.2494  -13.8207   20.5704 C   0  0  0  0  0  0
  -24.1798  -13.0441   20.9222 C   0  0  0  0  0  0
  -24.6402  -11.6922   20.8752 C   0  0  0  0  0  0
  -23.9080  -10.4295   21.0407 C   0  0  0  0  0  0
  -24.3627   -9.4208   21.9185 C   0  0  0  0  0  0
  -23.6298   -8.2245   22.0754 C   0  0  0  0  0  0
  -22.4280   -8.0284   21.3545 C   0  0  0  0  0  0
  -21.9919   -9.0259   20.4646 C   0  0  0  0  0  0
  -22.7251  -10.2137   20.3057 C   0  0  0  0  0  0
  -21.6855   -6.0737   22.5279 C   0  0  0  0  0  0
  -21.4015   -6.5640   23.8212 C   0  0  0  0  0  0
  -21.3660   -5.6793   24.9174 C   0  0  0  0  0  0
  -21.6044   -4.3055   24.7224 C   0  0  0  0  0  0
  -21.8819   -3.8148   23.4345 C   0  0  0  0  0  0
  -21.9193   -4.6965   22.3402 C   0  0  0  0  0  0
  -22.7817  -13.5217   21.1876 C   0  0  0  0  0  0
  -22.1661   -4.2151   21.0980 F   0  0  0  0  0  0
  -21.5629   -3.4539   25.7736 F   0  0  0  0  0  0
  -29.9651  -13.6426   20.4085 N   0  0  0  0  0  0
  -26.2922  -12.9427   20.3273 N   0  0  0  0  0  0
  -25.9337  -11.6562   20.5748 N   0  0  0  0  0  0
  -22.0465  -12.8205   22.0430 N   0  0  0  0  0  0
  -25.4169  -15.1931   20.4104 N   0  0  0  0  0  0
  -31.6984  -15.0436   20.0811 O   0  0  0  0  0  0
  -21.6642   -6.8882   21.4241 O   0  0  0  0  0  0
  -22.3500  -14.5520   20.6719 O   0  0  0  0  0  0
  -24.6427  -31.8440   23.1885 C   0  0  0  0  0  0
  -25.9202  -32.4693   23.8271 C   0  0  1  0  0  0
  -27.2199  -27.1376   20.1420 C   0  0  0  0  0  0
  -25.5953  -33.8501   24.2187 N   0  0  0  0  0  0
  -23.4460  -30.4636   21.5339 C   0  0  2  0  0  0
  -24.8952  -28.8920   20.1072 C   0  0  0  0  0  0
  -22.7564  -29.4545   22.4859 C   0  0  0  0  0  0
  -18.0304  -28.1396   22.8478 C   0  0  0  0  0  0
  -24.1492  -36.7253   23.2643 C   0  0  0  0  0  0
  -26.0017  -30.7164   21.3886 C   0  0  0  0  0  0
  -26.0707  -29.3285   20.7289 C   0  0  0  0  0  0
  -27.2288  -28.4651   20.7340 C   0  0  0  0  0  0
  -26.0170  -26.8057   19.4769 C   0  0  0  0  0  0
  -24.8814  -27.6442   19.4677 C   0  0  0  0  0  0
  -23.6716  -29.7935   20.1524 C   0  0  0  0  0  0
  -25.4124  -36.3031   24.0316 C   0  0  1  0  0  0
  -20.5915  -28.3720   23.1237 C   0  0  2  0  0  0
  -20.6788  -26.9424   22.5405 C   0  0  0  0  0  0
  -19.5762  -26.6381   21.5213 C   0  0  0  0  0  0
  -18.1943  -26.7935   22.1624 C   0  0  0  0  0  0
  -19.1560  -28.8876   23.2849 C   0  0  0  0  0  0
  -18.9477  -30.1473   23.8874 C   0  0  0  0  0  0
  -17.6474  -30.6593   24.0560 C   0  0  0  0  0  0
  -25.9075  -34.9407   23.5061 C   0  0  0  0  0  0
  -16.5364  -29.9086   23.6338 C   0  0  0  0  0  0
  -16.7288  -28.6505   23.0357 C   0  0  0  0  0  0
  -26.4525  -31.6565   25.0716 C   0  0  0  0  0  0
  -25.3709  -31.3756   26.1409 C   0  0  0  0  0  0
  -27.0395  -30.2962   24.6303 C   0  0  0  0  0  0
  -27.6053  -32.4336   25.7500 C   0  0  0  0  0  0
  -27.5575  -37.1784   24.8466 C   0  0  0  0  0  0
  -21.4257  -29.3045   22.3609 N   0  0  0  0  0  0
  -26.4287  -37.3745   23.9409 N   0  0  0  0  0  0
  -24.7166  -31.0295   22.0920 N   0  0  0  0  0  0
  -23.4209  -28.8095   23.3009 O   0  0  0  0  0  0
  -28.2914  -26.1755   20.2509 O   0  0  0  0  0  0
  -26.5661  -34.8905   22.4640 O   0  0  0  0  0  0
  -23.5548  -32.1319   23.7106 O   0  0  0  0  0  0
  -28.6464  -19.8495   21.1383 C   0  0  0  0  0  0
  -30.3885  -18.3254   19.5844 C   0  0  0  0  0  0
  -28.7926  -18.4068   21.3251 C   0  0  0  0  0  0
  -29.6720  -17.5538   20.5537 C   0  0  0  0  0  0
  -29.3380  -20.6117   20.1416 C   0  0  0  0  0  0
  -30.2214  -19.7569   19.3862 C   0  0  0  0  0  0
  -27.9421  -17.7560   22.4024 C   0  0  0  0  0  0
  -28.2846  -24.7008   19.7400 C   0  0  0  0  0  0
  -28.6431  -23.2520   20.5335 C   0  0  0  0  0  0
  -29.6861  -16.0271   20.7295 N   0  0  0  0  0  0
  -29.1995  -22.0299   19.7845 O   0  0  0  0  0  0
  -30.9463  -20.3324   18.3961 F   0  0  0  0  0  0
  -31.4827  -12.7286   19.1918 H   0  0  0  0  0  0
  -30.4414  -11.6016   20.0122 H   0  0  0  0  0  0
  -29.8389  -11.7456   17.5727 H   0  0  0  0  0  0
  -29.6203  -13.4725   17.7094 H   0  0  0  0  0  0
  -27.9426  -11.2792   18.9618 H   0  0  0  0  0  0
  -27.3952  -12.4759   17.8168 H   0  0  0  0  0  0
  -27.6143  -14.2531   19.4423 H   0  0  0  0  0  0
  -28.7561  -12.2362   21.4374 H   0  0  0  0  0  0
  -28.3806  -13.9023   21.7936 H   0  0  0  0  0  0
  -25.2770   -9.5683   22.4761 H   0  0  0  0  0  0
  -24.0005   -7.4635   22.7474 H   0  0  0  0  0  0
  -21.0850   -8.8781   19.8952 H   0  0  0  0  0  0
  -22.3710  -10.9677   19.6167 H   0  0  0  0  0  0
  -21.2008   -7.6149   23.9716 H   0  0  0  0  0  0
  -21.1482   -6.0523   25.9077 H   0  0  0  0  0  0
  -22.0597   -2.7610   23.2845 H   0  0  0  0  0  0
  -22.4085  -11.9869   22.4819 H   0  0  0  0  0  0
  -21.1081  -13.1225   22.2634 H   0  0  0  0  0  0
  -24.6409  -15.8391   20.5053 H   0  0  0  0  0  0
  -26.2479  -15.6284   20.0320 H   0  0  0  0  0  0
  -26.7265  -32.5295   23.0996 H   0  0  0  0  0  0
  -25.0079  -33.9616   25.0321 H   0  0  0  0  0  0
  -22.7485  -31.2896   21.3802 H   0  0  0  0  0  0
  -23.3760  -35.9579   23.3293 H   0  0  0  0  0  0
  -24.3576  -36.8898   22.2060 H   0  0  0  0  0  0
  -23.7241  -37.6444   23.6688 H   0  0  0  0  0  0
  -26.1597  -31.4714   20.6171 H   0  0  0  0  0  0
  -26.8715  -30.7645   22.0321 H   0  0  0  0  0  0
  -28.1217  -28.7928   21.2478 H   0  0  0  0  0  0
  -25.8958  -25.8607   18.9755 H   0  0  0  0  0  0
  -23.9836  -27.3055   18.9688 H   0  0  0  0  0  0
  -23.8073  -30.5685   19.3972 H   0  0  0  0  0  0
  -22.7864  -29.2353   19.8422 H   0  0  0  0  0  0
  -25.1313  -36.1858   25.0808 H   0  0  0  0  0  0
  -21.0008  -28.3309   24.1359 H   0  0  0  0  0  0
  -20.5680  -26.2334   23.3624 H   0  0  0  0  0  0
  -21.6653  -26.7430   22.1202 H   0  0  0  0  0  0
  -19.6923  -25.6287   21.1256 H   0  0  0  0  0  0
  -19.6699  -27.3180   20.6733 H   0  0  0  0  0  0
  -17.4212  -26.6679   21.4027 H   0  0  0  0  0  0
  -18.0342  -26.0083   22.9026 H   0  0  0  0  0  0
  -19.7953  -30.7296   24.2231 H   0  0  0  0  0  0
  -17.5027  -31.6270   24.5167 H   0  0  0  0  0  0
  -15.5364  -30.2981   23.7676 H   0  0  0  0  0  0
  -15.8688  -28.0817   22.7084 H   0  0  0  0  0  0
  -24.5895  -30.7096   25.7730 H   0  0  0  0  0  0
  -24.8889  -32.2938   26.4776 H   0  0  0  0  0  0
  -25.7990  -30.8968   27.0225 H   0  0  0  0  0  0
  -26.3016  -29.6679   24.1302 H   0  0  0  0  0  0
  -27.3999  -29.7268   25.4880 H   0  0  0  0  0  0
  -27.8928  -30.4199   23.9631 H   0  0  0  0  0  0
  -27.2644  -33.3658   26.2017 H   0  0  0  0  0  0
  -28.3895  -32.6861   25.0351 H   0  0  0  0  0  0
  -28.0686  -31.8502   26.5466 H   0  0  0  0  0  0
  -28.2585  -38.0087   24.7512 H   0  0  0  0  0  0
  -28.1078  -36.2616   24.6294 H   0  0  0  0  0  0
  -27.2292  -37.1431   25.8869 H   0  0  0  0  0  0
  -20.9466  -29.8757   21.6787 H   0  0  0  0  0  0
  -26.0152  -38.2812   24.1411 H   0  0  0  0  0  0
  -27.9438  -20.3804   21.7642 H   0  0  0  0  0  0
  -31.0723  -17.8087   18.9274 H   0  0  0  0  0  0
  -27.4256  -18.4972   23.0127 H   0  0  0  0  0  0
  -28.5603  -17.1543   23.0695 H   0  0  0  0  0  0
  -27.1881  -17.1085   21.9545 H   0  0  0  0  0  0
  -27.3737  -24.4971   19.1877 H   0  0  0  0  0  0
  -29.0345  -24.7497   18.9505 H   0  0  0  0  0  0
  -27.7582  -22.9347   21.0854 H   0  0  0  0  0  0
  -29.3868  -23.4815   21.2966 H   0  0  0  0  0  0
  -28.8265  -15.6895   21.1342 H   0  0  0  0  0  0
  1 25  1  0  0  0
  1 30  2  0  0  0
  1 80  1  0  0  0
  2  3  1  0  0  0
  2 25  1  0  0  0
  2 83  1  0  0  0
  2 84  1  0  0  0
  3  4  1  0  0  0
  3 85  1  0  0  0
  3 86  1  0  0  0
  4  5  1  0  0  0
  4 87  1  0  0  0
  4 88  1  0  0  0
  5  6  1  0  0  0
  5 26  1  0  0  0
  5 89  1  0  0  0
  6 25  1  0  0  0
  6 90  1  0  0  0
  6 91  1  0  0  0
  7  8  2  0  0  0
  7 26  1  0  0  0
  7 29  1  0  0  0
  8  9  1  0  0  0
  8 22  1  0  0  0
  9 10  1  0  0  0
  9 27  2  0  0  0
 10 11  2  0  0  0
 10 15  1  0  0  0
 11 12  1  0  0  0
 11 92  1  0  0  0
 12 13  2  0  0  0
 12 93  1  0  0  0
 13 14  1  0  0  0
 13 31  1  0  0  0
 14 15  2  0  0  0
 14 94  1  0  0  0
 15 95  1  0  0  0
 16 17  2  0  0  0
 16 21  1  0  0  0
 16 31  1  0  0  0
 17 18  1  0  0  0
 17 96  1  0  0  0
 18 19  2  0  0  0
 18 97  1  0  0  0
 19 20  1  0  0  0
 19 24  1  0  0  0
 20 21  2  0  0  0
 20 98  1  0  0  0
 21 23  1  0  0  0
 22 28  1  0  0  0
 22 32  2  0  0  0
 26 27  1  0  0  0
 28 99  1  0  0  0
 28100  1  0  0  0
 29101  1  0  0  0
 29102  1  0  0  0
 33 34  1  0  0  0
 33 66  1  0  0  0
 33 70  2  0  0  0
 34 36  1  0  0  0
 34 59  1  0  0  0
 34103  1  0  0  0
 35 44  2  0  0  0
 35 45  1  0  0  0
 35 68  1  0  0  0
 36 56  1  0  0  0
 36104  1  0  0  0
 37 39  1  0  0  0
 37 47  1  0  0  0
 37 66  1  0  0  0
 37105  1  0  0  0
 38 43  2  0  0  0
 38 46  1  0  0  0
 38 47  1  0  0  0
 39 64  1  0  0  0
 39 67  2  0  0  0
 40 52  1  0  0  0
 40 53  2  0  0  0
 40 58  1  0  0  0
 41106  1  0  0  0
 41107  1  0  0  0
 41108  1  0  0  0
 41 48  1  0  0  0
 42 43  1  0  0  0
 42 66  1  0  0  0
 42109  1  0  0  0
 42110  1  0  0  0
 43 44  1  0  0  0
 44111  1  0  0  0
 45 46  2  0  0  0
 45112  1  0  0  0
 46113  1  0  0  0
 47114  1  0  0  0
 47115  1  0  0  0
 48 56  1  0  0  0
 48 65  1  0  0  0
 48116  1  0  0  0
 49 50  1  0  0  0
 49 53  1  0  0  0
 49 64  1  0  0  0
 49117  1  0  0  0
 50 51  1  0  0  0
 50118  1  0  0  0
 50119  1  0  0  0
 51 52  1  0  0  0
 51120  1  0  0  0
 51121  1  0  0  0
 52122  1  0  0  0
 52123  1  0  0  0
 53 54  1  0  0  0
 54 55  2  0  0  0
 54124  1  0  0  0
 55 57  1  0  0  0
 55125  1  0  0  0
 56 69  2  0  0  0
 57 58  2  0  0  0
 57126  1  0  0  0
 58127  1  0  0  0
 59 60  1  0  0  0
 59 61  1  0  0  0
 59 62  1  0  0  0
 60128  1  0  0  0
 60129  1  0  0  0
 60130  1  0  0  0
 61131  1  0  0  0
 61132  1  0  0  0
 61133  1  0  0  0
 62134  1  0  0  0
 62135  1  0  0  0
 62136  1  0  0  0
 63 65  1  0  0  0
 63137  1  0  0  0
 63138  1  0  0  0
 63139  1  0  0  0
 64140  1  0  0  0
 65141  1  0  0  0
 68 78  1  0  0  0
 71 73  2  0  0  0
 71 75  1  0  0  0
 71142  1  0  0  0
 72 74  2  0  0  0
 72 76  1  0  0  0
 72143  1  0  0  0
 73 74  1  0  0  0
 73 77  1  0  0  0
 74 80  1  0  0  0
 75 76  2  0  0  0
 75 81  1  0  0  0
 76 82  1  0  0  0
 77144  1  0  0  0
 77145  1  0  0  0
 77146  1  0  0  0
 78 79  1  0  0  0
 78147  1  0  0  0
 78148  1  0  0  0
 79 81  1  0  0  0
 79149  1  0  0  0
 79150  1  0  0  0
 80151  1  0  0  0
M  ISO  4   1 100  68 101  78 101  80 100
M  END
> <chiral flag>
0

> <version>
0

> <s_m_source_file>
/data/baiqing/PycharmProjects/Reinvent-master-3.2/result/LINK_invent/BTK/process_docking_weight1_custom_product_contain_oxygen_bond_distance_aromatic_linkinvent_7_9_3/rearranged_h_0006.sdf

> <i_m_source_file_index>
80

> <r_mmod_Potential_Energy-OPLS-2005>
484.711517333984

> <r_mmod_Stretch_Energy-OPLS-2005>
229.623840332031

> <r_mmod_Bend_Energy-OPLS-2005>
291.094299316406

> <r_mmod_Torsional_Energy-OPLS-2005>
215.976287841797

> <r_mmod_Improper_Torsional_Energy-OPLS-2005>
3.72254514694214

> <r_mmod_Van_der_Waal_Energy-OPLS-2005>
130.644683837891

> <r_mmod_Electrostatic_Energy-OPLS-2005>
-352.952209472656

> <r_mmod_Solvation_Energy-OPLS-2005>
-213.522888183594

> <b_mmod_Minimization_Converged-OPLS-2005>
0

> <r_mmod_RMS_Derivative-OPLS-2005>
0.15544182062149

$$$$
81
                    3D
 Structure written by MMmdl.
168177  0  0  1  0            999 V2000
  -30.7326  -14.3862   20.6280 C   0  0  0  0  0  0
  -30.4104  -12.2708   19.4124 C   0  0  0  0  0  0
  -29.4877  -12.5171   18.2023 C   0  0  0  0  0  0
  -28.0076  -12.3859   18.6120 C   0  0  0  0  0  0
  -27.6643  -13.2050   19.8848 C   0  0  2  0  0  0
  -28.6987  -12.9430   21.0021 C   0  0  0  0  0  0
  -25.2583  -13.8173   20.5695 C   0  0  0  0  0  0
  -24.1831  -13.0438   20.9169 C   0  0  0  0  0  0
  -24.6384  -11.6906   20.8718 C   0  0  0  0  0  0
  -23.9058  -10.4287   21.0387 C   0  0  0  0  0  0
  -24.3613   -9.4206   21.9177 C   0  0  0  0  0  0
  -23.6292   -8.2238   22.0754 C   0  0  0  0  0  0
  -22.4268   -8.0276   21.3544 C   0  0  0  0  0  0
  -21.9903   -9.0240   20.4636 C   0  0  0  0  0  0
  -22.7229  -10.2121   20.3038 C   0  0  0  0  0  0
  -21.6847   -6.0734   22.5281 C   0  0  0  0  0  0
  -21.4004   -6.5638   23.8210 C   0  0  0  0  0  0
  -21.3662   -5.6797   24.9176 C   0  0  0  0  0  0
  -21.6053   -4.3064   24.7227 C   0  0  0  0  0  0
  -21.8820   -3.8144   23.4346 C   0  0  0  0  0  0
  -21.9183   -4.6960   22.3404 C   0  0  0  0  0  0
  -22.7853  -13.5225   21.1847 C   0  0  0  0  0  0
  -22.1651   -4.2146   21.0980 F   0  0  0  0  0  0
  -21.5637   -3.4547   25.7739 F   0  0  0  0  0  0
  -30.0418  -13.2289   20.4649 N   0  0  0  0  0  0
  -26.3026  -12.9342   20.3399 N   0  0  0  0  0  0
  -25.9311  -11.6493   20.5765 N   0  0  0  0  0  0
  -22.0493  -12.8211   22.0399 N   0  0  0  0  0  0
  -25.4295  -15.1900   20.4134 N   0  0  0  0  0  0
  -31.8091  -14.6067   20.0633 O   0  0  0  0  0  0
  -21.6639   -6.8867   21.4237 O   0  0  0  0  0  0
  -22.3533  -14.5535   20.6709 O   0  0  0  0  0  0
  -24.6102  -31.8697   23.2117 C   0  0  0  0  0  0
  -25.9014  -32.4826   23.8403 C   0  0  1  0  0  0
  -27.2420  -27.4723   20.0680 C   0  0  0  0  0  0
  -25.5893  -33.8627   24.2333 N   0  0  0  0  0  0
  -23.3957  -30.4932   21.5517 C   0  0  2  0  0  0
  -24.8399  -28.9591   20.1159 C   0  0  0  0  0  0
  -22.7378  -29.4669   22.5011 C   0  0  0  0  0  0
  -18.0259  -28.1371   22.8500 C   0  0  0  0  0  0
  -24.1487  -36.7317   23.2641 C   0  0  0  0  0  0
  -25.9205  -30.8432   21.3599 C   0  0  0  0  0  0
  -25.9958  -29.4786   20.7095 C   0  0  0  0  0  0
  -27.1939  -28.7371   20.6914 C   0  0  0  0  0  0
  -26.0596  -26.9449   19.4981 C   0  0  0  0  0  0
  -24.8636  -27.6881   19.5151 C   0  0  0  0  0  0
  -23.5998  -29.8215   20.1668 C   0  0  0  0  0  0
  -25.4109  -36.3117   24.0342 C   0  0  1  0  0  0
  -20.5844  -28.3653   23.1334 C   0  0  2  0  0  0
  -20.6747  -26.9397   22.5422 C   0  0  0  0  0  0
  -19.5728  -26.6377   21.5218 C   0  0  0  0  0  0
  -18.1899  -26.7931   22.1608 C   0  0  0  0  0  0
  -19.1507  -28.8829   23.2912 C   0  0  0  0  0  0
  -18.9441  -30.1440   23.8909 C   0  0  0  0  0  0
  -17.6447  -30.6590   24.0555 C   0  0  0  0  0  0
  -25.9033  -34.9480   23.5133 C   0  0  0  0  0  0
  -16.5337  -29.9090   23.6328 C   0  0  0  0  0  0
  -16.7250  -28.6501   23.0364 C   0  0  0  0  0  0
  -26.4456  -31.6598   25.0720 C   0  0  0  0  0  0
  -25.3729  -31.3684   26.1469 C   0  0  0  0  0  0
  -27.0285  -30.3050   24.6069 C   0  0  0  0  0  0
  -27.6035  -32.4310   25.7491 C   0  0  0  0  0  0
  -27.5583  -37.1814   24.8465 C   0  0  0  0  0  0
  -21.4113  -29.3032   22.3752 N   0  0  0  0  0  0
  -26.4297  -37.3799   23.9409 N   0  0  0  0  0  0
  -24.6603  -31.0828   22.1001 N   0  0  0  0  0  0
  -23.4173  -28.8208   23.3032 O   0  0  0  0  0  0
  -28.4521  -26.8190   20.0650 O   0  0  0  0  0  0
  -26.5587  -34.8928   22.4688 O   0  0  0  0  0  0
  -23.5307  -32.1437   23.7537 O   0  0  0  0  0  0
  -31.1070  -19.4071   21.8629 C   0  0  0  0  0  0
  -30.5063  -18.6862   22.9151 C   0  0  0  0  0  0
  -31.0167  -17.4164   20.4642 C   0  0  0  0  0  0
  -31.3498  -18.7764   20.6213 C   0  0  0  0  0  0
  -30.4668  -16.6725   21.5364 C   0  0  0  0  0  0
  -30.1853  -17.3239   22.7534 C   0  0  0  0  0  0
  -31.6764  -22.9352   17.7294 C   0  0  0  0  0  0
  -31.0412  -23.7681   18.8528 C   0  0  0  0  0  0
  -29.3657  -22.1541   19.6228 C   0  0  0  0  0  0
  -32.2861  -21.6027   18.2016 C   0  0  0  0  0  0
  -29.9969  -20.9327   18.9141 C   0  0  0  0  0  0
  -31.9997  -19.5144   19.4524 C   0  0  0  0  0  0
  -28.9526  -24.4835   19.8089 C   0  0  0  0  0  0
  -28.7390  -25.8279   19.0832 C   0  0  0  0  0  0
  -29.6087  -23.4582   18.9824 N   0  0  0  0  0  0
  -30.1473  -15.2932   21.4224 N   0  0  0  0  0  0
  -31.4554  -20.8706   19.1919 N   0  3  1  0  0  0
  -29.6195  -16.6346   23.7743 F   0  0  0  0  0  0
  -31.4570  -12.3541   19.1159 H   0  0  0  0  0  0
  -30.2920  -11.2503   19.7810 H   0  0  0  0  0  0
  -29.7159  -11.8116   17.4023 H   0  0  0  0  0  0
  -29.6725  -13.5132   17.7962 H   0  0  0  0  0  0
  -27.8019  -11.3289   18.7857 H   0  0  0  0  0  0
  -27.3609  -12.6890   17.7877 H   0  0  0  0  0  0
  -27.7228  -14.2605   19.6162 H   0  0  0  0  0  0
  -28.6545  -11.8996   21.3186 H   0  0  0  0  0  0
  -28.4549  -13.5207   21.8939 H   0  0  0  0  0  0
  -25.2755   -9.5693   22.4761 H   0  0  0  0  0  0
  -23.9999   -7.4637   22.7485 H   0  0  0  0  0  0
  -21.0834   -8.8751   19.8944 H   0  0  0  0  0  0
  -22.3687  -10.9654   19.6141 H   0  0  0  0  0  0
  -21.1989   -7.6150   23.9717 H   0  0  0  0  0  0
  -21.1484   -6.0523   25.9080 H   0  0  0  0  0  0
  -22.0593   -2.7604   23.2852 H   0  0  0  0  0  0
  -22.4072  -11.9827   22.4731 H   0  0  0  0  0  0
  -21.1128  -13.1260   22.2638 H   0  0  0  0  0  0
  -24.6665  -15.8469   20.5361 H   0  0  0  0  0  0
  -26.2939  -15.6352   20.1306 H   0  0  0  0  0  0
  -26.7085  -32.5544   23.1174 H   0  0  0  0  0  0
  -25.0061  -33.9796   25.0489 H   0  0  0  0  0  0
  -22.6829  -31.3089   21.4137 H   0  0  0  0  0  0
  -23.3751  -35.9649   23.3308 H   0  0  0  0  0  0
  -24.3579  -36.8921   22.2053 H   0  0  0  0  0  0
  -23.7236  -37.6524   23.6647 H   0  0  0  0  0  0
  -26.0279  -31.6101   20.5912 H   0  0  0  0  0  0
  -26.8105  -30.8966   21.9755 H   0  0  0  0  0  0
  -28.0909  -29.1416   21.1395 H   0  0  0  0  0  0
  -26.0371  -25.9644   19.0461 H   0  0  0  0  0  0
  -23.9696  -27.2763   19.0668 H   0  0  0  0  0  0
  -23.6995  -30.5927   19.4021 H   0  0  0  0  0  0
  -22.7256  -29.2349   19.8784 H   0  0  0  0  0  0
  -25.1287  -36.1988   25.0838 H   0  0  0  0  0  0
  -20.9934  -28.3207   24.1454 H   0  0  0  0  0  0
  -20.5648  -26.2264   23.3603 H   0  0  0  0  0  0
  -21.6616  -26.7439   22.1210 H   0  0  0  0  0  0
  -19.6879  -25.6285   21.1252 H   0  0  0  0  0  0
  -19.6679  -27.3182   20.6747 H   0  0  0  0  0  0
  -17.4186  -26.6722   21.3985 H   0  0  0  0  0  0
  -18.0255  -26.0052   22.8972 H   0  0  0  0  0  0
  -19.7917  -30.7253   24.2278 H   0  0  0  0  0  0
  -17.5007  -31.6281   24.5136 H   0  0  0  0  0  0
  -15.5341  -30.3005   23.7643 H   0  0  0  0  0  0
  -15.8643  -28.0830   22.7083 H   0  0  0  0  0  0
  -24.5936  -30.6988   25.7814 H   0  0  0  0  0  0
  -24.8878  -32.2824   26.4904 H   0  0  0  0  0  0
  -25.8094  -30.8882   27.0234 H   0  0  0  0  0  0
  -26.2820  -29.6818   24.1130 H   0  0  0  0  0  0
  -27.4077  -29.7273   25.4508 H   0  0  0  0  0  0
  -27.8643  -30.4380   23.9195 H   0  0  0  0  0  0
  -27.2657  -33.3597   26.2102 H   0  0  0  0  0  0
  -28.3841  -32.6882   25.0320 H   0  0  0  0  0  0
  -28.0708  -31.8409   26.5384 H   0  0  0  0  0  0
  -28.2606  -38.0108   24.7514 H   0  0  0  0  0  0
  -28.1073  -36.2639   24.6288 H   0  0  0  0  0  0
  -27.2296  -37.1451   25.8867 H   0  0  0  0  0  0
  -20.9260  -29.8787   21.7012 H   0  0  0  0  0  0
  -26.0189  -38.2881   24.1402 H   0  0  0  0  0  0
  -31.3699  -20.4435   22.0223 H   0  0  0  0  0  0
  -30.3002  -19.1757   23.8562 H   0  0  0  0  0  0
  -31.2066  -16.9433   19.5111 H   0  0  0  0  0  0
  -32.4784  -23.5161   17.2719 H   0  0  0  0  0  0
  -30.9585  -22.7717   16.9234 H   0  0  0  0  0  0
  -31.1820  -24.8096   18.5710 H   0  0  0  0  0  0
  -31.5723  -23.6512   19.7997 H   0  0  0  0  0  0
  -29.6713  -22.1757   20.6709 H   0  0  0  0  0  0
  -28.2863  -21.9918   19.6370 H   0  0  0  0  0  0
  -33.2669  -21.7884   18.6430 H   0  0  0  0  0  0
  -32.4588  -20.9727   17.3273 H   0  0  0  0  0  0
  -29.7821  -20.9149   17.8448 H   0  0  0  0  0  0
  -29.5028  -20.0467   19.3122 H   0  0  0  0  0  0
  -31.9064  -18.9191   18.5425 H   0  0  0  0  0  0
  -33.0678  -19.5850   19.6629 H   0  0  0  0  0  0
  -27.9703  -24.1373   20.1368 H   0  0  0  0  0  0
  -29.5346  -24.6427   20.7193 H   0  0  0  0  0  0
  -28.0056  -25.7378   18.2833 H   0  0  0  0  0  0
  -29.6444  -26.1731   18.5891 H   0  0  0  0  0  0
  -29.3790  -14.9667   21.9901 H   0  0  0  0  0  0
  -31.5697  -21.3633   20.0625 H   0  0  0  0  0  0
  1 25  1  0  0  0
  1 30  2  0  0  0
  1 86  1  0  0  0
  2  3  1  0  0  0
  2 25  1  0  0  0
  2 89  1  0  0  0
  2 90  1  0  0  0
  3  4  1  0  0  0
  3 91  1  0  0  0
  3 92  1  0  0  0
  4  5  1  0  0  0
  4 93  1  0  0  0
  4 94  1  0  0  0
  5  6  1  0  0  0
  5 26  1  0  0  0
  5 95  1  0  0  0
  6 25  1  0  0  0
  6 96  1  0  0  0
  6 97  1  0  0  0
  7  8  2  0  0  0
  7 26  1  0  0  0
  7 29  1  0  0  0
  8  9  1  0  0  0
  8 22  1  0  0  0
  9 10  1  0  0  0
  9 27  2  0  0  0
 10 11  2  0  0  0
 10 15  1  0  0  0
 11 12  1  0  0  0
 11 98  1  0  0  0
 12 13  2  0  0  0
 12 99  1  0  0  0
 13 14  1  0  0  0
 13 31  1  0  0  0
 14 15  2  0  0  0
 14100  1  0  0  0
 15101  1  0  0  0
 16 17  2  0  0  0
 16 21  1  0  0  0
 16 31  1  0  0  0
 17 18  1  0  0  0
 17102  1  0  0  0
 18 19  2  0  0  0
 18103  1  0  0  0
 19 20  1  0  0  0
 19 24  1  0  0  0
 20 21  2  0  0  0
 20104  1  0  0  0
 21 23  1  0  0  0
 22 28  1  0  0  0
 22 32  2  0  0  0
 26 27  1  0  0  0
 28105  1  0  0  0
 28106  1  0  0  0
 29107  1  0  0  0
 29108  1  0  0  0
 33 34  1  0  0  0
 33 66  1  0  0  0
 33 70  2  0  0  0
 34 36  1  0  0  0
 34 59  1  0  0  0
 34109  1  0  0  0
 35 44  2  0  0  0
 35 45  1  0  0  0
 35 68  1  0  0  0
 36 56  1  0  0  0
 36110  1  0  0  0
 37 39  1  0  0  0
 37 47  1  0  0  0
 37 66  1  0  0  0
 37111  1  0  0  0
 38 43  2  0  0  0
 38 46  1  0  0  0
 38 47  1  0  0  0
 39 64  1  0  0  0
 39 67  2  0  0  0
 40 52  1  0  0  0
 40 53  2  0  0  0
 40 58  1  0  0  0
 41112  1  0  0  0
 41113  1  0  0  0
 41114  1  0  0  0
 41 48  1  0  0  0
 42 43  1  0  0  0
 42 66  1  0  0  0
 42115  1  0  0  0
 42116  1  0  0  0
 43 44  1  0  0  0
 44117  1  0  0  0
 45 46  2  0  0  0
 45118  1  0  0  0
 46119  1  0  0  0
 47120  1  0  0  0
 47121  1  0  0  0
 48 56  1  0  0  0
 48 65  1  0  0  0
 48122  1  0  0  0
 49 50  1  0  0  0
 49 53  1  0  0  0
 49 64  1  0  0  0
 49123  1  0  0  0
 50 51  1  0  0  0
 50124  1  0  0  0
 50125  1  0  0  0
 51 52  1  0  0  0
 51126  1  0  0  0
 51127  1  0  0  0
 52128  1  0  0  0
 52129  1  0  0  0
 53 54  1  0  0  0
 54 55  2  0  0  0
 54130  1  0  0  0
 55 57  1  0  0  0
 55131  1  0  0  0
 56 69  2  0  0  0
 57 58  2  0  0  0
 57132  1  0  0  0
 58133  1  0  0  0
 59 60  1  0  0  0
 59 61  1  0  0  0
 59 62  1  0  0  0
 60134  1  0  0  0
 60135  1  0  0  0
 60136  1  0  0  0
 61137  1  0  0  0
 61138  1  0  0  0
 61139  1  0  0  0
 62140  1  0  0  0
 62141  1  0  0  0
 62142  1  0  0  0
 63 65  1  0  0  0
 63143  1  0  0  0
 63144  1  0  0  0
 63145  1  0  0  0
 64146  1  0  0  0
 65147  1  0  0  0
 68 84  1  0  0  0
 71 72  2  0  0  0
 71 74  1  0  0  0
 71148  1  0  0  0
 72 76  1  0  0  0
 72149  1  0  0  0
 73 74  2  0  0  0
 73 75  1  0  0  0
 73150  1  0  0  0
 74 82  1  0  0  0
 75 76  2  0  0  0
 75 86  1  0  0  0
 76 88  1  0  0  0
 77 78  1  0  0  0
 77 80  1  0  0  0
 77151  1  0  0  0
 77152  1  0  0  0
 78 85  1  0  0  0
 78153  1  0  0  0
 78154  1  0  0  0
 79 81  1  0  0  0
 79 85  1  0  0  0
 79155  1  0  0  0
 79156  1  0  0  0
 80 87  1  0  0  0
 80157  1  0  0  0
 80158  1  0  0  0
 81 87  1  0  0  0
 81159  1  0  0  0
 81160  1  0  0  0
 82161  1  0  0  0
 82162  1  0  0  0
 82 87  1  0  0  0
 83 84  1  0  0  0
 83 85  1  0  0  0
 83163  1  0  0  0
 83164  1  0  0  0
 84165  1  0  0  0
 84166  1  0  0  0
 86167  1  0  0  0
 87168  1  0  0  0
M  CHG  1  87   1
M  ISO  4   1 100  68 101  84 101  86 100
M  END
> <chiral flag>
0

> <version>
0

> <s_m_source_file>
/data/baiqing/PycharmProjects/Reinvent-master-3.2/result/LINK_invent/BTK/process_docking_weight1_custom_product_contain_oxygen_bond_distance_aromatic_linkinvent_7_9_3/rearranged_h_0006.sdf

> <i_m_source_file_index>
81

> <r_mmod_Potential_Energy-OPLS-2005>
-134.897583007812

> <r_mmod_Stretch_Energy-OPLS-2005>
35.81689453125

> <r_mmod_Bend_Energy-OPLS-2005>
114.995254516602

> <r_mmod_Torsional_Energy-OPLS-2005>
240.508834838867

> <r_mmod_Improper_Torsional_Energy-OPLS-2005>
2.00008130073547

> <r_mmod_Van_der_Waal_Energy-OPLS-2005>
178.176651000977

> <r_mmod_Electrostatic_Energy-OPLS-2005>
-272.590209960938

> <r_mmod_Solvation_Energy-OPLS-2005>
-442.157440185547

> <b_mmod_Minimization_Converged-OPLS-2005>
0

> <r_mmod_RMS_Derivative-OPLS-2005>
1.38082003593445

$$$$
82
                    3D
 Structure written by MMmdl.
172181  0  0  1  0            999 V2000
  -29.3645  -14.0579   21.0792 C   0  0  0  0  0  0
  -30.4896  -12.5714   19.3053 C   0  0  0  0  0  0
  -29.6470  -12.6383   17.9657 C   0  0  0  0  0  0
  -28.1154  -12.3312   18.0256 C   0  0  0  0  0  0
  -27.6368  -12.9082   19.2915 C   0  0  2  0  0  0
  -28.5389  -12.1084   20.3690 C   0  0  0  0  0  0
  -25.3662  -14.3031   20.0352 C   0  0  0  0  0  0
  -24.4778  -14.0989   21.3564 C   0  0  0  0  0  0
  -25.1694  -11.5889   21.7056 C   0  0  0  0  0  0
  -24.3979  -10.1686   21.4796 C   0  0  0  0  0  0
  -24.4629   -9.1810   22.4326 C   0  0  0  0  0  0
  -23.6268   -8.0514   22.3923 C   0  0  0  0  0  0
  -22.5592   -7.9152   21.4721 C   0  0  0  0  0  0
  -22.4787   -8.8375   20.4451 C   0  0  0  0  0  0
  -23.4857   -9.8085   20.3752 C   0  0  0  0  0  0
  -21.6299   -6.0521   22.5664 C   0  0  0  0  0  0
  -21.3319   -6.5296   23.8651 C   0  0  0  0  0  0
  -21.3011   -5.6356   24.9476 C   0  0  0  0  0  0
  -21.5823   -4.2750   24.7415 C   0  0  0  0  0  0
  -21.8906   -3.7999   23.4532 C   0  0  0  0  0  0
  -21.9067   -4.6875   22.3646 C   0  0  0  0  0  0
  -23.0218  -14.7835   21.2277 C   0  0  0  0  0  0
  -22.1767   -4.2257   21.1192 F   0  0  0  0  0  0
  -21.5418   -3.4169   25.7859 F   0  0  0  0  0  0
  -29.6540  -12.8977   20.4793 N   0  0  0  0  0  0
  -26.2380  -12.8902   19.5864 N   0  0  0  0  0  0
  -26.0945  -11.4811   20.4131 N   0  0  0  0  0  0
  -22.0690  -14.6402   22.1509 N   0  0  0  0  0  0
  -25.7039  -15.5585   19.6425 N   0  0  0  0  0  0
  -30.3406  -14.8697   20.9230 O   0  0  0  0  0  0
  -21.6495   -6.8957   21.4904 O   0  0  0  0  0  0
  -22.5703  -15.1094   20.1560 O   0  0  0  0  0  0
  -24.6401  -31.8486   23.1993 C   0  0  0  0  0  0
  -25.9230  -32.4678   23.8323 C   0  0  1  0  0  0
  -26.9979  -27.0261   20.3348 C   0  0  0  0  0  0
  -25.6035  -33.8494   24.2233 N   0  0  0  0  0  0
  -23.4331  -30.4917   21.5337 C   0  0  2  0  0  0
  -24.8625  -28.9274   20.0847 C   0  0  0  0  0  0
  -22.7505  -29.4648   22.4743 C   0  0  0  0  0  0
  -18.0306  -28.1394   22.8464 C   0  0  0  0  0  0
  -24.1483  -36.7207   23.2642 C   0  0  0  0  0  0
  -25.9943  -30.6984   21.4164 C   0  0  0  0  0  0
  -26.0314  -29.3093   20.7631 C   0  0  0  0  0  0
  -27.1213  -28.3684   20.8701 C   0  0  0  0  0  0
  -25.8823  -26.7833   19.5252 C   0  0  0  0  0  0
  -24.8169  -27.6942   19.4215 C   0  0  0  0  0  0
  -23.6593  -29.8545   20.1353 C   0  0  0  0  0  0
  -25.4122  -36.2999   24.0309 C   0  0  1  0  0  0
  -20.5920  -28.3748   23.1173 C   0  0  2  0  0  0
  -20.6798  -26.9449   22.5365 C   0  0  0  0  0  0
  -19.5775  -26.6374   21.5174 C   0  0  0  0  0  0
  -18.1959  -26.7933   22.1598 C   0  0  0  0  0  0
  -19.1566  -28.8875   23.2826 C   0  0  0  0  0  0
  -18.9500  -30.1475   23.8850 C   0  0  0  0  0  0
  -17.6505  -30.6597   24.0561 C   0  0  0  0  0  0
  -25.9102  -34.9384   23.5051 C   0  0  0  0  0  0
  -16.5389  -29.9089   23.6359 C   0  0  0  0  0  0
  -16.7296  -28.6503   23.0377 C   0  0  0  0  0  0
  -26.4578  -31.6570   25.0769 C   0  0  0  0  0  0
  -25.3768  -31.3822   26.1473 C   0  0  0  0  0  0
  -27.0481  -30.2935   24.6463 C   0  0  0  0  0  0
  -27.6067  -32.4384   25.7586 C   0  0  0  0  0  0
  -27.5564  -37.1759   24.8462 C   0  0  0  0  0  0
  -21.4214  -29.3094   22.3517 N   0  0  0  0  0  0
  -26.4269  -37.3731   23.9416 N   0  0  0  0  0  0
  -24.7079  -31.0376   22.1011 N   0  0  0  0  0  0
  -23.4177  -28.8205   23.2889 O   0  0  0  0  0  0
  -27.7881  -25.8609   20.6036 O   0  0  0  0  0  0
  -26.5660  -34.8885   22.4621 O   0  0  0  0  0  0
  -23.5542  -32.1428   23.7228 O   0  0  0  0  0  0
  -23.2665  -12.5655   23.0116 C   0  0  0  0  0  0
  -25.9632  -13.4387   23.2886 C   0  0  0  0  0  0
  -23.9801  -12.4327   20.1823 C   0  0  0  0  0  0
  -24.4976  -13.4007   23.6941 C   0  0  0  0  0  0
  -22.8535  -12.2115   21.4343 C   0  0  0  0  0  0
  -26.4212  -13.3340   21.8350 C   0  0  0  0  0  0
  -25.4891  -17.4998   23.2695 C   0  0  0  0  0  0
  -23.7882  -18.8338   21.9271 C   0  0  0  0  0  0
  -24.7245  -20.6202   20.7249 C   0  0  0  0  0  0
  -25.0872  -19.0647   22.7143 C   0  0  2  0  0  0
  -25.8565  -20.3420   21.7617 C   0  0  2  0  0  0
  -24.3551  -14.9953   24.2252 C   0  0  0  0  0  0
  -26.8495  -22.9771   21.1214 C   0  0  0  0  0  0
  -27.1681  -24.6494   21.4444 C   0  0  0  0  0  0
  -21.4088  -11.7629   21.1173 C   0  0  0  0  0  0
  -27.9369  -14.1444   21.6677 N   0  0  0  0  0  0
  -24.5698  -16.3870   23.4057 N   0  0  0  0  0  0
  -26.3532  -21.8244   22.1280 N   0  0  0  0  0  0
  -23.4684  -20.0900   21.2635 N   0  3  0  0  0  0
  -26.6406  -17.3439   23.6811 O   0  0  0  0  0  0
  -21.0530  -10.7454   21.9005 F   0  0  0  0  0  0
  -20.4852  -12.7019   21.3007 F   0  0  0  0  0  0
  -21.3110  -11.3990   19.8394 F   0  0  0  0  0  0
  -31.3315  -13.2607   19.2440 H   0  0  0  0  0  0
  -30.9202  -11.5773   19.4319 H   0  0  0  0  0  0
  -30.1111  -12.0120   17.2046 H   0  0  0  0  0  0
  -29.7353  -13.6617   17.5880 H   0  0  0  0  0  0
  -27.9025  -11.2629   17.9672 H   0  0  0  0  0  0
  -27.5943  -12.7991   17.1850 H   0  0  0  0  0  0
  -27.8393  -13.9693   19.1414 H   0  0  0  0  0  0
  -28.7872  -11.1091   20.0030 H   0  0  0  0  0  0
  -28.2111  -11.8150   21.3715 H   0  0  0  0  0  0
  -25.1521   -9.2703   23.2542 H   0  0  0  0  0  0
  -23.7865   -7.3118   23.1585 H   0  0  0  0  0  0
  -21.7329   -8.7374   19.6712 H   0  0  0  0  0  0
  -23.4744  -10.3231   19.4345 H   0  0  0  0  0  0
  -21.1259   -7.5760   24.0375 H   0  0  0  0  0  0
  -21.0415   -5.9816   25.9407 H   0  0  0  0  0  0
  -22.1102   -2.7536   23.3065 H   0  0  0  0  0  0
  -22.2933  -14.2427   23.0462 H   0  0  0  0  0  0
  -21.1162  -14.9005   21.9325 H   0  0  0  0  0  0
  -25.1150  -16.3557   19.8348 H   0  0  0  0  0  0
  -26.3712  -15.7427   18.9031 H   0  0  0  0  0  0
  -26.7271  -32.5250   23.1023 H   0  0  0  0  0  0
  -25.0244  -33.9640   25.0417 H   0  0  0  0  0  0
  -22.7345  -31.3230   21.3987 H   0  0  0  0  0  0
  -23.3763  -35.9522   23.3291 H   0  0  0  0  0  0
  -24.3570  -36.8857   22.2063 H   0  0  0  0  0  0
  -23.7231  -37.6387   23.6703 H   0  0  0  0  0  0
  -26.1892  -31.4536   20.6534 H   0  0  0  0  0  0
  -26.8494  -30.7195   22.0800 H   0  0  0  0  0  0
  -27.9809  -28.6146   21.4776 H   0  0  0  0  0  0
  -25.7684  -25.8120   19.0635 H   0  0  0  0  0  0
  -23.9393  -27.4113   18.8565 H   0  0  0  0  0  0
  -23.8220  -30.6478   19.4049 H   0  0  0  0  0  0
  -22.7596  -29.3335   19.7992 H   0  0  0  0  0  0
  -25.1319  -36.1810   25.0804 H   0  0  0  0  0  0
  -21.0046  -28.3370   24.1283 H   0  0  0  0  0  0
  -20.5655  -26.2396   23.3614 H   0  0  0  0  0  0
  -21.6687  -26.7451   22.1213 H   0  0  0  0  0  0
  -19.6955  -25.6256   21.1282 H   0  0  0  0  0  0
  -19.6707  -27.3119   20.6651 H   0  0  0  0  0  0
  -17.4229  -26.6660   21.4013 H   0  0  0  0  0  0
  -18.0388  -26.0067   22.8988 H   0  0  0  0  0  0
  -19.7986  -30.7293   24.2194 H   0  0  0  0  0  0
  -17.5077  -31.6281   24.5169 H   0  0  0  0  0  0
  -15.5398  -30.2998   23.7703 H   0  0  0  0  0  0
  -15.8689  -28.0808   22.7140 H   0  0  0  0  0  0
  -24.5868  -30.7264   25.7807 H   0  0  0  0  0  0
  -24.9089  -32.3061   26.4883 H   0  0  0  0  0  0
  -25.8037  -30.8978   27.0267 H   0  0  0  0  0  0
  -26.3126  -29.6575   24.1522 H   0  0  0  0  0  0
  -27.4081  -29.7328   25.5107 H   0  0  0  0  0  0
  -27.9056  -30.4103   23.9828 H   0  0  0  0  0  0
  -27.2568  -33.3646   26.2173 H   0  0  0  0  0  0
  -28.3903  -32.7034   25.0466 H   0  0  0  0  0  0
  -28.0739  -31.8547   26.5541 H   0  0  0  0  0  0
  -28.2564  -38.0072   24.7535 H   0  0  0  0  0  0
  -28.1074  -36.2604   24.6253 H   0  0  0  0  0  0
  -27.2283  -37.1354   25.8863 H   0  0  0  0  0  0
  -20.9364  -29.8801   21.6732 H   0  0  0  0  0  0
  -26.0107  -38.2774   24.1480 H   0  0  0  0  0  0
  -22.4013  -12.4968   23.6573 H   0  0  0  0  0  0
  -26.6490  -13.9821   23.9247 H   0  0  0  0  0  0
  -23.8156  -12.3681   19.1112 H   0  0  0  0  0  0
  -22.9652  -18.4941   22.5593 H   0  0  0  0  0  0
  -23.9476  -18.0832   21.1479 H   0  0  0  0  0  0
  -24.9451  -20.1445   19.7683 H   0  0  0  0  0  0
  -24.5341  -21.6708   20.5136 H   0  0  0  0  0  0
  -24.8085  -19.5738   23.6374 H   0  0  0  0  0  0
  -26.6856  -19.8811   21.2201 H   0  0  0  0  0  0
  -24.9625  -15.0849   25.1291 H   0  0  0  0  0  0
  -23.3294  -15.0794   24.5937 H   0  0  0  0  0  0
  -27.7477  -22.5829   20.6458 H   0  0  0  0  0  0
  -26.1257  -23.0158   20.3102 H   0  0  0  0  0  0
  -27.8362  -24.6095   22.3036 H   0  0  0  0  0  0
  -26.2438  -25.0448   21.8676 H   0  0  0  0  0  0
  -27.9032  -15.0292   22.1565 H   0  0  0  0  0  0
  -23.6790  -16.6410   23.0060 H   0  0  0  0  0  0
  -25.6654  -22.2416   22.7496 H   0  0  0  0  0  0
  -23.0871  -20.7249   21.9455 H   0  0  0  0  0  0
  -22.7811  -19.9571   20.5397 H   0  0  0  0  0  0
  1 25  1  0  0  0
  1 30  2  0  0  0
  1 86  1  0  0  0
  2  3  1  0  0  0
  2 25  1  0  0  0
  2 94  1  0  0  0
  2 95  1  0  0  0
  3  4  1  0  0  0
  3 96  1  0  0  0
  3 97  1  0  0  0
  4  5  1  0  0  0
  4 98  1  0  0  0
  4 99  1  0  0  0
  5  6  1  0  0  0
  5 26  1  0  0  0
  5100  1  0  0  0
  6 25  1  0  0  0
  6101  1  0  0  0
  6102  1  0  0  0
  7  8  2  0  0  0
  7 26  1  0  0  0
  7 29  1  0  0  0
  8  9  1  0  0  0
  8 22  1  0  0  0
  9 10  1  0  0  0
  9 27  2  0  0  0
 10 11  2  0  0  0
 10 15  1  0  0  0
 11 12  1  0  0  0
 11103  1  0  0  0
 12 13  2  0  0  0
 12104  1  0  0  0
 13 14  1  0  0  0
 13 31  1  0  0  0
 14 15  2  0  0  0
 14105  1  0  0  0
 15106  1  0  0  0
 16 17  2  0  0  0
 16 21  1  0  0  0
 16 31  1  0  0  0
 17 18  1  0  0  0
 17107  1  0  0  0
 18 19  2  0  0  0
 18108  1  0  0  0
 19 20  1  0  0  0
 19 24  1  0  0  0
 20 21  2  0  0  0
 20109  1  0  0  0
 21 23  1  0  0  0
 22 28  1  0  0  0
 22 32  2  0  0  0
 26 27  1  0  0  0
 28110  1  0  0  0
 28111  1  0  0  0
 29112  1  0  0  0
 29113  1  0  0  0
 33 34  1  0  0  0
 33 66  1  0  0  0
 33 70  2  0  0  0
 34 36  1  0  0  0
 34 59  1  0  0  0
 34114  1  0  0  0
 35 44  2  0  0  0
 35 45  1  0  0  0
 35 68  1  0  0  0
 36 56  1  0  0  0
 36115  1  0  0  0
 37 39  1  0  0  0
 37 47  1  0  0  0
 37 66  1  0  0  0
 37116  1  0  0  0
 38 43  2  0  0  0
 38 46  1  0  0  0
 38 47  1  0  0  0
 39 64  1  0  0  0
 39 67  2  0  0  0
 40 52  1  0  0  0
 40 53  2  0  0  0
 40 58  1  0  0  0
 41117  1  0  0  0
 41118  1  0  0  0
 41119  1  0  0  0
 41 48  1  0  0  0
 42 43  1  0  0  0
 42 66  1  0  0  0
 42120  1  0  0  0
 42121  1  0  0  0
 43 44  1  0  0  0
 44122  1  0  0  0
 45 46  2  0  0  0
 45123  1  0  0  0
 46124  1  0  0  0
 47125  1  0  0  0
 47126  1  0  0  0
 48 56  1  0  0  0
 48 65  1  0  0  0
 48127  1  0  0  0
 49 50  1  0  0  0
 49 53  1  0  0  0
 49 64  1  0  0  0
 49128  1  0  0  0
 50 51  1  0  0  0
 50129  1  0  0  0
 50130  1  0  0  0
 51 52  1  0  0  0
 51131  1  0  0  0
 51132  1  0  0  0
 52133  1  0  0  0
 52134  1  0  0  0
 53 54  1  0  0  0
 54 55  2  0  0  0
 54135  1  0  0  0
 55 57  1  0  0  0
 55136  1  0  0  0
 56 69  2  0  0  0
 57 58  2  0  0  0
 57137  1  0  0  0
 58138  1  0  0  0
 59 60  1  0  0  0
 59 61  1  0  0  0
 59 62  1  0  0  0
 60139  1  0  0  0
 60140  1  0  0  0
 60141  1  0  0  0
 61142  1  0  0  0
 61143  1  0  0  0
 61144  1  0  0  0
 62145  1  0  0  0
 62146  1  0  0  0
 62147  1  0  0  0
 63 65  1  0  0  0
 63148  1  0  0  0
 63149  1  0  0  0
 63150  1  0  0  0
 64151  1  0  0  0
 65152  1  0  0  0
 68 84  1  0  0  0
 71 74  2  0  0  0
 71 75  1  0  0  0
 71153  1  0  0  0
 72 74  1  0  0  0
 72 76  2  0  0  0
 72154  1  0  0  0
 73 75  2  0  0  0
 73 76  1  0  0  0
 73155  1  0  0  0
 74 82  1  0  0  0
 75 85  1  0  0  0
 76 86  1  0  0  0
 77 87  1  0  0  0
 77 90  2  0  0  0
 77 80  1  0  0  0
 78 80  1  0  0  0
 78 89  1  0  0  0
 78156  1  0  0  0
 78157  1  0  0  0
 79 81  1  0  0  0
 79 89  1  0  0  0
 79158  1  0  0  0
 79159  1  0  0  0
 80 81  1  0  0  0
 80160  1  0  0  0
 81 88  1  0  0  0
 81161  1  0  0  0
 82 87  1  0  0  0
 82162  1  0  0  0
 82163  1  0  0  0
 83 84  1  0  0  0
 83 88  1  0  0  0
 83164  1  0  0  0
 83165  1  0  0  0
 84166  1  0  0  0
 84167  1  0  0  0
 85 91  1  0  0  0
 85 92  1  0  0  0
 85 93  1  0  0  0
 86168  1  0  0  0
 87169  1  0  0  0
 88170  1  0  0  0
 89171  1  0  0  0
 89172  1  0  0  0
M  CHG  1  89   1
M  ISO  4   1 100  68 101  84 101  86 100
M  END
> <chiral flag>
0

> <version>
0

> <s_m_source_file>
/data/baiqing/PycharmProjects/Reinvent-master-3.2/result/LINK_invent/BTK/process_docking_weight1_custom_product_contain_oxygen_bond_distance_aromatic_linkinvent_7_9_3/rearranged_h_0006.sdf

> <i_m_source_file_index>
82

> <r_mmod_Potential_Energy-OPLS-2005>
17656.796875

> <r_mmod_Stretch_Energy-OPLS-2005>
10315.763671875

> <r_mmod_Bend_Energy-OPLS-2005>
955.712768554688

> <r_mmod_Torsional_Energy-OPLS-2005>
664.051513671875

> <r_mmod_Improper_Torsional_Energy-OPLS-2005>
98.6863250732422

> <r_mmod_Van_der_Waal_Energy-OPLS-2005>
4236.19140625

> <r_mmod_Electrostatic_Energy-OPLS-2005>
-231.595031738281

> <r_mmod_Solvation_Energy-OPLS-2005>
-566.29296875

> <b_mmod_Minimization_Converged-OPLS-2005>
0

> <r_mmod_RMS_Derivative-OPLS-2005>
12.7811546325684

$$$$
83
                    3D
 Structure written by MMmdl.
157165  0  0  1  0            999 V2000
  -30.7303  -14.4245   20.6637 C   0  0  0  0  0  0
  -30.4226  -12.3146   19.4044 C   0  0  0  0  0  0
  -29.4876  -12.5224   18.1963 C   0  0  0  0  0  0
  -28.0119  -12.3693   18.6116 C   0  0  0  0  0  0
  -27.6611  -13.2015   19.8720 C   0  0  2  0  0  0
  -28.6955  -12.9572   20.9882 C   0  0  0  0  0  0
  -25.2599  -13.8153   20.5667 C   0  0  0  0  0  0
  -24.1838  -13.0440   20.9154 C   0  0  0  0  0  0
  -24.6378  -11.6901   20.8718 C   0  0  0  0  0  0
  -23.9042  -10.4291   21.0402 C   0  0  0  0  0  0
  -24.3595   -9.4212   21.9185 C   0  0  0  0  0  0
  -23.6278   -8.2246   22.0758 C   0  0  0  0  0  0
  -22.4264   -8.0274   21.3544 C   0  0  0  0  0  0
  -21.9894   -9.0242   20.4642 C   0  0  0  0  0  0
  -22.7218  -10.2125   20.3049 C   0  0  0  0  0  0
  -21.6850   -6.0729   22.5276 C   0  0  0  0  0  0
  -21.4007   -6.5635   23.8207 C   0  0  0  0  0  0
  -21.3659   -5.6792   24.9170 C   0  0  0  0  0  0
  -21.6043   -4.3057   24.7224 C   0  0  0  0  0  0
  -21.8819   -3.8145   23.4347 C   0  0  0  0  0  0
  -21.9191   -4.6956   22.3402 C   0  0  0  0  0  0
  -22.7867  -13.5252   21.1836 C   0  0  0  0  0  0
  -22.1667   -4.2146   21.0980 F   0  0  0  0  0  0
  -21.5625   -3.4542   25.7740 F   0  0  0  0  0  0
  -30.0331  -13.2722   20.4532 N   0  0  0  0  0  0
  -26.3014  -12.9308   20.3330 N   0  0  0  0  0  0
  -25.9301  -11.6473   20.5727 N   0  0  0  0  0  0
  -22.0505  -12.8229   22.0373 N   0  0  0  0  0  0
  -25.4364  -15.1868   20.4088 N   0  0  0  0  0  0
  -31.7992  -14.6705   20.0920 O   0  0  0  0  0  0
  -21.6634   -6.8871   21.4240 O   0  0  0  0  0  0
  -22.3558  -14.5580   20.6713 O   0  0  0  0  0  0
  -24.6158  -31.8668   23.2086 C   0  0  0  0  0  0
  -25.9055  -32.4814   23.8381 C   0  0  1  0  0  0
  -27.2380  -27.4274   20.0818 C   0  0  0  0  0  0
  -25.5911  -33.8614   24.2312 N   0  0  0  0  0  0
  -23.4026  -30.4895   21.5510 C   0  0  2  0  0  0
  -24.8463  -28.9512   20.1183 C   0  0  0  0  0  0
  -22.7403  -29.4652   22.5003 C   0  0  0  0  0  0
  -18.0266  -28.1384   22.8497 C   0  0  0  0  0  0
  -24.1480  -36.7299   23.2625 C   0  0  0  0  0  0
  -25.9310  -30.8279   21.3624 C   0  0  0  0  0  0
  -26.0063  -29.4598   20.7123 C   0  0  0  0  0  0
  -27.2001  -28.7029   20.6950 C   0  0  0  0  0  0
  -26.0472  -26.9234   19.5067 C   0  0  0  0  0  0
  -24.8608  -27.6804   19.5181 C   0  0  0  0  0  0
  -23.6099  -29.8198   20.1664 C   0  0  0  0  0  0
  -25.4099  -36.3098   24.0329 C   0  0  1  0  0  0
  -20.5853  -28.3659   23.1330 C   0  0  2  0  0  0
  -20.6757  -26.9401   22.5420 C   0  0  0  0  0  0
  -19.5734  -26.6394   21.5222 C   0  0  0  0  0  0
  -18.1906  -26.7933   22.1620 C   0  0  0  0  0  0
  -19.1519  -28.8839   23.2911 C   0  0  0  0  0  0
  -18.9451  -30.1449   23.8914 C   0  0  0  0  0  0
  -17.6454  -30.6586   24.0575 C   0  0  0  0  0  0
  -25.9044  -34.9469   23.5117 C   0  0  0  0  0  0
  -16.5345  -29.9088   23.6345 C   0  0  0  0  0  0
  -16.7257  -28.6515   23.0348 C   0  0  0  0  0  0
  -26.4475  -31.6587   25.0715 C   0  0  0  0  0  0
  -25.3738  -31.3682   26.1452 C   0  0  0  0  0  0
  -27.0313  -30.3038   24.6085 C   0  0  0  0  0  0
  -27.6043  -32.4295   25.7502 C   0  0  0  0  0  0
  -27.5593  -37.1771   24.8433 C   0  0  0  0  0  0
  -21.4128  -29.3033   22.3746 N   0  0  0  0  0  0
  -26.4262  -37.3806   23.9451 N   0  0  0  0  0  0
  -24.6685  -31.0757   22.0994 N   0  0  0  0  0  0
  -23.4170  -28.8196   23.3053 O   0  0  0  0  0  0
  -28.4376  -26.7383   20.0749 O   0  0  0  0  0  0
  -26.5611  -34.8920   22.4681 O   0  0  0  0  0  0
  -23.5360  -32.1431   23.7485 O   0  0  0  0  0  0
  -29.5075  -16.8958   19.6571 C   0  0  0  0  0  0
  -29.1595  -18.1785   19.1825 C   0  0  0  0  0  0
  -29.2301  -19.0392   21.4376 C   0  0  0  0  0  0
  -29.7560  -16.6532   21.0353 C   0  0  0  0  0  0
  -29.0320  -19.2743   20.0579 C   0  0  0  0  0  0
  -29.5838  -17.7595   21.9204 C   0  0  0  0  0  0
  -30.3116  -15.0489   22.9303 C   0  0  0  0  0  0
  -28.3625  -24.2550   20.2314 C   0  0  0  0  0  0
  -28.5345  -22.9243   19.4563 C   0  0  0  0  0  0
  -28.5792  -25.5071   19.3477 C   0  0  0  0  0  0
  -28.6226  -21.6598   20.3417 C   0  0  0  0  0  0
  -30.1604  -15.3330   21.4947 N   0  0  0  0  0  0
  -28.7271  -20.5055   19.5012 O   0  0  0  0  0  0
  -29.7639  -17.6419   23.2578 F   0  0  0  0  0  0
  -31.4642  -12.4291   19.0982 H   0  0  0  0  0  0
  -30.3396  -11.2943   19.7825 H   0  0  0  0  0  0
  -29.7277  -11.8095   17.4065 H   0  0  0  0  0  0
  -29.6473  -13.5144   17.7714 H   0  0  0  0  0  0
  -27.8279  -11.3118   18.8050 H   0  0  0  0  0  0
  -27.3557  -12.6447   17.7848 H   0  0  0  0  0  0
  -27.7139  -14.2527   19.5895 H   0  0  0  0  0  0
  -28.6700  -11.9140   21.3060 H   0  0  0  0  0  0
  -28.4252  -13.5317   21.8731 H   0  0  0  0  0  0
  -25.2741   -9.5691   22.4757 H   0  0  0  0  0  0
  -23.9994   -7.4635   22.7480 H   0  0  0  0  0  0
  -21.0831   -8.8746   19.8940 H   0  0  0  0  0  0
  -22.3684  -10.9651   19.6149 H   0  0  0  0  0  0
  -21.1998   -7.6143   23.9706 H   0  0  0  0  0  0
  -21.1481   -6.0524   25.9071 H   0  0  0  0  0  0
  -22.0598   -2.7604   23.2846 H   0  0  0  0  0  0
  -22.4112  -11.9863   22.4718 H   0  0  0  0  0  0
  -21.1121  -13.1245   22.2574 H   0  0  0  0  0  0
  -24.6782  -15.8496   20.5262 H   0  0  0  0  0  0
  -26.2982  -15.6215   20.1039 H   0  0  0  0  0  0
  -26.7132  -32.5523   23.1148 H   0  0  0  0  0  0
  -25.0069  -33.9792   25.0461 H   0  0  0  0  0  0
  -22.6921  -31.3068   21.4110 H   0  0  0  0  0  0
  -23.3773  -35.9591   23.3194 H   0  0  0  0  0  0
  -24.3611  -36.9025   22.2064 H   0  0  0  0  0  0
  -23.7165  -37.6440   23.6709 H   0  0  0  0  0  0
  -26.0401  -31.5910   20.5909 H   0  0  0  0  0  0
  -26.8200  -30.8853   21.9792 H   0  0  0  0  0  0
  -28.0993  -29.0978   21.1480 H   0  0  0  0  0  0
  -26.0037  -25.9458   19.0511 H   0  0  0  0  0  0
  -23.9646  -27.2772   19.0681 H   0  0  0  0  0  0
  -23.7176  -30.5924   19.4042 H   0  0  0  0  0  0
  -22.7331  -29.2404   19.8725 H   0  0  0  0  0  0
  -25.1259  -36.1928   25.0814 H   0  0  0  0  0  0
  -20.9941  -28.3207   24.1454 H   0  0  0  0  0  0
  -20.5678  -26.2260   23.3599 H   0  0  0  0  0  0
  -21.6625  -26.7447   22.1198 H   0  0  0  0  0  0
  -19.6892  -25.6308   21.1242 H   0  0  0  0  0  0
  -19.6676  -27.3224   20.6758 H   0  0  0  0  0  0
  -17.4179  -26.6698   21.4016 H   0  0  0  0  0  0
  -18.0289  -26.0065   22.9004 H   0  0  0  0  0  0
  -19.7930  -30.7271   24.2264 H   0  0  0  0  0  0
  -17.5009  -31.6276   24.5159 H   0  0  0  0  0  0
  -15.5346  -30.2996   23.7663 H   0  0  0  0  0  0
  -15.8652  -28.0853   22.7030 H   0  0  0  0  0  0
  -24.5931  -30.7011   25.7778 H   0  0  0  0  0  0
  -24.8910  -32.2835   26.4893 H   0  0  0  0  0  0
  -25.8092  -30.8855   27.0214 H   0  0  0  0  0  0
  -26.2867  -29.6808   24.1123 H   0  0  0  0  0  0
  -27.4078  -29.7261   25.4535 H   0  0  0  0  0  0
  -27.8693  -30.4367   23.9241 H   0  0  0  0  0  0
  -27.2661  -33.3602   26.2073 H   0  0  0  0  0  0
  -28.3876  -32.6837   25.0348 H   0  0  0  0  0  0
  -28.0671  -31.8412   26.5438 H   0  0  0  0  0  0
  -28.2467  -38.0210   24.7686 H   0  0  0  0  0  0
  -28.1236  -36.2759   24.5981 H   0  0  0  0  0  0
  -27.2361  -37.1064   25.8836 H   0  0  0  0  0  0
  -20.9279  -29.8773   21.6990 H   0  0  0  0  0  0
  -26.0130  -38.2844   24.1590 H   0  0  0  0  0  0
  -29.5929  -16.1048   18.9258 H   0  0  0  0  0  0
  -28.9980  -18.3232   18.1230 H   0  0  0  0  0  0
  -29.1263  -19.8342   22.1595 H   0  0  0  0  0  0
  -31.1081  -15.6556   23.3628 H   0  0  0  0  0  0
  -30.5656  -14.0070   23.1367 H   0  0  0  0  0  0
  -29.3809  -15.2506   23.4624 H   0  0  0  0  0  0
  -29.0783  -24.2867   21.0539 H   0  0  0  0  0  0
  -27.3727  -24.2855   20.6878 H   0  0  0  0  0  0
  -29.4416  -22.9766   18.8531 H   0  0  0  0  0  0
  -27.7099  -22.8156   18.7510 H   0  0  0  0  0  0
  -27.9738  -25.4761   18.4423 H   0  0  0  0  0  0
  -29.6069  -25.4881   18.9824 H   0  0  0  0  0  0
  -27.7379  -21.5741   20.9747 H   0  0  0  0  0  0
  -29.4960  -21.7413   20.9903 H   0  0  0  0  0  0
  1 25  1  0  0  0
  1 30  2  0  0  0
  1 82  1  0  0  0
  2  3  1  0  0  0
  2 25  1  0  0  0
  2 85  1  0  0  0
  2 86  1  0  0  0
  3  4  1  0  0  0
  3 87  1  0  0  0
  3 88  1  0  0  0
  4  5  1  0  0  0
  4 89  1  0  0  0
  4 90  1  0  0  0
  5  6  1  0  0  0
  5 26  1  0  0  0
  5 91  1  0  0  0
  6 25  1  0  0  0
  6 92  1  0  0  0
  6 93  1  0  0  0
  7  8  2  0  0  0
  7 26  1  0  0  0
  7 29  1  0  0  0
  8  9  1  0  0  0
  8 22  1  0  0  0
  9 10  1  0  0  0
  9 27  2  0  0  0
 10 11  2  0  0  0
 10 15  1  0  0  0
 11 12  1  0  0  0
 11 94  1  0  0  0
 12 13  2  0  0  0
 12 95  1  0  0  0
 13 14  1  0  0  0
 13 31  1  0  0  0
 14 15  2  0  0  0
 14 96  1  0  0  0
 15 97  1  0  0  0
 16 17  2  0  0  0
 16 21  1  0  0  0
 16 31  1  0  0  0
 17 18  1  0  0  0
 17 98  1  0  0  0
 18 19  2  0  0  0
 18 99  1  0  0  0
 19 20  1  0  0  0
 19 24  1  0  0  0
 20 21  2  0  0  0
 20100  1  0  0  0
 21 23  1  0  0  0
 22 28  1  0  0  0
 22 32  2  0  0  0
 26 27  1  0  0  0
 28101  1  0  0  0
 28102  1  0  0  0
 29103  1  0  0  0
 29104  1  0  0  0
 33 34  1  0  0  0
 33 66  1  0  0  0
 33 70  2  0  0  0
 34 36  1  0  0  0
 34 59  1  0  0  0
 34105  1  0  0  0
 35 44  2  0  0  0
 35 45  1  0  0  0
 35 68  1  0  0  0
 36 56  1  0  0  0
 36106  1  0  0  0
 37 39  1  0  0  0
 37 47  1  0  0  0
 37 66  1  0  0  0
 37107  1  0  0  0
 38 43  2  0  0  0
 38 46  1  0  0  0
 38 47  1  0  0  0
 39 64  1  0  0  0
 39 67  2  0  0  0
 40 52  1  0  0  0
 40 53  2  0  0  0
 40 58  1  0  0  0
 41108  1  0  0  0
 41109  1  0  0  0
 41110  1  0  0  0
 41 48  1  0  0  0
 42 43  1  0  0  0
 42 66  1  0  0  0
 42111  1  0  0  0
 42112  1  0  0  0
 43 44  1  0  0  0
 44113  1  0  0  0
 45 46  2  0  0  0
 45114  1  0  0  0
 46115  1  0  0  0
 47116  1  0  0  0
 47117  1  0  0  0
 48 56  1  0  0  0
 48 65  1  0  0  0
 48118  1  0  0  0
 49 50  1  0  0  0
 49 53  1  0  0  0
 49 64  1  0  0  0
 49119  1  0  0  0
 50 51  1  0  0  0
 50120  1  0  0  0
 50121  1  0  0  0
 51 52  1  0  0  0
 51122  1  0  0  0
 51123  1  0  0  0
 52124  1  0  0  0
 52125  1  0  0  0
 53 54  1  0  0  0
 54 55  2  0  0  0
 54126  1  0  0  0
 55 57  1  0  0  0
 55127  1  0  0  0
 56 69  2  0  0  0
 57 58  2  0  0  0
 57128  1  0  0  0
 58129  1  0  0  0
 59 60  1  0  0  0
 59 61  1  0  0  0
 59 62  1  0  0  0
 60130  1  0  0  0
 60131  1  0  0  0
 60132  1  0  0  0
 61133  1  0  0  0
 61134  1  0  0  0
 61135  1  0  0  0
 62136  1  0  0  0
 62137  1  0  0  0
 62138  1  0  0  0
 63 65  1  0  0  0
 63139  1  0  0  0
 63140  1  0  0  0
 63141  1  0  0  0
 64142  1  0  0  0
 65143  1  0  0  0
 68 80  1  0  0  0
 71 72  2  0  0  0
 71 74  1  0  0  0
 71144  1  0  0  0
 72 75  1  0  0  0
 72145  1  0  0  0
 73 75  2  0  0  0
 73 76  1  0  0  0
 73146  1  0  0  0
 74 76  2  0  0  0
 74 82  1  0  0  0
 75 83  1  0  0  0
 76 84  1  0  0  0
 77 82  1  0  0  0
 77147  1  0  0  0
 77148  1  0  0  0
 77149  1  0  0  0
 78 79  1  0  0  0
 78 80  1  0  0  0
 78150  1  0  0  0
 78151  1  0  0  0
 79 81  1  0  0  0
 79152  1  0  0  0
 79153  1  0  0  0
 80154  1  0  0  0
 80155  1  0  0  0
 81 83  1  0  0  0
 81156  1  0  0  0
 81157  1  0  0  0
M  ISO  4   1 100  68 101  80 101  82 100
M  END
> <chiral flag>
0

> <version>
0

> <s_m_source_file>
/data/baiqing/PycharmProjects/Reinvent-master-3.2/result/LINK_invent/BTK/process_docking_weight1_custom_product_contain_oxygen_bond_distance_aromatic_linkinvent_7_9_3/rearranged_h_0006.sdf

> <i_m_source_file_index>
83

> <r_mmod_Potential_Energy-OPLS-2005>
86.6167144775391

> <r_mmod_Stretch_Energy-OPLS-2005>
42.9592323303223

> <r_mmod_Bend_Energy-OPLS-2005>
113.219650268555

> <r_mmod_Torsional_Energy-OPLS-2005>
262.551086425781

> <r_mmod_Improper_Torsional_Energy-OPLS-2005>
2.46259665489197

> <r_mmod_Van_der_Waal_Energy-OPLS-2005>
166.210922241211

> <r_mmod_Electrostatic_Energy-OPLS-2005>
-321.863403320312

> <r_mmod_Solvation_Energy-OPLS-2005>
-188.841979980469

> <b_mmod_Minimization_Converged-OPLS-2005>
0

> <r_mmod_RMS_Derivative-OPLS-2005>
1.27055585384369

$$$$
84
                    3D
 Structure written by MMmdl.
157166  0  0  1  0            999 V2000
  -30.7946  -14.3120   20.7159 C   0  0  0  0  0  0
  -30.4118  -12.2732   19.3903 C   0  0  0  0  0  0
  -29.4728  -12.5109   18.1934 C   0  0  0  0  0  0
  -28.0051  -12.3506   18.6221 C   0  0  0  0  0  0
  -27.6658  -13.1922   19.8782 C   0  0  2  0  0  0
  -28.7004  -12.9412   20.9978 C   0  0  0  0  0  0
  -25.2621  -13.8159   20.5668 C   0  0  0  0  0  0
  -24.1846  -13.0449   20.9190 C   0  0  0  0  0  0
  -24.6370  -11.6912   20.8742 C   0  0  0  0  0  0
  -23.9041  -10.4297   21.0423 C   0  0  0  0  0  0
  -24.3602   -9.4208   21.9194 C   0  0  0  0  0  0
  -23.6282   -8.2241   22.0758 C   0  0  0  0  0  0
  -22.4270   -8.0278   21.3542 C   0  0  0  0  0  0
  -21.9902   -9.0254   20.4649 C   0  0  0  0  0  0
  -22.7224  -10.2137   20.3060 C   0  0  0  0  0  0
  -21.6850   -6.0734   22.5282 C   0  0  0  0  0  0
  -21.4007   -6.5638   23.8214 C   0  0  0  0  0  0
  -21.3650   -5.6793   24.9182 C   0  0  0  0  0  0
  -21.6046   -4.3055   24.7236 C   0  0  0  0  0  0
  -21.8828   -3.8144   23.4359 C   0  0  0  0  0  0
  -21.9189   -4.6961   22.3410 C   0  0  0  0  0  0
  -22.7873  -13.5255   21.1848 C   0  0  0  0  0  0
  -22.1663   -4.2139   21.0988 F   0  0  0  0  0  0
  -21.5635   -3.4544   25.7749 F   0  0  0  0  0  0
  -30.0522  -13.2064   20.4676 N   0  0  0  0  0  0
  -26.3025  -12.9286   20.3386 N   0  0  0  0  0  0
  -25.9283  -11.6460   20.5783 N   0  0  0  0  0  0
  -22.0510  -12.8223   22.0410 N   0  0  0  0  0  0
  -25.4420  -15.1856   20.4073 N   0  0  0  0  0  0
  -31.7883  -14.6212   20.0477 O   0  0  0  0  0  0
  -21.6638   -6.8869   21.4245 O   0  0  0  0  0  0
  -22.3554  -14.5562   20.6720 O   0  0  0  0  0  0
  -24.6162  -31.8665   23.2063 C   0  0  0  0  0  0
  -25.9049  -32.4831   23.8346 C   0  0  1  0  0  0
  -27.2252  -27.4183   20.0860 C   0  0  0  0  0  0
  -25.5896  -33.8618   24.2288 N   0  0  0  0  0  0
  -23.4000  -30.4888   21.5502 C   0  0  2  0  0  0
  -24.8407  -28.9528   20.1071 C   0  0  0  0  0  0
  -22.7419  -29.4623   22.5001 C   0  0  0  0  0  0
  -18.0256  -28.1371   22.8484 C   0  0  0  0  0  0
  -24.1494  -36.7312   23.2628 C   0  0  0  0  0  0
  -25.9256  -30.8266   21.3551 C   0  0  0  0  0  0
  -26.0002  -29.4552   20.7102 C   0  0  0  0  0  0
  -27.1886  -28.6906   20.7048 C   0  0  0  0  0  0
  -26.0438  -26.9278   19.4828 C   0  0  0  0  0  0
  -24.8592  -27.6873   19.4939 C   0  0  0  0  0  0
  -23.6058  -29.8237   20.1636 C   0  0  0  0  0  0
  -25.4119  -36.3112   24.0327 C   0  0  1  0  0  0
  -20.5853  -28.3633   23.1335 C   0  0  2  0  0  0
  -20.6767  -26.9380   22.5425 C   0  0  0  0  0  0
  -19.5746  -26.6381   21.5215 C   0  0  0  0  0  0
  -18.1908  -26.7917   22.1606 C   0  0  0  0  0  0
  -19.1510  -28.8810   23.2899 C   0  0  0  0  0  0
  -18.9445  -30.1421   23.8907 C   0  0  0  0  0  0
  -17.6459  -30.6580   24.0541 C   0  0  0  0  0  0
  -25.9049  -34.9479   23.5114 C   0  0  0  0  0  0
  -16.5349  -29.9079   23.6334 C   0  0  0  0  0  0
  -16.7244  -28.6500   23.0340 C   0  0  0  0  0  0
  -26.4490  -31.6605   25.0658 C   0  0  0  0  0  0
  -25.3754  -31.3658   26.1407 C   0  0  0  0  0  0
  -27.0302  -30.3073   24.5953 C   0  0  0  0  0  0
  -27.6075  -32.4317   25.7430 C   0  0  0  0  0  0
  -27.5580  -37.1808   24.8461 C   0  0  0  0  0  0
  -21.4149  -29.3006   22.3767 N   0  0  0  0  0  0
  -26.4299  -37.3794   23.9392 N   0  0  0  0  0  0
  -24.6664  -31.0751   22.0972 N   0  0  0  0  0  0
  -23.4221  -28.8176   23.3037 O   0  0  0  0  0  0
  -28.4216  -26.7260   20.0963 O   0  0  0  0  0  0
  -26.5630  -34.8945   22.4689 O   0  0  0  0  0  0
  -23.5367  -32.1433   23.7491 O   0  0  0  0  0  0
  -32.4572  -18.1019   22.2164 C   0  0  0  0  0  0
  -31.8383  -20.4299   21.8176 C   0  0  0  0  0  0
  -32.1081  -16.7398   22.2206 C   0  0  0  0  0  0
  -30.8699  -21.3936   21.4785 C   0  0  0  0  0  0
  -29.7651  -17.3347   21.8418 C   0  0  0  0  0  0
  -29.1508  -19.6703   21.4609 C   0  0  0  0  0  0
  -31.4754  -19.0767   21.9481 C   0  0  0  0  0  0
  -30.1227  -18.6958   21.7729 C   0  0  0  0  0  0
  -30.7700  -16.3591   21.9848 C   0  0  0  0  0  0
  -29.5202  -21.0193   21.2618 C   0  0  0  0  0  0
  -28.1525  -24.2542   20.3290 C   0  0  0  0  0  0
  -28.8673  -22.9402   19.9449 C   0  0  0  0  0  0
  -28.5545  -25.4548   19.4404 C   0  0  0  0  0  0
  -30.4278  -15.0053   21.8025 N   0  0  0  0  0  0
  -28.5361  -21.9114   20.8859 O   0  0  0  0  0  0
  -31.4525  -12.3721   19.0743 H   0  0  0  0  0  0
  -30.3125  -11.2493   19.7520 H   0  0  0  0  0  0
  -29.7013  -11.8067   17.3922 H   0  0  0  0  0  0
  -29.6309  -13.5097   17.7828 H   0  0  0  0  0  0
  -27.8340  -11.2931   18.8311 H   0  0  0  0  0  0
  -27.3361  -12.6082   17.8007 H   0  0  0  0  0  0
  -27.7265  -14.2422   19.5897 H   0  0  0  0  0  0
  -28.6521  -11.9038   21.3327 H   0  0  0  0  0  0
  -28.4407  -13.5371   21.8727 H   0  0  0  0  0  0
  -25.2748   -9.5691   22.4762 H   0  0  0  0  0  0
  -24.0004   -7.4632   22.7463 H   0  0  0  0  0  0
  -21.0844   -8.8769   19.8943 H   0  0  0  0  0  0
  -22.3690  -10.9677   19.6165 H   0  0  0  0  0  0
  -21.1986   -7.6141   23.9717 H   0  0  0  0  0  0
  -21.1467   -6.0522   25.9082 H   0  0  0  0  0  0
  -22.0609   -2.7604   23.2870 H   0  0  0  0  0  0
  -22.4121  -11.9865   22.4759 H   0  0  0  0  0  0
  -21.1133  -13.1265   22.2647 H   0  0  0  0  0  0
  -24.6875  -15.8551   20.5081 H   0  0  0  0  0  0
  -26.3073  -15.6105   20.0960 H   0  0  0  0  0  0
  -26.7104  -32.5535   23.1088 H   0  0  0  0  0  0
  -25.0013  -33.9767   25.0416 H   0  0  0  0  0  0
  -22.6855  -31.3044   21.4180 H   0  0  0  0  0  0
  -23.3770  -35.9630   23.3325 H   0  0  0  0  0  0
  -24.3568  -36.8887   22.2030 H   0  0  0  0  0  0
  -23.7266  -37.6518   23.6660 H   0  0  0  0  0  0
  -26.0187  -31.5837   20.5752 H   0  0  0  0  0  0
  -26.8219  -30.8975   21.9581 H   0  0  0  0  0  0
  -28.0822  -29.0701   21.1809 H   0  0  0  0  0  0
  -26.0127  -25.9629   18.9990 H   0  0  0  0  0  0
  -23.9691  -27.2965   19.0187 H   0  0  0  0  0  0
  -23.7084  -30.6018   19.4038 H   0  0  0  0  0  0
  -22.7254  -29.2464   19.8745 H   0  0  0  0  0  0
  -25.1321  -36.1950   25.0822 H   0  0  0  0  0  0
  -20.9915  -28.3221   24.1461 H   0  0  0  0  0  0
  -20.5695  -26.2243   23.3606 H   0  0  0  0  0  0
  -21.6640  -26.7460   22.1197 H   0  0  0  0  0  0
  -19.6924  -25.6307   21.1198 H   0  0  0  0  0  0
  -19.6698  -27.3235   20.6785 H   0  0  0  0  0  0
  -17.4205  -26.6654   21.3993 H   0  0  0  0  0  0
  -18.0266  -26.0064   22.8988 H   0  0  0  0  0  0
  -19.7930  -30.7177   24.2340 H   0  0  0  0  0  0
  -17.5031  -31.6266   24.5123 H   0  0  0  0  0  0
  -15.5358  -30.2966   23.7674 H   0  0  0  0  0  0
  -15.8634  -28.0816   22.7064 H   0  0  0  0  0  0
  -24.5940  -30.7013   25.7704 H   0  0  0  0  0  0
  -24.8943  -32.2795   26.4917 H   0  0  0  0  0  0
  -25.8109  -30.8765   27.0132 H   0  0  0  0  0  0
  -26.2774  -29.6796   24.1165 H   0  0  0  0  0  0
  -27.4290  -29.7333   25.4321 H   0  0  0  0  0  0
  -27.8526  -30.4420   23.8915 H   0  0  0  0  0  0
  -27.2707  -33.3615   26.2033 H   0  0  0  0  0  0
  -28.3881  -32.6863   25.0244 H   0  0  0  0  0  0
  -28.0758  -31.8406   26.5309 H   0  0  0  0  0  0
  -28.2623  -38.0091   24.7535 H   0  0  0  0  0  0
  -28.1056  -36.2623   24.6296 H   0  0  0  0  0  0
  -27.2279  -37.1457   25.8857 H   0  0  0  0  0  0
  -20.9324  -29.8716   21.6963 H   0  0  0  0  0  0
  -26.0196  -38.2855   24.1435 H   0  0  0  0  0  0
  -33.4898  -18.3865   22.3586 H   0  0  0  0  0  0
  -32.8690  -20.7308   21.9400 H   0  0  0  0  0  0
  -32.8793  -15.9912   22.3406 H   0  0  0  0  0  0
  -31.1953  -22.4198   21.3897 H   0  0  0  0  0  0
  -28.7373  -17.0383   21.6843 H   0  0  0  0  0  0
  -28.1238  -19.3657   21.3150 H   0  0  0  0  0  0
  -28.3979  -24.4757   21.3665 H   0  0  0  0  0  0
  -27.0721  -24.1065   20.2934 H   0  0  0  0  0  0
  -29.9362  -23.1228   19.8530 H   0  0  0  0  0  0
  -28.5476  -22.6135   18.9541 H   0  0  0  0  0  0
  -28.0640  -25.4261   18.4673 H   0  0  0  0  0  0
  -29.6167  -25.3628   19.2098 H   0  0  0  0  0  0
  -29.6042  -14.6631   22.2737 H   0  0  0  0  0  0
  1 25  1  0  0  0
  1 30  2  0  0  0
  1 84  1  0  0  0
  2  3  1  0  0  0
  2 25  1  0  0  0
  2 86  1  0  0  0
  2 87  1  0  0  0
  3  4  1  0  0  0
  3 88  1  0  0  0
  3 89  1  0  0  0
  4  5  1  0  0  0
  4 90  1  0  0  0
  4 91  1  0  0  0
  5  6  1  0  0  0
  5 26  1  0  0  0
  5 92  1  0  0  0
  6 25  1  0  0  0
  6 93  1  0  0  0
  6 94  1  0  0  0
  7  8  2  0  0  0
  7 26  1  0  0  0
  7 29  1  0  0  0
  8  9  1  0  0  0
  8 22  1  0  0  0
  9 10  1  0  0  0
  9 27  2  0  0  0
 10 11  2  0  0  0
 10 15  1  0  0  0
 11 12  1  0  0  0
 11 95  1  0  0  0
 12 13  2  0  0  0
 12 96  1  0  0  0
 13 14  1  0  0  0
 13 31  1  0  0  0
 14 15  2  0  0  0
 14 97  1  0  0  0
 15 98  1  0  0  0
 16 17  2  0  0  0
 16 21  1  0  0  0
 16 31  1  0  0  0
 17 18  1  0  0  0
 17 99  1  0  0  0
 18 19  2  0  0  0
 18100  1  0  0  0
 19 20  1  0  0  0
 19 24  1  0  0  0
 20 21  2  0  0  0
 20101  1  0  0  0
 21 23  1  0  0  0
 22 28  1  0  0  0
 22 32  2  0  0  0
 26 27  1  0  0  0
 28102  1  0  0  0
 28103  1  0  0  0
 29104  1  0  0  0
 29105  1  0  0  0
 33 34  1  0  0  0
 33 66  1  0  0  0
 33 70  2  0  0  0
 34 36  1  0  0  0
 34 59  1  0  0  0
 34106  1  0  0  0
 35 44  2  0  0  0
 35 45  1  0  0  0
 35 68  1  0  0  0
 36 56  1  0  0  0
 36107  1  0  0  0
 37 39  1  0  0  0
 37 47  1  0  0  0
 37 66  1  0  0  0
 37108  1  0  0  0
 38 43  2  0  0  0
 38 46  1  0  0  0
 38 47  1  0  0  0
 39 64  1  0  0  0
 39 67  2  0  0  0
 40 52  1  0  0  0
 40 53  2  0  0  0
 40 58  1  0  0  0
 41109  1  0  0  0
 41110  1  0  0  0
 41111  1  0  0  0
 41 48  1  0  0  0
 42 43  1  0  0  0
 42 66  1  0  0  0
 42112  1  0  0  0
 42113  1  0  0  0
 43 44  1  0  0  0
 44114  1  0  0  0
 45 46  2  0  0  0
 45115  1  0  0  0
 46116  1  0  0  0
 47117  1  0  0  0
 47118  1  0  0  0
 48 56  1  0  0  0
 48 65  1  0  0  0
 48119  1  0  0  0
 49 50  1  0  0  0
 49 53  1  0  0  0
 49 64  1  0  0  0
 49120  1  0  0  0
 50 51  1  0  0  0
 50121  1  0  0  0
 50122  1  0  0  0
 51 52  1  0  0  0
 51123  1  0  0  0
 51124  1  0  0  0
 52125  1  0  0  0
 52126  1  0  0  0
 53 54  1  0  0  0
 54 55  2  0  0  0
 54127  1  0  0  0
 55 57  1  0  0  0
 55128  1  0  0  0
 56 69  2  0  0  0
 57 58  2  0  0  0
 57129  1  0  0  0
 58130  1  0  0  0
 59 60  1  0  0  0
 59 61  1  0  0  0
 59 62  1  0  0  0
 60131  1  0  0  0
 60132  1  0  0  0
 60133  1  0  0  0
 61134  1  0  0  0
 61135  1  0  0  0
 61136  1  0  0  0
 62137  1  0  0  0
 62138  1  0  0  0
 62139  1  0  0  0
 63 65  1  0  0  0
 63140  1  0  0  0
 63141  1  0  0  0
 63142  1  0  0  0
 64143  1  0  0  0
 65144  1  0  0  0
 68 83  1  0  0  0
 71 73  2  0  0  0
 71 77  1  0  0  0
 71145  1  0  0  0
 72 74  1  0  0  0
 72 77  2  0  0  0
 72146  1  0  0  0
 73 79  1  0  0  0
 73147  1  0  0  0
 74 80  2  0  0  0
 74148  1  0  0  0
 75 78  1  0  0  0
 75 79  2  0  0  0
 75149  1  0  0  0
 76 78  2  0  0  0
 76 80  1  0  0  0
 76150  1  0  0  0
 77 78  1  0  0  0
 79 84  1  0  0  0
 80 85  1  0  0  0
 81 82  1  0  0  0
 81 83  1  0  0  0
 81151  1  0  0  0
 81152  1  0  0  0
 82 85  1  0  0  0
 82153  1  0  0  0
 82154  1  0  0  0
 83155  1  0  0  0
 83156  1  0  0  0
 84157  1  0  0  0
M  ISO  4   1 100  68 101  83 101  84 100
M  END
> <chiral flag>
0

> <version>
0

> <s_m_source_file>
/data/baiqing/PycharmProjects/Reinvent-master-3.2/result/LINK_invent/BTK/process_docking_weight1_custom_product_contain_oxygen_bond_distance_aromatic_linkinvent_7_9_3/rearranged_h_0006.sdf

> <i_m_source_file_index>
84

> <r_mmod_Potential_Energy-OPLS-2005>
-29.3546905517578

> <r_mmod_Stretch_Energy-OPLS-2005>
34.6144752502441

> <r_mmod_Bend_Energy-OPLS-2005>
100.896125793457

> <r_mmod_Torsional_Energy-OPLS-2005>
235.966842651367

> <r_mmod_Improper_Torsional_Energy-OPLS-2005>
4.18300819396973

> <r_mmod_Van_der_Waal_Energy-OPLS-2005>
177.380310058594

> <r_mmod_Electrostatic_Energy-OPLS-2005>
-375.699829101562

> <r_mmod_Solvation_Energy-OPLS-2005>
-216.619293212891

> <b_mmod_Minimization_Converged-OPLS-2005>
0

> <r_mmod_RMS_Derivative-OPLS-2005>
3.8809609413147

$$$$
85
                    3D
 Structure written by MMmdl.
187197  0  0  1  0            999 V2000
  -30.8032  -14.2880   20.7493 C   0  0  0  0  0  0
  -30.4132  -12.2792   19.3645 C   0  0  0  0  0  0
  -29.4775  -12.5379   18.1711 C   0  0  0  0  0  0
  -28.0037  -12.3907   18.5904 C   0  0  0  0  0  0
  -27.6673  -13.1993   19.8704 C   0  0  2  0  0  0
  -28.7015  -12.9136   20.9805 C   0  0  0  0  0  0
  -25.2598  -13.8155   20.5638 C   0  0  0  0  0  0
  -24.1839  -13.0441   20.9163 C   0  0  0  0  0  0
  -24.6379  -11.6903   20.8693 C   0  0  0  0  0  0
  -23.9036  -10.4297   21.0375 C   0  0  0  0  0  0
  -24.3591   -9.4220   21.9167 C   0  0  0  0  0  0
  -23.6273   -8.2244   22.0741 C   0  0  0  0  0  0
  -22.4250   -8.0273   21.3539 C   0  0  0  0  0  0
  -21.9886   -9.0238   20.4631 C   0  0  0  0  0  0
  -22.7204  -10.2127   20.3035 C   0  0  0  0  0  0
  -21.6858   -6.0726   22.5281 C   0  0  0  0  0  0
  -21.4002   -6.5627   23.8211 C   0  0  0  0  0  0
  -21.3661   -5.6785   24.9178 C   0  0  0  0  0  0
  -21.6045   -4.3046   24.7233 C   0  0  0  0  0  0
  -21.8819   -3.8139   23.4353 C   0  0  0  0  0  0
  -21.9181   -4.6953   22.3410 C   0  0  0  0  0  0
  -22.7861  -13.5239   21.1855 C   0  0  0  0  0  0
  -22.1657   -4.2132   21.0991 F   0  0  0  0  0  0
  -21.5636   -3.4536   25.7752 F   0  0  0  0  0  0
  -30.0537  -13.1960   20.4563 N   0  0  0  0  0  0
  -26.3033  -12.9314   20.3302 N   0  0  0  0  0  0
  -25.9298  -11.6471   20.5679 N   0  0  0  0  0  0
  -22.0491  -12.8231   22.0401 N   0  0  0  0  0  0
  -25.4342  -15.1871   20.4079 N   0  0  0  0  0  0
  -31.7554  -14.6612   20.0573 O   0  0  0  0  0  0
  -21.6625   -6.8861   21.4235 O   0  0  0  0  0  0
  -22.3548  -14.5557   20.6728 O   0  0  0  0  0  0
  -24.6026  -31.8708   23.2107 C   0  0  0  0  0  0
  -25.8934  -32.4860   23.8357 C   0  0  1  0  0  0
  -27.2468  -27.4704   20.0856 C   0  0  0  0  0  0
  -25.5813  -33.8615   24.2283 N   0  0  0  0  0  0
  -23.3938  -30.4874   21.5502 C   0  0  2  0  0  0
  -24.8468  -28.9465   20.1227 C   0  0  0  0  0  0
  -22.7395  -29.4623   22.5025 C   0  0  0  0  0  0
  -18.0267  -28.1335   22.8462 C   0  0  0  0  0  0
  -24.1494  -36.7330   23.2662 C   0  0  0  0  0  0
  -25.9173  -30.8435   21.3559 C   0  0  0  0  0  0
  -26.0018  -29.4768   20.7142 C   0  0  0  0  0  0
  -27.2028  -28.7400   20.6965 C   0  0  0  0  0  0
  -26.0805  -26.9394   19.4997 C   0  0  0  0  0  0
  -24.8782  -27.6742   19.5219 C   0  0  0  0  0  0
  -23.6037  -29.8085   20.1701 C   0  0  0  0  0  0
  -25.4142  -36.3133   24.0354 C   0  0  1  0  0  0
  -20.5847  -28.3543   23.1363 C   0  0  2  0  0  0
  -20.6754  -26.9275   22.5444 C   0  0  0  0  0  0
  -19.5735  -26.6324   21.5229 C   0  0  0  0  0  0
  -18.1911  -26.7868   22.1622 C   0  0  0  0  0  0
  -19.1521  -28.8763   23.2895 C   0  0  0  0  0  0
  -18.9472  -30.1386   23.8860 C   0  0  0  0  0  0
  -17.6479  -30.6538   24.0520 C   0  0  0  0  0  0
  -25.9056  -34.9491   23.5154 C   0  0  0  0  0  0
  -16.5354  -29.9012   23.6363 C   0  0  0  0  0  0
  -16.7256  -28.6466   23.0308 C   0  0  0  0  0  0
  -26.4384  -31.6618   25.0650 C   0  0  0  0  0  0
  -25.3652  -31.3771   26.1419 C   0  0  0  0  0  0
  -27.0223  -30.3086   24.5987 C   0  0  0  0  0  0
  -27.5948  -32.4337   25.7442 C   0  0  0  0  0  0
  -27.5614  -37.1839   24.8479 C   0  0  0  0  0  0
  -21.4139  -29.2931   22.3788 N   0  0  0  0  0  0
  -26.4316  -37.3807   23.9414 N   0  0  0  0  0  0
  -24.6579  -31.0833   22.0983 N   0  0  0  0  0  0
  -23.4219  -28.8181   23.3004 O   0  0  0  0  0  0
  -28.4205  -26.7657   20.0457 O   0  0  0  0  0  0
  -26.5660  -34.8947   22.4724 O   0  0  0  0  0  0
  -23.5255  -32.1403   23.7588 O   0  0  0  0  0  0
  -32.4616  -16.2618   22.4909 C   0  0  0  0  0  0
  -33.0120  -17.3161   23.2469 C   0  0  0  0  0  0
  -30.3098  -16.6094   23.5744 C   0  0  0  0  0  0
  -31.0978  -15.9129   22.6351 C   0  0  0  0  0  0
  -32.2064  -18.0337   24.1625 C   0  0  0  0  0  0
  -30.8594  -17.6587   24.3321 C   0  0  0  0  0  0
  -29.9030  -25.1933   23.9292 C   0  0  0  0  0  0
  -32.1486  -27.2109   26.8535 C   0  0  0  0  0  0
  -31.9506  -25.9331   27.6879 C   0  0  0  0  0  0
  -32.3917  -27.0075   25.3402 C   0  0  0  0  0  0
  -30.6064  -25.1871   27.5396 C   0  0  0  0  0  0
  -29.0900  -26.2861   25.6776 C   0  0  0  0  0  0
  -33.0067  -25.6532   24.9068 C   0  0  0  0  0  0
  -29.8870  -25.0706   26.1706 C   0  0  1  0  0  0
  -32.8638  -22.0583   24.6676 C   0  0  0  0  0  0
  -33.8967  -21.0723   25.2491 C   0  0  0  0  0  0
  -29.9621  -25.5715   21.4512 C   0  0  0  0  0  0
  -32.6313  -23.2636   25.5957 C   0  0  0  0  0  0
  -33.8774  -19.7127   24.5447 C   0  0  0  0  0  0
  -28.4920  -25.7202   21.0085 C   0  0  0  0  0  0
  -29.0634  -26.1181   24.2361 N   0  0  0  0  0  0
  -30.6053  -24.6337   24.9834 N   0  0  0  0  0  0
  -30.4783  -14.8539   21.9219 N   0  0  0  0  0  0
  -30.1563  -24.7466   22.6438 N   0  0  0  0  0  0
  -32.1082  -24.4541   24.8733 N   0  3  1  0  0  0
  -32.6522  -19.0967   24.9116 O   0  0  0  0  0  0
  -30.0791  -18.3216   25.2216 F   0  0  0  0  0  0
  -31.4556  -12.3848   19.0557 H   0  0  0  0  0  0
  -30.3120  -11.2464   19.7028 H   0  0  0  0  0  0
  -29.7065  -11.8476   17.3579 H   0  0  0  0  0  0
  -29.6536  -13.5395   17.7761 H   0  0  0  0  0  0
  -27.8076  -11.3319   18.7574 H   0  0  0  0  0  0
  -27.3513  -12.6951   17.7708 H   0  0  0  0  0  0
  -27.7344  -14.2576   19.6148 H   0  0  0  0  0  0
  -28.6484  -11.8651   21.2777 H   0  0  0  0  0  0
  -28.4385  -13.4800   21.8735 H   0  0  0  0  0  0
  -25.2742   -9.5701   22.4728 H   0  0  0  0  0  0
  -23.9988   -7.4642   22.7471 H   0  0  0  0  0  0
  -21.0817   -8.8749   19.8943 H   0  0  0  0  0  0
  -22.3662  -10.9647   19.6130 H   0  0  0  0  0  0
  -21.1988   -7.6134   23.9713 H   0  0  0  0  0  0
  -21.1484   -6.0515   25.9080 H   0  0  0  0  0  0
  -22.0593   -2.7592   23.2870 H   0  0  0  0  0  0
  -22.4090  -11.9901   22.4815 H   0  0  0  0  0  0
  -21.1090  -13.1235   22.2567 H   0  0  0  0  0  0
  -24.6739  -15.8485   20.5186 H   0  0  0  0  0  0
  -26.2983  -15.6230   20.1099 H   0  0  0  0  0  0
  -26.7005  -32.5580   23.1139 H   0  0  0  0  0  0
  -24.9767  -33.9754   25.0293 H   0  0  0  0  0  0
  -22.6774  -31.2979   21.4083 H   0  0  0  0  0  0
  -23.3742  -35.9679   23.3291 H   0  0  0  0  0  0
  -24.3574  -36.8962   22.2075 H   0  0  0  0  0  0
  -23.7257  -37.6531   23.6659 H   0  0  0  0  0  0
  -26.0253  -31.6095   20.5829 H   0  0  0  0  0  0
  -26.8061  -30.8954   21.9721 H   0  0  0  0  0  0
  -28.0994  -29.1371   21.1522 H   0  0  0  0  0  0
  -26.1139  -25.9687   19.0256 H   0  0  0  0  0  0
  -23.9875  -27.2590   19.0716 H   0  0  0  0  0  0
  -23.6972  -30.5750   19.4010 H   0  0  0  0  0  0
  -22.7313  -29.2189   19.8839 H   0  0  0  0  0  0
  -25.1298  -36.2022   25.0839 H   0  0  0  0  0  0
  -20.9915  -28.3078   24.1495 H   0  0  0  0  0  0
  -20.5667  -26.2096   23.3581 H   0  0  0  0  0  0
  -21.6610  -26.7325   22.1193 H   0  0  0  0  0  0
  -19.6877  -25.6271   21.1183 H   0  0  0  0  0  0
  -19.6725  -27.3148   20.6779 H   0  0  0  0  0  0
  -17.4188  -26.6594   21.4006 H   0  0  0  0  0  0
  -18.0251  -26.0043   22.9041 H   0  0  0  0  0  0
  -19.7963  -30.7203   24.2146 H   0  0  0  0  0  0
  -17.5050  -31.6221   24.5076 H   0  0  0  0  0  0
  -15.5337  -30.2883   23.7739 H   0  0  0  0  0  0
  -15.8667  -28.0814   22.6976 H   0  0  0  0  0  0
  -24.5760  -30.7199   25.7780 H   0  0  0  0  0  0
  -24.8856  -32.2919   26.4871 H   0  0  0  0  0  0
  -25.7925  -30.8927   27.0203 H   0  0  0  0  0  0
  -26.2738  -29.6899   24.0992 H   0  0  0  0  0  0
  -27.3997  -29.7285   25.4430 H   0  0  0  0  0  0
  -27.8562  -30.4437   23.9087 H   0  0  0  0  0  0
  -27.2494  -33.3622   26.2007 H   0  0  0  0  0  0
  -28.3715  -32.6938   25.0230 H   0  0  0  0  0  0
  -28.0598  -31.8457   26.5372 H   0  0  0  0  0  0
  -28.2608  -38.0151   24.7529 H   0  0  0  0  0  0
  -28.1096  -36.2698   24.6232 H   0  0  0  0  0  0
  -27.2316  -37.1387   25.8868 H   0  0  0  0  0  0
  -20.9284  -29.8669   21.7044 H   0  0  0  0  0  0
  -26.0230  -38.2884   24.1442 H   0  0  0  0  0  0
  -33.1080  -15.7292   21.8096 H   0  0  0  0  0  0
  -34.0576  -17.5554   23.1139 H   0  0  0  0  0  0
  -29.2711  -16.3535   23.7133 H   0  0  0  0  0  0
  -33.0203  -27.7296   27.2573 H   0  0  0  0  0  0
  -31.3185  -27.9005   27.0189 H   0  0  0  0  0  0
  -32.0324  -26.2104   28.7422 H   0  0  0  0  0  0
  -32.7932  -25.2610   27.5405 H   0  0  0  0  0  0
  -33.0928  -27.7870   25.0354 H   0  0  0  0  0  0
  -31.5025  -27.2326   24.7548 H   0  0  0  0  0  0
  -29.8904  -25.6564   28.2174 H   0  0  0  0  0  0
  -30.7484  -24.1834   27.9433 H   0  0  0  0  0  0
  -29.5435  -27.2388   25.9419 H   0  0  0  0  0  0
  -28.0813  -26.2879   26.0920 H   0  0  0  0  0  0
  -33.9118  -25.4717   25.4864 H   0  0  0  0  0  0
  -33.3698  -25.7516   23.8840 H   0  0  0  0  0  0
  -29.1389  -24.2890   26.3269 H   0  0  0  0  0  0
  -31.9099  -21.5554   24.5060 H   0  0  0  0  0  0
  -33.2045  -22.3783   23.6810 H   0  0  0  0  0  0
  -33.7220  -20.9178   26.3159 H   0  0  0  0  0  0
  -34.8904  -21.5151   25.1722 H   0  0  0  0  0  0
  -30.3790  -26.5633   21.6437 H   0  0  0  0  0  0
  -30.5520  -25.1506   20.6355 H   0  0  0  0  0  0
  -33.5689  -23.4925   26.1065 H   0  0  0  0  0  0
  -31.9389  -22.9709   26.3853 H   0  0  0  0  0  0
  -34.7169  -19.0946   24.8681 H   0  0  0  0  0  0
  -33.9558  -19.8510   23.4652 H   0  0  0  0  0  0
  -27.8536  -25.9450   21.8648 H   0  0  0  0  0  0
  -28.1229  -24.7882   20.5780 H   0  0  0  0  0  0
  -29.6520  -14.4605   22.3460 H   0  0  0  0  0  0
  -30.3781  -23.7767   22.4291 H   0  0  0  0  0  0
  -32.2281  -24.1955   23.9059 H   0  0  0  0  0  0
  1 25  1  0  0  0
  1 30  2  0  0  0
  1 93  1  0  0  0
  2  3  1  0  0  0
  2 25  1  0  0  0
  2 98  1  0  0  0
  2 99  1  0  0  0
  3  4  1  0  0  0
  3100  1  0  0  0
  3101  1  0  0  0
  4  5  1  0  0  0
  4102  1  0  0  0
  4103  1  0  0  0
  5  6  1  0  0  0
  5 26  1  0  0  0
  5104  1  0  0  0
  6 25  1  0  0  0
  6105  1  0  0  0
  6106  1  0  0  0
  7  8  2  0  0  0
  7 26  1  0  0  0
  7 29  1  0  0  0
  8  9  1  0  0  0
  8 22  1  0  0  0
  9 10  1  0  0  0
  9 27  2  0  0  0
 10 11  2  0  0  0
 10 15  1  0  0  0
 11 12  1  0  0  0
 11107  1  0  0  0
 12 13  2  0  0  0
 12108  1  0  0  0
 13 14  1  0  0  0
 13 31  1  0  0  0
 14 15  2  0  0  0
 14109  1  0  0  0
 15110  1  0  0  0
 16 17  2  0  0  0
 16 21  1  0  0  0
 16 31  1  0  0  0
 17 18  1  0  0  0
 17111  1  0  0  0
 18 19  2  0  0  0
 18112  1  0  0  0
 19 20  1  0  0  0
 19 24  1  0  0  0
 20 21  2  0  0  0
 20113  1  0  0  0
 21 23  1  0  0  0
 22 28  1  0  0  0
 22 32  2  0  0  0
 26 27  1  0  0  0
 28114  1  0  0  0
 28115  1  0  0  0
 29116  1  0  0  0
 29117  1  0  0  0
 33 34  1  0  0  0
 33 66  1  0  0  0
 33 70  2  0  0  0
 34 36  1  0  0  0
 34 59  1  0  0  0
 34118  1  0  0  0
 35 44  2  0  0  0
 35 45  1  0  0  0
 35 68  1  0  0  0
 36 56  1  0  0  0
 36119  1  0  0  0
 37 39  1  0  0  0
 37 47  1  0  0  0
 37 66  1  0  0  0
 37120  1  0  0  0
 38 43  2  0  0  0
 38 46  1  0  0  0
 38 47  1  0  0  0
 39 64  1  0  0  0
 39 67  2  0  0  0
 40 52  1  0  0  0
 40 53  2  0  0  0
 40 58  1  0  0  0
 41121  1  0  0  0
 41122  1  0  0  0
 41123  1  0  0  0
 41 48  1  0  0  0
 42 43  1  0  0  0
 42 66  1  0  0  0
 42124  1  0  0  0
 42125  1  0  0  0
 43 44  1  0  0  0
 44126  1  0  0  0
 45 46  2  0  0  0
 45127  1  0  0  0
 46128  1  0  0  0
 47129  1  0  0  0
 47130  1  0  0  0
 48 56  1  0  0  0
 48 65  1  0  0  0
 48131  1  0  0  0
 49 50  1  0  0  0
 49 53  1  0  0  0
 49 64  1  0  0  0
 49132  1  0  0  0
 50 51  1  0  0  0
 50133  1  0  0  0
 50134  1  0  0  0
 51 52  1  0  0  0
 51135  1  0  0  0
 51136  1  0  0  0
 52137  1  0  0  0
 52138  1  0  0  0
 53 54  1  0  0  0
 54 55  2  0  0  0
 54139  1  0  0  0
 55 57  1  0  0  0
 55140  1  0  0  0
 56 69  2  0  0  0
 57 58  2  0  0  0
 57141  1  0  0  0
 58142  1  0  0  0
 59 60  1  0  0  0
 59 61  1  0  0  0
 59 62  1  0  0  0
 60143  1  0  0  0
 60144  1  0  0  0
 60145  1  0  0  0
 61146  1  0  0  0
 61147  1  0  0  0
 61148  1  0  0  0
 62149  1  0  0  0
 62150  1  0  0  0
 62151  1  0  0  0
 63 65  1  0  0  0
 63152  1  0  0  0
 63153  1  0  0  0
 63154  1  0  0  0
 64155  1  0  0  0
 65156  1  0  0  0
 68 90  1  0  0  0
 71 72  2  0  0  0
 71 74  1  0  0  0
 71157  1  0  0  0
 72 75  1  0  0  0
 72158  1  0  0  0
 73 74  2  0  0  0
 73 76  1  0  0  0
 73159  1  0  0  0
 74 93  1  0  0  0
 75 76  2  0  0  0
 75 96  1  0  0  0
 76 97  1  0  0  0
 77 91  2  0  0  0
 77 92  1  0  0  0
 77 94  1  0  0  0
 78 79  1  0  0  0
 78 80  1  0  0  0
 78160  1  0  0  0
 78161  1  0  0  0
 79 81  1  0  0  0
 79162  1  0  0  0
 79163  1  0  0  0
 80 83  1  0  0  0
 80164  1  0  0  0
 80165  1  0  0  0
 81166  1  0  0  0
 81167  1  0  0  0
 81 84  1  0  0  0
 82 84  1  0  0  0
 82 91  1  0  0  0
 82168  1  0  0  0
 82169  1  0  0  0
 83 95  1  0  0  0
 83170  1  0  0  0
 83171  1  0  0  0
 84 92  1  0  0  0
 84172  1  0  0  0
 85 86  1  0  0  0
 85 88  1  0  0  0
 85173  1  0  0  0
 85174  1  0  0  0
 86 89  1  0  0  0
 86175  1  0  0  0
 86176  1  0  0  0
 87 90  1  0  0  0
 87 94  1  0  0  0
 87177  1  0  0  0
 87178  1  0  0  0
 88179  1  0  0  0
 88180  1  0  0  0
 88 95  1  0  0  0
 89 96  1  0  0  0
 89181  1  0  0  0
 89182  1  0  0  0
 90183  1  0  0  0
 90184  1  0  0  0
 92 95  1  0  0  0
 93185  1  0  0  0
 94186  1  0  0  0
 95187  1  0  0  0
M  CHG  1  95   1
M  ISO  4   1 100  68 101  90 101  93 100
M  END
> <chiral flag>
0

> <version>
0

> <s_m_source_file>
/data/baiqing/PycharmProjects/Reinvent-master-3.2/result/LINK_invent/BTK/process_docking_weight1_custom_product_contain_oxygen_bond_distance_aromatic_linkinvent_7_9_3/rearranged_h_0006.sdf

> <i_m_source_file_index>
85

> <r_mmod_Potential_Energy-OPLS-2005>
-53.6520843505859

> <r_mmod_Stretch_Energy-OPLS-2005>
38.1101341247559

> <r_mmod_Bend_Energy-OPLS-2005>
200.705413818359

> <r_mmod_Torsional_Energy-OPLS-2005>
335.0166015625

> <r_mmod_Improper_Torsional_Energy-OPLS-2005>
5.07504558563232

> <r_mmod_Van_der_Waal_Energy-OPLS-2005>
159.156600952148

> <r_mmod_Electrostatic_Energy-OPLS-2005>
-346.11279296875

> <r_mmod_Solvation_Energy-OPLS-2005>
-453.840515136719

> <b_mmod_Minimization_Converged-OPLS-2005>
0

> <r_mmod_RMS_Derivative-OPLS-2005>
5.38003015518188

$$$$
86
                    3D
 Structure written by MMmdl.
164172  0  0  1  0            999 V2000
  -30.6785  -14.4734   20.5904 C   0  0  0  0  0  0
  -30.4333  -12.3115   19.4198 C   0  0  0  0  0  0
  -29.4982  -12.5141   18.2080 C   0  0  0  0  0  0
  -28.0186  -12.3718   18.6188 C   0  0  0  0  0  0
  -27.6669  -13.2021   19.8817 C   0  0  2  0  0  0
  -28.7062  -12.9535   20.9981 C   0  0  0  0  0  0
  -25.2613  -13.8154   20.5677 C   0  0  0  0  0  0
  -24.1853  -13.0440   20.9167 C   0  0  0  0  0  0
  -24.6398  -11.6903   20.8731 C   0  0  0  0  0  0
  -23.9059  -10.4293   21.0405 C   0  0  0  0  0  0
  -24.3612   -9.4209   21.9184 C   0  0  0  0  0  0
  -23.6289   -8.2245   22.0754 C   0  0  0  0  0  0
  -22.4271   -8.0283   21.3545 C   0  0  0  0  0  0
  -21.9906   -9.0256   20.4647 C   0  0  0  0  0  0
  -22.7233  -10.2134   20.3055 C   0  0  0  0  0  0
  -21.6852   -6.0736   22.5280 C   0  0  0  0  0  0
  -21.4013   -6.5639   23.8213 C   0  0  0  0  0  0
  -21.3658   -5.6793   24.9176 C   0  0  0  0  0  0
  -21.6044   -4.3056   24.7225 C   0  0  0  0  0  0
  -21.8820   -3.8146   23.4347 C   0  0  0  0  0  0
  -21.9192   -4.6964   22.3404 C   0  0  0  0  0  0
  -22.7876  -13.5247   21.1833 C   0  0  0  0  0  0
  -22.1661   -4.2149   21.0981 F   0  0  0  0  0  0
  -21.5630   -3.4539   25.7738 F   0  0  0  0  0  0
  -30.0420  -13.2760   20.4602 N   0  0  0  0  0  0
  -26.3050  -12.9313   20.3389 N   0  0  0  0  0  0
  -25.9325  -11.6478   20.5771 N   0  0  0  0  0  0
  -22.0512  -12.8239   22.0388 N   0  0  0  0  0  0
  -25.4353  -15.1868   20.4081 N   0  0  0  0  0  0
  -31.7769  -14.7058   20.0751 O   0  0  0  0  0  0
  -21.6639   -6.8877   21.4240 O   0  0  0  0  0  0
  -22.3563  -14.5556   20.6687 O   0  0  0  0  0  0
  -24.6141  -31.8674   23.2089 C   0  0  0  0  0  0
  -25.9031  -32.4824   23.8390 C   0  0  1  0  0  0
  -27.2404  -27.4357   20.0996 C   0  0  0  0  0  0
  -25.5889  -33.8622   24.2326 N   0  0  0  0  0  0
  -23.4040  -30.4888   21.5488 C   0  0  2  0  0  0
  -24.8543  -28.9518   20.1166 C   0  0  0  0  0  0
  -22.7416  -29.4649   22.4986 C   0  0  0  0  0  0
  -18.0272  -28.1373   22.8492 C   0  0  0  0  0  0
  -24.1488  -36.7312   23.2639 C   0  0  0  0  0  0
  -25.9322  -30.8319   21.3638 C   0  0  0  0  0  0
  -26.0129  -29.4642   20.7160 C   0  0  0  0  0  0
  -27.2107  -28.7110   20.7094 C   0  0  0  0  0  0
  -26.0698  -26.9359   19.4962 C   0  0  0  0  0  0
  -24.8765  -27.6845   19.5053 C   0  0  0  0  0  0
  -23.6149  -29.8175   20.1647 C   0  0  0  0  0  0
  -25.4105  -36.3112   24.0341 C   0  0  1  0  0  0
  -20.5863  -28.3657   23.1320 C   0  0  2  0  0  0
  -20.6761  -26.9394   22.5416 C   0  0  0  0  0  0
  -19.5742  -26.6379   21.5211 C   0  0  0  0  0  0
  -18.1921  -26.7921   22.1621 C   0  0  0  0  0  0
  -19.1523  -28.8832   23.2903 C   0  0  0  0  0  0
  -18.9453  -30.1442   23.8909 C   0  0  0  0  0  0
  -17.6455  -30.6580   24.0566 C   0  0  0  0  0  0
  -25.9031  -34.9479   23.5130 C   0  0  0  0  0  0
  -16.5345  -29.9084   23.6325 C   0  0  0  0  0  0
  -16.7262  -28.6502   23.0341 C   0  0  0  0  0  0
  -26.4464  -31.6604   25.0717 C   0  0  0  0  0  0
  -25.3739  -31.3704   26.1473 C   0  0  0  0  0  0
  -27.0291  -30.3051   24.6076 C   0  0  0  0  0  0
  -27.6039  -32.4325   25.7480 C   0  0  0  0  0  0
  -27.5584  -37.1807   24.8465 C   0  0  0  0  0  0
  -21.4143  -29.3029   22.3731 N   0  0  0  0  0  0
  -26.4295  -37.3793   23.9414 N   0  0  0  0  0  0
  -24.6681  -31.0773   22.0989 N   0  0  0  0  0  0
  -23.4189  -28.8195   23.3031 O   0  0  0  0  0  0
  -28.3873  -26.6758   20.0659 O   0  0  0  0  0  0
  -26.5592  -34.8931   22.4694 O   0  0  0  0  0  0
  -23.5331  -32.1423   23.7481 O   0  0  0  0  0  0
  -28.6798  -18.8745   21.7278 C   0  0  0  0  0  0
  -30.5958  -17.5621   20.1626 C   0  0  0  0  0  0
  -29.3855  -19.6220   20.7586 C   0  0  0  0  0  0
  -28.9065  -17.4915   21.9087 C   0  0  0  0  0  0
  -30.3627  -18.9492   19.9771 C   0  0  0  0  0  0
  -29.8644  -16.8108   21.1170 C   0  0  0  0  0  0
  -28.0869  -16.7455   22.9497 C   0  0  0  0  0  0
  -31.1589  -19.6860   18.9126 C   0  0  0  0  0  0
  -30.5659  -21.5720   22.4832 C   0  0  0  0  0  0
  -29.0217  -21.1148   20.5630 C   0  0  0  0  0  0
  -28.9667  -24.4484   20.5632 C   0  0  0  0  0  0
  -29.0834  -23.3696   21.6784 C   0  0  0  0  0  0
  -29.9906  -15.3929   21.2970 N   0  0  0  0  0  0
  -28.3349  -25.6596   21.1020 N   0  0  0  0  0  0
  -29.8395  -22.1263   21.3106 N   0  3  1  0  0  0
  -31.4755  -12.4276   19.1172 H   0  0  0  0  0  0
  -30.3492  -11.2938   19.8043 H   0  0  0  0  0  0
  -29.7378  -11.7941   17.4244 H   0  0  0  0  0  0
  -29.6640  -13.5023   17.7759 H   0  0  0  0  0  0
  -27.8274  -11.3146   18.8069 H   0  0  0  0  0  0
  -27.3683  -12.6539   17.7899 H   0  0  0  0  0  0
  -27.7201  -14.2545   19.6006 H   0  0  0  0  0  0
  -28.6839  -11.9069   21.3053 H   0  0  0  0  0  0
  -28.4543  -13.5155   21.8977 H   0  0  0  0  0  0
  -25.2758   -9.5686   22.4756 H   0  0  0  0  0  0
  -24.0000   -7.4637   22.7472 H   0  0  0  0  0  0
  -21.0838   -8.8774   19.8951 H   0  0  0  0  0  0
  -22.3695  -10.9673   19.6161 H   0  0  0  0  0  0
  -21.2002   -7.6146   23.9718 H   0  0  0  0  0  0
  -21.1479   -6.0521   25.9078 H   0  0  0  0  0  0
  -22.0598   -2.7609   23.2849 H   0  0  0  0  0  0
  -22.4116  -11.9891   22.4767 H   0  0  0  0  0  0
  -21.1132  -13.1270   22.2593 H   0  0  0  0  0  0
  -24.6713  -15.8446   20.5154 H   0  0  0  0  0  0
  -26.2932  -15.6239   20.0954 H   0  0  0  0  0  0
  -26.7109  -32.5542   23.1159 H   0  0  0  0  0  0
  -25.0064  -33.9787   25.0489 H   0  0  0  0  0  0
  -22.6929  -31.3053   21.4067 H   0  0  0  0  0  0
  -23.3753  -35.9642   23.3303 H   0  0  0  0  0  0
  -24.3590  -36.8918   22.2055 H   0  0  0  0  0  0
  -23.7234  -37.6518   23.6645 H   0  0  0  0  0  0
  -26.0435  -31.5960   20.5930 H   0  0  0  0  0  0
  -26.8205  -30.8888   21.9813 H   0  0  0  0  0  0
  -28.1081  -29.1005   21.1689 H   0  0  0  0  0  0
  -26.0869  -25.9628   19.0263 H   0  0  0  0  0  0
  -23.9868  -27.2821   19.0412 H   0  0  0  0  0  0
  -23.7233  -30.5910   19.4034 H   0  0  0  0  0  0
  -22.7398  -29.2359   19.8691 H   0  0  0  0  0  0
  -25.1281  -36.1980   25.0834 H   0  0  0  0  0  0
  -20.9956  -28.3215   24.1437 H   0  0  0  0  0  0
  -20.5659  -26.2263   23.3597 H   0  0  0  0  0  0
  -21.6632  -26.7432   22.1211 H   0  0  0  0  0  0
  -19.6906  -25.6296   21.1224 H   0  0  0  0  0  0
  -19.6687  -27.3205   20.6758 H   0  0  0  0  0  0
  -17.4192  -26.6677   21.4020 H   0  0  0  0  0  0
  -18.0320  -26.0057   22.9011 H   0  0  0  0  0  0
  -19.7934  -30.7255   24.2280 H   0  0  0  0  0  0
  -17.5013  -31.6262   24.5166 H   0  0  0  0  0  0
  -15.5348  -30.2988   23.7645 H   0  0  0  0  0  0
  -15.8660  -28.0828   22.7039 H   0  0  0  0  0  0
  -24.5912  -30.7046   25.7816 H   0  0  0  0  0  0
  -24.8930  -32.2860   26.4932 H   0  0  0  0  0  0
  -25.8104  -30.8873   27.0226 H   0  0  0  0  0  0
  -26.2824  -29.6822   24.1133 H   0  0  0  0  0  0
  -27.4083  -29.7271   25.4515 H   0  0  0  0  0  0
  -27.8650  -30.4383   23.9202 H   0  0  0  0  0  0
  -27.2655  -33.3620   26.2073 H   0  0  0  0  0  0
  -28.3838  -32.6896   25.0298 H   0  0  0  0  0  0
  -28.0718  -31.8443   26.5384 H   0  0  0  0  0  0
  -28.2592  -38.0115   24.7526 H   0  0  0  0  0  0
  -28.1089  -36.2647   24.6266 H   0  0  0  0  0  0
  -27.2310  -37.1425   25.8870 H   0  0  0  0  0  0
  -20.9299  -29.8761   21.6962 H   0  0  0  0  0  0
  -26.0186  -38.2872   24.1420 H   0  0  0  0  0  0
  -27.9307  -19.3683   22.3323 H   0  0  0  0  0  0
  -31.3306  -17.0769   19.5366 H   0  0  0  0  0  0
  -27.4457  -17.4224   23.5148 H   0  0  0  0  0  0
  -28.7387  -16.2392   23.6621 H   0  0  0  0  0  0
  -27.4453  -16.0023   22.4755 H   0  0  0  0  0  0
  -31.9373  -19.0513   18.4872 H   0  0  0  0  0  0
  -31.6492  -20.5666   19.3273 H   0  0  0  0  0  0
  -30.5094  -20.0005   18.0951 H   0  0  0  0  0  0
  -31.2437  -20.7676   22.1968 H   0  0  0  0  0  0
  -29.8722  -21.1886   23.2322 H   0  0  0  0  0  0
  -31.1871  -22.3313   22.9595 H   0  0  0  0  0  0
  -27.9747  -21.2178   20.8510 H   0  0  0  0  0  0
  -29.0396  -21.3652   19.5023 H   0  0  0  0  0  0
  -28.3795  -24.0733   19.7237 H   0  0  0  0  0  0
  -29.9574  -24.7027   20.1832 H   0  0  0  0  0  0
  -28.0959  -23.1079   22.0617 H   0  0  0  0  0  0
  -29.5928  -23.8458   22.5174 H   0  0  0  0  0  0
  -29.2459  -14.9834   21.8383 H   0  0  0  0  0  0
  -28.8956  -26.0293   21.8654 H   0  0  0  0  0  0
  -30.5699  -22.4170   20.6788 H   0  0  0  0  0  0
  1 25  1  0  0  0
  1 30  2  0  0  0
  1 83  1  0  0  0
  2  3  1  0  0  0
  2 25  1  0  0  0
  2 86  1  0  0  0
  2 87  1  0  0  0
  3  4  1  0  0  0
  3 88  1  0  0  0
  3 89  1  0  0  0
  4  5  1  0  0  0
  4 90  1  0  0  0
  4 91  1  0  0  0
  5  6  1  0  0  0
  5 26  1  0  0  0
  5 92  1  0  0  0
  6 25  1  0  0  0
  6 93  1  0  0  0
  6 94  1  0  0  0
  7  8  2  0  0  0
  7 26  1  0  0  0
  7 29  1  0  0  0
  8  9  1  0  0  0
  8 22  1  0  0  0
  9 10  1  0  0  0
  9 27  2  0  0  0
 10 11  2  0  0  0
 10 15  1  0  0  0
 11 12  1  0  0  0
 11 95  1  0  0  0
 12 13  2  0  0  0
 12 96  1  0  0  0
 13 14  1  0  0  0
 13 31  1  0  0  0
 14 15  2  0  0  0
 14 97  1  0  0  0
 15 98  1  0  0  0
 16 17  2  0  0  0
 16 21  1  0  0  0
 16 31  1  0  0  0
 17 18  1  0  0  0
 17 99  1  0  0  0
 18 19  2  0  0  0
 18100  1  0  0  0
 19 20  1  0  0  0
 19 24  1  0  0  0
 20 21  2  0  0  0
 20101  1  0  0  0
 21 23  1  0  0  0
 22 28  1  0  0  0
 22 32  2  0  0  0
 26 27  1  0  0  0
 28102  1  0  0  0
 28103  1  0  0  0
 29104  1  0  0  0
 29105  1  0  0  0
 33 34  1  0  0  0
 33 66  1  0  0  0
 33 70  2  0  0  0
 34 36  1  0  0  0
 34 59  1  0  0  0
 34106  1  0  0  0
 35 44  2  0  0  0
 35 45  1  0  0  0
 35 68  1  0  0  0
 36 56  1  0  0  0
 36107  1  0  0  0
 37 39  1  0  0  0
 37 47  1  0  0  0
 37 66  1  0  0  0
 37108  1  0  0  0
 38 43  2  0  0  0
 38 46  1  0  0  0
 38 47  1  0  0  0
 39 64  1  0  0  0
 39 67  2  0  0  0
 40 52  1  0  0  0
 40 53  2  0  0  0
 40 58  1  0  0  0
 41109  1  0  0  0
 41110  1  0  0  0
 41111  1  0  0  0
 41 48  1  0  0  0
 42 43  1  0  0  0
 42 66  1  0  0  0
 42112  1  0  0  0
 42113  1  0  0  0
 43 44  1  0  0  0
 44114  1  0  0  0
 45 46  2  0  0  0
 45115  1  0  0  0
 46116  1  0  0  0
 47117  1  0  0  0
 47118  1  0  0  0
 48 56  1  0  0  0
 48 65  1  0  0  0
 48119  1  0  0  0
 49 50  1  0  0  0
 49 53  1  0  0  0
 49 64  1  0  0  0
 49120  1  0  0  0
 50 51  1  0  0  0
 50121  1  0  0  0
 50122  1  0  0  0
 51 52  1  0  0  0
 51123  1  0  0  0
 51124  1  0  0  0
 52125  1  0  0  0
 52126  1  0  0  0
 53 54  1  0  0  0
 54 55  2  0  0  0
 54127  1  0  0  0
 55 57  1  0  0  0
 55128  1  0  0  0
 56 69  2  0  0  0
 57 58  2  0  0  0
 57129  1  0  0  0
 58130  1  0  0  0
 59 60  1  0  0  0
 59 61  1  0  0  0
 59 62  1  0  0  0
 60131  1  0  0  0
 60132  1  0  0  0
 60133  1  0  0  0
 61134  1  0  0  0
 61135  1  0  0  0
 61136  1  0  0  0
 62137  1  0  0  0
 62138  1  0  0  0
 62139  1  0  0  0
 63 65  1  0  0  0
 63140  1  0  0  0
 63141  1  0  0  0
 63142  1  0  0  0
 64143  1  0  0  0
 65144  1  0  0  0
 68 84  1  0  0  0
 71 73  2  0  0  0
 71 74  1  0  0  0
 71145  1  0  0  0
 72 75  2  0  0  0
 72 76  1  0  0  0
 72146  1  0  0  0
 73 75  1  0  0  0
 73 80  1  0  0  0
 74 76  2  0  0  0
 74 77  1  0  0  0
 75 78  1  0  0  0
 76 83  1  0  0  0
 77147  1  0  0  0
 77148  1  0  0  0
 77149  1  0  0  0
 78150  1  0  0  0
 78151  1  0  0  0
 78152  1  0  0  0
 79153  1  0  0  0
 79154  1  0  0  0
 79155  1  0  0  0
 79 85  1  0  0  0
 80 85  1  0  0  0
 80156  1  0  0  0
 80157  1  0  0  0
 81 82  1  0  0  0
 81 84  1  0  0  0
 81158  1  0  0  0
 81159  1  0  0  0
 82 85  1  0  0  0
 82160  1  0  0  0
 82161  1  0  0  0
 83162  1  0  0  0
 84163  1  0  0  0
 85164  1  0  0  0
M  CHG  1  85   1
M  ISO  4   1 100  68 101  83 100  84 101
M  END
> <chiral flag>
0

> <version>
0

> <s_m_source_file>
/data/baiqing/PycharmProjects/Reinvent-master-3.2/result/LINK_invent/BTK/process_docking_weight1_custom_product_contain_oxygen_bond_distance_aromatic_linkinvent_7_9_3/rearranged_h_0006.sdf

> <i_m_source_file_index>
86

> <r_mmod_Potential_Energy-OPLS-2005>
-227.142715454102

> <r_mmod_Stretch_Energy-OPLS-2005>
42.6192474365234

> <r_mmod_Bend_Energy-OPLS-2005>
104.896919250488

> <r_mmod_Torsional_Energy-OPLS-2005>
209.784927368164

> <r_mmod_Improper_Torsional_Energy-OPLS-2005>
3.40288543701172

> <r_mmod_Van_der_Waal_Energy-OPLS-2005>
151.146911621094

> <r_mmod_Electrostatic_Energy-OPLS-2005>
-291.352294921875

> <r_mmod_Solvation_Energy-OPLS-2005>
-459.030090332031

> <b_mmod_Minimization_Converged-OPLS-2005>
0

> <r_mmod_RMS_Derivative-OPLS-2005>
0.635699152946472

$$$$
87
                    3D
 Structure written by MMmdl.
155164  0  0  1  0            999 V2000
  -30.5733  -14.9080   20.4111 C   0  0  0  0  0  0
  -30.4330  -12.5267   19.5237 C   0  0  0  0  0  0
  -29.5276  -12.5244   18.2696 C   0  0  0  0  0  0
  -28.0538  -12.3267   18.6706 C   0  0  0  0  0  0
  -27.6293  -13.2530   19.8413 C   0  0  2  0  0  0
  -28.6539  -13.2654   20.9928 C   0  0  0  0  0  0
  -25.2446  -13.8238   20.5697 C   0  0  0  0  0  0
  -24.1762  -13.0451   20.9198 C   0  0  0  0  0  0
  -24.6383  -11.6937   20.8726 C   0  0  0  0  0  0
  -23.9075  -10.4301   21.0394 C   0  0  0  0  0  0
  -24.3627   -9.4218   21.9175 C   0  0  0  0  0  0
  -23.6302   -8.2253   22.0752 C   0  0  0  0  0  0
  -22.4281   -8.0285   21.3546 C   0  0  0  0  0  0
  -21.9916   -9.0256   20.4646 C   0  0  0  0  0  0
  -22.7245  -10.2135   20.3049 C   0  0  0  0  0  0
  -21.6857   -6.0738   22.5279 C   0  0  0  0  0  0
  -21.4017   -6.5641   23.8212 C   0  0  0  0  0  0
  -21.3662   -5.6794   24.9175 C   0  0  0  0  0  0
  -21.6045   -4.3056   24.7225 C   0  0  0  0  0  0
  -21.8818   -3.8148   23.4345 C   0  0  0  0  0  0
  -21.9194   -4.6965   22.3402 C   0  0  0  0  0  0
  -22.7787  -13.5216   21.1876 C   0  0  0  0  0  0
  -22.1661   -4.2150   21.0979 F   0  0  0  0  0  0
  -21.5631   -3.4539   25.7737 F   0  0  0  0  0  0
  -29.9568  -13.6089   20.4250 N   0  0  0  0  0  0
  -26.2862  -12.9478   20.3207 N   0  0  0  0  0  0
  -25.9312  -11.6600   20.5699 N   0  0  0  0  0  0
  -22.0452  -12.8194   22.0438 N   0  0  0  0  0  0
  -25.4145  -15.1969   20.4185 N   0  0  0  0  0  0
  -31.7438  -15.0194   20.0362 O   0  0  0  0  0  0
  -21.6647   -6.8881   21.4242 O   0  0  0  0  0  0
  -22.3459  -14.5520   20.6729 O   0  0  0  0  0  0
  -24.6396  -31.8443   23.1871 C   0  0  0  0  0  0
  -25.9179  -32.4693   23.8258 C   0  0  1  0  0  0
  -27.2232  -27.1591   20.1521 C   0  0  0  0  0  0
  -25.5937  -33.8500   24.2180 N   0  0  0  0  0  0
  -23.4423  -30.4609   21.5310 C   0  0  2  0  0  0
  -24.8924  -28.8844   20.1060 C   0  0  0  0  0  0
  -22.7547  -29.4542   22.4861 C   0  0  0  0  0  0
  -18.0300  -28.1393   22.8479 C   0  0  0  0  0  0
  -24.1490  -36.7257   23.2644 C   0  0  0  0  0  0
  -25.9933  -30.7254   21.3803 C   0  0  0  0  0  0
  -26.0640  -29.3371   20.7241 C   0  0  0  0  0  0
  -27.2269  -28.4878   20.7310 C   0  0  0  0  0  0
  -26.0304  -26.7936   19.4951 C   0  0  0  0  0  0
  -24.8869  -27.6267   19.4766 C   0  0  0  0  0  0
  -23.6666  -29.7836   20.1507 C   0  0  0  0  0  0
  -25.4123  -36.3032   24.0316 C   0  0  1  0  0  0
  -20.5910  -28.3714   23.1247 C   0  0  2  0  0  0
  -20.6782  -26.9419   22.5410 C   0  0  0  0  0  0
  -19.5760  -26.6380   21.5214 C   0  0  0  0  0  0
  -18.1940  -26.7933   22.1623 C   0  0  0  0  0  0
  -19.1556  -28.8871   23.2856 C   0  0  0  0  0  0
  -18.9474  -30.1468   23.8881 C   0  0  0  0  0  0
  -17.6471  -30.6591   24.0560 C   0  0  0  0  0  0
  -25.9070  -34.9408   23.5060 C   0  0  0  0  0  0
  -16.5363  -29.9086   23.6335 C   0  0  0  0  0  0
  -16.7285  -28.6504   23.0356 C   0  0  0  0  0  0
  -26.4516  -31.6562   25.0696 C   0  0  0  0  0  0
  -25.3709  -31.3746   26.1398 C   0  0  0  0  0  0
  -27.0383  -30.2965   24.6260 C   0  0  0  0  0  0
  -27.6049  -32.4328   25.7479 C   0  0  0  0  0  0
  -27.5575  -37.1785   24.8466 C   0  0  0  0  0  0
  -21.4242  -29.3039   22.3617 N   0  0  0  0  0  0
  -26.4287  -37.3745   23.9407 N   0  0  0  0  0  0
  -24.7112  -31.0317   22.0886 N   0  0  0  0  0  0
  -23.4203  -28.8103   23.3013 O   0  0  0  0  0  0
  -28.3103  -26.2314   20.2637 O   0  0  0  0  0  0
  -26.5662  -34.8907   22.4643 O   0  0  0  0  0  0
  -23.5524  -32.1307   23.7110 O   0  0  0  0  0  0
  -29.9351  -18.6206   17.9085 C   0  0  0  0  0  0
  -29.5865  -19.8693   18.4624 C   0  0  0  0  0  0
  -30.0103  -17.4446   18.6788 C   0  0  0  0  0  0
  -29.3734  -18.7793   20.6101 C   0  0  0  0  0  0
  -29.3133  -20.0549   19.8397 C   0  0  0  0  0  0
  -29.7175  -17.4335   20.0588 C   0  0  0  0  0  0
  -29.7361  -24.0467   20.1524 C   0  0  0  0  0  0
  -27.4500  -23.6028   20.5825 C   0  0  0  0  0  0
  -29.9448  -22.5184   19.7082 C   0  0  0  0  0  0
  -27.6817  -22.0533   20.1352 C   0  0  0  0  0  0
  -28.3351  -24.7256   19.8895 C   0  0  0  0  0  0
  -29.0515  -21.4583   20.2895 N   0  0  0  0  0  0
  -29.6919  -16.1217   20.7083 O   0  0  0  0  0  0
  -31.4763  -12.6647   19.2359 H   0  0  0  0  0  0
  -30.3875  -11.5631   20.0338 H   0  0  0  0  0  0
  -29.8372  -11.7385   17.5795 H   0  0  0  0  0  0
  -29.6396  -13.4673   17.7320 H   0  0  0  0  0  0
  -27.9320  -11.2832   18.9633 H   0  0  0  0  0  0
  -27.4017  -12.4791   17.8098 H   0  0  0  0  0  0
  -27.6035  -14.2609   19.4258 H   0  0  0  0  0  0
  -28.6974  -12.2948   21.4890 H   0  0  0  0  0  0
  -28.3665  -13.9931   21.7534 H   0  0  0  0  0  0
  -25.2772   -9.5697   22.4750 H   0  0  0  0  0  0
  -24.0013   -7.4645   22.7471 H   0  0  0  0  0  0
  -21.0848   -8.8771   19.8953 H   0  0  0  0  0  0
  -22.3696  -10.9672   19.6158 H   0  0  0  0  0  0
  -21.2008   -7.6148   23.9715 H   0  0  0  0  0  0
  -21.1487   -6.0524   25.9078 H   0  0  0  0  0  0
  -22.0594   -2.7610   23.2845 H   0  0  0  0  0  0
  -22.4086  -11.9858   22.4816 H   0  0  0  0  0  0
  -21.1070  -13.1206   22.2659 H   0  0  0  0  0  0
  -24.6549  -15.8566   20.5461 H   0  0  0  0  0  0
  -26.2796  -15.6384   20.1327 H   0  0  0  0  0  0
  -26.7242  -32.5307   23.0986 H   0  0  0  0  0  0
  -25.0058  -33.9614   25.0310 H   0  0  0  0  0  0
  -22.7439  -31.2856   21.3751 H   0  0  0  0  0  0
  -23.3756  -35.9585   23.3293 H   0  0  0  0  0  0
  -24.3576  -36.8902   22.2061 H   0  0  0  0  0  0
  -23.7243  -37.6448   23.6691 H   0  0  0  0  0  0
  -26.1440  -31.4798   20.6070 H   0  0  0  0  0  0
  -26.8658  -30.7774   22.0202 H   0  0  0  0  0  0
  -28.1200  -28.8265   21.2371 H   0  0  0  0  0  0
  -25.9592  -25.8261   19.0201 H   0  0  0  0  0  0
  -23.9902  -27.2761   18.9842 H   0  0  0  0  0  0
  -23.7981  -30.5552   19.3913 H   0  0  0  0  0  0
  -22.7826  -29.2211   19.8450 H   0  0  0  0  0  0
  -25.1312  -36.1859   25.0809 H   0  0  0  0  0  0
  -21.0004  -28.3302   24.1367 H   0  0  0  0  0  0
  -20.5671  -26.2327   23.3626 H   0  0  0  0  0  0
  -21.6649  -26.7424   22.1211 H   0  0  0  0  0  0
  -19.6920  -25.6285   21.1257 H   0  0  0  0  0  0
  -19.6698  -27.3180   20.6735 H   0  0  0  0  0  0
  -17.4209  -26.6679   21.4025 H   0  0  0  0  0  0
  -18.0337  -26.0078   22.9023 H   0  0  0  0  0  0
  -19.7950  -30.7289   24.2243 H   0  0  0  0  0  0
  -17.5025  -31.6270   24.5164 H   0  0  0  0  0  0
  -15.5362  -30.2983   23.7667 H   0  0  0  0  0  0
  -15.8685  -28.0818   22.7081 H   0  0  0  0  0  0
  -24.5890  -30.7092   25.7718 H   0  0  0  0  0  0
  -24.8896  -32.2927   26.4779 H   0  0  0  0  0  0
  -25.7997  -30.8946   27.0204 H   0  0  0  0  0  0
  -26.2993  -29.6684   24.1273 H   0  0  0  0  0  0
  -27.4014  -29.7266   25.4823 H   0  0  0  0  0  0
  -27.8888  -30.4212   23.9556 H   0  0  0  0  0  0
  -27.2645  -33.3645   26.2008 H   0  0  0  0  0  0
  -28.3885  -32.6860   25.0325 H   0  0  0  0  0  0
  -28.0691  -31.8485   26.5435 H   0  0  0  0  0  0
  -28.2586  -38.0087   24.7509 H   0  0  0  0  0  0
  -28.1077  -36.2616   24.6295 H   0  0  0  0  0  0
  -27.2292  -37.1433   25.8869 H   0  0  0  0  0  0
  -20.9449  -29.8744   21.6791 H   0  0  0  0  0  0
  -26.0152  -38.2813   24.1409 H   0  0  0  0  0  0
  -30.1406  -18.5622   16.8488 H   0  0  0  0  0  0
  -29.5385  -20.6960   17.7712 H   0  0  0  0  0  0
  -30.2574  -16.5243   18.1689 H   0  0  0  0  0  0
  -29.1443  -18.8311   21.6644 H   0  0  0  0  0  0
  -30.4938  -24.6451   19.6453 H   0  0  0  0  0  0
  -29.9739  -24.1327   21.2135 H   0  0  0  0  0  0
  -27.5863  -23.6705   21.6625 H   0  0  0  0  0  0
  -26.4007  -23.8475   20.4168 H   0  0  0  0  0  0
  -30.9772  -22.2366   19.9210 H   0  0  0  0  0  0
  -29.8600  -22.5183   18.6227 H   0  0  0  0  0  0
  -27.3852  -21.9491   19.0899 H   0  0  0  0  0  0
  -26.9858  -21.4271   20.6955 H   0  0  0  0  0  0
  -28.1405  -24.6839   18.8172 H   0  0  0  0  0  0
  1 25  1  0  0  0
  1 30  2  0  0  0
  1 83  1  0  0  0
  2  3  1  0  0  0
  2 25  1  0  0  0
  2 84  1  0  0  0
  2 85  1  0  0  0
  3  4  1  0  0  0
  3 86  1  0  0  0
  3 87  1  0  0  0
  4  5  1  0  0  0
  4 88  1  0  0  0
  4 89  1  0  0  0
  5  6  1  0  0  0
  5 26  1  0  0  0
  5 90  1  0  0  0
  6 25  1  0  0  0
  6 91  1  0  0  0
  6 92  1  0  0  0
  7  8  2  0  0  0
  7 26  1  0  0  0
  7 29  1  0  0  0
  8  9  1  0  0  0
  8 22  1  0  0  0
  9 10  1  0  0  0
  9 27  2  0  0  0
 10 11  2  0  0  0
 10 15  1  0  0  0
 11 12  1  0  0  0
 11 93  1  0  0  0
 12 13  2  0  0  0
 12 94  1  0  0  0
 13 14  1  0  0  0
 13 31  1  0  0  0
 14 15  2  0  0  0
 14 95  1  0  0  0
 15 96  1  0  0  0
 16 17  2  0  0  0
 16 21  1  0  0  0
 16 31  1  0  0  0
 17 18  1  0  0  0
 17 97  1  0  0  0
 18 19  2  0  0  0
 18 98  1  0  0  0
 19 20  1  0  0  0
 19 24  1  0  0  0
 20 21  2  0  0  0
 20 99  1  0  0  0
 21 23  1  0  0  0
 22 28  1  0  0  0
 22 32  2  0  0  0
 26 27  1  0  0  0
 28100  1  0  0  0
 28101  1  0  0  0
 29102  1  0  0  0
 29103  1  0  0  0
 33 34  1  0  0  0
 33 66  1  0  0  0
 33 70  2  0  0  0
 34 36  1  0  0  0
 34 59  1  0  0  0
 34104  1  0  0  0
 35 44  2  0  0  0
 35 45  1  0  0  0
 35 68  1  0  0  0
 36 56  1  0  0  0
 36105  1  0  0  0
 37 39  1  0  0  0
 37 47  1  0  0  0
 37 66  1  0  0  0
 37106  1  0  0  0
 38 43  2  0  0  0
 38 46  1  0  0  0
 38 47  1  0  0  0
 39 64  1  0  0  0
 39 67  2  0  0  0
 40 52  1  0  0  0
 40 53  2  0  0  0
 40 58  1  0  0  0
 41107  1  0  0  0
 41108  1  0  0  0
 41109  1  0  0  0
 41 48  1  0  0  0
 42 43  1  0  0  0
 42 66  1  0  0  0
 42110  1  0  0  0
 42111  1  0  0  0
 43 44  1  0  0  0
 44112  1  0  0  0
 45 46  2  0  0  0
 45113  1  0  0  0
 46114  1  0  0  0
 47115  1  0  0  0
 47116  1  0  0  0
 48 56  1  0  0  0
 48 65  1  0  0  0
 48117  1  0  0  0
 49 50  1  0  0  0
 49 53  1  0  0  0
 49 64  1  0  0  0
 49118  1  0  0  0
 50 51  1  0  0  0
 50119  1  0  0  0
 50120  1  0  0  0
 51 52  1  0  0  0
 51121  1  0  0  0
 51122  1  0  0  0
 52123  1  0  0  0
 52124  1  0  0  0
 53 54  1  0  0  0
 54 55  2  0  0  0
 54125  1  0  0  0
 55 57  1  0  0  0
 55126  1  0  0  0
 56 69  2  0  0  0
 57 58  2  0  0  0
 57127  1  0  0  0
 58128  1  0  0  0
 59 60  1  0  0  0
 59 61  1  0  0  0
 59 62  1  0  0  0
 60129  1  0  0  0
 60130  1  0  0  0
 60131  1  0  0  0
 61132  1  0  0  0
 61133  1  0  0  0
 61134  1  0  0  0
 62135  1  0  0  0
 62136  1  0  0  0
 62137  1  0  0  0
 63 65  1  0  0  0
 63138  1  0  0  0
 63139  1  0  0  0
 63140  1  0  0  0
 64141  1  0  0  0
 65142  1  0  0  0
 68 81  1  0  0  0
 71 72  2  0  0  0
 71 73  1  0  0  0
 71143  1  0  0  0
 72 75  1  0  0  0
 72144  1  0  0  0
 73 76  2  0  0  0
 73145  1  0  0  0
 74 75  2  0  0  0
 74 76  1  0  0  0
 74146  1  0  0  0
 75 82  1  0  0  0
 76 83  1  0  0  0
 77 79  1  0  0  0
 77 81  1  0  0  0
 77147  1  0  0  0
 77148  1  0  0  0
 78 80  1  0  0  0
 78 81  1  0  0  0
 78149  1  0  0  0
 78150  1  0  0  0
 79 82  1  0  0  0
 79151  1  0  0  0
 79152  1  0  0  0
 80 82  1  0  0  0
 80153  1  0  0  0
 80154  1  0  0  0
 81155  1  0  0  0
M  ISO  4   1 100  68 101  81 101  83 100
M  END
> <chiral flag>
0

> <version>
0

> <s_m_source_file>
/data/baiqing/PycharmProjects/Reinvent-master-3.2/result/LINK_invent/BTK/process_docking_weight1_custom_product_contain_oxygen_bond_distance_aromatic_linkinvent_7_9_3/rearranged_h_0006.sdf

> <i_m_source_file_index>
87

> <r_mmod_Potential_Energy-OPLS-2005>
493.545196533203

> <r_mmod_Stretch_Energy-OPLS-2005>
228.121307373047

> <r_mmod_Bend_Energy-OPLS-2005>
256.215118408203

> <r_mmod_Torsional_Energy-OPLS-2005>
217.2509765625

> <r_mmod_Improper_Torsional_Energy-OPLS-2005>
9.32823944091797

> <r_mmod_Van_der_Waal_Energy-OPLS-2005>
135.489074707031

> <r_mmod_Electrostatic_Energy-OPLS-2005>
-302.552124023438

> <r_mmod_Solvation_Energy-OPLS-2005>
-213.940017700195

> <b_mmod_Minimization_Converged-OPLS-2005>
0

> <r_mmod_RMS_Derivative-OPLS-2005>
0.291374266147614

$$$$
88
                    3D
 Structure written by MMmdl.
166175  0  0  1  0            999 V2000
  -30.6458  -14.6276   20.4256 C   0  0  0  0  0  0
  -30.4125  -12.3683   19.4652 C   0  0  0  0  0  0
  -29.4958  -12.4781   18.2277 C   0  0  0  0  0  0
  -28.0186  -12.3316   18.6407 C   0  0  0  0  0  0
  -27.6408  -13.2157   19.8597 C   0  0  2  0  0  0
  -28.6876  -13.1246   20.9917 C   0  0  0  0  0  0
  -25.2501  -13.8170   20.5726 C   0  0  0  0  0  0
  -24.1782  -13.0433   20.9237 C   0  0  0  0  0  0
  -24.6361  -11.6906   20.8783 C   0  0  0  0  0  0
  -23.9054  -10.4284   21.0432 C   0  0  0  0  0  0
  -24.3617   -9.4193   21.9203 C   0  0  0  0  0  0
  -23.6293   -8.2228   22.0755 C   0  0  0  0  0  0
  -22.4271   -8.0284   21.3548 C   0  0  0  0  0  0
  -21.9906   -9.0259   20.4652 C   0  0  0  0  0  0
  -22.7232  -10.2140   20.3071 C   0  0  0  0  0  0
  -21.6837   -6.0748   22.5288 C   0  0  0  0  0  0
  -21.4012   -6.5649   23.8226 C   0  0  0  0  0  0
  -21.3654   -5.6795   24.9185 C   0  0  0  0  0  0
  -21.6034   -4.3058   24.7226 C   0  0  0  0  0  0
  -21.8812   -3.8157   23.4344 C   0  0  0  0  0  0
  -21.9184   -4.6978   22.3404 C   0  0  0  0  0  0
  -22.7807  -13.5236   21.1863 C   0  0  0  0  0  0
  -22.1649   -4.2165   21.0979 F   0  0  0  0  0  0
  -21.5622   -3.4542   25.7738 F   0  0  0  0  0  0
  -29.9978  -13.4249   20.4074 N   0  0  0  0  0  0
  -26.2914  -12.9348   20.3351 N   0  0  0  0  0  0
  -25.9285  -11.6509   20.5821 N   0  0  0  0  0  0
  -22.0421  -12.8256   22.0420 N   0  0  0  0  0  0
  -25.4177  -15.1893   20.4112 N   0  0  0  0  0  0
  -31.8456  -14.7052   20.1561 O   0  0  0  0  0  0
  -21.6623   -6.8892   21.4251 O   0  0  0  0  0  0
  -22.3510  -14.5540   20.6691 O   0  0  0  0  0  0
  -24.6221  -31.8621   23.2044 C   0  0  0  0  0  0
  -25.9073  -32.4797   23.8382 C   0  0  1  0  0  0
  -27.2280  -27.3511   20.1025 C   0  0  0  0  0  0
  -25.5890  -33.8601   24.2306 N   0  0  0  0  0  0
  -23.4159  -30.4863   21.5453 C   0  0  2  0  0  0
  -24.8600  -28.9399   20.1132 C   0  0  0  0  0  0
  -22.7452  -29.4641   22.4928 C   0  0  0  0  0  0
  -18.0281  -28.1403   22.8481 C   0  0  0  0  0  0
  -24.1482  -36.7307   23.2646 C   0  0  0  0  0  0
  -25.9548  -30.8008   21.3725 C   0  0  0  0  0  0
  -26.0256  -29.4304   20.7127 C   0  0  0  0  0  0
  -27.2101  -28.6452   20.6990 C   0  0  0  0  0  0
  -26.0354  -26.8908   19.5029 C   0  0  0  0  0  0
  -24.8636  -27.6744   19.5043 C   0  0  0  0  0  0
  -23.6295  -29.8206   20.1602 C   0  0  0  0  0  0
  -25.4109  -36.3115   24.0345 C   0  0  1  0  0  0
  -20.5878  -28.3714   23.1273 C   0  0  2  0  0  0
  -20.6767  -26.9435   22.5405 C   0  0  0  0  0  0
  -19.5742  -26.6398   21.5207 C   0  0  0  0  0  0
  -18.1922  -26.7946   22.1620 C   0  0  0  0  0  0
  -19.1534  -28.8872   23.2878 C   0  0  0  0  0  0
  -18.9461  -30.1464   23.8910 C   0  0  0  0  0  0
  -17.6464  -30.6599   24.0579 C   0  0  0  0  0  0
  -25.9041  -34.9471   23.5139 C   0  0  0  0  0  0
  -16.5352  -29.9108   23.6328 C   0  0  0  0  0  0
  -16.7271  -28.6526   23.0348 C   0  0  0  0  0  0
  -26.4468  -31.6607   25.0745 C   0  0  0  0  0  0
  -25.3691  -31.3732   26.1471 C   0  0  0  0  0  0
  -27.0327  -30.3037   24.6201 C   0  0  0  0  0  0
  -27.6057  -32.4329   25.7477 C   0  0  0  0  0  0
  -27.5585  -37.1813   24.8467 C   0  0  0  0  0  0
  -21.4169  -29.3066   22.3667 N   0  0  0  0  0  0
  -26.4299  -37.3796   23.9408 N   0  0  0  0  0  0
  -24.6830  -31.0662   22.0978 N   0  0  0  0  0  0
  -23.4185  -28.8177   23.2997 O   0  0  0  0  0  0
  -28.3862  -26.5745   20.1549 O   0  0  0  0  0  0
  -26.5621  -34.8927   22.4709 O   0  0  0  0  0  0
  -23.5383  -32.1408   23.7375 O   0  0  0  0  0  0
  -30.1226  -19.2622   20.7532 C   0  0  0  0  0  0
  -29.5461  -20.6783   20.9826 C   0  0  0  0  0  0
  -28.6708  -16.6492   17.6573 C   0  0  0  0  0  0
  -28.1503  -18.0767   17.7658 C   0  0  0  0  0  0
  -30.1389  -16.6497   18.0747 C   0  0  0  0  0  0
  -28.4398  -20.3034   18.8278 C   0  0  0  0  0  0
  -28.3831  -18.7773   19.1374 C   0  0  2  0  0  0
  -30.2625  -16.9771   19.5764 C   0  0  1  0  0  0
  -28.3074  -23.9230   20.2442 C   0  0  0  0  0  0
  -28.8733  -22.6556   19.4741 C   0  0  0  0  0  0
  -28.5197  -25.2893   19.4625 C   0  0  0  0  0  0
  -29.6058  -18.3359   19.8805 N   0  0  0  0  0  0
  -29.8711  -15.7615   20.3852 N   0  0  0  0  0  0
  -31.2023  -18.9568   21.5011 N   0  3  0  0  0  0
  -28.5923  -21.2367   19.9721 N   0  3  2  0  0  0
  -31.4601  -12.4521   19.1715 H   0  0  0  0  0  0
  -30.3127  -11.3878   19.9328 H   0  0  0  0  0  0
  -29.7568  -11.7114   17.4977 H   0  0  0  0  0  0
  -29.6478  -13.4363   17.7286 H   0  0  0  0  0  0
  -27.8495  -11.2821   18.8838 H   0  0  0  0  0  0
  -27.3660  -12.5532   17.7947 H   0  0  0  0  0  0
  -27.6410  -14.2393   19.4980 H   0  0  0  0  0  0
  -28.6904  -12.1300   21.4387 H   0  0  0  0  0  0
  -28.4510  -13.8229   21.7966 H   0  0  0  0  0  0
  -25.2760   -9.5661   22.4791 H   0  0  0  0  0  0
  -23.9994   -7.4605   22.7471 H   0  0  0  0  0  0
  -21.0831   -8.8793   19.8958 H   0  0  0  0  0  0
  -22.3697  -10.9698   19.6192 H   0  0  0  0  0  0
  -21.2014   -7.6158   23.9744 H   0  0  0  0  0  0
  -21.1475   -6.0519   25.9091 H   0  0  0  0  0  0
  -22.0593   -2.7621   23.2834 H   0  0  0  0  0  0
  -22.4008  -11.9939   22.4869 H   0  0  0  0  0  0
  -21.1037  -13.1310   22.2588 H   0  0  0  0  0  0
  -24.6407  -15.8334   20.5135 H   0  0  0  0  0  0
  -26.2461  -15.6294   20.0380 H   0  0  0  0  0  0
  -26.7145  -32.5474   23.1138 H   0  0  0  0  0  0
  -25.0013  -33.9752   25.0435 H   0  0  0  0  0  0
  -22.7101  -31.3072   21.4029 H   0  0  0  0  0  0
  -23.3748  -35.9632   23.3316 H   0  0  0  0  0  0
  -24.3579  -36.8908   22.2058 H   0  0  0  0  0  0
  -23.7215  -37.6509   23.6650 H   0  0  0  0  0  0
  -26.0927  -31.5675   20.6094 H   0  0  0  0  0  0
  -26.8329  -30.8426   22.0060 H   0  0  0  0  0  0
  -28.1115  -29.0222   21.1616 H   0  0  0  0  0  0
  -25.9730  -25.9132   19.0499 H   0  0  0  0  0  0
  -23.9645  -27.2881   19.0448 H   0  0  0  0  0  0
  -23.7529  -30.5977   19.4050 H   0  0  0  0  0  0
  -22.7487  -29.2533   19.8566 H   0  0  0  0  0  0
  -25.1279  -36.2005   25.0838 H   0  0  0  0  0  0
  -20.9989  -28.3303   24.1388 H   0  0  0  0  0  0
  -20.5664  -26.2328   23.3611 H   0  0  0  0  0  0
  -21.6636  -26.7459   22.1206 H   0  0  0  0  0  0
  -19.6904  -25.6308   21.1242 H   0  0  0  0  0  0
  -19.6679  -27.3199   20.6731 H   0  0  0  0  0  0
  -17.4189  -26.6689   21.4026 H   0  0  0  0  0  0
  -18.0330  -26.0091   22.9023 H   0  0  0  0  0  0
  -19.7937  -30.7270   24.2290 H   0  0  0  0  0  0
  -17.5026  -31.6279   24.5190 H   0  0  0  0  0  0
  -15.5357  -30.3030   23.7644 H   0  0  0  0  0  0
  -15.8664  -28.0858   22.7064 H   0  0  0  0  0  0
  -24.5855  -30.7108   25.7775 H   0  0  0  0  0  0
  -24.8884  -32.2888   26.4929 H   0  0  0  0  0  0
  -25.7993  -30.8869   27.0233 H   0  0  0  0  0  0
  -26.2922  -29.6773   24.1217 H   0  0  0  0  0  0
  -27.4025  -29.7317   25.4721 H   0  0  0  0  0  0
  -27.8785  -30.4343   23.9443 H   0  0  0  0  0  0
  -27.2720  -33.3632   26.2082 H   0  0  0  0  0  0
  -28.3828  -32.6880   25.0261 H   0  0  0  0  0  0
  -28.0776  -31.8435   26.5346 H   0  0  0  0  0  0
  -28.2622  -38.0094   24.7520 H   0  0  0  0  0  0
  -28.1062  -36.2632   24.6295 H   0  0  0  0  0  0
  -27.2305  -37.1476   25.8870 H   0  0  0  0  0  0
  -20.9347  -29.8813   21.6901 H   0  0  0  0  0  0
  -26.0198  -38.2878   24.1390 H   0  0  0  0  0  0
  -30.3825  -21.3694   21.0944 H   0  0  0  0  0  0
  -29.0370  -20.6800   21.9470 H   0  0  0  0  0  0
  -28.5696  -16.2945   16.6304 H   0  0  0  0  0  0
  -28.0771  -15.9798   18.2747 H   0  0  0  0  0  0
  -27.0799  -18.0723   17.5527 H   0  0  0  0  0  0
  -28.5961  -18.6569   16.9560 H   0  0  0  0  0  0
  -30.6927  -17.3850   17.4871 H   0  0  0  0  0  0
  -30.5977  -15.6903   17.8359 H   0  0  0  0  0  0
  -27.5382  -20.5862   18.2805 H   0  0  0  0  0  0
  -29.2715  -20.4828   18.1427 H   0  0  0  0  0  0
  -27.5320  -18.5663   19.7864 H   0  0  0  0  0  0
  -31.3286  -17.1348   19.7413 H   0  0  0  0  0  0
  -28.7914  -23.9938   21.2179 H   0  0  0  0  0  0
  -27.2429  -23.7945   20.4401 H   0  0  0  0  0  0
  -29.9468  -22.7734   19.3219 H   0  0  0  0  0  0
  -28.4515  -22.7320   18.4701 H   0  0  0  0  0  0
  -27.9574  -25.2861   18.5291 H   0  0  0  0  0  0
  -29.5574  -25.2883   19.1275 H   0  0  0  0  0  0
  -28.8970  -15.6556   20.6201 H   0  0  0  0  0  0
  -31.5791  -19.6252   22.1583 H   0  0  0  0  0  0
  -31.6325  -18.0452   21.4876 H   0  0  0  0  0  0
  -27.6891  -21.2561   20.4229 H   0  0  0  0  0  0
  1 25  1  0  0  0
  1 30  2  0  0  0
  1 83  1  0  0  0
  2  3  1  0  0  0
  2 25  1  0  0  0
  2 86  1  0  0  0
  2 87  1  0  0  0
  3  4  1  0  0  0
  3 88  1  0  0  0
  3 89  1  0  0  0
  4  5  1  0  0  0
  4 90  1  0  0  0
  4 91  1  0  0  0
  5  6  1  0  0  0
  5 26  1  0  0  0
  5 92  1  0  0  0
  6 25  1  0  0  0
  6 93  1  0  0  0
  6 94  1  0  0  0
  7  8  2  0  0  0
  7 26  1  0  0  0
  7 29  1  0  0  0
  8  9  1  0  0  0
  8 22  1  0  0  0
  9 10  1  0  0  0
  9 27  2  0  0  0
 10 11  2  0  0  0
 10 15  1  0  0  0
 11 12  1  0  0  0
 11 95  1  0  0  0
 12 13  2  0  0  0
 12 96  1  0  0  0
 13 14  1  0  0  0
 13 31  1  0  0  0
 14 15  2  0  0  0
 14 97  1  0  0  0
 15 98  1  0  0  0
 16 17  2  0  0  0
 16 21  1  0  0  0
 16 31  1  0  0  0
 17 18  1  0  0  0
 17 99  1  0  0  0
 18 19  2  0  0  0
 18100  1  0  0  0
 19 20  1  0  0  0
 19 24  1  0  0  0
 20 21  2  0  0  0
 20101  1  0  0  0
 21 23  1  0  0  0
 22 28  1  0  0  0
 22 32  2  0  0  0
 26 27  1  0  0  0
 28102  1  0  0  0
 28103  1  0  0  0
 29104  1  0  0  0
 29105  1  0  0  0
 33 34  1  0  0  0
 33 66  1  0  0  0
 33 70  2  0  0  0
 34 36  1  0  0  0
 34 59  1  0  0  0
 34106  1  0  0  0
 35 44  2  0  0  0
 35 45  1  0  0  0
 35 68  1  0  0  0
 36 56  1  0  0  0
 36107  1  0  0  0
 37 39  1  0  0  0
 37 47  1  0  0  0
 37 66  1  0  0  0
 37108  1  0  0  0
 38 43  2  0  0  0
 38 46  1  0  0  0
 38 47  1  0  0  0
 39 64  1  0  0  0
 39 67  2  0  0  0
 40 52  1  0  0  0
 40 53  2  0  0  0
 40 58  1  0  0  0
 41109  1  0  0  0
 41110  1  0  0  0
 41111  1  0  0  0
 41 48  1  0  0  0
 42 43  1  0  0  0
 42 66  1  0  0  0
 42112  1  0  0  0
 42113  1  0  0  0
 43 44  1  0  0  0
 44114  1  0  0  0
 45 46  2  0  0  0
 45115  1  0  0  0
 46116  1  0  0  0
 47117  1  0  0  0
 47118  1  0  0  0
 48 56  1  0  0  0
 48 65  1  0  0  0
 48119  1  0  0  0
 49 50  1  0  0  0
 49 53  1  0  0  0
 49 64  1  0  0  0
 49120  1  0  0  0
 50 51  1  0  0  0
 50121  1  0  0  0
 50122  1  0  0  0
 51 52  1  0  0  0
 51123  1  0  0  0
 51124  1  0  0  0
 52125  1  0  0  0
 52126  1  0  0  0
 53 54  1  0  0  0
 54 55  2  0  0  0
 54127  1  0  0  0
 55 57  1  0  0  0
 55128  1  0  0  0
 56 69  2  0  0  0
 57 58  2  0  0  0
 57129  1  0  0  0
 58130  1  0  0  0
 59 60  1  0  0  0
 59 61  1  0  0  0
 59 62  1  0  0  0
 60131  1  0  0  0
 60132  1  0  0  0
 60133  1  0  0  0
 61134  1  0  0  0
 61135  1  0  0  0
 61136  1  0  0  0
 62137  1  0  0  0
 62138  1  0  0  0
 62139  1  0  0  0
 63 65  1  0  0  0
 63140  1  0  0  0
 63141  1  0  0  0
 63142  1  0  0  0
 64143  1  0  0  0
 65144  1  0  0  0
 68 81  1  0  0  0
 71 72  1  0  0  0
 71 82  1  0  0  0
 71 84  2  0  0  0
 72 85  1  0  0  0
 72145  1  0  0  0
 72146  1  0  0  0
 73 74  1  0  0  0
 73 75  1  0  0  0
 73147  1  0  0  0
 73148  1  0  0  0
 74149  1  0  0  0
 74150  1  0  0  0
 74 77  1  0  0  0
 75 78  1  0  0  0
 75151  1  0  0  0
 75152  1  0  0  0
 76 77  1  0  0  0
 76 85  1  0  0  0
 76153  1  0  0  0
 76154  1  0  0  0
 77 82  1  0  0  0
 77155  1  0  0  0
 78 82  1  0  0  0
 78 83  1  0  0  0
 78156  1  0  0  0
 79 80  1  0  0  0
 79 81  1  0  0  0
 79157  1  0  0  0
 79158  1  0  0  0
 80159  1  0  0  0
 80160  1  0  0  0
 80 85  1  0  0  0
 81161  1  0  0  0
 81162  1  0  0  0
 83163  1  0  0  0
 84164  1  0  0  0
 84165  1  0  0  0
 85166  1  0  0  0
M  CHG  2  84   1  85   1
M  ISO  4   1 100  68 101  81 101  83 100
M  END
> <chiral flag>
0

> <version>
0

> <s_m_source_file>
/data/baiqing/PycharmProjects/Reinvent-master-3.2/result/LINK_invent/BTK/process_docking_weight1_custom_product_contain_oxygen_bond_distance_aromatic_linkinvent_7_9_3/rearranged_h_0006.sdf

> <i_m_source_file_index>
88

> <r_mmod_Potential_Energy-OPLS-2005>
-155.747161865234

> <r_mmod_Stretch_Energy-OPLS-2005>
79.4720611572266

> <r_mmod_Bend_Energy-OPLS-2005>
177.205917358398

> <r_mmod_Torsional_Energy-OPLS-2005>
299.63671875

> <r_mmod_Improper_Torsional_Energy-OPLS-2005>
11.1416091918945

> <r_mmod_Van_der_Waal_Energy-OPLS-2005>
133.458648681641

> <r_mmod_Electrostatic_Energy-OPLS-2005>
128.527603149414

> <r_mmod_Solvation_Energy-OPLS-2005>
-1029.65295410156

> <b_mmod_Minimization_Converged-OPLS-2005>
0

> <r_mmod_RMS_Derivative-OPLS-2005>
1.82746827602386

$$$$
89
                    3D
 Structure written by MMmdl.
156164  0  0  1  0            999 V2000
  -30.5892  -14.6714   20.5010 C   0  0  0  0  0  0
  -30.4463  -12.4160   19.4441 C   0  0  0  0  0  0
  -29.5056  -12.5172   18.2211 C   0  0  0  0  0  0
  -28.0296  -12.3486   18.6357 C   0  0  0  0  0  0
  -27.6558  -13.2128   19.8681 C   0  0  2  0  0  0
  -28.7025  -13.0570   20.9947 C   0  0  0  0  0  0
  -25.2540  -13.8118   20.5551 C   0  0  0  0  0  0
  -24.1834  -13.0415   20.9194 C   0  0  0  0  0  0
  -24.6418  -11.6889   20.8793 C   0  0  0  0  0  0
  -23.9070  -10.4280   21.0450 C   0  0  0  0  0  0
  -24.3623   -9.4193   21.9217 C   0  0  0  0  0  0
  -23.6296   -8.2231   22.0763 C   0  0  0  0  0  0
  -22.4277   -8.0290   21.3549 C   0  0  0  0  0  0
  -21.9928   -9.0265   20.4649 C   0  0  0  0  0  0
  -22.7251  -10.2139   20.3081 C   0  0  0  0  0  0
  -21.6838   -6.0749   22.5284 C   0  0  0  0  0  0
  -21.4000   -6.5647   23.8220 C   0  0  0  0  0  0
  -21.3663   -5.6796   24.9177 C   0  0  0  0  0  0
  -21.6050   -4.3061   24.7220 C   0  0  0  0  0  0
  -21.8815   -3.8158   23.4333 C   0  0  0  0  0  0
  -21.9190   -4.6980   22.3394 C   0  0  0  0  0  0
  -22.7858  -13.5229   21.1851 C   0  0  0  0  0  0
  -22.1663   -4.2170   21.0969 F   0  0  0  0  0  0
  -21.5643   -3.4548   25.7730 F   0  0  0  0  0  0
  -30.0161  -13.4250   20.4331 N   0  0  0  0  0  0
  -26.3005  -12.9309   20.3345 N   0  0  0  0  0  0
  -25.9350  -11.6473   20.5828 N   0  0  0  0  0  0
  -22.0480  -12.8243   22.0416 N   0  0  0  0  0  0
  -25.4162  -15.1787   20.3590 N   0  0  0  0  0  0
  -31.7315  -14.8786   20.0789 O   0  0  0  0  0  0
  -21.6634   -6.8887   21.4242 O   0  0  0  0  0  0
  -22.3564  -14.5548   20.6689 O   0  0  0  0  0  0
  -24.6258  -31.8573   23.1969 C   0  0  0  0  0  0
  -25.9115  -32.4749   23.8311 C   0  0  1  0  0  0
  -27.2346  -27.3077   20.1395 C   0  0  0  0  0  0
  -25.5963  -33.8545   24.2266 N   0  0  0  0  0  0
  -23.4232  -30.4731   21.5373 C   0  0  2  0  0  0
  -24.8726  -28.9151   20.1179 C   0  0  0  0  0  0
  -22.7501  -29.4573   22.4905 C   0  0  0  0  0  0
  -18.0283  -28.1371   22.8438 C   0  0  0  0  0  0
  -24.1498  -36.7262   23.2647 C   0  0  0  0  0  0
  -25.9602  -30.7853   21.3647 C   0  0  0  0  0  0
  -26.0391  -29.4079   20.7164 C   0  0  0  0  0  0
  -27.2250  -28.6190   20.7075 C   0  0  0  0  0  0
  -26.0490  -26.8551   19.5288 C   0  0  0  0  0  0
  -24.8794  -27.6451   19.5149 C   0  0  0  0  0  0
  -23.6428  -29.7991   20.1558 C   0  0  0  0  0  0
  -25.4115  -36.3060   24.0350 C   0  0  1  0  0  0
  -20.5890  -28.3673   23.1270 C   0  0  2  0  0  0
  -20.6781  -26.9398   22.5395 C   0  0  0  0  0  0
  -19.5762  -26.6381   21.5184 C   0  0  0  0  0  0
  -18.1931  -26.7901   22.1589 C   0  0  0  0  0  0
  -19.1539  -28.8833   23.2842 C   0  0  0  0  0  0
  -18.9466  -30.1427   23.8878 C   0  0  0  0  0  0
  -17.6477  -30.6569   24.0539 C   0  0  0  0  0  0
  -25.9066  -34.9432   23.5098 C   0  0  0  0  0  0
  -16.5359  -29.9059   23.6328 C   0  0  0  0  0  0
  -16.7274  -28.6488   23.0315 C   0  0  0  0  0  0
  -26.4505  -31.6552   25.0668 C   0  0  0  0  0  0
  -25.3766  -31.3715   26.1423 C   0  0  0  0  0  0
  -27.0345  -30.2988   24.6084 C   0  0  0  0  0  0
  -27.6063  -32.4300   25.7441 C   0  0  0  0  0  0
  -27.5576  -37.1781   24.8472 C   0  0  0  0  0  0
  -21.4212  -29.3013   22.3683 N   0  0  0  0  0  0
  -26.4280  -37.3746   23.9427 N   0  0  0  0  0  0
  -24.6878  -31.0565   22.0912 N   0  0  0  0  0  0
  -23.4242  -28.8129   23.2979 O   0  0  0  0  0  0
  -28.3816  -26.5052   20.1117 O   0  0  0  0  0  0
  -26.5587  -34.8897   22.4638 O   0  0  0  0  0  0
  -23.5427  -32.1363   23.7308 O   0  0  0  0  0  0
  -30.1609  -19.4431   20.0617 C   0  0  0  0  0  0
  -30.4100  -18.0216   20.0717 C   0  0  0  0  0  0
  -28.4155  -19.1318   21.6730 C   0  0  0  0  0  0
  -29.1375  -20.0411   20.8602 C   0  0  0  0  0  0
  -28.6695  -17.7339   21.7097 C   0  0  0  0  0  0
  -29.6665  -17.1254   20.8989 C   0  0  0  0  0  0
  -27.8534  -16.8826   22.6727 C   0  0  0  0  0  0
  -28.7639  -21.5819   20.9979 C   0  0  0  0  0  0
  -28.2641  -23.8608   19.7408 C   0  0  0  0  0  0
  -28.3821  -25.1363   20.6931 C   0  0  0  0  0  0
  -29.7588  -15.6593   20.9644 N   0  0  0  0  0  0
  -29.1397  -22.6165   19.9614 N   0  3  0  0  0  0
  -31.4825  -12.5641   19.1358 H   0  0  0  0  0  0
  -30.4054  -11.4181   19.8827 H   0  0  0  0  0  0
  -29.7702  -11.7615   17.4812 H   0  0  0  0  0  0
  -29.6360  -13.4828   17.7314 H   0  0  0  0  0  0
  -27.8658  -11.2930   18.8596 H   0  0  0  0  0  0
  -27.3730  -12.5860   17.7983 H   0  0  0  0  0  0
  -27.6758  -14.2504   19.5361 H   0  0  0  0  0  0
  -28.7270  -12.0286   21.3585 H   0  0  0  0  0  0
  -28.4346  -13.6637   21.8614 H   0  0  0  0  0  0
  -25.2761   -9.5665   22.4810 H   0  0  0  0  0  0
  -24.0005   -7.4614   22.7479 H   0  0  0  0  0  0
  -21.0868   -8.8786   19.8939 H   0  0  0  0  0  0
  -22.3722  -10.9698   19.6209 H   0  0  0  0  0  0
  -21.1972   -7.6157   23.9729 H   0  0  0  0  0  0
  -21.1498   -6.0522   25.9082 H   0  0  0  0  0  0
  -22.0585   -2.7627   23.2816 H   0  0  0  0  0  0
  -22.4044  -11.9881   22.4806 H   0  0  0  0  0  0
  -21.1129  -13.1346   22.2640 H   0  0  0  0  0  0
  -24.5935  -15.7698   20.3046 H   0  0  0  0  0  0
  -26.1970  -15.5484   19.8316 H   0  0  0  0  0  0
  -26.7172  -32.5442   23.1052 H   0  0  0  0  0  0
  -25.0223  -33.9679   25.0492 H   0  0  0  0  0  0
  -22.7148  -31.2902   21.3844 H   0  0  0  0  0  0
  -23.3767  -35.9586   23.3296 H   0  0  0  0  0  0
  -24.3604  -36.8876   22.2063 H   0  0  0  0  0  0
  -23.7245  -37.6461   23.6662 H   0  0  0  0  0  0
  -26.0869  -31.5422   20.5910 H   0  0  0  0  0  0
  -26.8450  -30.8443   21.9886 H   0  0  0  0  0  0
  -28.1295  -28.9985   21.1600 H   0  0  0  0  0  0
  -26.0241  -25.8851   19.0516 H   0  0  0  0  0  0
  -23.9884  -27.2597   19.0420 H   0  0  0  0  0  0
  -23.7703  -30.5691   19.3949 H   0  0  0  0  0  0
  -22.7634  -29.2299   19.8519 H   0  0  0  0  0  0
  -25.1286  -36.1902   25.0838 H   0  0  0  0  0  0
  -20.9946  -28.3222   24.1403 H   0  0  0  0  0  0
  -20.5684  -26.2257   23.3584 H   0  0  0  0  0  0
  -21.6645  -26.7417   22.1186 H   0  0  0  0  0  0
  -19.6941  -25.6300   21.1197 H   0  0  0  0  0  0
  -19.6725  -27.3197   20.6725 H   0  0  0  0  0  0
  -17.4210  -26.6643   21.3985 H   0  0  0  0  0  0
  -18.0316  -26.0043   22.8992 H   0  0  0  0  0  0
  -19.7956  -30.7207   24.2276 H   0  0  0  0  0  0
  -17.5037  -31.6252   24.5125 H   0  0  0  0  0  0
  -15.5358  -30.2948   23.7674 H   0  0  0  0  0  0
  -15.8671  -28.0818   22.7028 H   0  0  0  0  0  0
  -24.5924  -30.7074   25.7786 H   0  0  0  0  0  0
  -24.8981  -32.2893   26.4866 H   0  0  0  0  0  0
  -25.8107  -30.8907   27.0202 H   0  0  0  0  0  0
  -26.2873  -29.6737   24.1174 H   0  0  0  0  0  0
  -27.4149  -29.7248   25.4544 H   0  0  0  0  0  0
  -27.8710  -30.4299   23.9210 H   0  0  0  0  0  0
  -27.2698  -33.3638   26.1947 H   0  0  0  0  0  0
  -28.3916  -32.6795   25.0305 H   0  0  0  0  0  0
  -28.0678  -31.8483   26.5422 H   0  0  0  0  0  0
  -28.2567  -38.0090   24.7498 H   0  0  0  0  0  0
  -28.1093  -36.2618   24.6321 H   0  0  0  0  0  0
  -27.2295  -37.1444   25.8870 H   0  0  0  0  0  0
  -20.9404  -29.8764   21.6900 H   0  0  0  0  0  0
  -26.0170  -38.2826   24.1416 H   0  0  0  0  0  0
  -30.7772  -20.0657   19.4268 H   0  0  0  0  0  0
  -31.1801  -17.6267   19.4232 H   0  0  0  0  0  0
  -27.6423  -19.5309   22.3168 H   0  0  0  0  0  0
  -27.1715  -17.4898   23.2683 H   0  0  0  0  0  0
  -28.5114  -16.3552   23.3653 H   0  0  0  0  0  0
  -27.2542  -16.1477   22.1379 H   0  0  0  0  0  0
  -29.1475  -21.9259   21.9592 H   0  0  0  0  0  0
  -27.6776  -21.6172   21.0963 H   0  0  0  0  0  0
  -28.5123  -24.2076   18.7389 H   0  0  0  0  0  0
  -27.2211  -23.5547   19.6777 H   0  0  0  0  0  0
  -29.3235  -25.0572   21.2385 H   0  0  0  0  0  0
  -27.6181  -25.0736   21.4702 H   0  0  0  0  0  0
  -28.9413  -15.2493   21.3877 H   0  0  0  0  0  0
  -29.1220  -22.1208   19.0852 H   0  0  0  0  0  0
  -30.0980  -22.8942   20.1075 H   0  0  0  0  0  0
  1 25  1  0  0  0
  1 30  2  0  0  0
  1 81  1  0  0  0
  2  3  1  0  0  0
  2 25  1  0  0  0
  2 83  1  0  0  0
  2 84  1  0  0  0
  3  4  1  0  0  0
  3 85  1  0  0  0
  3 86  1  0  0  0
  4  5  1  0  0  0
  4 87  1  0  0  0
  4 88  1  0  0  0
  5  6  1  0  0  0
  5 26  1  0  0  0
  5 89  1  0  0  0
  6 25  1  0  0  0
  6 90  1  0  0  0
  6 91  1  0  0  0
  7  8  2  0  0  0
  7 26  1  0  0  0
  7 29  1  0  0  0
  8  9  1  0  0  0
  8 22  1  0  0  0
  9 10  1  0  0  0
  9 27  2  0  0  0
 10 11  2  0  0  0
 10 15  1  0  0  0
 11 12  1  0  0  0
 11 92  1  0  0  0
 12 13  2  0  0  0
 12 93  1  0  0  0
 13 14  1  0  0  0
 13 31  1  0  0  0
 14 15  2  0  0  0
 14 94  1  0  0  0
 15 95  1  0  0  0
 16 17  2  0  0  0
 16 21  1  0  0  0
 16 31  1  0  0  0
 17 18  1  0  0  0
 17 96  1  0  0  0
 18 19  2  0  0  0
 18 97  1  0  0  0
 19 20  1  0  0  0
 19 24  1  0  0  0
 20 21  2  0  0  0
 20 98  1  0  0  0
 21 23  1  0  0  0
 22 28  1  0  0  0
 22 32  2  0  0  0
 26 27  1  0  0  0
 28 99  1  0  0  0
 28100  1  0  0  0
 29101  1  0  0  0
 29102  1  0  0  0
 33 34  1  0  0  0
 33 66  1  0  0  0
 33 70  2  0  0  0
 34 36  1  0  0  0
 34 59  1  0  0  0
 34103  1  0  0  0
 35 44  2  0  0  0
 35 45  1  0  0  0
 35 68  1  0  0  0
 36 56  1  0  0  0
 36104  1  0  0  0
 37 39  1  0  0  0
 37 47  1  0  0  0
 37 66  1  0  0  0
 37105  1  0  0  0
 38 43  2  0  0  0
 38 46  1  0  0  0
 38 47  1  0  0  0
 39 64  1  0  0  0
 39 67  2  0  0  0
 40 52  1  0  0  0
 40 53  2  0  0  0
 40 58  1  0  0  0
 41106  1  0  0  0
 41107  1  0  0  0
 41108  1  0  0  0
 41 48  1  0  0  0
 42 43  1  0  0  0
 42 66  1  0  0  0
 42109  1  0  0  0
 42110  1  0  0  0
 43 44  1  0  0  0
 44111  1  0  0  0
 45 46  2  0  0  0
 45112  1  0  0  0
 46113  1  0  0  0
 47114  1  0  0  0
 47115  1  0  0  0
 48 56  1  0  0  0
 48 65  1  0  0  0
 48116  1  0  0  0
 49 50  1  0  0  0
 49 53  1  0  0  0
 49 64  1  0  0  0
 49117  1  0  0  0
 50 51  1  0  0  0
 50118  1  0  0  0
 50119  1  0  0  0
 51 52  1  0  0  0
 51120  1  0  0  0
 51121  1  0  0  0
 52122  1  0  0  0
 52123  1  0  0  0
 53 54  1  0  0  0
 54 55  2  0  0  0
 54124  1  0  0  0
 55 57  1  0  0  0
 55125  1  0  0  0
 56 69  2  0  0  0
 57 58  2  0  0  0
 57126  1  0  0  0
 58127  1  0  0  0
 59 60  1  0  0  0
 59 61  1  0  0  0
 59 62  1  0  0  0
 60128  1  0  0  0
 60129  1  0  0  0
 60130  1  0  0  0
 61131  1  0  0  0
 61132  1  0  0  0
 61133  1  0  0  0
 62134  1  0  0  0
 62135  1  0  0  0
 62136  1  0  0  0
 63 65  1  0  0  0
 63137  1  0  0  0
 63138  1  0  0  0
 63139  1  0  0  0
 64140  1  0  0  0
 65141  1  0  0  0
 68 80  1  0  0  0
 71 72  2  0  0  0
 71 74  1  0  0  0
 71142  1  0  0  0
 72 76  1  0  0  0
 72143  1  0  0  0
 73 74  2  0  0  0
 73 75  1  0  0  0
 73144  1  0  0  0
 74 78  1  0  0  0
 75 76  2  0  0  0
 75 77  1  0  0  0
 76 81  1  0  0  0
 77145  1  0  0  0
 77146  1  0  0  0
 77147  1  0  0  0
 78 82  1  0  0  0
 78148  1  0  0  0
 78149  1  0  0  0
 79 80  1  0  0  0
 79 82  1  0  0  0
 79150  1  0  0  0
 79151  1  0  0  0
 80152  1  0  0  0
 80153  1  0  0  0
 81154  1  0  0  0
 82155  1  0  0  0
 82156  1  0  0  0
M  CHG  1  82   1
M  ISO  4   1 100  68 101  80 101  81 100
M  END
> <chiral flag>
0

> <version>
0

> <s_m_source_file>
/data/baiqing/PycharmProjects/Reinvent-master-3.2/result/LINK_invent/BTK/process_docking_weight1_custom_product_contain_oxygen_bond_distance_aromatic_linkinvent_7_9_3/rearranged_h_0006.sdf

> <i_m_source_file_index>
89

> <r_mmod_Potential_Energy-OPLS-2005>
-63.4948577880859

> <r_mmod_Stretch_Energy-OPLS-2005>
87.6357421875

> <r_mmod_Bend_Energy-OPLS-2005>
181.61279296875

> <r_mmod_Torsional_Energy-OPLS-2005>
242.45768737793

> <r_mmod_Improper_Torsional_Energy-OPLS-2005>
5.52443790435791

> <r_mmod_Van_der_Waal_Energy-OPLS-2005>
132.169204711914

> <r_mmod_Electrostatic_Energy-OPLS-2005>
-308.470275878906

> <r_mmod_Solvation_Energy-OPLS-2005>
-457.786987304688

> <b_mmod_Minimization_Converged-OPLS-2005>
0

> <r_mmod_RMS_Derivative-OPLS-2005>
3.30931782722473

$$$$
90
                    3D
 Structure written by MMmdl.
163172  0  0  1  0            999 V2000
  -30.7036  -14.4347   20.5806 C   0  0  0  0  0  0
  -30.4320  -12.2939   19.4011 C   0  0  0  0  0  0
  -29.4915  -12.5031   18.1951 C   0  0  0  0  0  0
  -28.0126  -12.3625   18.6104 C   0  0  0  0  0  0
  -27.6653  -13.1957   19.8727 C   0  0  2  0  0  0
  -28.7087  -12.9445   20.9871 C   0  0  0  0  0  0
  -25.2603  -13.8132   20.5669 C   0  0  0  0  0  0
  -24.1828  -13.0450   20.9188 C   0  0  0  0  0  0
  -24.6353  -11.6909   20.8726 C   0  0  0  0  0  0
  -23.9014  -10.4309   21.0399 C   0  0  0  0  0  0
  -24.3583   -9.4230   21.9179 C   0  0  0  0  0  0
  -23.6284   -8.2251   22.0754 C   0  0  0  0  0  0
  -22.4271   -8.0273   21.3538 C   0  0  0  0  0  0
  -21.9879   -9.0239   20.4657 C   0  0  0  0  0  0
  -22.7179  -10.2137   20.3061 C   0  0  0  0  0  0
  -21.6849   -6.0732   22.5288 C   0  0  0  0  0  0
  -21.3994   -6.5636   23.8217 C   0  0  0  0  0  0
  -21.3666   -5.6791   24.9181 C   0  0  0  0  0  0
  -21.6049   -4.3055   24.7227 C   0  0  0  0  0  0
  -21.8818   -3.8143   23.4350 C   0  0  0  0  0  0
  -21.9188   -4.6959   22.3407 C   0  0  0  0  0  0
  -22.7857  -13.5277   21.1849 C   0  0  0  0  0  0
  -22.1661   -4.2145   21.0980 F   0  0  0  0  0  0
  -21.5648   -3.4546   25.7739 F   0  0  0  0  0  0
  -30.0447  -13.2536   20.4439 N   0  0  0  0  0  0
  -26.3030  -12.9287   20.3349 N   0  0  0  0  0  0
  -25.9277  -11.6458   20.5733 N   0  0  0  0  0  0
  -22.0454  -12.8306   22.0409 N   0  0  0  0  0  0
  -25.4333  -15.1844   20.4060 N   0  0  0  0  0  0
  -31.8192  -14.6481   20.0985 O   0  0  0  0  0  0
  -21.6637   -6.8867   21.4243 O   0  0  0  0  0  0
  -22.3563  -14.5578   20.6684 O   0  0  0  0  0  0
  -24.6101  -31.8711   23.2090 C   0  0  0  0  0  0
  -25.8995  -32.4843   23.8382 C   0  0  1  0  0  0
  -27.2382  -27.4558   20.1060 C   0  0  0  0  0  0
  -25.5891  -33.8648   24.2324 N   0  0  0  0  0  0
  -23.3975  -30.4885   21.5512 C   0  0  2  0  0  0
  -24.8457  -28.9468   20.1223 C   0  0  0  0  0  0
  -22.7381  -29.4665   22.5033 C   0  0  0  0  0  0
  -18.0271  -28.1347   22.8515 C   0  0  0  0  0  0
  -24.1477  -36.7320   23.2627 C   0  0  0  0  0  0
  -25.9206  -30.8412   21.3556 C   0  0  0  0  0  0
  -26.0004  -29.4734   20.7135 C   0  0  0  0  0  0
  -27.2033  -28.7345   20.6986 C   0  0  0  0  0  0
  -26.0705  -26.9321   19.5131 C   0  0  0  0  0  0
  -24.8727  -27.6745   19.5225 C   0  0  0  0  0  0
  -23.6039  -29.8093   20.1694 C   0  0  0  0  0  0
  -25.4099  -36.3135   24.0339 C   0  0  1  0  0  0
  -20.5850  -28.3633   23.1355 C   0  0  2  0  0  0
  -20.6758  -26.9382   22.5434 C   0  0  0  0  0  0
  -19.5744  -26.6370   21.5216 C   0  0  0  0  0  0
  -18.1922  -26.7898   22.1628 C   0  0  0  0  0  0
  -19.1511  -28.8808   23.2931 C   0  0  0  0  0  0
  -18.9447  -30.1429   23.8922 C   0  0  0  0  0  0
  -17.6445  -30.6572   24.0566 C   0  0  0  0  0  0
  -25.9029  -34.9499   23.5134 C   0  0  0  0  0  0
  -16.5344  -29.9073   23.6320 C   0  0  0  0  0  0
  -16.7255  -28.6480   23.0358 C   0  0  0  0  0  0
  -26.4433  -31.6616   25.0714 C   0  0  0  0  0  0
  -25.3725  -31.3767   26.1497 C   0  0  0  0  0  0
  -27.0216  -30.3051   24.6054 C   0  0  0  0  0  0
  -27.6041  -32.4302   25.7463 C   0  0  0  0  0  0
  -27.5576  -37.1812   24.8462 C   0  0  0  0  0  0
  -21.4107  -29.3025   22.3774 N   0  0  0  0  0  0
  -26.4291  -37.3821   23.9419 N   0  0  0  0  0  0
  -24.6613  -31.0816   22.0978 N   0  0  0  0  0  0
  -23.4178  -28.8214   23.3056 O   0  0  0  0  0  0
  -28.4225  -26.7626   20.0677 O   0  0  0  0  0  0
  -26.5594  -34.8955   22.4689 O   0  0  0  0  0  0
  -23.5300  -32.1447   23.7498 O   0  0  0  0  0  0
  -31.1975  -18.9229   20.7015 C   0  0  0  0  0  0
  -28.9114  -18.7283   19.8979 C   0  0  0  0  0  0
  -31.1959  -17.5576   21.0588 C   0  0  0  0  0  0
  -28.8978  -17.3702   20.2734 C   0  0  0  0  0  0
  -30.0587  -19.5234   20.1159 C   0  0  0  0  0  0
  -30.0449  -16.7712   20.8354 C   0  0  0  0  0  0
  -29.4967  -21.9917   17.5170 C   0  0  0  0  0  0
  -30.5462  -21.1206   18.2133 C   0  0  0  0  0  0
  -28.2567  -21.8747   18.3964 C   0  0  0  0  0  0
  -30.1255  -20.9988   19.6966 C   0  0  1  0  0  0
  -28.8070  -21.8188   19.8381 C   0  0  1  0  0  0
  -28.2334  -24.3134   20.0187 C   0  0  0  0  0  0
  -28.4868  -25.5780   20.8653 C   0  0  0  0  0  0
  -29.9925  -15.3975   21.1861 N   0  0  0  0  0  0
  -29.1032  -23.1675   20.4086 N   0  3  0  0  0  0
  -31.4715  -12.4092   19.0872 H   0  0  0  0  0  0
  -30.3523  -11.2743   19.7792 H   0  0  0  0  0  0
  -29.7284  -11.7876   17.4062 H   0  0  0  0  0  0
  -29.6555  -13.4918   17.7639 H   0  0  0  0  0  0
  -27.8196  -11.3051   18.7970 H   0  0  0  0  0  0
  -27.3612  -12.6429   17.7821 H   0  0  0  0  0  0
  -27.7204  -14.2460   19.5850 H   0  0  0  0  0  0
  -28.6795  -11.8972   21.2946 H   0  0  0  0  0  0
  -28.4713  -13.5134   21.8877 H   0  0  0  0  0  0
  -25.2730   -9.5740   22.4741 H   0  0  0  0  0  0
  -24.0026   -7.4646   22.7461 H   0  0  0  0  0  0
  -21.0820   -8.8731   19.8963 H   0  0  0  0  0  0
  -22.3611  -10.9668   19.6174 H   0  0  0  0  0  0
  -21.1956   -7.6139   23.9721 H   0  0  0  0  0  0
  -21.1503   -6.0515   25.9086 H   0  0  0  0  0  0
  -22.0586   -2.7608   23.2842 H   0  0  0  0  0  0
  -22.4037  -12.0002   22.4883 H   0  0  0  0  0  0
  -21.1054  -13.1353   22.2540 H   0  0  0  0  0  0
  -24.6681  -15.8412   20.5111 H   0  0  0  0  0  0
  -26.2796  -15.6154   20.0613 H   0  0  0  0  0  0
  -26.7081  -32.5574   23.1166 H   0  0  0  0  0  0
  -25.0092  -33.9820   25.0504 H   0  0  0  0  0  0
  -22.6841  -31.3030   21.4083 H   0  0  0  0  0  0
  -23.3746  -35.9643   23.3297 H   0  0  0  0  0  0
  -24.3580  -36.8923   22.2040 H   0  0  0  0  0  0
  -23.7201  -37.6527   23.6614 H   0  0  0  0  0  0
  -26.0198  -31.5976   20.5759 H   0  0  0  0  0  0
  -26.8127  -30.9069   21.9670 H   0  0  0  0  0  0
  -28.1004  -29.1401   21.1459 H   0  0  0  0  0  0
  -26.0854  -25.9635   19.0363 H   0  0  0  0  0  0
  -23.9842  -27.2646   19.0620 H   0  0  0  0  0  0
  -23.7073  -30.5779   19.4024 H   0  0  0  0  0  0
  -22.7292  -29.2205   19.8800 H   0  0  0  0  0  0
  -25.1257  -36.2013   25.0831 H   0  0  0  0  0  0
  -20.9955  -28.3188   24.1459 H   0  0  0  0  0  0
  -20.5648  -26.2242   23.3604 H   0  0  0  0  0  0
  -21.6639  -26.7423   22.1242 H   0  0  0  0  0  0
  -19.6914  -25.6278   21.1236 H   0  0  0  0  0  0
  -19.6685  -27.3187   20.6747 H   0  0  0  0  0  0
  -17.4201  -26.6676   21.4020 H   0  0  0  0  0  0
  -18.0338  -26.0012   22.8989 H   0  0  0  0  0  0
  -19.7932  -30.7252   24.2294 H   0  0  0  0  0  0
  -17.5001  -31.6255   24.5151 H   0  0  0  0  0  0
  -15.5344  -30.2975   23.7611 H   0  0  0  0  0  0
  -15.8671  -28.0799   22.7047 H   0  0  0  0  0  0
  -24.5892  -30.7090   25.7884 H   0  0  0  0  0  0
  -24.8917  -32.2943   26.4896 H   0  0  0  0  0  0
  -25.8108  -30.9007   27.0282 H   0  0  0  0  0  0
  -26.2752  -29.6908   24.1002 H   0  0  0  0  0  0
  -27.3863  -29.7198   25.4503 H   0  0  0  0  0  0
  -27.8639  -30.4352   23.9260 H   0  0  0  0  0  0
  -27.2676  -33.3588   26.2082 H   0  0  0  0  0  0
  -28.3824  -32.6874   25.0266 H   0  0  0  0  0  0
  -28.0717  -31.8393   26.5348 H   0  0  0  0  0  0
  -28.2617  -38.0091   24.7528 H   0  0  0  0  0  0
  -28.1058  -36.2634   24.6253 H   0  0  0  0  0  0
  -27.2330  -37.1443   25.8881 H   0  0  0  0  0  0
  -20.9239  -29.8754   21.7032 H   0  0  0  0  0  0
  -26.0190  -38.2914   24.1415 H   0  0  0  0  0  0
  -32.0905  -19.5083   20.8673 H   0  0  0  0  0  0
  -28.0275  -19.1388   19.4349 H   0  0  0  0  0  0
  -32.0833  -17.1227   21.4976 H   0  0  0  0  0  0
  -28.0034  -16.7889   20.0983 H   0  0  0  0  0  0
  -29.3051  -21.6787   16.4898 H   0  0  0  0  0  0
  -29.8328  -23.0281   17.4850 H   0  0  0  0  0  0
  -31.5472  -21.5418   18.1118 H   0  0  0  0  0  0
  -30.5747  -20.1403   17.7365 H   0  0  0  0  0  0
  -27.7484  -20.9395   18.1698 H   0  0  0  0  0  0
  -27.5179  -22.6502   18.2040 H   0  0  0  0  0  0
  -30.8973  -21.4557   20.3184 H   0  0  0  0  0  0
  -28.0968  -21.3363   20.5098 H   0  0  0  0  0  0
  -28.4387  -24.5607   18.9768 H   0  0  0  0  0  0
  -27.1799  -24.0416   20.0900 H   0  0  0  0  0  0
  -29.4919  -25.5562   21.2880 H   0  0  0  0  0  0
  -27.8029  -25.6220   21.7160 H   0  0  0  0  0  0
  -29.1057  -15.0712   21.5395 H   0  0  0  0  0  0
  -30.0527  -23.3989   20.1620 H   0  0  0  0  0  0
  -29.0854  -23.0690   21.4139 H   0  0  0  0  0  0
  1 25  1  0  0  0
  1 30  2  0  0  0
  1 84  1  0  0  0
  2  3  1  0  0  0
  2 25  1  0  0  0
  2 86  1  0  0  0
  2 87  1  0  0  0
  3  4  1  0  0  0
  3 88  1  0  0  0
  3 89  1  0  0  0
  4  5  1  0  0  0
  4 90  1  0  0  0
  4 91  1  0  0  0
  5  6  1  0  0  0
  5 26  1  0  0  0
  5 92  1  0  0  0
  6 25  1  0  0  0
  6 93  1  0  0  0
  6 94  1  0  0  0
  7  8  2  0  0  0
  7 26  1  0  0  0
  7 29  1  0  0  0
  8  9  1  0  0  0
  8 22  1  0  0  0
  9 10  1  0  0  0
  9 27  2  0  0  0
 10 11  2  0  0  0
 10 15  1  0  0  0
 11 12  1  0  0  0
 11 95  1  0  0  0
 12 13  2  0  0  0
 12 96  1  0  0  0
 13 14  1  0  0  0
 13 31  1  0  0  0
 14 15  2  0  0  0
 14 97  1  0  0  0
 15 98  1  0  0  0
 16 17  2  0  0  0
 16 21  1  0  0  0
 16 31  1  0  0  0
 17 18  1  0  0  0
 17 99  1  0  0  0
 18 19  2  0  0  0
 18100  1  0  0  0
 19 20  1  0  0  0
 19 24  1  0  0  0
 20 21  2  0  0  0
 20101  1  0  0  0
 21 23  1  0  0  0
 22 28  1  0  0  0
 22 32  2  0  0  0
 26 27  1  0  0  0
 28102  1  0  0  0
 28103  1  0  0  0
 29104  1  0  0  0
 29105  1  0  0  0
 33 34  1  0  0  0
 33 66  1  0  0  0
 33 70  2  0  0  0
 34 36  1  0  0  0
 34 59  1  0  0  0
 34106  1  0  0  0
 35 44  2  0  0  0
 35 45  1  0  0  0
 35 68  1  0  0  0
 36 56  1  0  0  0
 36107  1  0  0  0
 37 39  1  0  0  0
 37 47  1  0  0  0
 37 66  1  0  0  0
 37108  1  0  0  0
 38 43  2  0  0  0
 38 46  1  0  0  0
 38 47  1  0  0  0
 39 64  1  0  0  0
 39 67  2  0  0  0
 40 52  1  0  0  0
 40 53  2  0  0  0
 40 58  1  0  0  0
 41109  1  0  0  0
 41110  1  0  0  0
 41111  1  0  0  0
 41 48  1  0  0  0
 42 43  1  0  0  0
 42 66  1  0  0  0
 42112  1  0  0  0
 42113  1  0  0  0
 43 44  1  0  0  0
 44114  1  0  0  0
 45 46  2  0  0  0
 45115  1  0  0  0
 46116  1  0  0  0
 47117  1  0  0  0
 47118  1  0  0  0
 48 56  1  0  0  0
 48 65  1  0  0  0
 48119  1  0  0  0
 49 50  1  0  0  0
 49 53  1  0  0  0
 49 64  1  0  0  0
 49120  1  0  0  0
 50 51  1  0  0  0
 50121  1  0  0  0
 50122  1  0  0  0
 51 52  1  0  0  0
 51123  1  0  0  0
 51124  1  0  0  0
 52125  1  0  0  0
 52126  1  0  0  0
 53 54  1  0  0  0
 54 55  2  0  0  0
 54127  1  0  0  0
 55 57  1  0  0  0
 55128  1  0  0  0
 56 69  2  0  0  0
 57 58  2  0  0  0
 57129  1  0  0  0
 58130  1  0  0  0
 59 60  1  0  0  0
 59 61  1  0  0  0
 59 62  1  0  0  0
 60131  1  0  0  0
 60132  1  0  0  0
 60133  1  0  0  0
 61134  1  0  0  0
 61135  1  0  0  0
 61136  1  0  0  0
 62137  1  0  0  0
 62138  1  0  0  0
 62139  1  0  0  0
 63 65  1  0  0  0
 63140  1  0  0  0
 63141  1  0  0  0
 63142  1  0  0  0
 64143  1  0  0  0
 65144  1  0  0  0
 68 83  1  0  0  0
 71 73  2  0  0  0
 71 75  1  0  0  0
 71145  1  0  0  0
 72 74  1  0  0  0
 72 75  2  0  0  0
 72146  1  0  0  0
 73 76  1  0  0  0
 73147  1  0  0  0
 74 76  2  0  0  0
 74148  1  0  0  0
 75 80  1  0  0  0
 76 84  1  0  0  0
 77 78  1  0  0  0
 77 79  1  0  0  0
 77149  1  0  0  0
 77150  1  0  0  0
 78 80  1  0  0  0
 78151  1  0  0  0
 78152  1  0  0  0
 79 81  1  0  0  0
 79153  1  0  0  0
 79154  1  0  0  0
 80 81  1  0  0  0
 80155  1  0  0  0
 81 85  1  0  0  0
 81156  1  0  0  0
 82 83  1  0  0  0
 82 85  1  0  0  0
 82157  1  0  0  0
 82158  1  0  0  0
 83159  1  0  0  0
 83160  1  0  0  0
 84161  1  0  0  0
 85162  1  0  0  0
 85163  1  0  0  0
M  CHG  1  85   1
M  ISO  4   1 100  68 101  83 101  84 100
M  END
> <chiral flag>
0

> <version>
0

> <s_m_source_file>
/data/baiqing/PycharmProjects/Reinvent-master-3.2/result/LINK_invent/BTK/process_docking_weight1_custom_product_contain_oxygen_bond_distance_aromatic_linkinvent_7_9_3/rearranged_h_0006.sdf

> <i_m_source_file_index>
90

> <r_mmod_Potential_Energy-OPLS-2005>
-49.879451751709

> <r_mmod_Stretch_Energy-OPLS-2005>
35.7703247070312

> <r_mmod_Bend_Energy-OPLS-2005>
116.794021606445

> <r_mmod_Torsional_Energy-OPLS-2005>
339.442596435547

> <r_mmod_Improper_Torsional_Energy-OPLS-2005>
5.24040508270264

> <r_mmod_Van_der_Waal_Energy-OPLS-2005>
149.394836425781

> <r_mmod_Electrostatic_Energy-OPLS-2005>
-256.724670410156

> <r_mmod_Solvation_Energy-OPLS-2005>
-449.287811279297

> <b_mmod_Minimization_Converged-OPLS-2005>
0

> <r_mmod_RMS_Derivative-OPLS-2005>
3.33604788780212

$$$$
91
                    3D
 Structure written by MMmdl.
156164  0  0  1  0            999 V2000
  -30.7640  -14.4044   20.6637 C   0  0  0  0  0  0
  -30.4119  -12.3081   19.4034 C   0  0  0  0  0  0
  -29.4823  -12.5268   18.1958 C   0  0  0  0  0  0
  -28.0106  -12.3697   18.6146 C   0  0  0  0  0  0
  -27.6616  -13.2062   19.8726 C   0  0  2  0  0  0
  -28.7007  -12.9827   20.9943 C   0  0  0  0  0  0
  -25.2564  -13.8153   20.5612 C   0  0  0  0  0  0
  -24.1829  -13.0434   20.9174 C   0  0  0  0  0  0
  -24.6390  -11.6906   20.8740 C   0  0  0  0  0  0
  -23.9067  -10.4284   21.0410 C   0  0  0  0  0  0
  -24.3611   -9.4206   21.9192 C   0  0  0  0  0  0
  -23.6281   -8.2251   22.0773 C   0  0  0  0  0  0
  -22.4266   -8.0290   21.3561 C   0  0  0  0  0  0
  -21.9903   -9.0272   20.4669 C   0  0  0  0  0  0
  -22.7241  -10.2138   20.3073 C   0  0  0  0  0  0
  -21.6853   -6.0733   22.5278 C   0  0  0  0  0  0
  -21.4015   -6.5637   23.8215 C   0  0  0  0  0  0
  -21.3663   -5.6795   24.9177 C   0  0  0  0  0  0
  -21.6044   -4.3065   24.7228 C   0  0  0  0  0  0
  -21.8819   -3.8149   23.4355 C   0  0  0  0  0  0
  -21.9193   -4.6958   22.3405 C   0  0  0  0  0  0
  -22.7852  -13.5244   21.1843 C   0  0  0  0  0  0
  -22.1659   -4.2138   21.0988 F   0  0  0  0  0  0
  -21.5622   -3.4551   25.7748 F   0  0  0  0  0  0
  -30.0422  -13.2697   20.4548 N   0  0  0  0  0  0
  -26.3018  -12.9339   20.3323 N   0  0  0  0  0  0
  -25.9317  -11.6493   20.5737 N   0  0  0  0  0  0
  -22.0483  -12.8257   22.0395 N   0  0  0  0  0  0
  -25.4198  -15.1864   20.3896 N   0  0  0  0  0  0
  -31.7948  -14.6673   20.0389 O   0  0  0  0  0  0
  -21.6651   -6.8873   21.4243 O   0  0  0  0  0  0
  -22.3551  -14.5562   20.6705 O   0  0  0  0  0  0
  -24.6159  -31.8703   23.2111 C   0  0  0  0  0  0
  -25.9056  -32.4834   23.8392 C   0  0  1  0  0  0
  -27.2319  -27.4451   20.0852 C   0  0  0  0  0  0
  -25.5923  -33.8628   24.2327 N   0  0  0  0  0  0
  -23.4009  -30.4934   21.5520 C   0  0  2  0  0  0
  -24.8462  -28.9573   20.1173 C   0  0  0  0  0  0
  -22.7419  -29.4653   22.4994 C   0  0  0  0  0  0
  -18.0293  -28.1358   22.8482 C   0  0  0  0  0  0
  -24.1490  -36.7308   23.2633 C   0  0  0  0  0  0
  -25.9310  -30.8355   21.3642 C   0  0  0  0  0  0
  -26.0096  -29.4727   20.7076 C   0  0  0  0  0  0
  -27.2089  -28.7237   20.6863 C   0  0  0  0  0  0
  -26.0552  -26.9368   19.4986 C   0  0  0  0  0  0
  -24.8622  -27.6859   19.5141 C   0  0  0  0  0  0
  -23.6082  -29.8240   20.1677 C   0  0  0  0  0  0
  -25.4111  -36.3109   24.0337 C   0  0  1  0  0  0
  -20.5869  -28.3643   23.1323 C   0  0  2  0  0  0
  -20.6802  -26.9391   22.5392 C   0  0  0  0  0  0
  -19.5750  -26.6334   21.5223 C   0  0  0  0  0  0
  -18.1936  -26.7888   22.1645 C   0  0  0  0  0  0
  -19.1534  -28.8817   23.2909 C   0  0  0  0  0  0
  -18.9451  -30.1421   23.8922 C   0  0  0  0  0  0
  -17.6446  -30.6554   24.0563 C   0  0  0  0  0  0
  -25.9046  -34.9475   23.5117 C   0  0  0  0  0  0
  -16.5339  -29.9049   23.6338 C   0  0  0  0  0  0
  -16.7277  -28.6480   23.0332 C   0  0  0  0  0  0
  -26.4495  -31.6613   25.0723 C   0  0  0  0  0  0
  -25.3751  -31.3730   26.1466 C   0  0  0  0  0  0
  -27.0335  -30.3052   24.6111 C   0  0  0  0  0  0
  -27.6069  -32.4333   25.7497 C   0  0  0  0  0  0
  -27.5586  -37.1802   24.8471 C   0  0  0  0  0  0
  -21.4153  -29.3030   22.3754 N   0  0  0  0  0  0
  -26.4308  -37.3785   23.9413 N   0  0  0  0  0  0
  -24.6668  -31.0812   22.1012 N   0  0  0  0  0  0
  -23.4200  -28.8191   23.3013 O   0  0  0  0  0  0
  -28.3786  -26.6842   20.0741 O   0  0  0  0  0  0
  -26.5586  -34.8928   22.4669 O   0  0  0  0  0  0
  -23.5356  -32.1453   23.7525 O   0  0  0  0  0  0
  -28.1708  -18.1599   21.3546 C   0  0  0  0  0  0
  -30.4409  -18.9085   21.8061 C   0  0  0  0  0  0
  -28.6141  -16.8182   21.3375 C   0  0  0  0  0  0
  -30.8826  -17.5669   21.7966 C   0  0  0  0  0  0
  -29.0760  -19.2177   21.6110 C   0  0  0  0  0  0
  -29.9707  -16.5111   21.5719 C   0  0  0  0  0  0
  -28.5622  -20.6431   21.8610 C   0  0  0  0  0  0
  -28.5983  -24.1768   20.2259 C   0  0  0  0  0  0
  -28.4510  -23.0198   21.2499 C   0  0  0  0  0  0
  -28.3171  -25.5310   20.9254 C   0  0  0  0  0  0
  -30.3986  -15.1620   21.7072 N   0  0  0  0  0  0
  -28.7790  -21.6428   20.7818 N   0  3  0  0  0  0
  -31.4569  -12.4017   19.0994 H   0  0  0  0  0  0
  -30.3062  -11.2890   19.7797 H   0  0  0  0  0  0
  -29.7208  -11.8174   17.4027 H   0  0  0  0  0  0
  -29.6444  -13.5212   17.7771 H   0  0  0  0  0  0
  -27.8291  -11.3111   18.8099 H   0  0  0  0  0  0
  -27.3553  -12.6438   17.7874 H   0  0  0  0  0  0
  -27.7106  -14.2538   19.5791 H   0  0  0  0  0  0
  -28.6620  -11.9487   21.3395 H   0  0  0  0  0  0
  -28.4502  -13.5924   21.8630 H   0  0  0  0  0  0
  -25.2750   -9.5677   22.4768 H   0  0  0  0  0  0
  -23.9992   -7.4637   22.7497 H   0  0  0  0  0  0
  -21.0832   -8.8799   19.8965 H   0  0  0  0  0  0
  -22.3709  -10.9684   19.6187 H   0  0  0  0  0  0
  -21.2006   -7.6142   23.9716 H   0  0  0  0  0  0
  -21.1485   -6.0521   25.9075 H   0  0  0  0  0  0
  -22.0591   -2.7609   23.2865 H   0  0  0  0  0  0
  -22.4079  -11.9919   22.4796 H   0  0  0  0  0  0
  -21.1106  -13.1314   22.2610 H   0  0  0  0  0  0
  -24.6401  -15.8293   20.4694 H   0  0  0  0  0  0
  -26.2484  -15.6132   19.9966 H   0  0  0  0  0  0
  -26.7108  -32.5548   23.1142 H   0  0  0  0  0  0
  -25.0145  -33.9792   25.0516 H   0  0  0  0  0  0
  -22.6875  -31.3092   21.4140 H   0  0  0  0  0  0
  -23.3755  -35.9641   23.3327 H   0  0  0  0  0  0
  -24.3582  -36.8903   22.2045 H   0  0  0  0  0  0
  -23.7256  -37.6522   23.6636 H   0  0  0  0  0  0
  -26.0452  -31.6029   20.5971 H   0  0  0  0  0  0
  -26.8200  -30.8866   21.9832 H   0  0  0  0  0  0
  -28.1094  -29.1136   21.1397 H   0  0  0  0  0  0
  -26.0648  -25.9626   19.0318 H   0  0  0  0  0  0
  -23.9640  -27.2822   19.0645 H   0  0  0  0  0  0
  -23.7163  -30.6016   19.4101 H   0  0  0  0  0  0
  -22.7315  -29.2446   19.8717 H   0  0  0  0  0  0
  -25.1281  -36.1972   25.0831 H   0  0  0  0  0  0
  -20.9954  -28.3214   24.1452 H   0  0  0  0  0  0
  -20.5795  -26.2228   23.3564 H   0  0  0  0  0  0
  -21.6647  -26.7503   22.1105 H   0  0  0  0  0  0
  -19.6938  -25.6232   21.1282 H   0  0  0  0  0  0
  -19.6690  -27.3124   20.6730 H   0  0  0  0  0  0
  -17.4192  -26.6592   21.4059 H   0  0  0  0  0  0
  -18.0373  -26.0064   22.9090 H   0  0  0  0  0  0
  -19.7938  -30.7233   24.2301 H   0  0  0  0  0  0
  -17.5008  -31.6237   24.5166 H   0  0  0  0  0  0
  -15.5347  -30.2931   23.7663 H   0  0  0  0  0  0
  -15.8679  -28.0797   22.7021 H   0  0  0  0  0  0
  -24.5902  -30.7112   25.7808 H   0  0  0  0  0  0
  -24.8965  -32.2890   26.4928 H   0  0  0  0  0  0
  -25.8083  -30.8881   27.0216 H   0  0  0  0  0  0
  -26.2881  -29.6805   24.1176 H   0  0  0  0  0  0
  -27.4128  -29.7313   25.4577 H   0  0  0  0  0  0
  -27.8712  -30.4384   23.9257 H   0  0  0  0  0  0
  -27.2672  -33.3610   26.2110 H   0  0  0  0  0  0
  -28.3859  -32.6923   25.0317 H   0  0  0  0  0  0
  -28.0758  -31.8436   26.5384 H   0  0  0  0  0  0
  -28.2588  -38.0104   24.7493 H   0  0  0  0  0  0
  -28.1071  -36.2621   24.6299 H   0  0  0  0  0  0
  -27.2297  -37.1488   25.8872 H   0  0  0  0  0  0
  -20.9303  -29.8797   21.7033 H   0  0  0  0  0  0
  -26.0196  -38.2868   24.1403 H   0  0  0  0  0  0
  -27.1146  -18.3642   21.2400 H   0  0  0  0  0  0
  -31.1511  -19.6929   22.0306 H   0  0  0  0  0  0
  -27.8923  -16.0248   21.2092 H   0  0  0  0  0  0
  -31.9244  -17.3551   21.9984 H   0  0  0  0  0  0
  -29.0444  -20.9945   22.7743 H   0  0  0  0  0  0
  -27.4970  -20.5988   22.0910 H   0  0  0  0  0  0
  -27.9039  -24.0339   19.3968 H   0  0  0  0  0  0
  -29.6038  -24.1890   19.8064 H   0  0  0  0  0  0
  -27.4252  -23.0210   21.6235 H   0  0  0  0  0  0
  -29.0883  -23.2442   22.1063 H   0  0  0  0  0  0
  -29.0567  -25.6785   21.7144 H   0  0  0  0  0  0
  -27.3571  -25.4652   21.4431 H   0  0  0  0  0  0
  -31.0952  -15.0678   22.4330 H   0  0  0  0  0  0
  -28.2014  -21.3944   19.9954 H   0  0  0  0  0  0
  -29.7421  -21.6078   20.4876 H   0  0  0  0  0  0
  1 25  1  0  0  0
  1 30  2  0  0  0
  1 81  1  0  0  0
  2  3  1  0  0  0
  2 25  1  0  0  0
  2 83  1  0  0  0
  2 84  1  0  0  0
  3  4  1  0  0  0
  3 85  1  0  0  0
  3 86  1  0  0  0
  4  5  1  0  0  0
  4 87  1  0  0  0
  4 88  1  0  0  0
  5  6  1  0  0  0
  5 26  1  0  0  0
  5 89  1  0  0  0
  6 25  1  0  0  0
  6 90  1  0  0  0
  6 91  1  0  0  0
  7  8  2  0  0  0
  7 26  1  0  0  0
  7 29  1  0  0  0
  8  9  1  0  0  0
  8 22  1  0  0  0
  9 10  1  0  0  0
  9 27  2  0  0  0
 10 11  2  0  0  0
 10 15  1  0  0  0
 11 12  1  0  0  0
 11 92  1  0  0  0
 12 13  2  0  0  0
 12 93  1  0  0  0
 13 14  1  0  0  0
 13 31  1  0  0  0
 14 15  2  0  0  0
 14 94  1  0  0  0
 15 95  1  0  0  0
 16 17  2  0  0  0
 16 21  1  0  0  0
 16 31  1  0  0  0
 17 18  1  0  0  0
 17 96  1  0  0  0
 18 19  2  0  0  0
 18 97  1  0  0  0
 19 20  1  0  0  0
 19 24  1  0  0  0
 20 21  2  0  0  0
 20 98  1  0  0  0
 21 23  1  0  0  0
 22 28  1  0  0  0
 22 32  2  0  0  0
 26 27  1  0  0  0
 28 99  1  0  0  0
 28100  1  0  0  0
 29101  1  0  0  0
 29102  1  0  0  0
 33 34  1  0  0  0
 33 66  1  0  0  0
 33 70  2  0  0  0
 34 36  1  0  0  0
 34 59  1  0  0  0
 34103  1  0  0  0
 35 44  2  0  0  0
 35 45  1  0  0  0
 35 68  1  0  0  0
 36 56  1  0  0  0
 36104  1  0  0  0
 37 39  1  0  0  0
 37 47  1  0  0  0
 37 66  1  0  0  0
 37105  1  0  0  0
 38 43  2  0  0  0
 38 46  1  0  0  0
 38 47  1  0  0  0
 39 64  1  0  0  0
 39 67  2  0  0  0
 40 52  1  0  0  0
 40 53  2  0  0  0
 40 58  1  0  0  0
 41106  1  0  0  0
 41107  1  0  0  0
 41108  1  0  0  0
 41 48  1  0  0  0
 42 43  1  0  0  0
 42 66  1  0  0  0
 42109  1  0  0  0
 42110  1  0  0  0
 43 44  1  0  0  0
 44111  1  0  0  0
 45 46  2  0  0  0
 45112  1  0  0  0
 46113  1  0  0  0
 47114  1  0  0  0
 47115  1  0  0  0
 48 56  1  0  0  0
 48 65  1  0  0  0
 48116  1  0  0  0
 49 50  1  0  0  0
 49 53  1  0  0  0
 49 64  1  0  0  0
 49117  1  0  0  0
 50 51  1  0  0  0
 50118  1  0  0  0
 50119  1  0  0  0
 51 52  1  0  0  0
 51120  1  0  0  0
 51121  1  0  0  0
 52122  1  0  0  0
 52123  1  0  0  0
 53 54  1  0  0  0
 54 55  2  0  0  0
 54124  1  0  0  0
 55 57  1  0  0  0
 55125  1  0  0  0
 56 69  2  0  0  0
 57 58  2  0  0  0
 57126  1  0  0  0
 58127  1  0  0  0
 59 60  1  0  0  0
 59 61  1  0  0  0
 59 62  1  0  0  0
 60128  1  0  0  0
 60129  1  0  0  0
 60130  1  0  0  0
 61131  1  0  0  0
 61132  1  0  0  0
 61133  1  0  0  0
 62134  1  0  0  0
 62135  1  0  0  0
 62136  1  0  0  0
 63 65  1  0  0  0
 63137  1  0  0  0
 63138  1  0  0  0
 63139  1  0  0  0
 64140  1  0  0  0
 65141  1  0  0  0
 68 80  1  0  0  0
 71 73  2  0  0  0
 71 75  1  0  0  0
 71142  1  0  0  0
 72 74  1  0  0  0
 72 75  2  0  0  0
 72143  1  0  0  0
 73 76  1  0  0  0
 73144  1  0  0  0
 74 76  2  0  0  0
 74145  1  0  0  0
 75 77  1  0  0  0
 76 81  1  0  0  0
 77 82  1  0  0  0
 77146  1  0  0  0
 77147  1  0  0  0
 78 79  1  0  0  0
 78 80  1  0  0  0
 78148  1  0  0  0
 78149  1  0  0  0
 79 82  1  0  0  0
 79150  1  0  0  0
 79151  1  0  0  0
 80152  1  0  0  0
 80153  1  0  0  0
 81154  1  0  0  0
 82155  1  0  0  0
 82156  1  0  0  0
M  CHG  1  82   1
M  ISO  4   1 100  68 101  80 101  81 100
M  END
> <chiral flag>
0

> <version>
0

> <s_m_source_file>
/data/baiqing/PycharmProjects/Reinvent-master-3.2/result/LINK_invent/BTK/process_docking_weight1_custom_product_contain_oxygen_bond_distance_aromatic_linkinvent_7_9_3/rearranged_h_0006.sdf

> <i_m_source_file_index>
91

> <r_mmod_Potential_Energy-OPLS-2005>
-196.190368652344

> <r_mmod_Stretch_Energy-OPLS-2005>
35.6467056274414

> <r_mmod_Bend_Energy-OPLS-2005>
100.445503234863

> <r_mmod_Torsional_Energy-OPLS-2005>
287.154571533203

> <r_mmod_Improper_Torsional_Energy-OPLS-2005>
9.43102264404297

> <r_mmod_Van_der_Waal_Energy-OPLS-2005>
140.592468261719

> <r_mmod_Electrostatic_Energy-OPLS-2005>
-302.904388427734

> <r_mmod_Solvation_Energy-OPLS-2005>
-475.400085449219

> <b_mmod_Minimization_Converged-OPLS-2005>
0

> <r_mmod_RMS_Derivative-OPLS-2005>
2.99270963668823

$$$$
92
                    3D
 Structure written by MMmdl.
168178  0  0  1  0            999 V2000
  -30.8486  -14.2998   20.7674 C   0  0  0  0  0  0
  -30.4046  -12.2918   19.3985 C   0  0  0  0  0  0
  -29.4801  -12.5378   18.1936 C   0  0  0  0  0  0
  -28.0088  -12.3727   18.6048 C   0  0  0  0  0  0
  -27.6611  -13.2078   19.8595 C   0  0  2  0  0  0
  -28.6895  -12.9936   20.9881 C   0  0  0  0  0  0
  -25.2601  -13.8172   20.5635 C   0  0  0  0  0  0
  -24.1853  -13.0443   20.9155 C   0  0  0  0  0  0
  -24.6410  -11.6909   20.8703 C   0  0  0  0  0  0
  -23.9081  -10.4291   21.0390 C   0  0  0  0  0  0
  -24.3629   -9.4203   21.9165 C   0  0  0  0  0  0
  -23.6300   -8.2245   22.0741 C   0  0  0  0  0  0
  -22.4275   -8.0292   21.3541 C   0  0  0  0  0  0
  -21.9921   -9.0260   20.4643 C   0  0  0  0  0  0
  -22.7255  -10.2137   20.3040 C   0  0  0  0  0  0
  -21.6855   -6.0744   22.5278 C   0  0  0  0  0  0
  -21.4018   -6.5642   23.8214 C   0  0  0  0  0  0
  -21.3660   -5.6782   24.9173 C   0  0  0  0  0  0
  -21.6041   -4.3046   24.7214 C   0  0  0  0  0  0
  -21.8821   -3.8151   23.4329 C   0  0  0  0  0  0
  -21.9192   -4.6973   22.3396 C   0  0  0  0  0  0
  -22.7877  -13.5231   21.1842 C   0  0  0  0  0  0
  -22.1659   -4.2167   21.0969 F   0  0  0  0  0  0
  -21.5627   -3.4524   25.7722 F   0  0  0  0  0  0
  -30.0574  -13.2265   20.4843 N   0  0  0  0  0  0
  -26.3015  -12.9342   20.3246 N   0  0  0  0  0  0
  -25.9324  -11.6502   20.5682 N   0  0  0  0  0  0
  -22.0540  -12.8218   22.0411 N   0  0  0  0  0  0
  -25.4329  -15.1893   20.4084 N   0  0  0  0  0  0
  -31.7206  -14.6857   19.9781 O   0  0  0  0  0  0
  -21.6638   -6.8892   21.4245 O   0  0  0  0  0  0
  -22.3553  -14.5540   20.6702 O   0  0  0  0  0  0
  -24.6126  -31.8682   23.2111 C   0  0  0  0  0  0
  -25.8996  -32.4837   23.8425 C   0  0  1  0  0  0
  -27.2475  -27.4745   20.0749 C   0  0  0  0  0  0
  -25.5865  -33.8639   24.2340 N   0  0  0  0  0  0
  -23.4024  -30.4879   21.5495 C   0  0  2  0  0  0
  -24.8518  -28.9592   20.1151 C   0  0  0  0  0  0
  -22.7408  -29.4639   22.4998 C   0  0  0  0  0  0
  -18.0281  -28.1434   22.8470 C   0  0  0  0  0  0
  -24.1469  -36.7321   23.2663 C   0  0  0  0  0  0
  -25.9285  -30.8454   21.3615 C   0  0  0  0  0  0
  -26.0093  -29.4826   20.7061 C   0  0  0  0  0  0
  -27.2112  -28.7436   20.6885 C   0  0  0  0  0  0
  -26.0716  -26.9434   19.5109 C   0  0  0  0  0  0
  -24.8751  -27.6842   19.5206 C   0  0  0  0  0  0
  -23.6115  -29.8199   20.1650 C   0  0  0  0  0  0
  -25.4084  -36.3112   24.0363 C   0  0  1  0  0  0
  -20.5860  -28.3688   23.1337 C   0  0  2  0  0  0
  -20.6745  -26.9418   22.5440 C   0  0  0  0  0  0
  -19.5732  -26.6412   21.5222 C   0  0  0  0  0  0
  -18.1908  -26.7981   22.1622 C   0  0  0  0  0  0
  -19.1530  -28.8880   23.2891 C   0  0  0  0  0  0
  -18.9459  -30.1485   23.8883 C   0  0  0  0  0  0
  -17.6455  -30.6600   24.0607 C   0  0  0  0  0  0
  -25.9016  -34.9481   23.5145 C   0  0  0  0  0  0
  -16.5351  -29.9106   23.6343 C   0  0  0  0  0  0
  -16.7279  -28.6559   23.0313 C   0  0  0  0  0  0
  -26.4445  -31.6648   25.0748 C   0  0  0  0  0  0
  -25.3756  -31.3735   26.1535 C   0  0  0  0  0  0
  -27.0268  -30.3096   24.6102 C   0  0  0  0  0  0
  -27.6022  -32.4398   25.7485 C   0  0  0  0  0  0
  -27.5563  -37.1791   24.8459 C   0  0  0  0  0  0
  -21.4132  -29.3050   22.3751 N   0  0  0  0  0  0
  -26.4287  -37.3776   23.9392 N   0  0  0  0  0  0
  -24.6648  -31.0799   22.0998 N   0  0  0  0  0  0
  -23.4169  -28.8169   23.3046 O   0  0  0  0  0  0
  -28.4032  -26.7347   20.0608 O   0  0  0  0  0  0
  -26.5602  -34.8925   22.4715 O   0  0  0  0  0  0
  -23.5311  -32.1457   23.7471 O   0  0  0  0  0  0
  -29.4941  -17.5006   21.1941 C   0  0  0  0  0  0
  -28.9730  -18.7276   20.7275 C   0  0  0  0  0  0
  -31.5519  -18.6290   21.8368 C   0  0  0  0  0  0
  -28.2715  -23.8214   18.9672 C   0  0  0  0  0  0
  -30.7930  -17.4438   21.7511 C   0  0  0  0  0  0
  -29.7373  -19.9147   20.8189 C   0  0  0  0  0  0
  -31.0295  -19.8534   21.3804 C   0  0  0  0  0  0
  -28.5685  -22.5309   18.6307 C   0  0  0  0  0  0
  -31.4129  -14.7688   24.2827 C   0  0  0  0  0  0
  -31.5127  -16.2155   23.8393 C   0  0  0  0  0  0
  -30.4925  -14.1451   23.2378 C   0  0  0  0  0  0
  -31.4011  -16.1562   22.3101 C   0  0  1  0  0  0
  -28.2505  -21.2459   19.3470 C   0  0  0  0  0  0
  -28.7799  -26.0123   17.7078 C   0  0  0  0  0  0
  -29.2146  -26.8929   18.8977 C   0  0  0  0  0  0
  -29.3176  -22.5504   17.4549 N   0  0  0  0  0  0
  -29.4477  -23.7751   17.0473 N   0  0  0  0  0  0
  -28.8346  -24.5751   17.9537 N   0  0  0  0  0  0
  -30.7059  -14.8929   21.9858 N   0  0  0  0  0  0
  -29.2721  -21.1652   20.3797 N   0  0  0  0  0  0
  -31.7760  -20.9807   21.4825 F   0  0  0  0  0  0
  -31.4498  -12.3765   19.0927 H   0  0  0  0  0  0
  -30.2884  -11.2671   19.7559 H   0  0  0  0  0  0
  -29.7196  -11.8460   17.3850 H   0  0  0  0  0  0
  -29.6437  -13.5410   17.7967 H   0  0  0  0  0  0
  -27.8259  -11.3141   18.7952 H   0  0  0  0  0  0
  -27.3543  -12.6488   17.7772 H   0  0  0  0  0  0
  -27.7094  -14.2562   19.5625 H   0  0  0  0  0  0
  -28.6234  -11.9832   21.3926 H   0  0  0  0  0  0
  -28.4090  -13.6682   21.7920 H   0  0  0  0  0  0
  -25.2788   -9.5671   22.4718 H   0  0  0  0  0  0
  -24.0017   -7.4635   22.7444 H   0  0  0  0  0  0
  -21.0855   -8.8779   19.8940 H   0  0  0  0  0  0
  -22.3726  -10.9663   19.6134 H   0  0  0  0  0  0
  -21.2014   -7.6150   23.9731 H   0  0  0  0  0  0
  -21.1476   -6.0505   25.9078 H   0  0  0  0  0  0
  -22.0601   -2.7615   23.2814 H   0  0  0  0  0  0
  -22.4169  -11.9874   22.4769 H   0  0  0  0  0  0
  -21.1164  -13.1230   22.2632 H   0  0  0  0  0  0
  -24.6716  -15.8485   20.5274 H   0  0  0  0  0  0
  -26.2926  -15.6276   20.1030 H   0  0  0  0  0  0
  -26.7096  -32.5520   23.1235 H   0  0  0  0  0  0
  -24.9983  -33.9826   25.0474 H   0  0  0  0  0  0
  -22.6917  -31.3029   21.4051 H   0  0  0  0  0  0
  -23.3731  -35.9654   23.3344 H   0  0  0  0  0  0
  -24.3592  -36.8908   22.2075 H   0  0  0  0  0  0
  -23.7204  -37.6538   23.6653 H   0  0  0  0  0  0
  -26.0475  -31.6218   20.6030 H   0  0  0  0  0  0
  -26.8141  -30.8926   21.9823 H   0  0  0  0  0  0
  -28.1054  -29.1427   21.1469 H   0  0  0  0  0  0
  -26.0854  -25.9590   19.0669 H   0  0  0  0  0  0
  -23.9826  -27.2697   19.0760 H   0  0  0  0  0  0
  -23.7201  -30.5989   19.4092 H   0  0  0  0  0  0
  -22.7377  -29.2390   19.8640 H   0  0  0  0  0  0
  -25.1248  -36.2017   25.0862 H   0  0  0  0  0  0
  -20.9945  -28.3276   24.1466 H   0  0  0  0  0  0
  -20.5644  -26.2275   23.3623 H   0  0  0  0  0  0
  -21.6595  -26.7447   22.1201 H   0  0  0  0  0  0
  -19.6868  -25.6317   21.1241 H   0  0  0  0  0  0
  -19.6690  -27.3227   20.6766 H   0  0  0  0  0  0
  -17.4149  -26.6769   21.4048 H   0  0  0  0  0  0
  -18.0306  -26.0157   22.9058 H   0  0  0  0  0  0
  -19.7949  -30.7334   24.2193 H   0  0  0  0  0  0
  -17.5016  -31.6259   24.5258 H   0  0  0  0  0  0
  -15.5340  -30.2997   23.7657 H   0  0  0  0  0  0
  -15.8711  -28.0887   22.6963 H   0  0  0  0  0  0
  -24.5911  -30.7099   25.7894 H   0  0  0  0  0  0
  -24.9007  -32.2897   26.5055 H   0  0  0  0  0  0
  -25.8200  -30.8876   27.0233 H   0  0  0  0  0  0
  -26.2797  -29.6862   24.1193 H   0  0  0  0  0  0
  -27.4099  -29.7307   25.4511 H   0  0  0  0  0  0
  -27.8590  -30.4440   23.9193 H   0  0  0  0  0  0
  -27.2630  -33.3676   26.2099 H   0  0  0  0  0  0
  -28.3789  -32.7031   25.0295 H   0  0  0  0  0  0
  -28.0746  -31.8543   26.5381 H   0  0  0  0  0  0
  -28.2575  -38.0088   24.7467 H   0  0  0  0  0  0
  -28.1058  -36.2615   24.6313 H   0  0  0  0  0  0
  -27.2297  -37.1457   25.8871 H   0  0  0  0  0  0
  -20.9300  -29.8827   21.7013 H   0  0  0  0  0  0
  -26.0201  -38.2855   24.1429 H   0  0  0  0  0  0
  -28.8798  -16.6147   21.1270 H   0  0  0  0  0  0
  -27.9772  -18.7406   20.3092 H   0  0  0  0  0  0
  -32.5435  -18.6079   22.2666 H   0  0  0  0  0  0
  -27.7337  -24.2475   19.8045 H   0  0  0  0  0  0
  -31.0312  -14.6646   25.2998 H   0  0  0  0  0  0
  -32.3974  -14.2989   24.2455 H   0  0  0  0  0  0
  -32.4268  -16.7033   24.1795 H   0  0  0  0  0  0
  -30.6717  -16.7686   24.2601 H   0  0  0  0  0  0
  -29.4608  -14.2748   23.5643 H   0  0  0  0  0  0
  -30.6846  -13.0752   23.1394 H   0  0  0  0  0  0
  -32.4215  -16.0837   21.9265 H   0  0  0  0  0  0
  -28.2935  -20.3896   18.6727 H   0  0  0  0  0  0
  -27.2558  -21.2752   19.7957 H   0  0  0  0  0  0
  -29.4254  -26.2425   16.8586 H   0  0  0  0  0  0
  -27.7711  -26.2702   17.3912 H   0  0  0  0  0  0
  -30.2379  -26.6426   19.1745 H   0  0  0  0  0  0
  -29.2363  -27.9389   18.5833 H   0  0  0  0  0  0
  -29.9631  -21.9084   20.3505 H   0  0  0  0  0  0
  1 25  1  0  0  0
  1 30  2  0  0  0
  1 89  1  0  0  0
  2  3  1  0  0  0
  2 25  1  0  0  0
  2 92  1  0  0  0
  2 93  1  0  0  0
  3  4  1  0  0  0
  3 94  1  0  0  0
  3 95  1  0  0  0
  4  5  1  0  0  0
  4 96  1  0  0  0
  4 97  1  0  0  0
  5  6  1  0  0  0
  5 26  1  0  0  0
  5 98  1  0  0  0
  6 25  1  0  0  0
  6 99  1  0  0  0
  6100  1  0  0  0
  7  8  2  0  0  0
  7 26  1  0  0  0
  7 29  1  0  0  0
  8  9  1  0  0  0
  8 22  1  0  0  0
  9 10  1  0  0  0
  9 27  2  0  0  0
 10 11  2  0  0  0
 10 15  1  0  0  0
 11 12  1  0  0  0
 11101  1  0  0  0
 12 13  2  0  0  0
 12102  1  0  0  0
 13 14  1  0  0  0
 13 31  1  0  0  0
 14 15  2  0  0  0
 14103  1  0  0  0
 15104  1  0  0  0
 16 17  2  0  0  0
 16 21  1  0  0  0
 16 31  1  0  0  0
 17 18  1  0  0  0
 17105  1  0  0  0
 18 19  2  0  0  0
 18106  1  0  0  0
 19 20  1  0  0  0
 19 24  1  0  0  0
 20 21  2  0  0  0
 20107  1  0  0  0
 21 23  1  0  0  0
 22 28  1  0  0  0
 22 32  2  0  0  0
 26 27  1  0  0  0
 28108  1  0  0  0
 28109  1  0  0  0
 29110  1  0  0  0
 29111  1  0  0  0
 33 34  1  0  0  0
 33 66  1  0  0  0
 33 70  2  0  0  0
 34 36  1  0  0  0
 34 59  1  0  0  0
 34112  1  0  0  0
 35 44  2  0  0  0
 35 45  1  0  0  0
 35 68  1  0  0  0
 36 56  1  0  0  0
 36113  1  0  0  0
 37 39  1  0  0  0
 37 47  1  0  0  0
 37 66  1  0  0  0
 37114  1  0  0  0
 38 43  2  0  0  0
 38 46  1  0  0  0
 38 47  1  0  0  0
 39 64  1  0  0  0
 39 67  2  0  0  0
 40 52  1  0  0  0
 40 53  2  0  0  0
 40 58  1  0  0  0
 41115  1  0  0  0
 41116  1  0  0  0
 41117  1  0  0  0
 41 48  1  0  0  0
 42 43  1  0  0  0
 42 66  1  0  0  0
 42118  1  0  0  0
 42119  1  0  0  0
 43 44  1  0  0  0
 44120  1  0  0  0
 45 46  2  0  0  0
 45121  1  0  0  0
 46122  1  0  0  0
 47123  1  0  0  0
 47124  1  0  0  0
 48 56  1  0  0  0
 48 65  1  0  0  0
 48125  1  0  0  0
 49 50  1  0  0  0
 49 53  1  0  0  0
 49 64  1  0  0  0
 49126  1  0  0  0
 50 51  1  0  0  0
 50127  1  0  0  0
 50128  1  0  0  0
 51 52  1  0  0  0
 51129  1  0  0  0
 51130  1  0  0  0
 52131  1  0  0  0
 52132  1  0  0  0
 53 54  1  0  0  0
 54 55  2  0  0  0
 54133  1  0  0  0
 55 57  1  0  0  0
 55134  1  0  0  0
 56 69  2  0  0  0
 57 58  2  0  0  0
 57135  1  0  0  0
 58136  1  0  0  0
 59 60  1  0  0  0
 59 61  1  0  0  0
 59 62  1  0  0  0
 60137  1  0  0  0
 60138  1  0  0  0
 60139  1  0  0  0
 61140  1  0  0  0
 61141  1  0  0  0
 61142  1  0  0  0
 62143  1  0  0  0
 62144  1  0  0  0
 62145  1  0  0  0
 63 65  1  0  0  0
 63146  1  0  0  0
 63147  1  0  0  0
 63148  1  0  0  0
 64149  1  0  0  0
 65150  1  0  0  0
 68 85  1  0  0  0
 71 72  2  0  0  0
 71 75  1  0  0  0
 71151  1  0  0  0
 72 76  1  0  0  0
 72152  1  0  0  0
 73 75  2  0  0  0
 73 77  1  0  0  0
 73153  1  0  0  0
 74 78  2  0  0  0
 74 88  1  0  0  0
 74154  1  0  0  0
 75 82  1  0  0  0
 76 77  2  0  0  0
 76 90  1  0  0  0
 77 91  1  0  0  0
 78 83  1  0  0  0
 78 86  1  0  0  0
 79 80  1  0  0  0
 79 81  1  0  0  0
 79155  1  0  0  0
 79156  1  0  0  0
 80 82  1  0  0  0
 80157  1  0  0  0
 80158  1  0  0  0
 81 89  1  0  0  0
 81159  1  0  0  0
 81160  1  0  0  0
 82 89  1  0  0  0
 82161  1  0  0  0
 83 90  1  0  0  0
 83162  1  0  0  0
 83163  1  0  0  0
 84 85  1  0  0  0
 84 88  1  0  0  0
 84164  1  0  0  0
 84165  1  0  0  0
 85166  1  0  0  0
 85167  1  0  0  0
 86 87  2  0  0  0
 87 88  1  0  0  0
 90168  1  0  0  0
M  ISO  4   1 100  68 101  85 101  89 100
M  END
> <chiral flag>
0

> <version>
0

> <s_m_source_file>
/data/baiqing/PycharmProjects/Reinvent-master-3.2/result/LINK_invent/BTK/process_docking_weight1_custom_product_contain_oxygen_bond_distance_aromatic_linkinvent_7_9_3/rearranged_h_0006.sdf

> <i_m_source_file_index>
92

> <r_mmod_Potential_Energy-OPLS-2005>
98.2693405151367

> <r_mmod_Stretch_Energy-OPLS-2005>
36.3400497436523

> <r_mmod_Bend_Energy-OPLS-2005>
123.520210266113

> <r_mmod_Torsional_Energy-OPLS-2005>
332.141357421875

> <r_mmod_Improper_Torsional_Energy-OPLS-2005>
7.36608171463013

> <r_mmod_Van_der_Waal_Energy-OPLS-2005>
143.979431152344

> <r_mmod_Electrostatic_Energy-OPLS-2005>
-342.860260009766

> <r_mmod_Solvation_Energy-OPLS-2005>
-212.463241577148

> <b_mmod_Minimization_Converged-OPLS-2005>
0

> <r_mmod_RMS_Derivative-OPLS-2005>
3.27129507064819

$$$$
93
                    3D
 Structure written by MMmdl.
164173  0  0  1  0            999 V2000
  -30.6334  -14.7739   20.3278 C   0  0  0  0  0  0
  -30.4502  -12.4382   19.4671 C   0  0  0  0  0  0
  -29.5076  -12.3446   18.2477 C   0  0  0  0  0  0
  -28.0523  -12.1038   18.7098 C   0  0  0  0  0  0
  -27.6005  -13.0823   19.8102 C   0  0  2  0  0  0
  -28.6753  -13.2533   20.9264 C   0  0  0  0  0  0
  -25.2519  -13.7779   20.5737 C   0  0  0  0  0  0
  -24.1714  -13.0260   20.9315 C   0  0  0  0  0  0
  -24.6131  -11.6708   20.8934 C   0  0  0  0  0  0
  -23.8800  -10.4211   21.0580 C   0  0  0  0  0  0
  -24.3462   -9.4151   21.9297 C   0  0  0  0  0  0
  -23.6224   -8.2154   22.0758 C   0  0  0  0  0  0
  -22.4219   -8.0205   21.3539 C   0  0  0  0  0  0
  -21.9810   -9.0164   20.4665 C   0  0  0  0  0  0
  -22.7044  -10.2087   20.3159 C   0  0  0  0  0  0
  -21.6818   -6.0695   22.5266 C   0  0  0  0  0  0
  -21.3959   -6.5625   23.8190 C   0  0  0  0  0  0
  -21.3652   -5.6783   24.9175 C   0  0  0  0  0  0
  -21.6062   -4.3047   24.7212 C   0  0  0  0  0  0
  -21.8840   -3.8122   23.4333 C   0  0  0  0  0  0
  -21.9189   -4.6936   22.3388 C   0  0  0  0  0  0
  -22.7775  -13.5217   21.1939 C   0  0  0  0  0  0
  -22.1664   -4.2150   21.0950 F   0  0  0  0  0  0
  -21.5692   -3.4517   25.7712 F   0  0  0  0  0  0
  -29.9853  -13.5538   20.3134 N   0  0  0  0  0  0
  -26.2734  -12.8623   20.3355 N   0  0  0  0  0  0
  -25.9005  -11.5988   20.5992 N   0  0  0  0  0  0
  -22.0351  -12.8281   22.0491 N   0  0  0  0  0  0
  -25.4271  -15.1496   20.4054 N   0  0  0  0  0  0
  -31.8640  -14.8375   20.2922 O   0  0  0  0  0  0
  -21.6614   -6.8797   21.4218 O   0  0  0  0  0  0
  -22.3560  -14.5549   20.6773 O   0  0  0  0  0  0
  -24.6196  -31.8673   23.2053 C   0  0  0  0  0  0
  -25.9083  -32.4822   23.8364 C   0  0  1  0  0  0
  -27.2496  -27.3921   20.1218 C   0  0  0  0  0  0
  -25.5920  -33.8612   24.2311 N   0  0  0  0  0  0
  -23.4093  -30.4899   21.5445 C   0  0  2  0  0  0
  -24.8574  -28.9461   20.1139 C   0  0  0  0  0  0
  -22.7433  -29.4692   22.4959 C   0  0  0  0  0  0
  -18.0294  -28.1386   22.8484 C   0  0  0  0  0  0
  -24.1488  -36.7311   23.2636 C   0  0  0  0  0  0
  -25.9398  -30.8220   21.3609 C   0  0  0  0  0  0
  -26.0165  -29.4510   20.7120 C   0  0  0  0  0  0
  -27.2078  -28.6847   20.7068 C   0  0  0  0  0  0
  -26.0589  -26.9060   19.5245 C   0  0  0  0  0  0
  -24.8773  -27.6744   19.5160 C   0  0  0  0  0  0
  -23.6198  -29.8175   20.1603 C   0  0  0  0  0  0
  -25.4110  -36.3118   24.0345 C   0  0  1  0  0  0
  -20.5884  -28.3699   23.1276 C   0  0  2  0  0  0
  -20.6784  -26.9433   22.5395 C   0  0  0  0  0  0
  -19.5764  -26.6391   21.5202 C   0  0  0  0  0  0
  -18.1945  -26.7936   22.1613 C   0  0  0  0  0  0
  -19.1543  -28.8853   23.2884 C   0  0  0  0  0  0
  -18.9471  -30.1457   23.8909 C   0  0  0  0  0  0
  -17.6471  -30.6593   24.0567 C   0  0  0  0  0  0
  -25.9041  -34.9487   23.5127 C   0  0  0  0  0  0
  -16.5366  -29.9097   23.6320 C   0  0  0  0  0  0
  -16.7279  -28.6509   23.0349 C   0  0  0  0  0  0
  -26.4482  -31.6607   25.0706 C   0  0  0  0  0  0
  -25.3723  -31.3715   26.1433 C   0  0  0  0  0  0
  -27.0320  -30.3046   24.6106 C   0  0  0  0  0  0
  -27.6064  -32.4320   25.7468 C   0  0  0  0  0  0
  -27.5596  -37.1806   24.8469 C   0  0  0  0  0  0
  -21.4160  -29.3069   22.3680 N   0  0  0  0  0  0
  -26.4301  -37.3805   23.9420 N   0  0  0  0  0  0
  -24.6748  -31.0753   22.0955 N   0  0  0  0  0  0
  -23.4182  -28.8263   23.3046 O   0  0  0  0  0  0
  -28.4464  -26.6806   20.1859 O   0  0  0  0  0  0
  -26.5612  -34.8953   22.4695 O   0  0  0  0  0  0
  -23.5381  -32.1437   23.7425 O   0  0  0  0  0  0
  -31.7943  -18.9463   20.2960 C   0  0  0  0  0  0
  -30.0335  -19.2990   21.9041 C   0  0  0  0  0  0
  -31.9204  -20.3540   20.1603 C   0  0  0  0  0  0
  -30.1282  -20.7023   21.7341 C   0  0  0  0  0  0
  -30.7221  -18.4062   21.0417 C   0  0  0  0  0  0
  -30.9886  -21.2613   20.7597 C   0  0  0  0  0  0
  -31.3660  -23.0339   19.1251 C   0  0  0  0  0  0
  -28.5079  -17.0967   18.3298 C   0  0  0  0  0  0
  -29.3694  -18.0683   19.0494 C   0  0  0  0  0  0
  -28.7645  -15.8209   19.0954 C   0  0  0  0  0  0
  -29.7822  -17.3813   20.3699 C   0  0  1  0  0  0
  -28.7616  -24.1675   20.6746 C   0  0  0  0  0  0
  -30.1989  -23.7223   21.1463 C   0  0  0  0  0  0
  -28.6119  -25.3472   19.6438 C   0  0  0  0  0  0
  -29.8516  -15.9009   20.0799 N   0  0  0  0  0  0
  -30.8758  -22.6620   20.3324 N   0  0  0  0  0  0
  -31.5992  -24.1945   18.7751 O   0  0  0  0  0  0
  -31.4811  -12.5770   19.1354 H   0  0  0  0  0  0
  -30.4275  -11.5099   20.0367 H   0  0  0  0  0  0
  -29.8227  -11.5111   17.6169 H   0  0  0  0  0  0
  -29.5943  -13.2243   17.6118 H   0  0  0  0  0  0
  -27.9999  -11.0870   19.1046 H   0  0  0  0  0  0
  -27.3702  -12.1322   17.8585 H   0  0  0  0  0  0
  -27.3935  -13.9263   19.1958 H   0  0  0  0  0  0
  -28.7467  -12.3553   21.5419 H   0  0  0  0  0  0
  -28.3745  -14.0591   21.5996 H   0  0  0  0  0  0
  -25.2612   -9.5706   22.4867 H   0  0  0  0  0  0
  -24.0002   -7.4536   22.7430 H   0  0  0  0  0  0
  -21.0771   -8.8646   19.8943 H   0  0  0  0  0  0
  -22.3488  -10.9654   19.6302 H   0  0  0  0  0  0
  -21.1875   -7.6124   23.9664 H   0  0  0  0  0  0
  -21.1474   -6.0529   25.9073 H   0  0  0  0  0  0
  -22.0622   -2.7587   23.2819 H   0  0  0  0  0  0
  -22.3882  -11.9929   22.4954 H   0  0  0  0  0  0
  -21.0980  -13.1384   22.2681 H   0  0  0  0  0  0
  -24.6645  -15.8055   20.5357 H   0  0  0  0  0  0
  -26.2841  -15.5982   20.1166 H   0  0  0  0  0  0
  -26.7164  -32.5523   23.1131 H   0  0  0  0  0  0
  -25.0082  -33.9755   25.0467 H   0  0  0  0  0  0
  -22.7025  -31.3106   21.4014 H   0  0  0  0  0  0
  -23.3764  -35.9628   23.3296 H   0  0  0  0  0  0
  -24.3578  -36.8920   22.2049 H   0  0  0  0  0  0
  -23.7218  -37.6508   23.6639 H   0  0  0  0  0  0
  -26.0553  -31.5847   20.5890 H   0  0  0  0  0  0
  -26.8262  -30.8759   21.9823 H   0  0  0  0  0  0
  -28.1011  -29.0798   21.1694 H   0  0  0  0  0  0
  -25.9951  -25.9304   19.0715 H   0  0  0  0  0  0
  -23.9857  -27.2723   19.0573 H   0  0  0  0  0  0
  -23.7294  -30.5897   19.3980 H   0  0  0  0  0  0
  -22.7425  -29.2364   19.8661 H   0  0  0  0  0  0
  -25.1282  -36.1983   25.0837 H   0  0  0  0  0  0
  -20.9980  -28.3280   24.1396 H   0  0  0  0  0  0
  -20.5674  -26.2332   23.3601 H   0  0  0  0  0  0
  -21.6661  -26.7473   22.1204 H   0  0  0  0  0  0
  -19.6924  -25.6295   21.1258 H   0  0  0  0  0  0
  -19.6696  -27.3181   20.6716 H   0  0  0  0  0  0
  -17.4217  -26.6697   21.4012 H   0  0  0  0  0  0
  -18.0346  -26.0061   22.8992 H   0  0  0  0  0  0
  -19.7946  -30.7272   24.2286 H   0  0  0  0  0  0
  -17.5027  -31.6275   24.5181 H   0  0  0  0  0  0
  -15.5360  -30.3011   23.7621 H   0  0  0  0  0  0
  -15.8686  -28.0827   22.7056 H   0  0  0  0  0  0
  -24.5899  -30.7081   25.7733 H   0  0  0  0  0  0
  -24.8916  -32.2867   26.4889 H   0  0  0  0  0  0
  -25.8039  -30.8851   27.0190 H   0  0  0  0  0  0
  -26.2868  -29.6789   24.1180 H   0  0  0  0  0  0
  -27.4100  -29.7306   25.4577 H   0  0  0  0  0  0
  -27.8699  -30.4359   23.9258 H   0  0  0  0  0  0
  -27.2707  -33.3623   26.2063 H   0  0  0  0  0  0
  -28.3860  -32.6874   25.0278 H   0  0  0  0  0  0
  -28.0753  -31.8429   26.5357 H   0  0  0  0  0  0
  -28.2614  -38.0110   24.7551 H   0  0  0  0  0  0
  -28.1101  -36.2646   24.6252 H   0  0  0  0  0  0
  -27.2328  -37.1415   25.8876 H   0  0  0  0  0  0
  -20.9344  -29.8761   21.6858 H   0  0  0  0  0  0
  -26.0201  -38.2894   24.1399 H   0  0  0  0  0  0
  -32.3426  -18.3235   19.6028 H   0  0  0  0  0  0
  -29.2088  -18.9344   22.4986 H   0  0  0  0  0  0
  -32.6683  -20.7073   19.4662 H   0  0  0  0  0  0
  -29.4225  -21.3189   22.2714 H   0  0  0  0  0  0
  -31.5374  -22.1668   18.4690 H   0  0  0  0  0  0
  -28.7748  -17.0122   17.2752 H   0  0  0  0  0  0
  -27.4520  -17.3730   18.3872 H   0  0  0  0  0  0
  -28.8631  -19.0227   19.2105 H   0  0  0  0  0  0
  -30.2375  -18.2594   18.4189 H   0  0  0  0  0  0
  -28.8858  -15.0268   18.3671 H   0  0  0  0  0  0
  -27.8832  -15.7265   19.7190 H   0  0  0  0  0  0
  -28.9034  -17.3857   21.0195 H   0  0  0  0  0  0
  -28.1670  -24.4252   21.5518 H   0  0  0  0  0  0
  -28.2659  -23.2834   20.2679 H   0  0  0  0  0  0
  -30.1359  -23.3770   22.1771 H   0  0  0  0  0  0
  -30.8380  -24.6062   21.2142 H   0  0  0  0  0  0
  -27.8383  -25.0858   18.9304 H   0  0  0  0  0  0
  -29.5004  -25.3998   19.0239 H   0  0  0  0  0  0
  1 25  1  0  0  0
  1 30  2  0  0  0
  1 85  1  0  0  0
  2  3  1  0  0  0
  2 25  1  0  0  0
  2 88  1  0  0  0
  2 89  1  0  0  0
  3  4  1  0  0  0
  3 90  1  0  0  0
  3 91  1  0  0  0
  4  5  1  0  0  0
  4 92  1  0  0  0
  4 93  1  0  0  0
  5  6  1  0  0  0
  5 26  1  0  0  0
  5 94  1  0  0  0
  6 25  1  0  0  0
  6 95  1  0  0  0
  6 96  1  0  0  0
  7  8  2  0  0  0
  7 26  1  0  0  0
  7 29  1  0  0  0
  8  9  1  0  0  0
  8 22  1  0  0  0
  9 10  1  0  0  0
  9 27  2  0  0  0
 10 11  2  0  0  0
 10 15  1  0  0  0
 11 12  1  0  0  0
 11 97  1  0  0  0
 12 13  2  0  0  0
 12 98  1  0  0  0
 13 14  1  0  0  0
 13 31  1  0  0  0
 14 15  2  0  0  0
 14 99  1  0  0  0
 15100  1  0  0  0
 16 17  2  0  0  0
 16 21  1  0  0  0
 16 31  1  0  0  0
 17 18  1  0  0  0
 17101  1  0  0  0
 18 19  2  0  0  0
 18102  1  0  0  0
 19 20  1  0  0  0
 19 24  1  0  0  0
 20 21  2  0  0  0
 20103  1  0  0  0
 21 23  1  0  0  0
 22 28  1  0  0  0
 22 32  2  0  0  0
 26 27  1  0  0  0
 28104  1  0  0  0
 28105  1  0  0  0
 29106  1  0  0  0
 29107  1  0  0  0
 33 34  1  0  0  0
 33 66  1  0  0  0
 33 70  2  0  0  0
 34 36  1  0  0  0
 34 59  1  0  0  0
 34108  1  0  0  0
 35 44  2  0  0  0
 35 45  1  0  0  0
 35 68  1  0  0  0
 36 56  1  0  0  0
 36109  1  0  0  0
 37 39  1  0  0  0
 37 47  1  0  0  0
 37 66  1  0  0  0
 37110  1  0  0  0
 38 43  2  0  0  0
 38 46  1  0  0  0
 38 47  1  0  0  0
 39 64  1  0  0  0
 39 67  2  0  0  0
 40 52  1  0  0  0
 40 53  2  0  0  0
 40 58  1  0  0  0
 41111  1  0  0  0
 41112  1  0  0  0
 41113  1  0  0  0
 41 48  1  0  0  0
 42 43  1  0  0  0
 42 66  1  0  0  0
 42114  1  0  0  0
 42115  1  0  0  0
 43 44  1  0  0  0
 44116  1  0  0  0
 45 46  2  0  0  0
 45117  1  0  0  0
 46118  1  0  0  0
 47119  1  0  0  0
 47120  1  0  0  0
 48 56  1  0  0  0
 48 65  1  0  0  0
 48121  1  0  0  0
 49 50  1  0  0  0
 49 53  1  0  0  0
 49 64  1  0  0  0
 49122  1  0  0  0
 50 51  1  0  0  0
 50123  1  0  0  0
 50124  1  0  0  0
 51 52  1  0  0  0
 51125  1  0  0  0
 51126  1  0  0  0
 52127  1  0  0  0
 52128  1  0  0  0
 53 54  1  0  0  0
 54 55  2  0  0  0
 54129  1  0  0  0
 55 57  1  0  0  0
 55130  1  0  0  0
 56 69  2  0  0  0
 57 58  2  0  0  0
 57131  1  0  0  0
 58132  1  0  0  0
 59 60  1  0  0  0
 59 61  1  0  0  0
 59 62  1  0  0  0
 60133  1  0  0  0
 60134  1  0  0  0
 60135  1  0  0  0
 61136  1  0  0  0
 61137  1  0  0  0
 61138  1  0  0  0
 62139  1  0  0  0
 62140  1  0  0  0
 62141  1  0  0  0
 63 65  1  0  0  0
 63142  1  0  0  0
 63143  1  0  0  0
 63144  1  0  0  0
 64145  1  0  0  0
 65146  1  0  0  0
 68 84  1  0  0  0
 71 73  2  0  0  0
 71 75  1  0  0  0
 71147  1  0  0  0
 72 74  1  0  0  0
 72 75  2  0  0  0
 72148  1  0  0  0
 73 76  1  0  0  0
 73149  1  0  0  0
 74 76  2  0  0  0
 74150  1  0  0  0
 75 81  1  0  0  0
 76 86  1  0  0  0
 77 86  1  0  0  0
 77 87  2  0  0  0
 77151  1  0  0  0
 78 79  1  0  0  0
 78 80  1  0  0  0
 78152  1  0  0  0
 78153  1  0  0  0
 79 81  1  0  0  0
 79154  1  0  0  0
 79155  1  0  0  0
 80 85  1  0  0  0
 80156  1  0  0  0
 80157  1  0  0  0
 81 85  1  0  0  0
 81158  1  0  0  0
 82 83  1  0  0  0
 82 84  1  0  0  0
 82159  1  0  0  0
 82160  1  0  0  0
 83 86  1  0  0  0
 83161  1  0  0  0
 83162  1  0  0  0
 84163  1  0  0  0
 84164  1  0  0  0
M  ISO  4   1 100  68 101  84 101  85 100
M  END
> <chiral flag>
0

> <version>
0

> <s_m_source_file>
/data/baiqing/PycharmProjects/Reinvent-master-3.2/result/LINK_invent/BTK/process_docking_weight1_custom_product_contain_oxygen_bond_distance_aromatic_linkinvent_7_9_3/rearranged_h_0006.sdf

> <i_m_source_file_index>
93

> <r_mmod_Potential_Energy-OPLS-2005>
680.000671386719

> <r_mmod_Stretch_Energy-OPLS-2005>
76.2358551025391

> <r_mmod_Bend_Energy-OPLS-2005>
280.946960449219

> <r_mmod_Torsional_Energy-OPLS-2005>
471.695922851562

> <r_mmod_Improper_Torsional_Energy-OPLS-2005>
21.832067489624

> <r_mmod_Van_der_Waal_Energy-OPLS-2005>
196.899185180664

> <r_mmod_Electrostatic_Energy-OPLS-2005>
-250.701568603516

> <r_mmod_Solvation_Energy-OPLS-2005>
-215.852508544922

> <b_mmod_Minimization_Converged-OPLS-2005>
0

> <r_mmod_RMS_Derivative-OPLS-2005>
4.05606937408447

$$$$
94
                    3D
 Structure written by MMmdl.
146153  0  0  1  0            999 V2000
  -30.3707  -15.2724   20.3797 C   0  0  0  0  0  0
  -30.4578  -12.8104   19.5268 C   0  0  0  0  0  0
  -29.5467  -12.5824   18.2904 C   0  0  0  0  0  0
  -28.0929  -12.2981   18.7137 C   0  0  0  0  0  0
  -27.6185  -13.2630   19.8273 C   0  0  2  0  0  0
  -28.6523  -13.4029   20.9659 C   0  0  0  0  0  0
  -25.2433  -13.8224   20.5717 C   0  0  0  0  0  0
  -24.1785  -13.0442   20.9310 C   0  0  0  0  0  0
  -24.6406  -11.6926   20.8792 C   0  0  0  0  0  0
  -23.9088  -10.4292   21.0426 C   0  0  0  0  0  0
  -24.3631   -9.4200   21.9193 C   0  0  0  0  0  0
  -23.6299   -8.2236   22.0756 C   0  0  0  0  0  0
  -22.4280   -8.0281   21.3547 C   0  0  0  0  0  0
  -21.9924   -9.0261   20.4651 C   0  0  0  0  0  0
  -22.7261  -10.2139   20.3070 C   0  0  0  0  0  0
  -21.6851   -6.0738   22.5279 C   0  0  0  0  0  0
  -21.4010   -6.5641   23.8215 C   0  0  0  0  0  0
  -21.3661   -5.6794   24.9176 C   0  0  0  0  0  0
  -21.6044   -4.3056   24.7226 C   0  0  0  0  0  0
  -21.8817   -3.8148   23.4347 C   0  0  0  0  0  0
  -21.9190   -4.6964   22.3401 C   0  0  0  0  0  0
  -22.7802  -13.5208   21.1934 C   0  0  0  0  0  0
  -22.1657   -4.2154   21.0981 F   0  0  0  0  0  0
  -21.5631   -3.4539   25.7737 F   0  0  0  0  0  0
  -29.8856  -13.9309   20.3562 N   0  0  0  0  0  0
  -26.2836  -12.9461   20.3176 N   0  0  0  0  0  0
  -25.9331  -11.6591   20.5708 N   0  0  0  0  0  0
  -22.0428  -12.8202   22.0472 N   0  0  0  0  0  0
  -25.4094  -15.1955   20.3982 N   0  0  0  0  0  0
  -31.5840  -15.3786   20.1233 O   0  0  0  0  0  0
  -21.6641   -6.8883   21.4244 O   0  0  0  0  0  0
  -22.3524  -14.5518   20.6756 O   0  0  0  0  0  0
  -24.6630  -31.8222   23.1688 C   0  0  0  0  0  0
  -25.9305  -32.4581   23.8156 C   0  0  1  0  0  0
  -27.2243  -26.9208   20.1866 C   0  0  0  0  0  0
  -25.5969  -33.8397   24.2053 N   0  0  0  0  0  0
  -23.4784  -30.4315   21.5194 C   0  0  2  0  0  0
  -24.9326  -28.8150   20.1150 C   0  0  0  0  0  0
  -22.7663  -29.4426   22.4792 C   0  0  0  0  0  0
  -18.0315  -28.1403   22.8465 C   0  0  0  0  0  0
  -24.1490  -36.7201   23.2648 C   0  0  0  0  0  0
  -26.0477  -30.6272   21.3992 C   0  0  0  0  0  0
  -26.1176  -29.2154   20.7449 C   0  0  0  0  0  0
  -27.2581  -28.2910   20.7524 C   0  0  0  0  0  0
  -26.0063  -26.6715   19.5141 C   0  0  0  0  0  0
  -24.9024  -27.5633   19.4791 C   0  0  0  0  0  0
  -23.7180  -29.7430   20.1476 C   0  0  0  0  0  0
  -25.4134  -36.2962   24.0293 C   0  0  1  0  0  0
  -20.5941  -28.3744   23.1191 C   0  0  2  0  0  0
  -20.6789  -26.9426   22.5404 C   0  0  0  0  0  0
  -19.5766  -26.6371   21.5211 C   0  0  0  0  0  0
  -18.1949  -26.7935   22.1621 C   0  0  0  0  0  0
  -19.1577  -28.8895   23.2813 C   0  0  0  0  0  0
  -18.9490  -30.1484   23.8849 C   0  0  0  0  0  0
  -17.6484  -30.6598   24.0548 C   0  0  0  0  0  0
  -25.9100  -34.9347   23.4996 C   0  0  0  0  0  0
  -16.5374  -29.9081   23.6346 C   0  0  0  0  0  0
  -16.7296  -28.6498   23.0370 C   0  0  0  0  0  0
  -26.4553  -31.6538   25.0692 C   0  0  0  0  0  0
  -25.3673  -31.3801   26.1343 C   0  0  0  0  0  0
  -27.0453  -30.2904   24.6436 C   0  0  0  0  0  0
  -27.6037  -32.4358   25.7502 C   0  0  0  0  0  0
  -27.5566  -37.1756   24.8467 C   0  0  0  0  0  0
  -21.4332  -29.3033   22.3542 N   0  0  0  0  0  0
  -26.4277  -37.3700   23.9407 N   0  0  0  0  0  0
  -24.7512  -30.9873   22.0831 N   0  0  0  0  0  0
  -23.4203  -28.8000   23.3042 O   0  0  0  0  0  0
  -28.2368  -25.8209   20.2509 O   0  0  0  0  0  0
  -26.5721  -34.8888   22.4601 O   0  0  0  0  0  0
  -23.5696  -32.1199   23.6770 O   0  0  0  0  0  0
  -29.0035  -18.0239   20.4966 C   0  0  0  0  0  0
  -28.9900  -22.6709   20.2810 C   0  0  0  0  0  0
  -28.5734  -20.9085   20.2814 C   0  0  0  0  0  0
  -27.9847  -24.1832   20.1789 C   0  0  0  0  0  0
  -27.6910  -18.1318   20.7536 N   0  0  0  0  0  0
  -29.3638  -16.5537   20.5181 N   0  0  0  0  0  0
  -29.4417  -19.4400   20.3130 N   0  3  0  0  0  0
  -31.4705  -13.0460   19.1960 H   0  0  0  0  0  0
  -30.5467  -11.8966   20.1168 H   0  0  0  0  0  0
  -29.9298  -11.7613   17.6831 H   0  0  0  0  0  0
  -29.5731  -13.4699   17.6563 H   0  0  0  0  0  0
  -28.0501  -11.2719   19.0801 H   0  0  0  0  0  0
  -27.4251  -12.3443   17.8524 H   0  0  0  0  0  0
  -27.5433  -14.2358   19.3409 H   0  0  0  0  0  0
  -28.8216  -12.4485   21.4669 H   0  0  0  0  0  0
  -28.2876  -14.0900   21.7315 H   0  0  0  0  0  0
  -25.2771   -9.5669   22.4778 H   0  0  0  0  0  0
  -24.0004   -7.4623   22.7471 H   0  0  0  0  0  0
  -21.0858   -8.8786   19.8955 H   0  0  0  0  0  0
  -22.3716  -10.9682   19.6189 H   0  0  0  0  0  0
  -21.1998   -7.6147   23.9718 H   0  0  0  0  0  0
  -21.1486   -6.0522   25.9080 H   0  0  0  0  0  0
  -22.0593   -2.7610   23.2844 H   0  0  0  0  0  0
  -22.4025  -11.9870   22.4889 H   0  0  0  0  0  0
  -21.1040  -13.1237   22.2659 H   0  0  0  0  0  0
  -24.5464  -15.7297   20.3888 H   0  0  0  0  0  0
  -26.0212  -15.4798   19.6443 H   0  0  0  0  0  0
  -26.7374  -32.5116   23.0870 H   0  0  0  0  0  0
  -25.0047  -33.9474   25.0155 H   0  0  0  0  0  0
  -22.7917  -31.2627   21.3460 H   0  0  0  0  0  0
  -23.3765  -35.9521   23.3285 H   0  0  0  0  0  0
  -24.3563  -36.8876   22.2068 H   0  0  0  0  0  0
  -23.7237  -37.6375   23.6726 H   0  0  0  0  0  0
  -26.2258  -31.3678   20.6186 H   0  0  0  0  0  0
  -26.9084  -30.6868   22.0534 H   0  0  0  0  0  0
  -28.1570  -28.5983   21.2676 H   0  0  0  0  0  0
  -25.8739  -25.7160   19.0289 H   0  0  0  0  0  0
  -24.0020  -27.2488   18.9702 H   0  0  0  0  0  0
  -23.8703  -30.5088   19.3858 H   0  0  0  0  0  0
  -22.8286  -29.1937   19.8339 H   0  0  0  0  0  0
  -25.1336  -36.1753   25.0784 H   0  0  0  0  0  0
  -21.0020  -28.3347   24.1318 H   0  0  0  0  0  0
  -20.5658  -26.2363   23.3643 H   0  0  0  0  0  0
  -21.6654  -26.7395   22.1219 H   0  0  0  0  0  0
  -19.6927  -25.6267   21.1275 H   0  0  0  0  0  0
  -19.6709  -27.3154   20.6719 H   0  0  0  0  0  0
  -17.4215  -26.6668   21.4031 H   0  0  0  0  0  0
  -18.0349  -26.0090   22.9032 H   0  0  0  0  0  0
  -19.7967  -30.7309   24.2199 H   0  0  0  0  0  0
  -17.5039  -31.6277   24.5152 H   0  0  0  0  0  0
  -15.5372  -30.2970   23.7700 H   0  0  0  0  0  0
  -15.8695  -28.0798   22.7126 H   0  0  0  0  0  0
  -24.5864  -30.7143   25.7648 H   0  0  0  0  0  0
  -24.8851  -32.3009   26.4636 H   0  0  0  0  0  0
  -25.7893  -30.9050   27.0206 H   0  0  0  0  0  0
  -26.3123  -29.6581   24.1411 H   0  0  0  0  0  0
  -27.3945  -29.7272   25.5100 H   0  0  0  0  0  0
  -27.9080  -30.4083   23.9876 H   0  0  0  0  0  0
  -27.2591  -33.3700   26.1953 H   0  0  0  0  0  0
  -28.3916  -32.6858   25.0383 H   0  0  0  0  0  0
  -28.0631  -31.8572   26.5525 H   0  0  0  0  0  0
  -28.2565  -38.0067   24.7510 H   0  0  0  0  0  0
  -28.1076  -36.2591   24.6301 H   0  0  0  0  0  0
  -27.2279  -37.1408   25.8867 H   0  0  0  0  0  0
  -20.9588  -29.8713   21.6665 H   0  0  0  0  0  0
  -26.0120  -38.2754   24.1429 H   0  0  0  0  0  0
  -29.7225  -22.7781   19.4816 H   0  0  0  0  0  0
  -29.5797  -22.8041   21.1874 H   0  0  0  0  0  0
  -27.8854  -20.8115   21.1209 H   0  0  0  0  0  0
  -27.9360  -20.7902   19.4045 H   0  0  0  0  0  0
  -27.2201  -24.0350   20.9421 H   0  0  0  0  0  0
  -27.4420  -24.0622   19.2416 H   0  0  0  0  0  0
  -27.2677  -19.0459   20.7649 H   0  0  0  0  0  0
  -27.0738  -17.3624   20.9785 H   0  0  0  0  0  0
  -28.4575  -16.1799   20.7123 H   0  0  0  0  0  0
  -30.4278  -19.5448   20.1016 H   0  0  0  0  0  0
  1 25  1  0  0  0
  1 30  2  0  0  0
  1 76  1  0  0  0
  2  3  1  0  0  0
  2 25  1  0  0  0
  2 78  1  0  0  0
  2 79  1  0  0  0
  3  4  1  0  0  0
  3 80  1  0  0  0
  3 81  1  0  0  0
  4  5  1  0  0  0
  4 82  1  0  0  0
  4 83  1  0  0  0
  5  6  1  0  0  0
  5 26  1  0  0  0
  5 84  1  0  0  0
  6 25  1  0  0  0
  6 85  1  0  0  0
  6 86  1  0  0  0
  7  8  2  0  0  0
  7 26  1  0  0  0
  7 29  1  0  0  0
  8  9  1  0  0  0
  8 22  1  0  0  0
  9 10  1  0  0  0
  9 27  2  0  0  0
 10 11  2  0  0  0
 10 15  1  0  0  0
 11 12  1  0  0  0
 11 87  1  0  0  0
 12 13  2  0  0  0
 12 88  1  0  0  0
 13 14  1  0  0  0
 13 31  1  0  0  0
 14 15  2  0  0  0
 14 89  1  0  0  0
 15 90  1  0  0  0
 16 17  2  0  0  0
 16 21  1  0  0  0
 16 31  1  0  0  0
 17 18  1  0  0  0
 17 91  1  0  0  0
 18 19  2  0  0  0
 18 92  1  0  0  0
 19 20  1  0  0  0
 19 24  1  0  0  0
 20 21  2  0  0  0
 20 93  1  0  0  0
 21 23  1  0  0  0
 22 28  1  0  0  0
 22 32  2  0  0  0
 26 27  1  0  0  0
 28 94  1  0  0  0
 28 95  1  0  0  0
 29 96  1  0  0  0
 29 97  1  0  0  0
 33 34  1  0  0  0
 33 66  1  0  0  0
 33 70  2  0  0  0
 34 36  1  0  0  0
 34 59  1  0  0  0
 34 98  1  0  0  0
 35 44  2  0  0  0
 35 45  1  0  0  0
 35 68  1  0  0  0
 36 56  1  0  0  0
 36 99  1  0  0  0
 37 39  1  0  0  0
 37 47  1  0  0  0
 37 66  1  0  0  0
 37100  1  0  0  0
 38 43  2  0  0  0
 38 46  1  0  0  0
 38 47  1  0  0  0
 39 64  1  0  0  0
 39 67  2  0  0  0
 40 52  1  0  0  0
 40 53  2  0  0  0
 40 58  1  0  0  0
 41101  1  0  0  0
 41102  1  0  0  0
 41103  1  0  0  0
 41 48  1  0  0  0
 42 43  1  0  0  0
 42 66  1  0  0  0
 42104  1  0  0  0
 42105  1  0  0  0
 43 44  1  0  0  0
 44106  1  0  0  0
 45 46  2  0  0  0
 45107  1  0  0  0
 46108  1  0  0  0
 47109  1  0  0  0
 47110  1  0  0  0
 48 56  1  0  0  0
 48 65  1  0  0  0
 48111  1  0  0  0
 49 50  1  0  0  0
 49 53  1  0  0  0
 49 64  1  0  0  0
 49112  1  0  0  0
 50 51  1  0  0  0
 50113  1  0  0  0
 50114  1  0  0  0
 51 52  1  0  0  0
 51115  1  0  0  0
 51116  1  0  0  0
 52117  1  0  0  0
 52118  1  0  0  0
 53 54  1  0  0  0
 54 55  2  0  0  0
 54119  1  0  0  0
 55 57  1  0  0  0
 55120  1  0  0  0
 56 69  2  0  0  0
 57 58  2  0  0  0
 57121  1  0  0  0
 58122  1  0  0  0
 59 60  1  0  0  0
 59 61  1  0  0  0
 59 62  1  0  0  0
 60123  1  0  0  0
 60124  1  0  0  0
 60125  1  0  0  0
 61126  1  0  0  0
 61127  1  0  0  0
 61128  1  0  0  0
 62129  1  0  0  0
 62130  1  0  0  0
 62131  1  0  0  0
 63 65  1  0  0  0
 63132  1  0  0  0
 63133  1  0  0  0
 63134  1  0  0  0
 64135  1  0  0  0
 65136  1  0  0  0
 68 74  1  0  0  0
 71 75  1  0  0  0
 71 76  1  0  0  0
 71 77  2  0  0  0
 72 73  1  0  0  0
 72 74  1  0  0  0
 72137  1  0  0  0
 72138  1  0  0  0
 73 77  1  0  0  0
 73139  1  0  0  0
 73140  1  0  0  0
 74141  1  0  0  0
 74142  1  0  0  0
 75143  1  0  0  0
 75144  1  0  0  0
 76145  1  0  0  0
 77146  1  0  0  0
M  CHG  1  77   1
M  ISO  4   1 100  68 101  74 101  76 100
M  END
> <chiral flag>
0

> <version>
0

> <s_m_source_file>
/data/baiqing/PycharmProjects/Reinvent-master-3.2/result/LINK_invent/BTK/process_docking_weight1_custom_product_contain_oxygen_bond_distance_aromatic_linkinvent_7_9_3/rearranged_h_0006.sdf

> <i_m_source_file_index>
94

> <r_mmod_Potential_Energy-OPLS-2005>
1347.09423828125

> <r_mmod_Stretch_Energy-OPLS-2005>
638.685607910156

> <r_mmod_Bend_Energy-OPLS-2005>
587.133422851562

> <r_mmod_Torsional_Energy-OPLS-2005>
212.234664916992

> <r_mmod_Improper_Torsional_Energy-OPLS-2005>
8.46683216094971

> <r_mmod_Van_der_Waal_Energy-OPLS-2005>
110.29857635498

> <r_mmod_Electrostatic_Energy-OPLS-2005>
-224.810241699219

> <r_mmod_Solvation_Energy-OPLS-2005>
-458.445678710938

> <b_mmod_Minimization_Converged-OPLS-2005>
0

> <r_mmod_RMS_Derivative-OPLS-2005>
0.854734659194946

$$$$
95
                    3D
 Structure written by MMmdl.
180190  0  0  1  0            999 V2000
  -30.7358  -14.4250   20.6181 C   0  0  0  0  0  0
  -30.4172  -12.2959   19.4106 C   0  0  0  0  0  0
  -29.4902  -12.5204   18.2001 C   0  0  0  0  0  0
  -28.0121  -12.3822   18.6127 C   0  0  0  0  0  0
  -27.6642  -13.2090   19.8793 C   0  0  2  0  0  0
  -28.7051  -12.9697   20.9964 C   0  0  0  0  0  0
  -25.2598  -13.8174   20.5690 C   0  0  0  0  0  0
  -24.1845  -13.0437   20.9181 C   0  0  0  0  0  0
  -24.6408  -11.6910   20.8737 C   0  0  0  0  0  0
  -23.9068  -10.4298   21.0403 C   0  0  0  0  0  0
  -24.3618   -9.4216   21.9180 C   0  0  0  0  0  0
  -23.6293   -8.2246   22.0753 C   0  0  0  0  0  0
  -22.4273   -8.0290   21.3542 C   0  0  0  0  0  0
  -21.9909   -9.0263   20.4641 C   0  0  0  0  0  0
  -22.7240  -10.2138   20.3051 C   0  0  0  0  0  0
  -21.6850   -6.0740   22.5280 C   0  0  0  0  0  0
  -21.4014   -6.5642   23.8217 C   0  0  0  0  0  0
  -21.3662   -5.6794   24.9177 C   0  0  0  0  0  0
  -21.6042   -4.3054   24.7225 C   0  0  0  0  0  0
  -21.8819   -3.8148   23.4349 C   0  0  0  0  0  0
  -21.9191   -4.6968   22.3404 C   0  0  0  0  0  0
  -22.7865  -13.5241   21.1848 C   0  0  0  0  0  0
  -22.1659   -4.2154   21.0979 F   0  0  0  0  0  0
  -21.5631   -3.4544   25.7738 F   0  0  0  0  0  0
  -30.0393  -13.2686   20.4472 N   0  0  0  0  0  0
  -26.3042  -12.9354   20.3388 N   0  0  0  0  0  0
  -25.9337  -11.6505   20.5768 N   0  0  0  0  0  0
  -22.0493  -12.8224   22.0395 N   0  0  0  0  0  0
  -25.4305  -15.1897   20.4126 N   0  0  0  0  0  0
  -31.8360  -14.6178   20.0943 O   0  0  0  0  0  0
  -21.6637   -6.8884   21.4240 O   0  0  0  0  0  0
  -22.3546  -14.5546   20.6705 O   0  0  0  0  0  0
  -24.6137  -31.8673   23.2081 C   0  0  0  0  0  0
  -25.9048  -32.4820   23.8372 C   0  0  1  0  0  0
  -27.2456  -27.4509   20.1029 C   0  0  0  0  0  0
  -25.5906  -33.8617   24.2258 N   0  0  0  0  0  0
  -23.4010  -30.4869   21.5489 C   0  0  2  0  0  0
  -24.8511  -28.9454   20.1221 C   0  0  0  0  0  0
  -22.7404  -29.4663   22.5011 C   0  0  0  0  0  0
  -18.0268  -28.1358   22.8491 C   0  0  0  0  0  0
  -24.1496  -36.7317   23.2635 C   0  0  0  0  0  0
  -25.9265  -30.8341   21.3612 C   0  0  0  0  0  0
  -26.0070  -29.4664   20.7181 C   0  0  0  0  0  0
  -27.2076  -28.7233   20.7131 C   0  0  0  0  0  0
  -26.0793  -26.9344   19.5063 C   0  0  0  0  0  0
  -24.8790  -27.6735   19.5186 C   0  0  0  0  0  0
  -23.6082  -29.8066   20.1675 C   0  0  0  0  0  0
  -25.4121  -36.3086   24.0298 C   0  0  1  0  0  0
  -20.5867  -28.3641   23.1325 C   0  0  2  0  0  0
  -20.6753  -26.9372   22.5421 C   0  0  0  0  0  0
  -19.5727  -26.6365   21.5218 C   0  0  0  0  0  0
  -18.1902  -26.7906   22.1621 C   0  0  0  0  0  0
  -19.1525  -28.8817   23.2889 C   0  0  0  0  0  0
  -18.9459  -30.1433   23.8874 C   0  0  0  0  0  0
  -17.6463  -30.6564   24.0568 C   0  0  0  0  0  0
  -25.9050  -34.9466   23.5060 C   0  0  0  0  0  0
  -16.5344  -29.9062   23.6349 C   0  0  0  0  0  0
  -16.7260  -28.6498   23.0338 C   0  0  0  0  0  0
  -26.4487  -31.6646   25.0734 C   0  0  0  0  0  0
  -25.3770  -31.3774   26.1512 C   0  0  0  0  0  0
  -27.0331  -30.3082   24.6138 C   0  0  0  0  0  0
  -27.6029  -32.4431   25.7491 C   0  0  0  0  0  0
  -27.5571  -37.1797   24.8442 C   0  0  0  0  0  0
  -21.4132  -29.3021   22.3749 N   0  0  0  0  0  0
  -26.4292  -37.3780   23.9394 N   0  0  0  0  0  0
  -24.6643  -31.0792   22.0964 N   0  0  0  0  0  0
  -23.4171  -28.8207   23.3059 O   0  0  0  0  0  0
  -28.4209  -26.7433   20.0343 O   0  0  0  0  0  0
  -26.5623  -34.8923   22.4629 O   0  0  0  0  0  0
  -23.5344  -32.1427   23.7486 O   0  0  0  0  0  0
  -31.1964  -18.2808   23.4532 C   0  0  0  0  0  0
  -31.8182  -18.7138   21.1448 C   0  0  0  0  0  0
  -30.6137  -17.0421   23.0951 C   0  0  0  0  0  0
  -31.8409  -19.0949   22.4999 C   0  0  0  0  0  0
  -30.6567  -16.6307   21.7337 C   0  0  0  0  0  0
  -31.2063  -17.5053   20.7590 C   0  0  0  0  0  0
  -30.3065  -22.7897   21.3942 C   0  0  0  0  0  0
  -28.3138  -17.5265   25.3088 C   0  0  0  0  0  0
  -29.4757  -17.3330   26.2917 C   0  0  0  0  0  0
  -32.1431  -23.6629   23.7957 C   0  0  0  0  0  0
  -28.4562  -16.4038   24.2781 C   0  0  0  0  0  0
  -30.4679  -16.3750   25.6079 C   0  0  0  0  0  0
  -30.8234  -22.9012   23.8987 C   0  0  0  0  0  0
  -33.0633  -22.7261   23.0030 C   0  0  0  0  0  0
  -29.9644  -16.1518   24.1670 C   0  0  0  0  0  0
  -30.8012  -22.0174   22.6400 C   0  0  2  0  0  0
  -32.6354  -20.3112   22.9684 C   0  0  0  0  0  0
  -28.5499  -24.3239   20.4787 C   0  0  0  0  0  0
  -28.6127  -25.7570   21.0495 C   0  0  0  0  0  0
  -30.1196  -15.3639   21.3579 N   0  0  0  0  0  0
  -29.0893  -23.3548   21.4416 N   0  0  0  0  0  0
  -32.2200  -21.6369   22.4396 N   0  3  2  0  0  0
  -31.0475  -22.8971   20.4126 O   0  0  0  0  0  0
  -31.1448  -17.2007   19.4392 F   0  0  0  0  0  0
  -31.4627  -12.3844   19.1090 H   0  0  0  0  0  0
  -30.3062  -11.2798   19.7940 H   0  0  0  0  0  0
  -29.7261  -11.8124   17.4047 H   0  0  0  0  0  0
  -29.6637  -13.5140   17.7850 H   0  0  0  0  0  0
  -27.8156  -11.3254   18.7961 H   0  0  0  0  0  0
  -27.3635  -12.6722   17.7855 H   0  0  0  0  0  0
  -27.7154  -14.2611   19.5972 H   0  0  0  0  0  0
  -28.6754  -11.9296   21.3247 H   0  0  0  0  0  0
  -28.4639  -13.5568   21.8833 H   0  0  0  0  0  0
  -25.2764   -9.5692   22.4756 H   0  0  0  0  0  0
  -24.0006   -7.4638   22.7478 H   0  0  0  0  0  0
  -21.0842   -8.8781   19.8954 H   0  0  0  0  0  0
  -22.3702  -10.9676   19.6160 H   0  0  0  0  0  0
  -21.2005   -7.6151   23.9719 H   0  0  0  0  0  0
  -21.1484   -6.0526   25.9081 H   0  0  0  0  0  0
  -22.0594   -2.7614   23.2845 H   0  0  0  0  0  0
  -22.4099  -11.9876   22.4770 H   0  0  0  0  0  0
  -21.1112  -13.1252   22.2597 H   0  0  0  0  0  0
  -24.6658  -15.8458   20.5306 H   0  0  0  0  0  0
  -26.2872  -15.6306   20.1010 H   0  0  0  0  0  0
  -26.7138  -32.5554   23.1158 H   0  0  0  0  0  0
  -25.0089  -33.9775   25.0417 H   0  0  0  0  0  0
  -22.6927  -31.3042   21.4046 H   0  0  0  0  0  0
  -23.3739  -35.9675   23.3307 H   0  0  0  0  0  0
  -24.3568  -36.8957   22.2048 H   0  0  0  0  0  0
  -23.7297  -37.6522   23.6693 H   0  0  0  0  0  0
  -26.0453  -31.5959   20.5895 H   0  0  0  0  0  0
  -26.8082  -30.8878   21.9876 H   0  0  0  0  0  0
  -28.1046  -29.1184   21.1706 H   0  0  0  0  0  0
  -26.1075  -25.9667   19.0257 H   0  0  0  0  0  0
  -23.9927  -27.2635   19.0549 H   0  0  0  0  0  0
  -23.7063  -30.5722   19.3968 H   0  0  0  0  0  0
  -22.7337  -29.2173   19.8839 H   0  0  0  0  0  0
  -25.1312  -36.1908   25.0792 H   0  0  0  0  0  0
  -20.9960  -28.3209   24.1444 H   0  0  0  0  0  0
  -20.5680  -26.2236   23.3602 H   0  0  0  0  0  0
  -21.6623  -26.7421   22.1207 H   0  0  0  0  0  0
  -19.6894  -25.6284   21.1227 H   0  0  0  0  0  0
  -19.6677  -27.3201   20.6771 H   0  0  0  0  0  0
  -17.4189  -26.6690   21.3995 H   0  0  0  0  0  0
  -18.0266  -26.0022   22.8989 H   0  0  0  0  0  0
  -19.7945  -30.7257   24.2214 H   0  0  0  0  0  0
  -17.5021  -31.6243   24.5165 H   0  0  0  0  0  0
  -15.5343  -30.2944   23.7693 H   0  0  0  0  0  0
  -15.8662  -28.0816   22.7027 H   0  0  0  0  0  0
  -24.5856  -30.7221   25.7870 H   0  0  0  0  0  0
  -24.9082  -32.2955   26.5069 H   0  0  0  0  0  0
  -25.8135  -30.8857   27.0210 H   0  0  0  0  0  0
  -26.2859  -29.6803   24.1275 H   0  0  0  0  0  0
  -27.4177  -29.7388   25.4600 H   0  0  0  0  0  0
  -27.8659  -30.4385   23.9225 H   0  0  0  0  0  0
  -27.2579  -33.3686   26.2116 H   0  0  0  0  0  0
  -28.3795  -32.7102   25.0316 H   0  0  0  0  0  0
  -28.0761  -31.8578   26.5380 H   0  0  0  0  0  0
  -28.2578  -38.0100   24.7507 H   0  0  0  0  0  0
  -28.1069  -36.2628   24.6256 H   0  0  0  0  0  0
  -27.2273  -37.1439   25.8836 H   0  0  0  0  0  0
  -20.9293  -29.8759   21.6982 H   0  0  0  0  0  0
  -26.0149  -38.2843   24.1426 H   0  0  0  0  0  0
  -31.1958  -18.6009   24.4836 H   0  0  0  0  0  0
  -32.2864  -19.3317   20.3918 H   0  0  0  0  0  0
  -28.4111  -18.4938   24.8119 H   0  0  0  0  0  0
  -27.3418  -17.5143   25.8032 H   0  0  0  0  0  0
  -29.1230  -16.9034   27.2299 H   0  0  0  0  0  0
  -29.9389  -18.2902   26.5355 H   0  0  0  0  0  0
  -32.5503  -23.9120   24.7759 H   0  0  0  0  0  0
  -32.0056  -24.5966   23.2483 H   0  0  0  0  0  0
  -27.9804  -16.6330   23.3231 H   0  0  0  0  0  0
  -27.9766  -15.5053   24.6699 H   0  0  0  0  0  0
  -30.4298  -15.4217   26.1371 H   0  0  0  0  0  0
  -31.5070  -16.7024   25.6677 H   0  0  0  0  0  0
  -29.9668  -23.5693   23.9975 H   0  0  0  0  0  0
  -30.8322  -22.2627   24.7837 H   0  0  0  0  0  0
  -33.8512  -22.3391   23.6516 H   0  0  0  0  0  0
  -33.5577  -23.2676   22.1951 H   0  0  0  0  0  0
  -30.1558  -15.1100   23.9049 H   0  0  0  0  0  0
  -30.1505  -21.1529   22.7749 H   0  0  0  0  0  0
  -33.6798  -20.1399   22.6990 H   0  0  0  0  0  0
  -32.6125  -20.3499   24.0595 H   0  0  0  0  0  0
  -29.0946  -24.2832   19.5340 H   0  0  0  0  0  0
  -27.5178  -24.0623   20.2420 H   0  0  0  0  0  0
  -29.6038  -25.9290   21.4699 H   0  0  0  0  0  0
  -27.9106  -25.8727   21.8771 H   0  0  0  0  0  0
  -29.2595  -15.0803   21.7987 H   0  0  0  0  0  0
  -28.5235  -23.1672   22.2594 H   0  0  0  0  0  0
  -32.3348  -21.6452   21.4334 H   0  0  0  0  0  0
  1 25  1  0  0  0
  1 30  2  0  0  0
  1 90  1  0  0  0
  2  3  1  0  0  0
  2 25  1  0  0  0
  2 95  1  0  0  0
  2 96  1  0  0  0
  3  4  1  0  0  0
  3 97  1  0  0  0
  3 98  1  0  0  0
  4  5  1  0  0  0
  4 99  1  0  0  0
  4100  1  0  0  0
  5  6  1  0  0  0
  5 26  1  0  0  0
  5101  1  0  0  0
  6 25  1  0  0  0
  6102  1  0  0  0
  6103  1  0  0  0
  7  8  2  0  0  0
  7 26  1  0  0  0
  7 29  1  0  0  0
  8  9  1  0  0  0
  8 22  1  0  0  0
  9 10  1  0  0  0
  9 27  2  0  0  0
 10 11  2  0  0  0
 10 15  1  0  0  0
 11 12  1  0  0  0
 11104  1  0  0  0
 12 13  2  0  0  0
 12105  1  0  0  0
 13 14  1  0  0  0
 13 31  1  0  0  0
 14 15  2  0  0  0
 14106  1  0  0  0
 15107  1  0  0  0
 16 17  2  0  0  0
 16 21  1  0  0  0
 16 31  1  0  0  0
 17 18  1  0  0  0
 17108  1  0  0  0
 18 19  2  0  0  0
 18109  1  0  0  0
 19 20  1  0  0  0
 19 24  1  0  0  0
 20 21  2  0  0  0
 20110  1  0  0  0
 21 23  1  0  0  0
 22 28  1  0  0  0
 22 32  2  0  0  0
 26 27  1  0  0  0
 28111  1  0  0  0
 28112  1  0  0  0
 29113  1  0  0  0
 29114  1  0  0  0
 33 34  1  0  0  0
 33 66  1  0  0  0
 33 70  2  0  0  0
 34 36  1  0  0  0
 34 59  1  0  0  0
 34115  1  0  0  0
 35 44  2  0  0  0
 35 45  1  0  0  0
 35 68  1  0  0  0
 36 56  1  0  0  0
 36116  1  0  0  0
 37 39  1  0  0  0
 37 47  1  0  0  0
 37 66  1  0  0  0
 37117  1  0  0  0
 38 43  2  0  0  0
 38 46  1  0  0  0
 38 47  1  0  0  0
 39 64  1  0  0  0
 39 67  2  0  0  0
 40 52  1  0  0  0
 40 53  2  0  0  0
 40 58  1  0  0  0
 41118  1  0  0  0
 41119  1  0  0  0
 41120  1  0  0  0
 41 48  1  0  0  0
 42 43  1  0  0  0
 42 66  1  0  0  0
 42121  1  0  0  0
 42122  1  0  0  0
 43 44  1  0  0  0
 44123  1  0  0  0
 45 46  2  0  0  0
 45124  1  0  0  0
 46125  1  0  0  0
 47126  1  0  0  0
 47127  1  0  0  0
 48 56  1  0  0  0
 48 65  1  0  0  0
 48128  1  0  0  0
 49 50  1  0  0  0
 49 53  1  0  0  0
 49 64  1  0  0  0
 49129  1  0  0  0
 50 51  1  0  0  0
 50130  1  0  0  0
 50131  1  0  0  0
 51 52  1  0  0  0
 51132  1  0  0  0
 51133  1  0  0  0
 52134  1  0  0  0
 52135  1  0  0  0
 53 54  1  0  0  0
 54 55  2  0  0  0
 54136  1  0  0  0
 55 57  1  0  0  0
 55137  1  0  0  0
 56 69  2  0  0  0
 57 58  2  0  0  0
 57138  1  0  0  0
 58139  1  0  0  0
 59 60  1  0  0  0
 59 61  1  0  0  0
 59 62  1  0  0  0
 60140  1  0  0  0
 60141  1  0  0  0
 60142  1  0  0  0
 61143  1  0  0  0
 61144  1  0  0  0
 61145  1  0  0  0
 62146  1  0  0  0
 62147  1  0  0  0
 62148  1  0  0  0
 63 65  1  0  0  0
 63149  1  0  0  0
 63150  1  0  0  0
 63151  1  0  0  0
 64152  1  0  0  0
 65153  1  0  0  0
 68 89  1  0  0  0
 71 73  2  0  0  0
 71 74  1  0  0  0
 71154  1  0  0  0
 72 74  2  0  0  0
 72 76  1  0  0  0
 72155  1  0  0  0
 73 75  1  0  0  0
 73 85  1  0  0  0
 74 87  1  0  0  0
 75 76  2  0  0  0
 75 90  1  0  0  0
 76 94  1  0  0  0
 77 91  1  0  0  0
 77 93  2  0  0  0
 77 86  1  0  0  0
 78 79  1  0  0  0
 78 81  1  0  0  0
 78156  1  0  0  0
 78157  1  0  0  0
 79 82  1  0  0  0
 79158  1  0  0  0
 79159  1  0  0  0
 80 83  1  0  0  0
 80 84  1  0  0  0
 80160  1  0  0  0
 80161  1  0  0  0
 81 85  1  0  0  0
 81162  1  0  0  0
 81163  1  0  0  0
 82 85  1  0  0  0
 82164  1  0  0  0
 82165  1  0  0  0
 83 86  1  0  0  0
 83166  1  0  0  0
 83167  1  0  0  0
 84 92  1  0  0  0
 84168  1  0  0  0
 84169  1  0  0  0
 85170  1  0  0  0
 86 92  1  0  0  0
 86171  1  0  0  0
 87172  1  0  0  0
 87173  1  0  0  0
 87 92  1  0  0  0
 88 89  1  0  0  0
 88 91  1  0  0  0
 88174  1  0  0  0
 88175  1  0  0  0
 89176  1  0  0  0
 89177  1  0  0  0
 90178  1  0  0  0
 91179  1  0  0  0
 92180  1  0  0  0
M  CHG  1  92   1
M  ISO  4   1 100  68 101  89 101  90 100
M  END
> <chiral flag>
0

> <version>
0

> <s_m_source_file>
/data/baiqing/PycharmProjects/Reinvent-master-3.2/result/LINK_invent/BTK/process_docking_weight1_custom_product_contain_oxygen_bond_distance_aromatic_linkinvent_7_9_3/rearranged_h_0006.sdf

> <i_m_source_file_index>
95

> <r_mmod_Potential_Energy-OPLS-2005>
-167.35319519043

> <r_mmod_Stretch_Energy-OPLS-2005>
37.8576278686523

> <r_mmod_Bend_Energy-OPLS-2005>
140.235290527344

> <r_mmod_Torsional_Energy-OPLS-2005>
366.564392089844

> <r_mmod_Improper_Torsional_Energy-OPLS-2005>
2.66384148597717

> <r_mmod_Van_der_Waal_Energy-OPLS-2005>
153.884002685547

> <r_mmod_Electrostatic_Energy-OPLS-2005>
-421.654510498047

> <r_mmod_Solvation_Energy-OPLS-2005>
-455.500030517578

> <b_mmod_Minimization_Converged-OPLS-2005>
0

> <r_mmod_RMS_Derivative-OPLS-2005>
2.5414342880249

$$$$
96
                    3D
 Structure written by MMmdl.
174184  0  0  1  0            999 V2000
  -30.7363  -14.3961   20.6542 C   0  0  0  0  0  0
  -30.4272  -12.2922   19.4015 C   0  0  0  0  0  0
  -29.4931  -12.5314   18.1985 C   0  0  0  0  0  0
  -28.0157  -12.3835   18.6120 C   0  0  0  0  0  0
  -27.6698  -13.1999   19.8856 C   0  0  2  0  0  0
  -28.7093  -12.9287   20.9966 C   0  0  0  0  0  0
  -25.2562  -13.8105   20.5598 C   0  0  0  0  0  0
  -24.1807  -13.0395   20.9076 C   0  0  0  0  0  0
  -24.6377  -11.6872   20.8684 C   0  0  0  0  0  0
  -23.9045  -10.4272   21.0380 C   0  0  0  0  0  0
  -24.3600   -9.4206   21.9177 C   0  0  0  0  0  0
  -23.6276   -8.2245   22.0760 C   0  0  0  0  0  0
  -22.4256   -8.0279   21.3556 C   0  0  0  0  0  0
  -21.9889   -9.0243   20.4655 C   0  0  0  0  0  0
  -22.7212  -10.2118   20.3046 C   0  0  0  0  0  0
  -21.6857   -6.0728   22.5277 C   0  0  0  0  0  0
  -21.4014   -6.5630   23.8210 C   0  0  0  0  0  0
  -21.3659   -5.6785   24.9172 C   0  0  0  0  0  0
  -21.6043   -4.3050   24.7226 C   0  0  0  0  0  0
  -21.8819   -3.8145   23.4346 C   0  0  0  0  0  0
  -21.9191   -4.6958   22.3400 C   0  0  0  0  0  0
  -22.7842  -13.5221   21.1780 C   0  0  0  0  0  0
  -22.1664   -4.2143   21.0980 F   0  0  0  0  0  0
  -21.5627   -3.4537   25.7744 F   0  0  0  0  0  0
  -30.0551  -13.2335   20.4659 N   0  0  0  0  0  0
  -26.3056  -12.9296   20.3410 N   0  0  0  0  0  0
  -25.9317  -11.6453   20.5754 N   0  0  0  0  0  0
  -22.0485  -12.8241   22.0357 N   0  0  0  0  0  0
  -25.4221  -15.1809   20.4014 N   0  0  0  0  0  0
  -31.7770  -14.6844   20.0558 O   0  0  0  0  0  0
  -21.6634   -6.8869   21.4241 O   0  0  0  0  0  0
  -22.3537  -14.5551   20.6669 O   0  0  0  0  0  0
  -24.6127  -31.8693   23.2113 C   0  0  0  0  0  0
  -25.9017  -32.4833   23.8411 C   0  0  1  0  0  0
  -27.2512  -27.4727   20.0762 C   0  0  0  0  0  0
  -25.5872  -33.8629   24.2348 N   0  0  0  0  0  0
  -23.4013  -30.4914   21.5508 C   0  0  2  0  0  0
  -24.8533  -28.9596   20.1184 C   0  0  0  0  0  0
  -22.7406  -29.4666   22.4997 C   0  0  0  0  0  0
  -18.0266  -28.1393   22.8495 C   0  0  0  0  0  0
  -24.1478  -36.7313   23.2638 C   0  0  0  0  0  0
  -25.9279  -30.8462   21.3593 C   0  0  0  0  0  0
  -26.0129  -29.4838   20.7051 C   0  0  0  0  0  0
  -27.2193  -28.7483   20.6820 C   0  0  0  0  0  0
  -26.0724  -26.9441   19.5164 C   0  0  0  0  0  0
  -24.8753  -27.6851   19.5239 C   0  0  0  0  0  0
  -23.6119  -29.8213   20.1664 C   0  0  0  0  0  0
  -25.4099  -36.3122   24.0348 C   0  0  1  0  0  0
  -20.5860  -28.3676   23.1325 C   0  0  2  0  0  0
  -20.6756  -26.9413   22.5426 C   0  0  0  0  0  0
  -19.5734  -26.6403   21.5214 C   0  0  0  0  0  0
  -18.1911  -26.7945   22.1621 C   0  0  0  0  0  0
  -19.1520  -28.8851   23.2902 C   0  0  0  0  0  0
  -18.9452  -30.1452   23.8921 C   0  0  0  0  0  0
  -17.6456  -30.6591   24.0581 C   0  0  0  0  0  0
  -25.9026  -34.9479   23.5151 C   0  0  0  0  0  0
  -16.5345  -29.9103   23.6328 C   0  0  0  0  0  0
  -16.7258  -28.6519   23.0350 C   0  0  0  0  0  0
  -26.4458  -31.6601   25.0725 C   0  0  0  0  0  0
  -25.3738  -31.3697   26.1488 C   0  0  0  0  0  0
  -27.0275  -30.3050   24.6068 C   0  0  0  0  0  0
  -27.6047  -32.4310   25.7473 C   0  0  0  0  0  0
  -27.5580  -37.1807   24.8464 C   0  0  0  0  0  0
  -21.4133  -29.3046   22.3736 N   0  0  0  0  0  0
  -26.4289  -37.3804   23.9412 N   0  0  0  0  0  0
  -24.6655  -31.0819   22.0994 N   0  0  0  0  0  0
  -23.4182  -28.8206   23.3031 O   0  0  0  0  0  0
  -28.3794  -26.6909   20.0430 O   0  0  0  0  0  0
  -26.5593  -34.8926   22.4714 O   0  0  0  0  0  0
  -23.5317  -32.1419   23.7522 O   0  0  0  0  0  0
  -30.7688  -18.9077   21.1958 C   0  0  0  0  0  0
  -31.0596  -17.5263   21.2675 C   0  0  0  0  0  0
  -29.4309  -19.3712   21.2680 C   0  0  0  0  0  0
  -28.3828  -18.4244   21.4139 C   0  0  0  0  0  0
  -30.0096  -16.5955   21.4277 C   0  0  0  0  0  0
  -28.6847  -17.0526   21.5070 C   0  0  0  0  0  0
  -30.1633  -23.0235   20.6899 C   0  0  0  0  0  0
  -26.9148  -18.8474   21.4466 C   0  0  0  0  0  0
  -32.9433  -24.6137   21.1703 C   0  0  0  0  0  0
  -32.6001  -23.5292   20.1516 C   0  0  0  0  0  0
  -32.1494  -25.8146   20.6565 C   0  0  0  0  0  0
  -27.6246  -21.1345   20.9088 C   0  0  0  0  0  0
  -29.0993  -20.8688   21.2899 C   0  0  2  0  0  0
  -31.1314  -23.8073   19.7850 C   0  0  2  0  0  0
  -30.3660  -26.0524   18.9050 C   0  0  0  0  0  0
  -29.5208  -27.2435   19.3970 C   0  0  0  0  0  0
  -30.1978  -15.2011   21.5752 N   0  0  0  0  0  0
  -30.0037  -21.7038   20.4932 N   0  0  0  0  0  0
  -26.7279  -20.2858   21.7106 N   0  3  0  0  0  0
  -30.9208  -25.2588   20.0361 N   0  3  2  0  0  0
  -29.5497  -23.6299   21.5739 O   0  0  0  0  0  0
  -27.6906  -16.1482   21.6662 F   0  0  0  0  0  0
  -31.4715  -12.3966   19.1017 H   0  0  0  0  0  0
  -30.3238  -11.2676   19.7622 H   0  0  0  0  0  0
  -29.7293  -11.8342   17.3938 H   0  0  0  0  0  0
  -29.6641  -13.5307   17.7941 H   0  0  0  0  0  0
  -27.8229  -11.3238   18.7874 H   0  0  0  0  0  0
  -27.3637  -12.6799   17.7896 H   0  0  0  0  0  0
  -27.7285  -14.2557   19.6193 H   0  0  0  0  0  0
  -28.6727  -11.8785   21.2915 H   0  0  0  0  0  0
  -28.4504  -13.4806   21.9007 H   0  0  0  0  0  0
  -25.2747   -9.5691   22.4744 H   0  0  0  0  0  0
  -23.9994   -7.4642   22.7483 H   0  0  0  0  0  0
  -21.0821   -8.8753   19.8962 H   0  0  0  0  0  0
  -22.3669  -10.9652   19.6150 H   0  0  0  0  0  0
  -21.2007   -7.6139   23.9708 H   0  0  0  0  0  0
  -21.1481   -6.0521   25.9076 H   0  0  0  0  0  0
  -22.0598   -2.7608   23.2850 H   0  0  0  0  0  0
  -22.4082  -11.9897   22.4746 H   0  0  0  0  0  0
  -21.1122  -13.1307   22.2581 H   0  0  0  0  0  0
  -24.6723  -15.8313   20.6034 H   0  0  0  0  0  0
  -26.3401  -15.6109   20.3957 H   0  0  0  0  0  0
  -26.7094  -32.5573   23.1186 H   0  0  0  0  0  0
  -25.0018  -33.9791   25.0491 H   0  0  0  0  0  0
  -22.6879  -31.3058   21.4111 H   0  0  0  0  0  0
  -23.3735  -35.9652   23.3328 H   0  0  0  0  0  0
  -24.3567  -36.8896   22.2045 H   0  0  0  0  0  0
  -23.7236  -37.6530   23.6629 H   0  0  0  0  0  0
  -26.0344  -31.6132   20.5911 H   0  0  0  0  0  0
  -26.8176  -30.9041   21.9747 H   0  0  0  0  0  0
  -28.1117  -29.1546   21.1365 H   0  0  0  0  0  0
  -26.0861  -25.9603   19.0681 H   0  0  0  0  0  0
  -23.9819  -27.2704   19.0784 H   0  0  0  0  0  0
  -23.7157  -30.5943   19.4038 H   0  0  0  0  0  0
  -22.7388  -29.2360   19.8720 H   0  0  0  0  0  0
  -25.1270  -36.1997   25.0842 H   0  0  0  0  0  0
  -20.9942  -28.3247   24.1448 H   0  0  0  0  0  0
  -20.5651  -26.2282   23.3612 H   0  0  0  0  0  0
  -21.6632  -26.7447   22.1234 H   0  0  0  0  0  0
  -19.6885  -25.6315   21.1236 H   0  0  0  0  0  0
  -19.6677  -27.3223   20.6750 H   0  0  0  0  0  0
  -17.4180  -26.6695   21.4020 H   0  0  0  0  0  0
  -18.0300  -26.0090   22.9016 H   0  0  0  0  0  0
  -19.7925  -30.7255   24.2316 H   0  0  0  0  0  0
  -17.5013  -31.6276   24.5173 H   0  0  0  0  0  0
  -15.5353  -30.3018   23.7635 H   0  0  0  0  0  0
  -15.8651  -28.0842   22.7077 H   0  0  0  0  0  0
  -24.5912  -30.7030   25.7839 H   0  0  0  0  0  0
  -24.8918  -32.2848   26.4944 H   0  0  0  0  0  0
  -25.8117  -30.8873   27.0237 H   0  0  0  0  0  0
  -26.2801  -29.6828   24.1134 H   0  0  0  0  0  0
  -27.4064  -29.7269   25.4504 H   0  0  0  0  0  0
  -27.8627  -30.4374   23.9191 H   0  0  0  0  0  0
  -27.2681  -33.3600   26.2084 H   0  0  0  0  0  0
  -28.3833  -32.6887   25.0282 H   0  0  0  0  0  0
  -28.0737  -31.8410   26.5358 H   0  0  0  0  0  0
  -28.2618  -38.0085   24.7517 H   0  0  0  0  0  0
  -28.1061  -36.2626   24.6290 H   0  0  0  0  0  0
  -27.2304  -37.1467   25.8868 H   0  0  0  0  0  0
  -20.9283  -29.8767   21.6967 H   0  0  0  0  0  0
  -26.0186  -38.2884   24.1420 H   0  0  0  0  0  0
  -31.5872  -19.6097   21.1125 H   0  0  0  0  0  0
  -32.0867  -17.1904   21.2269 H   0  0  0  0  0  0
  -26.3727  -18.2719   22.1983 H   0  0  0  0  0  0
  -26.4699  -18.5988   20.4818 H   0  0  0  0  0  0
  -34.0132  -24.8123   21.2376 H   0  0  0  0  0  0
  -32.5919  -24.3278   22.1631 H   0  0  0  0  0  0
  -32.7755  -22.5225   20.5347 H   0  0  0  0  0  0
  -33.2230  -23.6468   19.2644 H   0  0  0  0  0  0
  -32.7468  -26.3380   19.9089 H   0  0  0  0  0  0
  -31.9168  -26.5268   21.4487 H   0  0  0  0  0  0
  -27.4592  -20.9348   19.8491 H   0  0  0  0  0  0
  -27.3590  -22.1779   21.0782 H   0  0  0  0  0  0
  -29.2313  -21.1584   22.3351 H   0  0  0  0  0  0
  -30.9402  -23.5378   18.7451 H   0  0  0  0  0  0
  -31.1682  -26.3947   18.2509 H   0  0  0  0  0  0
  -29.7249  -25.4206   18.2883 H   0  0  0  0  0  0
  -29.2223  -27.8518   18.5411 H   0  0  0  0  0  0
  -30.0806  -27.8862   20.0762 H   0  0  0  0  0  0
  -29.4237  -14.7520   22.0422 H   0  0  0  0  0  0
  -30.5180  -21.2584   19.7447 H   0  0  0  0  0  0
  -26.8936  -20.4646   22.6872 H   0  0  0  0  0  0
  -25.7706  -20.5283   21.5150 H   0  0  0  0  0  0
  -30.2032  -25.2124   20.7559 H   0  0  0  0  0  0
  1 25  1  0  0  0
  1 30  2  0  0  0
  1 87  1  0  0  0
  2  3  1  0  0  0
  2 25  1  0  0  0
  2 93  1  0  0  0
  2 94  1  0  0  0
  3  4  1  0  0  0
  3 95  1  0  0  0
  3 96  1  0  0  0
  4  5  1  0  0  0
  4 97  1  0  0  0
  4 98  1  0  0  0
  5  6  1  0  0  0
  5 26  1  0  0  0
  5 99  1  0  0  0
  6 25  1  0  0  0
  6100  1  0  0  0
  6101  1  0  0  0
  7  8  2  0  0  0
  7 26  1  0  0  0
  7 29  1  0  0  0
  8  9  1  0  0  0
  8 22  1  0  0  0
  9 10  1  0  0  0
  9 27  2  0  0  0
 10 11  2  0  0  0
 10 15  1  0  0  0
 11 12  1  0  0  0
 11102  1  0  0  0
 12 13  2  0  0  0
 12103  1  0  0  0
 13 14  1  0  0  0
 13 31  1  0  0  0
 14 15  2  0  0  0
 14104  1  0  0  0
 15105  1  0  0  0
 16 17  2  0  0  0
 16 21  1  0  0  0
 16 31  1  0  0  0
 17 18  1  0  0  0
 17106  1  0  0  0
 18 19  2  0  0  0
 18107  1  0  0  0
 19 20  1  0  0  0
 19 24  1  0  0  0
 20 21  2  0  0  0
 20108  1  0  0  0
 21 23  1  0  0  0
 22 28  1  0  0  0
 22 32  2  0  0  0
 26 27  1  0  0  0
 28109  1  0  0  0
 28110  1  0  0  0
 29111  1  0  0  0
 29112  1  0  0  0
 33 34  1  0  0  0
 33 66  1  0  0  0
 33 70  2  0  0  0
 34 36  1  0  0  0
 34 59  1  0  0  0
 34113  1  0  0  0
 35 44  2  0  0  0
 35 45  1  0  0  0
 35 68  1  0  0  0
 36 56  1  0  0  0
 36114  1  0  0  0
 37 39  1  0  0  0
 37 47  1  0  0  0
 37 66  1  0  0  0
 37115  1  0  0  0
 38 43  2  0  0  0
 38 46  1  0  0  0
 38 47  1  0  0  0
 39 64  1  0  0  0
 39 67  2  0  0  0
 40 52  1  0  0  0
 40 53  2  0  0  0
 40 58  1  0  0  0
 41116  1  0  0  0
 41117  1  0  0  0
 41118  1  0  0  0
 41 48  1  0  0  0
 42 43  1  0  0  0
 42 66  1  0  0  0
 42119  1  0  0  0
 42120  1  0  0  0
 43 44  1  0  0  0
 44121  1  0  0  0
 45 46  2  0  0  0
 45122  1  0  0  0
 46123  1  0  0  0
 47124  1  0  0  0
 47125  1  0  0  0
 48 56  1  0  0  0
 48 65  1  0  0  0
 48126  1  0  0  0
 49 50  1  0  0  0
 49 53  1  0  0  0
 49 64  1  0  0  0
 49127  1  0  0  0
 50 51  1  0  0  0
 50128  1  0  0  0
 50129  1  0  0  0
 51 52  1  0  0  0
 51130  1  0  0  0
 51131  1  0  0  0
 52132  1  0  0  0
 52133  1  0  0  0
 53 54  1  0  0  0
 54 55  2  0  0  0
 54134  1  0  0  0
 55 57  1  0  0  0
 55135  1  0  0  0
 56 69  2  0  0  0
 57 58  2  0  0  0
 57136  1  0  0  0
 58137  1  0  0  0
 59 60  1  0  0  0
 59 61  1  0  0  0
 59 62  1  0  0  0
 60138  1  0  0  0
 60139  1  0  0  0
 60140  1  0  0  0
 61141  1  0  0  0
 61142  1  0  0  0
 61143  1  0  0  0
 62144  1  0  0  0
 62145  1  0  0  0
 62146  1  0  0  0
 63 65  1  0  0  0
 63147  1  0  0  0
 63148  1  0  0  0
 63149  1  0  0  0
 64150  1  0  0  0
 65151  1  0  0  0
 68 86  1  0  0  0
 71 72  2  0  0  0
 71 73  1  0  0  0
 71152  1  0  0  0
 72 75  1  0  0  0
 72153  1  0  0  0
 73 74  2  0  0  0
 73 83  1  0  0  0
 74 76  1  0  0  0
 74 78  1  0  0  0
 75 76  2  0  0  0
 75 87  1  0  0  0
 76 92  1  0  0  0
 77 88  1  0  0  0
 77 91  2  0  0  0
 77 84  1  0  0  0
 78 89  1  0  0  0
 78154  1  0  0  0
 78155  1  0  0  0
 79 80  1  0  0  0
 79 81  1  0  0  0
 79156  1  0  0  0
 79157  1  0  0  0
 80 84  1  0  0  0
 80158  1  0  0  0
 80159  1  0  0  0
 81 90  1  0  0  0
 81160  1  0  0  0
 81161  1  0  0  0
 82 83  1  0  0  0
 82 89  1  0  0  0
 82162  1  0  0  0
 82163  1  0  0  0
 83 88  1  0  0  0
 83164  1  0  0  0
 84 90  1  0  0  0
 84165  1  0  0  0
 85 86  1  0  0  0
 85166  1  0  0  0
 85167  1  0  0  0
 85 90  1  0  0  0
 86168  1  0  0  0
 86169  1  0  0  0
 87170  1  0  0  0
 88171  1  0  0  0
 89172  1  0  0  0
 89173  1  0  0  0
 90174  1  0  0  0
M  CHG  2  89   1  90   1
M  ISO  4   1 100  68 101  86 101  87 100
M  END
> <chiral flag>
0

> <version>
0

> <s_m_source_file>
/data/baiqing/PycharmProjects/Reinvent-master-3.2/result/LINK_invent/BTK/process_docking_weight1_custom_product_contain_oxygen_bond_distance_aromatic_linkinvent_7_9_3/rearranged_h_0006.sdf

> <i_m_source_file_index>
96

> <r_mmod_Potential_Energy-OPLS-2005>
-471.166412353516

> <r_mmod_Stretch_Energy-OPLS-2005>
36.0447311401367

> <r_mmod_Bend_Energy-OPLS-2005>
124.379898071289

> <r_mmod_Torsional_Energy-OPLS-2005>
320.046691894531

> <r_mmod_Improper_Torsional_Energy-OPLS-2005>
6.68023109436035

> <r_mmod_Van_der_Waal_Energy-OPLS-2005>
156.765640258789

> <r_mmod_Electrostatic_Energy-OPLS-2005>
-225.00959777832

> <r_mmod_Solvation_Energy-OPLS-2005>
-897.19140625

> <b_mmod_Minimization_Converged-OPLS-2005>
0

> <r_mmod_RMS_Derivative-OPLS-2005>
1.62838101387024

$$$$
