0
                    3D
 Structure written by MMmdl.
160168  0  0  1  0            999 V2000
  -30.6066  -14.7369   20.4776 C   0  0  0  0  0  0
  -30.4394  -12.4567   19.4546 C   0  0  0  0  0  0
  -29.5073  -12.5082   18.2244 C   0  0  0  0  0  0
  -28.0347  -12.3307   18.6443 C   0  0  0  0  0  0
  -27.6432  -13.2258   19.8502 C   0  0  2  0  0  0
  -28.6937  -13.1518   20.9787 C   0  0  0  0  0  0
  -25.2524  -13.8177   20.5692 C   0  0  0  0  0  0
  -24.1811  -13.0431   20.9203 C   0  0  0  0  0  0
  -24.6399  -11.6906   20.8758 C   0  0  0  0  0  0
  -23.9067  -10.4286   21.0413 C   0  0  0  0  0  0
  -24.3616   -9.4202   21.9193 C   0  0  0  0  0  0
  -23.6288   -8.2242   22.0756 C   0  0  0  0  0  0
  -22.4274   -8.0277   21.3538 C   0  0  0  0  0  0
  -21.9909   -9.0254   20.4644 C   0  0  0  0  0  0
  -22.7235  -10.2135   20.3058 C   0  0  0  0  0  0
  -21.6854   -6.0731   22.5272 C   0  0  0  0  0  0
  -21.4018   -6.5632   23.8206 C   0  0  0  0  0  0
  -21.3662   -5.6787   24.9169 C   0  0  0  0  0  0
  -21.6046   -4.3052   24.7221 C   0  0  0  0  0  0
  -21.8818   -3.8138   23.4345 C   0  0  0  0  0  0
  -21.9195   -4.6957   22.3399 C   0  0  0  0  0  0
  -22.7829  -13.5225   21.1857 C   0  0  0  0  0  0
  -22.1659   -4.2137   21.0981 F   0  0  0  0  0  0
  -21.5634   -3.4537   25.7741 F   0  0  0  0  0  0
  -29.9881  -13.5119   20.3866 N   0  0  0  0  0  0
  -26.2949  -12.9372   20.3288 N   0  0  0  0  0  0
  -25.9331  -11.6516   20.5761 N   0  0  0  0  0  0
  -22.0474  -12.8223   22.0416 N   0  0  0  0  0  0
  -25.4199  -15.1907   20.4099 N   0  0  0  0  0  0
  -31.8074  -14.8467   20.2114 O   0  0  0  0  0  0
  -21.6639   -6.8874   21.4234 O   0  0  0  0  0  0
  -22.3516  -14.5531   20.6699 O   0  0  0  0  0  0
  -24.6342  -31.8551   23.1990 C   0  0  0  0  0  0
  -25.9164  -32.4753   23.8348 C   0  0  1  0  0  0
  -27.2131  -27.2483   20.1200 C   0  0  0  0  0  0
  -25.5950  -33.8557   24.2270 N   0  0  0  0  0  0
  -23.4311  -30.4797   21.5429 C   0  0  2  0  0  0
  -24.8753  -28.9293   20.1085 C   0  0  0  0  0  0
  -22.7531  -29.4597   22.4906 C   0  0  0  0  0  0
  -18.0297  -28.1388   22.8458 C   0  0  0  0  0  0
  -24.1493  -36.7285   23.2639 C   0  0  0  0  0  0
  -25.9806  -30.7621   21.3822 C   0  0  0  0  0  0
  -26.0508  -29.3850   20.7201 C   0  0  0  0  0  0
  -27.2231  -28.5586   20.7130 C   0  0  0  0  0  0
  -26.0147  -26.8737   19.4685 C   0  0  0  0  0  0
  -24.8647  -27.6825   19.4699 C   0  0  0  0  0  0
  -23.6496  -29.8197   20.1571 C   0  0  0  0  0  0
  -25.4112  -36.3070   24.0336 C   0  0  1  0  0  0
  -20.5902  -28.3696   23.1250 C   0  0  2  0  0  0
  -20.6779  -26.9412   22.5391 C   0  0  0  0  0  0
  -19.5754  -26.6379   21.5193 C   0  0  0  0  0  0
  -18.1935  -26.7920   22.1610 C   0  0  0  0  0  0
  -19.1555  -28.8854   23.2840 C   0  0  0  0  0  0
  -18.9476  -30.1448   23.8870 C   0  0  0  0  0  0
  -17.6478  -30.6578   24.0547 C   0  0  0  0  0  0
  -25.9064  -34.9440   23.5100 C   0  0  0  0  0  0
  -16.5365  -29.9072   23.6328 C   0  0  0  0  0  0
  -16.7280  -28.6499   23.0330 C   0  0  0  0  0  0
  -26.4511  -31.6578   25.0742 C   0  0  0  0  0  0
  -25.3719  -31.3719   26.1456 C   0  0  0  0  0  0
  -27.0357  -30.2995   24.6226 C   0  0  0  0  0  0
  -27.6070  -32.4315   25.7505 C   0  0  0  0  0  0
  -27.5577  -37.1791   24.8467 C   0  0  0  0  0  0
  -21.4238  -29.3045   22.3653 N   0  0  0  0  0  0
  -26.4286  -37.3764   23.9415 N   0  0  0  0  0  0
  -24.7012  -31.0508   22.0977 N   0  0  0  0  0  0
  -23.4231  -28.8135   23.3008 O   0  0  0  0  0  0
  -28.3006  -26.3369   20.1558 O   0  0  0  0  0  0
  -26.5627  -34.8914   22.4667 O   0  0  0  0  0  0
  -23.5489  -32.1387   23.7267 O   0  0  0  0  0  0
  -30.6866  -18.7789   22.8388 C   0  0  0  0  0  0
  -29.6365  -18.4435   20.3025 C   0  0  0  0  0  0
  -30.5385  -17.4665   22.3404 C   0  0  0  0  0  0
  -30.3423  -19.9369   22.0999 C   0  0  0  0  0  0
  -30.0358  -17.2460   21.0325 C   0  0  0  0  0  0
  -29.7573  -19.8072   20.8089 C   0  0  0  0  0  0
  -30.8993  -16.3147   23.2676 C   0  0  0  0  0  0
  -31.8475  -21.3732   23.6619 C   0  0  0  0  0  0
  -30.6588  -21.3135   22.6906 C   0  0  0  0  0  0
  -29.0892  -23.6683   20.1797 C   0  0  0  0  0  0
  -28.0051  -24.8636   20.3348 C   0  0  0  0  0  0
  -28.6324  -22.1340   20.4808 C   0  0  0  0  0  0
  -29.7889  -15.8543   20.5770 N   0  0  0  0  0  0
  -29.4417  -20.9581   20.0208 O   0  0  0  0  0  0
  -31.4780  -12.5960   19.1480 H   0  0  0  0  0  0
  -30.3935  -11.4768   19.9332 H   0  0  0  0  0  0
  -29.7865  -11.7365   17.5060 H   0  0  0  0  0  0
  -29.6286  -13.4631   17.7103 H   0  0  0  0  0  0
  -27.8948  -11.2812   18.9053 H   0  0  0  0  0  0
  -27.3725  -12.5238   17.7993 H   0  0  0  0  0  0
  -27.6377  -14.2479   19.4722 H   0  0  0  0  0  0
  -28.7353  -12.1500   21.4093 H   0  0  0  0  0  0
  -28.4354  -13.8262   21.7968 H   0  0  0  0  0  0
  -25.2762   -9.5678   22.4762 H   0  0  0  0  0  0
  -23.9994   -7.4637   22.7482 H   0  0  0  0  0  0
  -21.0833   -8.8768   19.8958 H   0  0  0  0  0  0
  -22.3689  -10.9670   19.6166 H   0  0  0  0  0  0
  -21.2006   -7.6140   23.9701 H   0  0  0  0  0  0
  -21.1487   -6.0524   25.9072 H   0  0  0  0  0  0
  -22.0597   -2.7599   23.2848 H   0  0  0  0  0  0
  -22.4087  -11.9882   22.4798 H   0  0  0  0  0  0
  -21.1090  -13.1240   22.2626 H   0  0  0  0  0  0
  -24.6479  -15.8387   20.5206 H   0  0  0  0  0  0
  -26.2587  -15.6341   20.0601 H   0  0  0  0  0  0
  -26.7228  -32.5382   23.1082 H   0  0  0  0  0  0
  -25.0101  -33.9685   25.0419 H   0  0  0  0  0  0
  -22.7273  -31.3021   21.3970 H   0  0  0  0  0  0
  -23.3761  -35.9612   23.3297 H   0  0  0  0  0  0
  -24.3589  -36.8909   22.2056 H   0  0  0  0  0  0
  -23.7255  -37.6486   23.6668 H   0  0  0  0  0  0
  -26.1221  -31.5234   20.6138 H   0  0  0  0  0  0
  -26.8588  -30.8092   22.0148 H   0  0  0  0  0  0
  -28.1222  -28.9001   21.2057 H   0  0  0  0  0  0
  -25.9281  -25.9405   18.9364 H   0  0  0  0  0  0
  -23.9712  -27.3335   18.9701 H   0  0  0  0  0  0
  -23.7783  -30.6001   19.4058 H   0  0  0  0  0  0
  -22.7660  -29.2574   19.8488 H   0  0  0  0  0  0
  -25.1287  -36.1916   25.0831 H   0  0  0  0  0  0
  -20.9970  -28.3265   24.1380 H   0  0  0  0  0  0
  -20.5669  -26.2312   23.3603 H   0  0  0  0  0  0
  -21.6648  -26.7419   22.1190 H   0  0  0  0  0  0
  -19.6931  -25.6288   21.1231 H   0  0  0  0  0  0
  -19.6700  -27.3172   20.6711 H   0  0  0  0  0  0
  -17.4204  -26.6652   21.4018 H   0  0  0  0  0  0
  -18.0341  -26.0068   22.9016 H   0  0  0  0  0  0
  -19.7956  -30.7254   24.2248 H   0  0  0  0  0  0
  -17.5033  -31.6255   24.5152 H   0  0  0  0  0  0
  -15.5362  -30.2961   23.7666 H   0  0  0  0  0  0
  -15.8683  -28.0809   22.7050 H   0  0  0  0  0  0
  -24.5927  -30.7035   25.7780 H   0  0  0  0  0  0
  -24.8875  -32.2880   26.4847 H   0  0  0  0  0  0
  -25.8032  -30.8929   27.0258 H   0  0  0  0  0  0
  -26.2942  -29.6745   24.1240 H   0  0  0  0  0  0
  -27.4029  -29.7257   25.4745 H   0  0  0  0  0  0
  -27.8826  -30.4280   23.9484 H   0  0  0  0  0  0
  -27.2704  -33.3640   26.2049 H   0  0  0  0  0  0
  -28.3889  -32.6832   25.0332 H   0  0  0  0  0  0
  -28.0733  -31.8467   26.5446 H   0  0  0  0  0  0
  -28.2572  -38.0101   24.7500 H   0  0  0  0  0  0
  -28.1091  -36.2628   24.6296 H   0  0  0  0  0  0
  -27.2299  -37.1435   25.8869 H   0  0  0  0  0  0
  -20.9446  -29.8817   21.6888 H   0  0  0  0  0  0
  -26.0173  -38.2841   24.1408 H   0  0  0  0  0  0
  -31.0906  -18.8888   23.8339 H   0  0  0  0  0  0
  -29.2197  -18.3164   19.3133 H   0  0  0  0  0  0
  -31.0467  -16.6561   24.2934 H   0  0  0  0  0  0
  -31.8247  -15.8368   22.9442 H   0  0  0  0  0  0
  -30.1053  -15.5680   23.2951 H   0  0  0  0  0  0
  -32.0773  -22.4090   23.9139 H   0  0  0  0  0  0
  -32.7427  -20.9367   23.2192 H   0  0  0  0  0  0
  -31.6363  -20.8626   24.6014 H   0  0  0  0  0  0
  -29.7743  -21.6993   23.1982 H   0  0  0  0  0  0
  -30.8886  -21.9932   21.8717 H   0  0  0  0  0  0
  -29.9465  -23.9018   20.8097 H   0  0  0  0  0  0
  -29.4636  -23.7031   19.1569 H   0  0  0  0  0  0
  -27.5706  -24.7690   21.3301 H   0  0  0  0  0  0
  -27.2160  -24.5607   19.6534 H   0  0  0  0  0  0
  -27.6772  -22.0011   19.9723 H   0  0  0  0  0  0
  -28.3685  -22.0331   21.5317 H   0  0  0  0  0  0
  -28.8134  -15.6323   20.4551 H   0  0  0  0  0  0
  1 25  1  0  0  0
  1 30  2  0  0  0
  1 83  1  0  0  0
  2  3  1  0  0  0
  2 25  1  0  0  0
  2 85  1  0  0  0
  2 86  1  0  0  0
  3  4  1  0  0  0
  3 87  1  0  0  0
  3 88  1  0  0  0
  4  5  1  0  0  0
  4 89  1  0  0  0
  4 90  1  0  0  0
  5  6  1  0  0  0
  5 26  1  0  0  0
  5 91  1  0  0  0
  6 25  1  0  0  0
  6 92  1  0  0  0
  6 93  1  0  0  0
  7  8  2  0  0  0
  7 26  1  0  0  0
  7 29  1  0  0  0
  8  9  1  0  0  0
  8 22  1  0  0  0
  9 10  1  0  0  0
  9 27  2  0  0  0
 10 11  2  0  0  0
 10 15  1  0  0  0
 11 12  1  0  0  0
 11 94  1  0  0  0
 12 13  2  0  0  0
 12 95  1  0  0  0
 13 14  1  0  0  0
 13 31  1  0  0  0
 14 15  2  0  0  0
 14 96  1  0  0  0
 15 97  1  0  0  0
 16 17  2  0  0  0
 16 21  1  0  0  0
 16 31  1  0  0  0
 17 18  1  0  0  0
 17 98  1  0  0  0
 18 19  2  0  0  0
 18 99  1  0  0  0
 19 20  1  0  0  0
 19 24  1  0  0  0
 20 21  2  0  0  0
 20100  1  0  0  0
 21 23  1  0  0  0
 22 28  1  0  0  0
 22 32  2  0  0  0
 26 27  1  0  0  0
 28101  1  0  0  0
 28102  1  0  0  0
 29103  1  0  0  0
 29104  1  0  0  0
 33 34  1  0  0  0
 33 66  1  0  0  0
 33 70  2  0  0  0
 34 36  1  0  0  0
 34 59  1  0  0  0
 34105  1  0  0  0
 35 44  2  0  0  0
 35 45  1  0  0  0
 35 68  1  0  0  0
 36 56  1  0  0  0
 36106  1  0  0  0
 37 39  1  0  0  0
 37 47  1  0  0  0
 37 66  1  0  0  0
 37107  1  0  0  0
 38 43  2  0  0  0
 38 46  1  0  0  0
 38 47  1  0  0  0
 39 64  1  0  0  0
 39 67  2  0  0  0
 40 52  1  0  0  0
 40 53  2  0  0  0
 40 58  1  0  0  0
 41108  1  0  0  0
 41109  1  0  0  0
 41110  1  0  0  0
 41 48  1  0  0  0
 42 43  1  0  0  0
 42 66  1  0  0  0
 42111  1  0  0  0
 42112  1  0  0  0
 43 44  1  0  0  0
 44113  1  0  0  0
 45 46  2  0  0  0
 45114  1  0  0  0
 46115  1  0  0  0
 47116  1  0  0  0
 47117  1  0  0  0
 48 56  1  0  0  0
 48 65  1  0  0  0
 48118  1  0  0  0
 49 50  1  0  0  0
 49 53  1  0  0  0
 49 64  1  0  0  0
 49119  1  0  0  0
 50 51  1  0  0  0
 50120  1  0  0  0
 50121  1  0  0  0
 51 52  1  0  0  0
 51122  1  0  0  0
 51123  1  0  0  0
 52124  1  0  0  0
 52125  1  0  0  0
 53 54  1  0  0  0
 54 55  2  0  0  0
 54126  1  0  0  0
 55 57  1  0  0  0
 55127  1  0  0  0
 56 69  2  0  0  0
 57 58  2  0  0  0
 57128  1  0  0  0
 58129  1  0  0  0
 59 60  1  0  0  0
 59 61  1  0  0  0
 59 62  1  0  0  0
 60130  1  0  0  0
 60131  1  0  0  0
 60132  1  0  0  0
 61133  1  0  0  0
 61134  1  0  0  0
 61135  1  0  0  0
 62136  1  0  0  0
 62137  1  0  0  0
 62138  1  0  0  0
 63 65  1  0  0  0
 63139  1  0  0  0
 63140  1  0  0  0
 63141  1  0  0  0
 64142  1  0  0  0
 65143  1  0  0  0
 68 81  1  0  0  0
 71 73  2  0  0  0
 71 74  1  0  0  0
 71144  1  0  0  0
 72 75  2  0  0  0
 72 76  1  0  0  0
 72145  1  0  0  0
 73 75  1  0  0  0
 73 77  1  0  0  0
 74 76  2  0  0  0
 74 79  1  0  0  0
 75 83  1  0  0  0
 76 84  1  0  0  0
 77146  1  0  0  0
 77147  1  0  0  0
 77148  1  0  0  0
 78 79  1  0  0  0
 78149  1  0  0  0
 78150  1  0  0  0
 78151  1  0  0  0
 79152  1  0  0  0
 79153  1  0  0  0
 80 81  1  0  0  0
 80 82  1  0  0  0
 80154  1  0  0  0
 80155  1  0  0  0
 81156  1  0  0  0
 81157  1  0  0  0
 82 84  1  0  0  0
 82158  1  0  0  0
 82159  1  0  0  0
 83160  1  0  0  0
M  ISO  4   1 100  68 101  81 101  83 100
M  END
> <chiral flag>
0

> <version>
0

> <s_m_source_file>
/data/baiqing/PycharmProjects/Reinvent-master-3.2/result/LINK_invent/BTK/process_docking_weight1_custom_product_contain_oxygen_bond_distance_aromatic_linkinvent_7_9_3/rearranged_h_0131.sdf

> <i_m_source_file_index>
1

> <r_mmod_Potential_Energy-OPLS-2005>
222.974090576172

> <r_mmod_Stretch_Energy-OPLS-2005>
130.559509277344

> <r_mmod_Bend_Energy-OPLS-2005>
178.352111816406

> <r_mmod_Torsional_Energy-OPLS-2005>
266.599700927734

> <r_mmod_Improper_Torsional_Energy-OPLS-2005>
8.52391624450684

> <r_mmod_Van_der_Waal_Energy-OPLS-2005>
147.933364868164

> <r_mmod_Electrostatic_Energy-OPLS-2005>
-388.165985107422

> <r_mmod_Solvation_Energy-OPLS-2005>
-209.612899780273

> <b_mmod_Minimization_Converged-OPLS-2005>
0

> <r_mmod_RMS_Derivative-OPLS-2005>
1.63552260398865

$$$$
1
                    3D
 Structure written by MMmdl.
163171  0  0  1  0            999 V2000
  -30.6995  -14.4854   20.6205 C   0  0  0  0  0  0
  -30.4480  -12.3504   19.4091 C   0  0  0  0  0  0
  -29.4921  -12.5184   18.2069 C   0  0  0  0  0  0
  -28.0183  -12.3663   18.6316 C   0  0  0  0  0  0
  -27.6727  -13.2004   19.8926 C   0  0  2  0  0  0
  -28.7197  -12.9609   21.0033 C   0  0  0  0  0  0
  -25.2644  -13.8140   20.5721 C   0  0  0  0  0  0
  -24.1877  -13.0509   20.9222 C   0  0  0  0  0  0
  -24.6394  -11.6905   20.8802 C   0  0  0  0  0  0
  -23.9068  -10.4303   21.0472 C   0  0  0  0  0  0
  -24.3607   -9.4209   21.9238 C   0  0  0  0  0  0
  -23.6289   -8.2254   22.0742 C   0  0  0  0  0  0
  -22.4282   -8.0316   21.3538 C   0  0  0  0  0  0
  -21.9932   -9.0287   20.4653 C   0  0  0  0  0  0
  -22.7242  -10.2170   20.3106 C   0  0  0  0  0  0
  -21.6872   -6.0743   22.5284 C   0  0  0  0  0  0
  -21.3983   -6.5644   23.8202 C   0  0  0  0  0  0
  -21.3650   -5.6818   24.9170 C   0  0  0  0  0  0
  -21.6033   -4.3079   24.7220 C   0  0  0  0  0  0
  -21.8846   -3.8165   23.4351 C   0  0  0  0  0  0
  -21.9172   -4.6972   22.3395 C   0  0  0  0  0  0
  -22.7914  -13.5290   21.1838 C   0  0  0  0  0  0
  -22.1675   -4.2175   21.0986 F   0  0  0  0  0  0
  -21.5630   -3.4540   25.7724 F   0  0  0  0  0  0
  -30.0472  -13.2994   20.4572 N   0  0  0  0  0  0
  -26.3114  -12.9312   20.3499 N   0  0  0  0  0  0
  -25.9340  -11.6477   20.5871 N   0  0  0  0  0  0
  -22.0477  -12.8350   22.0365 N   0  0  0  0  0  0
  -25.4506  -15.1845   20.4111 N   0  0  0  0  0  0
  -31.7767  -14.7384   20.0779 O   0  0  0  0  0  0
  -21.6652   -6.8892   21.4256 O   0  0  0  0  0  0
  -22.3604  -14.5603   20.6647 O   0  0  0  0  0  0
  -24.6153  -31.8641   23.2083 C   0  0  0  0  0  0
  -25.9026  -32.4862   23.8433 C   0  0  1  0  0  0
  -27.2675  -27.4365   20.1153 C   0  0  0  0  0  0
  -25.5833  -33.8644   24.2350 N   0  0  0  0  0  0
  -23.4157  -30.4815   21.5416 C   0  0  2  0  0  0
  -24.8734  -28.9535   20.1190 C   0  0  0  0  0  0
  -22.7446  -29.4636   22.4934 C   0  0  0  0  0  0
  -18.0279  -28.1376   22.8441 C   0  0  0  0  0  0
  -24.1501  -36.7423   23.2633 C   0  0  0  0  0  0
  -25.9418  -30.8406   21.3629 C   0  0  0  0  0  0
  -26.0314  -29.4700   20.7175 C   0  0  0  0  0  0
  -27.2300  -28.7192   20.7116 C   0  0  0  0  0  0
  -26.0888  -26.9496   19.4979 C   0  0  0  0  0  0
  -24.8991  -27.6921   19.5050 C   0  0  0  0  0  0
  -23.6351  -29.8104   20.1608 C   0  0  0  0  0  0
  -25.4110  -36.3175   24.0336 C   0  0  1  0  0  0
  -20.5885  -28.3686   23.1258 C   0  0  2  0  0  0
  -20.6785  -26.9429   22.5383 C   0  0  0  0  0  0
  -19.5767  -26.6384   21.5190 C   0  0  0  0  0  0
  -18.1946  -26.7919   22.1617 C   0  0  0  0  0  0
  -19.1519  -28.8843   23.2864 C   0  0  0  0  0  0
  -18.9458  -30.1446   23.8884 C   0  0  0  0  0  0
  -17.6456  -30.6556   24.0559 C   0  0  0  0  0  0
  -25.8990  -34.9493   23.5145 C   0  0  0  0  0  0
  -16.5342  -29.9061   23.6318 C   0  0  0  0  0  0
  -16.7281  -28.6501   23.0298 C   0  0  0  0  0  0
  -26.4473  -31.6655   25.0761 C   0  0  0  0  0  0
  -25.3746  -31.3708   26.1541 C   0  0  0  0  0  0
  -27.0280  -30.3077   24.6105 C   0  0  0  0  0  0
  -27.6025  -32.4372   25.7476 C   0  0  0  0  0  0
  -27.5619  -37.1874   24.8441 C   0  0  0  0  0  0
  -21.4169  -29.3033   22.3659 N   0  0  0  0  0  0
  -26.4342  -37.3832   23.9360 N   0  0  0  0  0  0
  -24.6762  -31.0760   22.0962 N   0  0  0  0  0  0
  -23.4191  -28.8173   23.2982 O   0  0  0  0  0  0
  -28.4362  -26.6844   20.1665 O   0  0  0  0  0  0
  -26.5583  -34.8942   22.4728 O   0  0  0  0  0  0
  -23.5297  -32.1385   23.7447 O   0  0  0  0  0  0
  -30.7281  -19.4954   22.2377 C   0  0  0  0  0  0
  -30.9324  -18.5188   23.2196 C   0  0  0  0  0  0
  -30.1470  -17.7533   20.6316 C   0  0  0  0  0  0
  -30.3244  -19.1405   20.9294 C   0  0  0  0  0  0
  -30.7461  -17.1559   22.9300 C   0  0  0  0  0  0
  -30.3576  -16.7546   21.6259 C   0  0  0  0  0  0
  -28.9908  -24.0363   19.8845 C   0  0  0  0  0  0
  -28.8837  -22.6733   19.7433 C   0  0  0  0  0  0
  -30.9568  -16.1417   24.0340 C   0  0  0  0  0  0
  -28.0294  -22.1533   17.4307 C   0  0  0  0  0  0
  -30.0875  -20.2325   19.8665 C   0  0  0  0  0  0
  -28.3857  -25.3972   19.5255 C   0  0  0  0  0  0
  -27.7489  -21.9956   18.9308 C   0  0  0  0  0  0
  -29.9368  -21.7188   20.3875 C   0  0  0  0  0  0
  -30.0524  -15.3785   21.3897 N   0  0  0  0  0  0
  -31.4762  -12.5060   19.0760 H   0  0  0  0  0  0
  -30.4193  -11.3271   19.7924 H   0  0  0  0  0  0
  -29.7314  -11.7849   17.4327 H   0  0  0  0  0  0
  -29.6413  -13.4967   17.7581 H   0  0  0  0  0  0
  -27.8380  -11.3083   18.8327 H   0  0  0  0  0  0
  -27.3583  -12.6355   17.8105 H   0  0  0  0  0  0
  -27.7260  -14.2507   19.6096 H   0  0  0  0  0  0
  -28.7114  -11.9120   21.3096 H   0  0  0  0  0  0
  -28.4636  -13.5180   21.9057 H   0  0  0  0  0  0
  -25.2725   -9.5709   22.4829 H   0  0  0  0  0  0
  -24.0011   -7.4628   22.7478 H   0  0  0  0  0  0
  -21.0847   -8.8828   19.8959 H   0  0  0  0  0  0
  -22.3697  -10.9746   19.6237 H   0  0  0  0  0  0
  -21.1982   -7.6151   23.9723 H   0  0  0  0  0  0
  -21.1447   -6.0517   25.9067 H   0  0  0  0  0  0
  -22.0618   -2.7637   23.2834 H   0  0  0  0  0  0
  -22.4010  -12.0017   22.4874 H   0  0  0  0  0  0
  -21.1058  -13.1421   22.2480 H   0  0  0  0  0  0
  -24.7103  -15.8652   20.5345 H   0  0  0  0  0  0
  -26.3211  -15.6028   20.1039 H   0  0  0  0  0  0
  -26.7080  -32.5589   23.1235 H   0  0  0  0  0  0
  -24.9977  -33.9829   25.0492 H   0  0  0  0  0  0
  -22.7084  -31.3001   21.3873 H   0  0  0  0  0  0
  -23.3742  -35.9800   23.3272 H   0  0  0  0  0  0
  -24.3648  -36.9067   22.2064 H   0  0  0  0  0  0
  -23.7293  -37.6634   23.6656 H   0  0  0  0  0  0
  -26.0420  -31.5963   20.5834 H   0  0  0  0  0  0
  -26.8363  -30.9112   21.9713 H   0  0  0  0  0  0
  -28.1257  -29.1174   21.1775 H   0  0  0  0  0  0
  -26.0605  -25.9873   19.0160 H   0  0  0  0  0  0
  -24.0195  -27.2802   19.0333 H   0  0  0  0  0  0
  -23.7565  -30.5792   19.3952 H   0  0  0  0  0  0
  -22.7689  -29.2203   19.8549 H   0  0  0  0  0  0
  -25.1291  -36.2102   25.0838 H   0  0  0  0  0  0
  -20.9977  -28.3260   24.1374 H   0  0  0  0  0  0
  -20.5658  -26.2294   23.3577 H   0  0  0  0  0  0
  -21.6648  -26.7425   22.1190 H   0  0  0  0  0  0
  -19.6932  -25.6293   21.1195 H   0  0  0  0  0  0
  -19.6698  -27.3193   20.6702 H   0  0  0  0  0  0
  -17.4201  -26.6609   21.4022 H   0  0  0  0  0  0
  -18.0394  -26.0079   22.9009 H   0  0  0  0  0  0
  -19.7925  -30.7258   24.2243 H   0  0  0  0  0  0
  -17.4998  -31.6219   24.5200 H   0  0  0  0  0  0
  -15.5350  -30.2946   23.7638 H   0  0  0  0  0  0
  -15.8691  -28.0833   22.6964 H   0  0  0  0  0  0
  -24.5845  -30.7154   25.7878 H   0  0  0  0  0  0
  -24.9033  -32.2810   26.5149 H   0  0  0  0  0  0
  -25.8122  -30.8733   27.0175 H   0  0  0  0  0  0
  -26.2790  -29.6874   24.1106 H   0  0  0  0  0  0
  -27.3994  -29.7293   25.4572 H   0  0  0  0  0  0
  -27.8674  -30.4447   23.9282 H   0  0  0  0  0  0
  -27.2612  -33.3594   26.2207 H   0  0  0  0  0  0
  -28.3709  -32.7076   25.0222 H   0  0  0  0  0  0
  -28.0859  -31.8430   26.5241 H   0  0  0  0  0  0
  -28.2606  -38.0194   24.7478 H   0  0  0  0  0  0
  -28.1137  -36.2696   24.6251 H   0  0  0  0  0  0
  -27.2335  -37.1535   25.8853 H   0  0  0  0  0  0
  -20.9361  -29.8772   21.6873 H   0  0  0  0  0  0
  -26.0255  -38.2940   24.1272 H   0  0  0  0  0  0
  -30.8959  -20.5226   22.5246 H   0  0  0  0  0  0
  -31.2307  -18.8493   24.2086 H   0  0  0  0  0  0
  -29.8203  -17.4528   19.6411 H   0  0  0  0  0  0
  -28.1334  -24.0434   19.2308 H   0  0  0  0  0  0
  -31.5521  -15.3043   23.6812 H   0  0  0  0  0  0
  -29.9976  -15.7606   24.3794 H   0  0  0  0  0  0
  -31.4774  -16.5802   24.8859 H   0  0  0  0  0  0
  -28.3361  -23.1628   17.1975 H   0  0  0  0  0  0
  -27.1635  -21.9338   16.8020 H   0  0  0  0  0  0
  -28.8377  -21.4971   17.1243 H   0  0  0  0  0  0
  -29.2294  -19.9024   19.2968 H   0  0  0  0  0  0
  -30.9023  -20.2020   19.1496 H   0  0  0  0  0  0
  -28.1737  -25.2705   20.6001 H   0  0  0  0  0  0
  -29.3540  -25.6682   19.0834 H   0  0  0  0  0  0
  -26.7893  -22.4602   19.1561 H   0  0  0  0  0  0
  -27.5576  -20.9626   19.2063 H   0  0  0  0  0  0
  -30.9342  -22.1575   20.3557 H   0  0  0  0  0  0
  -29.6681  -21.7197   21.4394 H   0  0  0  0  0  0
  -29.2689  -15.0141   21.9148 H   0  0  0  0  0  0
  1 25  1  0  0  0
  1 30  2  0  0  0
  1 85  1  0  0  0
  2  3  1  0  0  0
  2 25  1  0  0  0
  2 86  1  0  0  0
  2 87  1  0  0  0
  3  4  1  0  0  0
  3 88  1  0  0  0
  3 89  1  0  0  0
  4  5  1  0  0  0
  4 90  1  0  0  0
  4 91  1  0  0  0
  5  6  1  0  0  0
  5 26  1  0  0  0
  5 92  1  0  0  0
  6 25  1  0  0  0
  6 93  1  0  0  0
  6 94  1  0  0  0
  7  8  2  0  0  0
  7 26  1  0  0  0
  7 29  1  0  0  0
  8  9  1  0  0  0
  8 22  1  0  0  0
  9 10  1  0  0  0
  9 27  2  0  0  0
 10 11  2  0  0  0
 10 15  1  0  0  0
 11 12  1  0  0  0
 11 95  1  0  0  0
 12 13  2  0  0  0
 12 96  1  0  0  0
 13 14  1  0  0  0
 13 31  1  0  0  0
 14 15  2  0  0  0
 14 97  1  0  0  0
 15 98  1  0  0  0
 16 17  2  0  0  0
 16 21  1  0  0  0
 16 31  1  0  0  0
 17 18  1  0  0  0
 17 99  1  0  0  0
 18 19  2  0  0  0
 18100  1  0  0  0
 19 20  1  0  0  0
 19 24  1  0  0  0
 20 21  2  0  0  0
 20101  1  0  0  0
 21 23  1  0  0  0
 22 28  1  0  0  0
 22 32  2  0  0  0
 26 27  1  0  0  0
 28102  1  0  0  0
 28103  1  0  0  0
 29104  1  0  0  0
 29105  1  0  0  0
 33 34  1  0  0  0
 33 66  1  0  0  0
 33 70  2  0  0  0
 34 36  1  0  0  0
 34 59  1  0  0  0
 34106  1  0  0  0
 35 44  2  0  0  0
 35 45  1  0  0  0
 35 68  1  0  0  0
 36 56  1  0  0  0
 36107  1  0  0  0
 37 39  1  0  0  0
 37 47  1  0  0  0
 37 66  1  0  0  0
 37108  1  0  0  0
 38 43  2  0  0  0
 38 46  1  0  0  0
 38 47  1  0  0  0
 39 64  1  0  0  0
 39 67  2  0  0  0
 40 52  1  0  0  0
 40 53  2  0  0  0
 40 58  1  0  0  0
 41109  1  0  0  0
 41110  1  0  0  0
 41111  1  0  0  0
 41 48  1  0  0  0
 42 43  1  0  0  0
 42 66  1  0  0  0
 42112  1  0  0  0
 42113  1  0  0  0
 43 44  1  0  0  0
 44114  1  0  0  0
 45 46  2  0  0  0
 45115  1  0  0  0
 46116  1  0  0  0
 47117  1  0  0  0
 47118  1  0  0  0
 48 56  1  0  0  0
 48 65  1  0  0  0
 48119  1  0  0  0
 49 50  1  0  0  0
 49 53  1  0  0  0
 49 64  1  0  0  0
 49120  1  0  0  0
 50 51  1  0  0  0
 50121  1  0  0  0
 50122  1  0  0  0
 51 52  1  0  0  0
 51123  1  0  0  0
 51124  1  0  0  0
 52125  1  0  0  0
 52126  1  0  0  0
 53 54  1  0  0  0
 54 55  2  0  0  0
 54127  1  0  0  0
 55 57  1  0  0  0
 55128  1  0  0  0
 56 69  2  0  0  0
 57 58  2  0  0  0
 57129  1  0  0  0
 58130  1  0  0  0
 59 60  1  0  0  0
 59 61  1  0  0  0
 59 62  1  0  0  0
 60131  1  0  0  0
 60132  1  0  0  0
 60133  1  0  0  0
 61134  1  0  0  0
 61135  1  0  0  0
 61136  1  0  0  0
 62137  1  0  0  0
 62138  1  0  0  0
 62139  1  0  0  0
 63 65  1  0  0  0
 63140  1  0  0  0
 63141  1  0  0  0
 63142  1  0  0  0
 64143  1  0  0  0
 65144  1  0  0  0
 68 82  1  0  0  0
 71 72  2  0  0  0
 71 74  1  0  0  0
 71145  1  0  0  0
 72 75  1  0  0  0
 72146  1  0  0  0
 73 74  2  0  0  0
 73 76  1  0  0  0
 73147  1  0  0  0
 74 81  1  0  0  0
 75 76  2  0  0  0
 75 79  1  0  0  0
 76 85  1  0  0  0
 77 78  2  0  0  0
 77 82  1  0  0  0
 77148  1  0  0  0
 78 83  1  0  0  0
 78 84  1  0  0  0
 79149  1  0  0  0
 79150  1  0  0  0
 79151  1  0  0  0
 80 83  1  0  0  0
 80152  1  0  0  0
 80153  1  0  0  0
 80154  1  0  0  0
 81 84  1  0  0  0
 81155  1  0  0  0
 81156  1  0  0  0
 82157  1  0  0  0
 82158  1  0  0  0
 83159  1  0  0  0
 83160  1  0  0  0
 84161  1  0  0  0
 84162  1  0  0  0
 85163  1  0  0  0
M  ISO  4   1 100  68 101  82 101  85 100
M  END
> <chiral flag>
0

> <version>
0

> <s_m_source_file>
/data/baiqing/PycharmProjects/Reinvent-master-3.2/result/LINK_invent/BTK/process_docking_weight1_custom_product_contain_oxygen_bond_distance_aromatic_linkinvent_7_9_3/rearranged_h_0131.sdf

> <i_m_source_file_index>
2

> <r_mmod_Potential_Energy-OPLS-2005>
500.013000488281

> <r_mmod_Stretch_Energy-OPLS-2005>
52.8950881958008

> <r_mmod_Bend_Energy-OPLS-2005>
570.091125488281

> <r_mmod_Torsional_Energy-OPLS-2005>
246.684829711914

> <r_mmod_Improper_Torsional_Energy-OPLS-2005>
2.65796542167664

> <r_mmod_Van_der_Waal_Energy-OPLS-2005>
196.502014160156

> <r_mmod_Electrostatic_Energy-OPLS-2005>
-385.020385742188

> <r_mmod_Solvation_Energy-OPLS-2005>
-198.623626708984

> <b_mmod_Minimization_Converged-OPLS-2005>
0

> <r_mmod_RMS_Derivative-OPLS-2005>
13.4989309310913

$$$$
2
                    3D
 Structure written by MMmdl.
157165  0  0  1  0            999 V2000
  -30.7720  -14.4012   20.5734 C   0  0  0  0  0  0
  -30.3918  -12.2565   19.4533 C   0  0  0  0  0  0
  -29.4957  -12.5087   18.2246 C   0  0  0  0  0  0
  -28.0138  -12.3782   18.6209 C   0  0  0  0  0  0
  -27.6610  -13.2165   19.8777 C   0  0  2  0  0  0
  -28.6916  -13.0191   21.0097 C   0  0  0  0  0  0
  -25.2579  -13.8178   20.5655 C   0  0  0  0  0  0
  -24.1842  -13.0446   20.9108 C   0  0  0  0  0  0
  -24.6420  -11.6910   20.8723 C   0  0  0  0  0  0
  -23.9096  -10.4287   21.0397 C   0  0  0  0  0  0
  -24.3635   -9.4201   21.9179 C   0  0  0  0  0  0
  -23.6286   -8.2265   22.0793 C   0  0  0  0  0  0
  -22.4294   -8.0286   21.3555 C   0  0  0  0  0  0
  -21.9930   -9.0249   20.4648 C   0  0  0  0  0  0
  -22.7265  -10.2123   20.3047 C   0  0  0  0  0  0
  -21.6860   -6.0721   22.5264 C   0  0  0  0  0  0
  -21.4022   -6.5633   23.8190 C   0  0  0  0  0  0
  -21.3664   -5.6793   24.9157 C   0  0  0  0  0  0
  -21.6053   -4.3056   24.7220 C   0  0  0  0  0  0
  -21.8828   -3.8139   23.4348 C   0  0  0  0  0  0
  -21.9188   -4.6943   22.3392 C   0  0  0  0  0  0
  -22.7857  -13.5217   21.1730 C   0  0  0  0  0  0
  -22.1662   -4.2118   21.0977 F   0  0  0  0  0  0
  -21.5632   -3.4555   25.7740 F   0  0  0  0  0  0
  -30.0363  -13.2625   20.4671 N   0  0  0  0  0  0
  -26.3035  -12.9369   20.3361 N   0  0  0  0  0  0
  -25.9355  -11.6522   20.5770 N   0  0  0  0  0  0
  -22.0518  -12.8250   22.0315 N   0  0  0  0  0  0
  -25.4364  -15.1897   20.4111 N   0  0  0  0  0  0
  -31.9046  -14.4865   20.0897 O   0  0  0  0  0  0
  -21.6668   -6.8880   21.4237 O   0  0  0  0  0  0
  -22.3530  -14.5505   20.6540 O   0  0  0  0  0  0
  -24.6118  -31.8723   23.2143 C   0  0  0  0  0  0
  -25.9026  -32.4831   23.8443 C   0  0  1  0  0  0
  -27.2557  -27.4848   20.0857 C   0  0  0  0  0  0
  -25.5907  -33.8631   24.2377 N   0  0  0  0  0  0
  -23.3975  -30.4947   21.5539 C   0  0  2  0  0  0
  -24.8477  -28.9653   20.1156 C   0  0  0  0  0  0
  -22.7387  -29.4685   22.5030 C   0  0  0  0  0  0
  -18.0268  -28.1401   22.8520 C   0  0  0  0  0  0
  -24.1472  -36.7303   23.2646 C   0  0  0  0  0  0
  -25.9188  -30.8522   21.3587 C   0  0  0  0  0  0
  -25.9976  -29.4856   20.7169 C   0  0  0  0  0  0
  -27.1978  -28.7473   20.7088 C   0  0  0  0  0  0
  -26.0851  -26.9665   19.4782 C   0  0  0  0  0  0
  -24.8844  -27.7024   19.4977 C   0  0  0  0  0  0
  -23.6030  -29.8226   20.1681 C   0  0  0  0  0  0
  -25.4102  -36.3118   24.0338 C   0  0  1  0  0  0
  -20.5861  -28.3700   23.1343 C   0  0  2  0  0  0
  -20.6775  -26.9441   22.5442 C   0  0  0  0  0  0
  -19.5736  -26.6424   21.5253 C   0  0  0  0  0  0
  -18.1906  -26.7963   22.1635 C   0  0  0  0  0  0
  -19.1515  -28.8859   23.2933 C   0  0  0  0  0  0
  -18.9438  -30.1468   23.8949 C   0  0  0  0  0  0
  -17.6428  -30.6610   24.0571 C   0  0  0  0  0  0
  -25.9035  -34.9471   23.5153 C   0  0  0  0  0  0
  -16.5330  -29.9102   23.6314 C   0  0  0  0  0  0
  -16.7255  -28.6516   23.0358 C   0  0  0  0  0  0
  -26.4458  -31.6566   25.0737 C   0  0  0  0  0  0
  -25.3726  -31.3645   26.1486 C   0  0  0  0  0  0
  -27.0278  -30.3023   24.6048 C   0  0  0  0  0  0
  -27.6085  -32.4214   25.7489 C   0  0  0  0  0  0
  -27.5566  -37.1786   24.8465 C   0  0  0  0  0  0
  -21.4130  -29.3066   22.3754 N   0  0  0  0  0  0
  -26.4290  -37.3794   23.9412 N   0  0  0  0  0  0
  -24.6606  -31.0867   22.1019 N   0  0  0  0  0  0
  -23.4185  -28.8214   23.3037 O   0  0  0  0  0  0
  -28.4794  -26.8582   20.0932 O   0  0  0  0  0  0
  -26.5573  -34.8916   22.4702 O   0  0  0  0  0  0
  -23.5321  -32.1458   23.7562 O   0  0  0  0  0  0
  -29.6681  -18.5438   22.0568 C   0  0  0  0  0  0
  -29.4603  -19.9135   22.3322 C   0  0  0  0  0  0
  -29.8235  -20.4321   19.9867 C   0  0  0  0  0  0
  -30.0068  -18.1216   20.7531 C   0  0  0  0  0  0
  -29.5696  -20.8735   21.3039 C   0  0  0  0  0  0
  -30.0325  -19.0732   19.7040 C   0  0  0  0  0  0
  -30.3761  -16.7327   20.4520 C   0  0  0  0  0  0
  -30.1249  -15.5860   21.1193 C   0  0  0  0  0  0
  -29.4982  -24.7522   20.6493 C   0  0  0  0  0  0
  -30.2956  -18.6734   18.2570 C   0  0  0  0  0  0
  -29.4278  -22.3603   21.6242 C   0  0  0  0  0  0
  -29.6471  -23.2637   20.3921 C   0  0  0  0  0  0
  -28.6038  -25.5094   19.6671 C   0  0  0  0  0  0
  -30.0922  -25.3097   21.5799 O   0  0  0  0  0  0
  -31.4468  -12.2809   19.1762 H   0  0  0  0  0  0
  -30.2199  -11.2574   19.8565 H   0  0  0  0  0  0
  -29.7363  -11.8139   17.4191 H   0  0  0  0  0  0
  -29.6821  -13.5083   17.8304 H   0  0  0  0  0  0
  -27.8133  -11.3224   18.8058 H   0  0  0  0  0  0
  -27.3745  -12.6679   17.7883 H   0  0  0  0  0  0
  -27.7059  -14.2646   19.5765 H   0  0  0  0  0  0
  -28.6393  -12.0024   21.4018 H   0  0  0  0  0  0
  -28.4573  -13.6673   21.8516 H   0  0  0  0  0  0
  -25.2792   -9.5655   22.4737 H   0  0  0  0  0  0
  -23.9948   -7.4696   22.7587 H   0  0  0  0  0  0
  -21.0863   -8.8783   19.8957 H   0  0  0  0  0  0
  -22.3742  -10.9661   19.6165 H   0  0  0  0  0  0
  -21.2039   -7.6144   23.9658 H   0  0  0  0  0  0
  -21.1479   -6.0553   25.9047 H   0  0  0  0  0  0
  -22.0602   -2.7595   23.2874 H   0  0  0  0  0  0
  -22.4166  -11.9927   22.4683 H   0  0  0  0  0  0
  -21.1143  -13.1271   22.2518 H   0  0  0  0  0  0
  -24.6872  -15.8618   20.5305 H   0  0  0  0  0  0
  -26.3086  -15.6167   20.1256 H   0  0  0  0  0  0
  -26.7123  -32.5581   23.1249 H   0  0  0  0  0  0
  -25.0053  -33.9798   25.0522 H   0  0  0  0  0  0
  -22.6846  -31.3101   21.4151 H   0  0  0  0  0  0
  -23.3755  -35.9612   23.3268 H   0  0  0  0  0  0
  -24.3553  -36.8959   22.2066 H   0  0  0  0  0  0
  -23.7174  -37.6472   23.6692 H   0  0  0  0  0  0
  -26.0120  -31.6115   20.5814 H   0  0  0  0  0  0
  -26.8140  -30.9226   21.9628 H   0  0  0  0  0  0
  -28.0863  -29.1520   21.1751 H   0  0  0  0  0  0
  -26.0753  -26.0182   18.9631 H   0  0  0  0  0  0
  -24.0018  -27.3013   19.0193 H   0  0  0  0  0  0
  -23.6973  -30.5944   19.4038 H   0  0  0  0  0  0
  -22.7316  -29.2312   19.8835 H   0  0  0  0  0  0
  -25.1267  -36.1994   25.0822 H   0  0  0  0  0  0
  -20.9969  -28.3292   24.1452 H   0  0  0  0  0  0
  -20.5748  -26.2309   23.3641 H   0  0  0  0  0  0
  -21.6636  -26.7526   22.1184 H   0  0  0  0  0  0
  -19.6899  -25.6349   21.1246 H   0  0  0  0  0  0
  -19.6661  -27.3273   20.6814 H   0  0  0  0  0  0
  -17.4205  -26.6782   21.3994 H   0  0  0  0  0  0
  -18.0229  -26.0089   22.8998 H   0  0  0  0  0  0
  -19.7901  -30.7281   24.2369 H   0  0  0  0  0  0
  -17.4971  -31.6298   24.5163 H   0  0  0  0  0  0
  -15.5332  -30.3009   23.7621 H   0  0  0  0  0  0
  -15.8665  -28.0846   22.7052 H   0  0  0  0  0  0
  -24.5884  -30.7024   25.7787 H   0  0  0  0  0  0
  -24.8950  -32.2801   26.4988 H   0  0  0  0  0  0
  -25.8070  -30.8748   27.0213 H   0  0  0  0  0  0
  -26.2807  -29.6755   24.1174 H   0  0  0  0  0  0
  -27.4154  -29.7256   25.4453 H   0  0  0  0  0  0
  -27.8583  -30.4347   23.9111 H   0  0  0  0  0  0
  -27.2803  -33.3541   26.2078 H   0  0  0  0  0  0
  -28.3919  -32.6679   25.0311 H   0  0  0  0  0  0
  -28.0722  -31.8287   26.5386 H   0  0  0  0  0  0
  -28.2604  -38.0070   24.7538 H   0  0  0  0  0  0
  -28.1034  -36.2593   24.6280 H   0  0  0  0  0  0
  -27.2255  -37.1430   25.8861 H   0  0  0  0  0  0
  -20.9316  -29.8769   21.6942 H   0  0  0  0  0  0
  -26.0173  -38.2870   24.1428 H   0  0  0  0  0  0
  -29.6164  -17.8294   22.8637 H   0  0  0  0  0  0
  -29.2484  -20.2247   23.3454 H   0  0  0  0  0  0
  -29.8868  -21.1241   19.1622 H   0  0  0  0  0  0
  -30.9918  -16.6459   19.5672 H   0  0  0  0  0  0
  -29.5159  -15.5599   22.0095 H   0  0  0  0  0  0
  -30.0801  -19.4903   17.5665 H   0  0  0  0  0  0
  -29.6564  -17.8369   17.9713 H   0  0  0  0  0  0
  -31.3364  -18.3809   18.1101 H   0  0  0  0  0  0
  -30.1507  -22.6137   22.4030 H   0  0  0  0  0  0
  -28.4410  -22.5340   22.0566 H   0  0  0  0  0  0
  -30.6434  -23.0987   19.9773 H   0  0  0  0  0  0
  -28.9255  -23.0014   19.6179 H   0  0  0  0  0  0
  -27.6610  -24.9728   19.6123 H   0  0  0  0  0  0
  -29.0618  -25.4882   18.6784 H   0  0  0  0  0  0
  1 25  1  0  0  0
  1 30  2  0  0  0
  1 78  1  0  0  0
  2  3  1  0  0  0
  2 25  1  0  0  0
  2 85  1  0  0  0
  2 86  1  0  0  0
  3  4  1  0  0  0
  3 87  1  0  0  0
  3 88  1  0  0  0
  4  5  1  0  0  0
  4 89  1  0  0  0
  4 90  1  0  0  0
  5  6  1  0  0  0
  5 26  1  0  0  0
  5 91  1  0  0  0
  6 25  1  0  0  0
  6 92  1  0  0  0
  6 93  1  0  0  0
  7  8  2  0  0  0
  7 26  1  0  0  0
  7 29  1  0  0  0
  8  9  1  0  0  0
  8 22  1  0  0  0
  9 10  1  0  0  0
  9 27  2  0  0  0
 10 11  2  0  0  0
 10 15  1  0  0  0
 11 12  1  0  0  0
 11 94  1  0  0  0
 12 13  2  0  0  0
 12 95  1  0  0  0
 13 14  1  0  0  0
 13 31  1  0  0  0
 14 15  2  0  0  0
 14 96  1  0  0  0
 15 97  1  0  0  0
 16 17  2  0  0  0
 16 21  1  0  0  0
 16 31  1  0  0  0
 17 18  1  0  0  0
 17 98  1  0  0  0
 18 19  2  0  0  0
 18 99  1  0  0  0
 19 20  1  0  0  0
 19 24  1  0  0  0
 20 21  2  0  0  0
 20100  1  0  0  0
 21 23  1  0  0  0
 22 28  1  0  0  0
 22 32  2  0  0  0
 26 27  1  0  0  0
 28101  1  0  0  0
 28102  1  0  0  0
 29103  1  0  0  0
 29104  1  0  0  0
 33 34  1  0  0  0
 33 66  1  0  0  0
 33 70  2  0  0  0
 34 36  1  0  0  0
 34 59  1  0  0  0
 34105  1  0  0  0
 35 44  2  0  0  0
 35 45  1  0  0  0
 35 68  1  0  0  0
 36 56  1  0  0  0
 36106  1  0  0  0
 37 39  1  0  0  0
 37 47  1  0  0  0
 37 66  1  0  0  0
 37107  1  0  0  0
 38 43  2  0  0  0
 38 46  1  0  0  0
 38 47  1  0  0  0
 39 64  1  0  0  0
 39 67  2  0  0  0
 40 52  1  0  0  0
 40 53  2  0  0  0
 40 58  1  0  0  0
 41108  1  0  0  0
 41109  1  0  0  0
 41110  1  0  0  0
 41 48  1  0  0  0
 42 43  1  0  0  0
 42 66  1  0  0  0
 42111  1  0  0  0
 42112  1  0  0  0
 43 44  1  0  0  0
 44113  1  0  0  0
 45 46  2  0  0  0
 45114  1  0  0  0
 46115  1  0  0  0
 47116  1  0  0  0
 47117  1  0  0  0
 48 56  1  0  0  0
 48 65  1  0  0  0
 48118  1  0  0  0
 49 50  1  0  0  0
 49 53  1  0  0  0
 49 64  1  0  0  0
 49119  1  0  0  0
 50 51  1  0  0  0
 50120  1  0  0  0
 50121  1  0  0  0
 51 52  1  0  0  0
 51122  1  0  0  0
 51123  1  0  0  0
 52124  1  0  0  0
 52125  1  0  0  0
 53 54  1  0  0  0
 54 55  2  0  0  0
 54126  1  0  0  0
 55 57  1  0  0  0
 55127  1  0  0  0
 56 69  2  0  0  0
 57 58  2  0  0  0
 57128  1  0  0  0
 58129  1  0  0  0
 59 60  1  0  0  0
 59 61  1  0  0  0
 59 62  1  0  0  0
 60130  1  0  0  0
 60131  1  0  0  0
 60132  1  0  0  0
 61133  1  0  0  0
 61134  1  0  0  0
 61135  1  0  0  0
 62136  1  0  0  0
 62137  1  0  0  0
 62138  1  0  0  0
 63 65  1  0  0  0
 63139  1  0  0  0
 63140  1  0  0  0
 63141  1  0  0  0
 64142  1  0  0  0
 65143  1  0  0  0
 68 83  1  0  0  0
 71 72  2  0  0  0
 71 74  1  0  0  0
 71144  1  0  0  0
 72 75  1  0  0  0
 72145  1  0  0  0
 73 75  2  0  0  0
 73 76  1  0  0  0
 73146  1  0  0  0
 74 76  2  0  0  0
 74 77  1  0  0  0
 75 81  1  0  0  0
 76 80  1  0  0  0
 77 78  2  0  0  0
 77147  1  0  0  0
 78148  1  0  0  0
 79 82  1  0  0  0
 79 83  1  0  0  0
 79 84  2  0  0  0
 80149  1  0  0  0
 80150  1  0  0  0
 80151  1  0  0  0
 81 82  1  0  0  0
 81152  1  0  0  0
 81153  1  0  0  0
 82154  1  0  0  0
 82155  1  0  0  0
 83156  1  0  0  0
 83157  1  0  0  0
M  ISO  4   1 100  68 101  78 100  83 101
M  END
> <chiral flag>
0

> <version>
0

> <s_m_source_file>
/data/baiqing/PycharmProjects/Reinvent-master-3.2/result/LINK_invent/BTK/process_docking_weight1_custom_product_contain_oxygen_bond_distance_aromatic_linkinvent_7_9_3/rearranged_h_0131.sdf

> <i_m_source_file_index>
3

> <r_mmod_Potential_Energy-OPLS-2005>
-24.7311096191406

> <r_mmod_Stretch_Energy-OPLS-2005>
31.8371906280518

> <r_mmod_Bend_Energy-OPLS-2005>
110.622520446777

> <r_mmod_Torsional_Energy-OPLS-2005>
188.838317871094

> <r_mmod_Improper_Torsional_Energy-OPLS-2005>
4.14779996871948

> <r_mmod_Van_der_Waal_Energy-OPLS-2005>
175.549667358398

> <r_mmod_Electrostatic_Energy-OPLS-2005>
-338.098480224609

> <r_mmod_Solvation_Energy-OPLS-2005>
-213.494293212891

> <b_mmod_Minimization_Converged-OPLS-2005>
0

> <r_mmod_RMS_Derivative-OPLS-2005>
3.57203674316406

$$$$
3
                    3D
 Structure written by MMmdl.
155163  0  0  1  0            999 V2000
  -30.6201  -14.6145   20.4853 C   0  0  0  0  0  0
  -30.4378  -12.3711   19.4442 C   0  0  0  0  0  0
  -29.5058  -12.5076   18.2180 C   0  0  0  0  0  0
  -28.0290  -12.3469   18.6304 C   0  0  0  0  0  0
  -27.6568  -13.2106   19.8647 C   0  0  2  0  0  0
  -28.7013  -13.0448   20.9926 C   0  0  0  0  0  0
  -25.2583  -13.8159   20.5700 C   0  0  0  0  0  0
  -24.1833  -13.0440   20.9181 C   0  0  0  0  0  0
  -24.6400  -11.6905   20.8735 C   0  0  0  0  0  0
  -23.9076  -10.4288   21.0411 C   0  0  0  0  0  0
  -24.3616   -9.4202   21.9194 C   0  0  0  0  0  0
  -23.6281   -8.2238   22.0764 C   0  0  0  0  0  0
  -22.4260   -8.0285   21.3549 C   0  0  0  0  0  0
  -21.9907   -9.0273   20.4652 C   0  0  0  0  0  0
  -22.7246  -10.2148   20.3065 C   0  0  0  0  0  0
  -21.6854   -6.0739   22.5282 C   0  0  0  0  0  0
  -21.4020   -6.5647   23.8217 C   0  0  0  0  0  0
  -21.3654   -5.6800   24.9178 C   0  0  0  0  0  0
  -21.6040   -4.3060   24.7233 C   0  0  0  0  0  0
  -21.8811   -3.8151   23.4356 C   0  0  0  0  0  0
  -21.9196   -4.6968   22.3413 C   0  0  0  0  0  0
  -22.7852  -13.5244   21.1850 C   0  0  0  0  0  0
  -22.1658   -4.2150   21.0985 F   0  0  0  0  0  0
  -21.5629   -3.4545   25.7749 F   0  0  0  0  0  0
  -30.0229  -13.3834   20.4343 N   0  0  0  0  0  0
  -26.3001  -12.9332   20.3308 N   0  0  0  0  0  0
  -25.9321  -11.6495   20.5730 N   0  0  0  0  0  0
  -22.0484  -12.8243   22.0397 N   0  0  0  0  0  0
  -25.4301  -15.1880   20.4166 N   0  0  0  0  0  0
  -31.7737  -14.7913   20.0808 O   0  0  0  0  0  0
  -21.6621   -6.8885   21.4243 O   0  0  0  0  0  0
  -22.3549  -14.5557   20.6707 O   0  0  0  0  0  0
  -24.6240  -31.8620   23.2017 C   0  0  0  0  0  0
  -25.9095  -32.4784   23.8343 C   0  0  1  0  0  0
  -27.2313  -27.3474   20.1065 C   0  0  0  0  0  0
  -25.5928  -33.8585   24.2276 N   0  0  0  0  0  0
  -23.4173  -30.4814   21.5449 C   0  0  2  0  0  0
  -24.8651  -28.9333   20.1151 C   0  0  0  0  0  0
  -22.7468  -29.4605   22.4956 C   0  0  0  0  0  0
  -18.0293  -28.1390   22.8468 C   0  0  0  0  0  0
  -24.1490  -36.7298   23.2635 C   0  0  0  0  0  0
  -25.9552  -30.7981   21.3691 C   0  0  0  0  0  0
  -26.0326  -29.4264   20.7134 C   0  0  0  0  0  0
  -27.2229  -28.6452   20.6957 C   0  0  0  0  0  0
  -26.0438  -26.8915   19.4972 C   0  0  0  0  0  0
  -24.8692  -27.6703   19.5002 C   0  0  0  0  0  0
  -23.6324  -29.8111   20.1621 C   0  0  0  0  0  0
  -25.4115  -36.3082   24.0319 C   0  0  1  0  0  0
  -20.5874  -28.3689   23.1282 C   0  0  2  0  0  0
  -20.6781  -26.9409   22.5427 C   0  0  0  0  0  0
  -19.5777  -26.6365   21.5219 C   0  0  0  0  0  0
  -18.1953  -26.7926   22.1620 C   0  0  0  0  0  0
  -19.1538  -28.8857   23.2860 C   0  0  0  0  0  0
  -18.9461  -30.1451   23.8873 C   0  0  0  0  0  0
  -17.6453  -30.6592   24.0536 C   0  0  0  0  0  0
  -25.9049  -34.9456   23.5100 C   0  0  0  0  0  0
  -16.5344  -29.9081   23.6311 C   0  0  0  0  0  0
  -16.7270  -28.6489   23.0328 C   0  0  0  0  0  0
  -26.4489  -31.6590   25.0713 C   0  0  0  0  0  0
  -25.3710  -31.3744   26.1436 C   0  0  0  0  0  0
  -27.0331  -30.3009   24.6166 C   0  0  0  0  0  0
  -27.6051  -32.4328   25.7486 C   0  0  0  0  0  0
  -27.5576  -37.1813   24.8466 C   0  0  0  0  0  0
  -21.4188  -29.3022   22.3681 N   0  0  0  0  0  0
  -26.4300  -37.3772   23.9393 N   0  0  0  0  0  0
  -24.6841  -31.0639   22.0958 N   0  0  0  0  0  0
  -23.4202  -28.8142   23.3029 O   0  0  0  0  0  0
  -28.3635  -26.5328   20.0886 O   0  0  0  0  0  0
  -26.5620  -34.8928   22.4666 O   0  0  0  0  0  0
  -23.5410  -32.1431   23.7348 O   0  0  0  0  0  0
  -30.4697  -19.1166   19.3545 C   0  0  0  0  0  0
  -30.6535  -17.7382   19.6745 C   0  0  0  0  0  0
  -28.7354  -17.8511   21.1231 C   0  0  0  0  0  0
  -29.4083  -19.8983   19.8909 C   0  0  0  0  0  0
  -28.5403  -19.2262   20.7955 C   0  0  0  0  0  0
  -29.7751  -17.0635   20.5626 C   0  0  0  0  0  0
  -28.7681  -24.0079   19.6991 C   0  0  0  0  0  0
  -27.3530  -19.9502   21.4017 C   0  0  0  0  0  0
  -29.1515  -21.3576   19.3575 C   0  0  0  0  0  0
  -29.0600  -22.5989   20.3407 C   0  0  0  0  0  0
  -28.2076  -25.1625   20.6063 C   0  0  0  0  0  0
  -29.8125  -15.6407   20.8853 N   0  0  0  0  0  0
  -28.9558  -24.1962   18.4928 O   0  0  0  0  0  0
  -31.4809  -12.4914   19.1433 H   0  0  0  0  0  0
  -30.3642  -11.3704   19.8728 H   0  0  0  0  0  0
  -29.7647  -11.7639   17.4638 H   0  0  0  0  0  0
  -29.6522  -13.4807   17.7454 H   0  0  0  0  0  0
  -27.8657  -11.2922   18.8566 H   0  0  0  0  0  0
  -27.3737  -12.5813   17.7902 H   0  0  0  0  0  0
  -27.6811  -14.2489   19.5359 H   0  0  0  0  0  0
  -28.7056  -12.0165   21.3587 H   0  0  0  0  0  0
  -28.4505  -13.6636   21.8555 H   0  0  0  0  0  0
  -25.2771   -9.5668   22.4763 H   0  0  0  0  0  0
  -23.9993   -7.4632   22.7486 H   0  0  0  0  0  0
  -21.0842   -8.8801   19.8962 H   0  0  0  0  0  0
  -22.3716  -10.9688   19.6169 H   0  0  0  0  0  0
  -21.2004   -7.6144   23.9726 H   0  0  0  0  0  0
  -21.1481   -6.0519   25.9077 H   0  0  0  0  0  0
  -22.0591   -2.7603   23.2857 H   0  0  0  0  0  0
  -22.4092  -11.9897   22.4785 H   0  0  0  0  0  0
  -21.1113  -13.1287   22.2604 H   0  0  0  0  0  0
  -24.6656  -15.8433   20.5383 H   0  0  0  0  0  0
  -26.2839  -15.6297   20.1022 H   0  0  0  0  0  0
  -26.7161  -32.5447   23.1094 H   0  0  0  0  0  0
  -25.0065  -33.9724   25.0415 H   0  0  0  0  0  0
  -22.7098  -31.3003   21.3972 H   0  0  0  0  0  0
  -23.3745  -35.9645   23.3336 H   0  0  0  0  0  0
  -24.3562  -36.8884   22.2041 H   0  0  0  0  0  0
  -23.7282  -37.6524   23.6642 H   0  0  0  0  0  0
  -26.0837  -31.5589   20.5982 H   0  0  0  0  0  0
  -26.8370  -30.8493   21.9970 H   0  0  0  0  0  0
  -28.1256  -29.0227   21.1578 H   0  0  0  0  0  0
  -26.0213  -25.9251   19.0121 H   0  0  0  0  0  0
  -23.9722  -27.2878   19.0311 H   0  0  0  0  0  0
  -23.7504  -30.5838   19.4018 H   0  0  0  0  0  0
  -22.7540  -29.2371   19.8613 H   0  0  0  0  0  0
  -25.1305  -36.1933   25.0815 H   0  0  0  0  0  0
  -20.9936  -28.3293   24.1414 H   0  0  0  0  0  0
  -20.5675  -26.2284   23.3615 H   0  0  0  0  0  0
  -21.6645  -26.7447   22.1218 H   0  0  0  0  0  0
  -19.6943  -25.6267   21.1259 H   0  0  0  0  0  0
  -19.6739  -27.3186   20.6752 H   0  0  0  0  0  0
  -17.4251  -26.6661   21.3998 H   0  0  0  0  0  0
  -18.0345  -26.0082   22.9027 H   0  0  0  0  0  0
  -19.7923  -30.7261   24.2273 H   0  0  0  0  0  0
  -17.5005  -31.6258   24.5147 H   0  0  0  0  0  0
  -15.5348  -30.2976   23.7638 H   0  0  0  0  0  0
  -15.8666  -28.0803   22.7054 H   0  0  0  0  0  0
  -24.5873  -30.7110   25.7766 H   0  0  0  0  0  0
  -24.8902  -32.2911   26.4853 H   0  0  0  0  0  0
  -25.8005  -30.8919   27.0218 H   0  0  0  0  0  0
  -26.2908  -29.6766   24.1178 H   0  0  0  0  0  0
  -27.4026  -29.7266   25.4673 H   0  0  0  0  0  0
  -27.8773  -30.4307   23.9389 H   0  0  0  0  0  0
  -27.2662  -33.3625   26.2077 H   0  0  0  0  0  0
  -28.3852  -32.6901   25.0304 H   0  0  0  0  0  0
  -28.0743  -31.8444   26.5389 H   0  0  0  0  0  0
  -28.2626  -38.0077   24.7460 H   0  0  0  0  0  0
  -28.1039  -36.2607   24.6358 H   0  0  0  0  0  0
  -27.2276  -37.1543   25.8865 H   0  0  0  0  0  0
  -20.9384  -29.8760   21.6891 H   0  0  0  0  0  0
  -26.0184  -38.2856   24.1364 H   0  0  0  0  0  0
  -31.1447  -19.5643   18.6373 H   0  0  0  0  0  0
  -31.4607  -17.2041   19.1954 H   0  0  0  0  0  0
  -28.0414  -17.3799   21.8065 H   0  0  0  0  0  0
  -27.6882  -20.6581   22.1594 H   0  0  0  0  0  0
  -26.6576  -19.2569   21.8759 H   0  0  0  0  0  0
  -26.8028  -20.4945   20.6338 H   0  0  0  0  0  0
  -28.2295  -21.3204   18.7752 H   0  0  0  0  0  0
  -29.9285  -21.5748   18.6218 H   0  0  0  0  0  0
  -28.2812  -22.4380   21.0821 H   0  0  0  0  0  0
  -29.9956  -22.6762   20.8936 H   0  0  0  0  0  0
  -28.7220  -25.1093   21.5666 H   0  0  0  0  0  0
  -27.1625  -24.9398   20.8191 H   0  0  0  0  0  0
  -28.9747  -15.3037   21.3368 H   0  0  0  0  0  0
  1 25  1  0  0  0
  1 30  2  0  0  0
  1 82  1  0  0  0
  2  3  1  0  0  0
  2 25  1  0  0  0
  2 84  1  0  0  0
  2 85  1  0  0  0
  3  4  1  0  0  0
  3 86  1  0  0  0
  3 87  1  0  0  0
  4  5  1  0  0  0
  4 88  1  0  0  0
  4 89  1  0  0  0
  5  6  1  0  0  0
  5 26  1  0  0  0
  5 90  1  0  0  0
  6 25  1  0  0  0
  6 91  1  0  0  0
  6 92  1  0  0  0
  7  8  2  0  0  0
  7 26  1  0  0  0
  7 29  1  0  0  0
  8  9  1  0  0  0
  8 22  1  0  0  0
  9 10  1  0  0  0
  9 27  2  0  0  0
 10 11  2  0  0  0
 10 15  1  0  0  0
 11 12  1  0  0  0
 11 93  1  0  0  0
 12 13  2  0  0  0
 12 94  1  0  0  0
 13 14  1  0  0  0
 13 31  1  0  0  0
 14 15  2  0  0  0
 14 95  1  0  0  0
 15 96  1  0  0  0
 16 17  2  0  0  0
 16 21  1  0  0  0
 16 31  1  0  0  0
 17 18  1  0  0  0
 17 97  1  0  0  0
 18 19  2  0  0  0
 18 98  1  0  0  0
 19 20  1  0  0  0
 19 24  1  0  0  0
 20 21  2  0  0  0
 20 99  1  0  0  0
 21 23  1  0  0  0
 22 28  1  0  0  0
 22 32  2  0  0  0
 26 27  1  0  0  0
 28100  1  0  0  0
 28101  1  0  0  0
 29102  1  0  0  0
 29103  1  0  0  0
 33 34  1  0  0  0
 33 66  1  0  0  0
 33 70  2  0  0  0
 34 36  1  0  0  0
 34 59  1  0  0  0
 34104  1  0  0  0
 35 44  2  0  0  0
 35 45  1  0  0  0
 35 68  1  0  0  0
 36 56  1  0  0  0
 36105  1  0  0  0
 37 39  1  0  0  0
 37 47  1  0  0  0
 37 66  1  0  0  0
 37106  1  0  0  0
 38 43  2  0  0  0
 38 46  1  0  0  0
 38 47  1  0  0  0
 39 64  1  0  0  0
 39 67  2  0  0  0
 40 52  1  0  0  0
 40 53  2  0  0  0
 40 58  1  0  0  0
 41107  1  0  0  0
 41108  1  0  0  0
 41109  1  0  0  0
 41 48  1  0  0  0
 42 43  1  0  0  0
 42 66  1  0  0  0
 42110  1  0  0  0
 42111  1  0  0  0
 43 44  1  0  0  0
 44112  1  0  0  0
 45 46  2  0  0  0
 45113  1  0  0  0
 46114  1  0  0  0
 47115  1  0  0  0
 47116  1  0  0  0
 48 56  1  0  0  0
 48 65  1  0  0  0
 48117  1  0  0  0
 49 50  1  0  0  0
 49 53  1  0  0  0
 49 64  1  0  0  0
 49118  1  0  0  0
 50 51  1  0  0  0
 50119  1  0  0  0
 50120  1  0  0  0
 51 52  1  0  0  0
 51121  1  0  0  0
 51122  1  0  0  0
 52123  1  0  0  0
 52124  1  0  0  0
 53 54  1  0  0  0
 54 55  2  0  0  0
 54125  1  0  0  0
 55 57  1  0  0  0
 55126  1  0  0  0
 56 69  2  0  0  0
 57 58  2  0  0  0
 57127  1  0  0  0
 58128  1  0  0  0
 59 60  1  0  0  0
 59 61  1  0  0  0
 59 62  1  0  0  0
 60129  1  0  0  0
 60130  1  0  0  0
 60131  1  0  0  0
 61132  1  0  0  0
 61133  1  0  0  0
 61134  1  0  0  0
 62135  1  0  0  0
 62136  1  0  0  0
 62137  1  0  0  0
 63 65  1  0  0  0
 63138  1  0  0  0
 63139  1  0  0  0
 63140  1  0  0  0
 64141  1  0  0  0
 65142  1  0  0  0
 68 81  1  0  0  0
 71 72  2  0  0  0
 71 74  1  0  0  0
 71143  1  0  0  0
 72 76  1  0  0  0
 72144  1  0  0  0
 73 75  1  0  0  0
 73 76  2  0  0  0
 73145  1  0  0  0
 74 75  2  0  0  0
 74 79  1  0  0  0
 75 78  1  0  0  0
 76 82  1  0  0  0
 77 80  1  0  0  0
 77 81  1  0  0  0
 77 83  2  0  0  0
 78146  1  0  0  0
 78147  1  0  0  0
 78148  1  0  0  0
 79 80  1  0  0  0
 79149  1  0  0  0
 79150  1  0  0  0
 80151  1  0  0  0
 80152  1  0  0  0
 81153  1  0  0  0
 81154  1  0  0  0
 82155  1  0  0  0
M  ISO  4   1 100  68 101  81 101  82 100
M  END
> <chiral flag>
0

> <version>
0

> <s_m_source_file>
/data/baiqing/PycharmProjects/Reinvent-master-3.2/result/LINK_invent/BTK/process_docking_weight1_custom_product_contain_oxygen_bond_distance_aromatic_linkinvent_7_9_3/rearranged_h_0131.sdf

> <i_m_source_file_index>
4

> <r_mmod_Potential_Energy-OPLS-2005>
17.9788208007812

> <r_mmod_Stretch_Energy-OPLS-2005>
70.0582809448242

> <r_mmod_Bend_Energy-OPLS-2005>
128.25260925293

> <r_mmod_Torsional_Energy-OPLS-2005>
231.685317993164

> <r_mmod_Improper_Torsional_Energy-OPLS-2005>
4.53714799880981

> <r_mmod_Van_der_Waal_Energy-OPLS-2005>
139.167221069336

> <r_mmod_Electrostatic_Energy-OPLS-2005>
-369.249572753906

> <r_mmod_Solvation_Energy-OPLS-2005>
-224.110153198242

> <b_mmod_Minimization_Converged-OPLS-2005>
0

> <r_mmod_RMS_Derivative-OPLS-2005>
2.68675065040588

$$$$
4
                    3D
 Structure written by MMmdl.
156164  0  0  1  0            999 V2000
  -30.5988  -14.6296   20.5208 C   0  0  0  0  0  0
  -30.4447  -12.3891   19.4496 C   0  0  0  0  0  0
  -29.5113  -12.5207   18.2243 C   0  0  0  0  0  0
  -28.0311  -12.3635   18.6298 C   0  0  0  0  0  0
  -27.6585  -13.2140   19.8732 C   0  0  2  0  0  0
  -28.7008  -13.0287   20.9990 C   0  0  0  0  0  0
  -25.2579  -13.8166   20.5686 C   0  0  0  0  0  0
  -24.1838  -13.0435   20.9184 C   0  0  0  0  0  0
  -24.6401  -11.6904   20.8733 C   0  0  0  0  0  0
  -23.9069  -10.4289   21.0402 C   0  0  0  0  0  0
  -24.3618   -9.4206   21.9183 C   0  0  0  0  0  0
  -23.6292   -8.2243   22.0756 C   0  0  0  0  0  0
  -22.4275   -8.0282   21.3546 C   0  0  0  0  0  0
  -21.9913   -9.0254   20.4647 C   0  0  0  0  0  0
  -22.7240  -10.2133   20.3052 C   0  0  0  0  0  0
  -21.6853   -6.0734   22.5280 C   0  0  0  0  0  0
  -21.4012   -6.5636   23.8212 C   0  0  0  0  0  0
  -21.3663   -5.6792   24.9176 C   0  0  0  0  0  0
  -21.6048   -4.3055   24.7227 C   0  0  0  0  0  0
  -21.8820   -3.8145   23.4348 C   0  0  0  0  0  0
  -21.9193   -4.6961   22.3403 C   0  0  0  0  0  0
  -22.7858  -13.5233   21.1845 C   0  0  0  0  0  0
  -22.1660   -4.2146   21.0980 F   0  0  0  0  0  0
  -21.5634   -3.4543   25.7741 F   0  0  0  0  0  0
  -30.0203  -13.3886   20.4498 N   0  0  0  0  0  0
  -26.3015  -12.9341   20.3350 N   0  0  0  0  0  0
  -25.9330  -11.6497   20.5754 N   0  0  0  0  0  0
  -22.0496  -12.8230   22.0402 N   0  0  0  0  0  0
  -25.4287  -15.1884   20.4095 N   0  0  0  0  0  0
  -31.7289  -14.8439   20.0689 O   0  0  0  0  0  0
  -21.6636   -6.8880   21.4244 O   0  0  0  0  0  0
  -22.3541  -14.5539   20.6696 O   0  0  0  0  0  0
  -24.6238  -31.8593   23.2009 C   0  0  0  0  0  0
  -25.9091  -32.4777   23.8337 C   0  0  1  0  0  0
  -27.2373  -27.3354   20.1115 C   0  0  0  0  0  0
  -25.5910  -33.8576   24.2272 N   0  0  0  0  0  0
  -23.4166  -30.4799   21.5431 C   0  0  2  0  0  0
  -24.8639  -28.9283   20.1126 C   0  0  0  0  0  0
  -22.7453  -29.4620   22.4946 C   0  0  0  0  0  0
  -18.0282  -28.1386   22.8495 C   0  0  0  0  0  0
  -24.1487  -36.7291   23.2641 C   0  0  0  0  0  0
  -25.9532  -30.7951   21.3667 C   0  0  0  0  0  0
  -26.0282  -29.4211   20.7125 C   0  0  0  0  0  0
  -27.2130  -28.6341   20.7026 C   0  0  0  0  0  0
  -26.0463  -26.8767   19.5063 C   0  0  0  0  0  0
  -24.8733  -27.6608   19.5042 C   0  0  0  0  0  0
  -23.6298  -29.8063   20.1602 C   0  0  0  0  0  0
  -25.4115  -36.3085   24.0332 C   0  0  1  0  0  0
  -20.5877  -28.3684   23.1298 C   0  0  2  0  0  0
  -20.6771  -26.9411   22.5421 C   0  0  0  0  0  0
  -19.5748  -26.6385   21.5220 C   0  0  0  0  0  0
  -18.1924  -26.7932   22.1627 C   0  0  0  0  0  0
  -19.1533  -28.8854   23.2892 C   0  0  0  0  0  0
  -18.9457  -30.1457   23.8904 C   0  0  0  0  0  0
  -17.6459  -30.6592   24.0567 C   0  0  0  0  0  0
  -25.9047  -34.9453   23.5106 C   0  0  0  0  0  0
  -16.5349  -29.9093   23.6331 C   0  0  0  0  0  0
  -16.7270  -28.6509   23.0355 C   0  0  0  0  0  0
  -26.4489  -31.6584   25.0702 C   0  0  0  0  0  0
  -25.3728  -31.3710   26.1433 C   0  0  0  0  0  0
  -27.0337  -30.3017   24.6139 C   0  0  0  0  0  0
  -27.6047  -32.4318   25.7479 C   0  0  0  0  0  0
  -27.5582  -37.1799   24.8464 C   0  0  0  0  0  0
  -21.4169  -29.3035   22.3689 N   0  0  0  0  0  0
  -26.4293  -37.3781   23.9411 N   0  0  0  0  0  0
  -24.6834  -31.0618   22.0945 N   0  0  0  0  0  0
  -23.4186  -28.8173   23.3031 O   0  0  0  0  0  0
  -28.4043  -26.5656   20.1616 O   0  0  0  0  0  0
  -26.5620  -34.8922   22.4675 O   0  0  0  0  0  0
  -23.5409  -32.1380   23.7353 O   0  0  0  0  0  0
  -29.9574  -19.1873   19.5908 C   0  0  0  0  0  0
  -30.2833  -17.8098   19.8119 C   0  0  0  0  0  0
  -28.4402  -19.1337   21.4524 C   0  0  0  0  0  0
  -29.0054  -19.8799   20.3903 C   0  0  0  0  0  0
  -28.7458  -17.7591   21.6717 C   0  0  0  0  0  0
  -29.6616  -17.0496   20.8420 C   0  0  0  0  0  0
  -28.0294  -17.0363   22.8017 C   0  0  0  0  0  0
  -28.4359  -21.3047   20.0334 C   0  0  0  0  0  0
  -29.1630  -22.6273   20.5077 C   0  0  0  0  0  0
  -28.3202  -23.9829   20.6632 C   0  0  0  0  0  0
  -28.5216  -25.1869   19.6511 C   0  0  0  0  0  0
  -29.8060  -15.6081   21.0523 N   0  0  0  0  0  0
  -31.4852  -12.5249   19.1495 H   0  0  0  0  0  0
  -30.3861  -11.3849   19.8721 H   0  0  0  0  0  0
  -29.7722  -11.7778   17.4694 H   0  0  0  0  0  0
  -29.6600  -13.4950   17.7556 H   0  0  0  0  0  0
  -27.8545  -11.3074   18.8372 H   0  0  0  0  0  0
  -27.3828  -12.6196   17.7912 H   0  0  0  0  0  0
  -27.6880  -14.2576   19.5587 H   0  0  0  0  0  0
  -28.7102  -11.9924   21.3404 H   0  0  0  0  0  0
  -28.4386  -13.6193   21.8780 H   0  0  0  0  0  0
  -25.2764   -9.5685   22.4756 H   0  0  0  0  0  0
  -24.0004   -7.4640   22.7477 H   0  0  0  0  0  0
  -21.0846   -8.8773   19.8949 H   0  0  0  0  0  0
  -22.3703  -10.9673   19.6159 H   0  0  0  0  0  0
  -21.1996   -7.6142   23.9716 H   0  0  0  0  0  0
  -21.1489   -6.0520   25.9080 H   0  0  0  0  0  0
  -22.0594   -2.7605   23.2851 H   0  0  0  0  0  0
  -22.4103  -11.9882   22.4782 H   0  0  0  0  0  0
  -21.1111  -13.1254   22.2598 H   0  0  0  0  0  0
  -24.6617  -15.8428   20.5183 H   0  0  0  0  0  0
  -26.2792  -15.6287   20.0820 H   0  0  0  0  0  0
  -26.7154  -32.5452   23.1083 H   0  0  0  0  0  0
  -25.0055  -33.9717   25.0416 H   0  0  0  0  0  0
  -22.7102  -31.2998   21.3972 H   0  0  0  0  0  0
  -23.3755  -35.9615   23.3297 H   0  0  0  0  0  0
  -24.3576  -36.8918   22.2056 H   0  0  0  0  0  0
  -23.7228  -37.6486   23.6664 H   0  0  0  0  0  0
  -26.0776  -31.5580   20.5971 H   0  0  0  0  0  0
  -26.8364  -30.8486   21.9919 H   0  0  0  0  0  0
  -28.1104  -29.0131   21.1709 H   0  0  0  0  0  0
  -25.9946  -25.9019   19.0461 H   0  0  0  0  0  0
  -23.9764  -27.2733   19.0409 H   0  0  0  0  0  0
  -23.7453  -30.5785   19.3988 H   0  0  0  0  0  0
  -22.7508  -29.2320   19.8621 H   0  0  0  0  0  0
  -25.1294  -36.1940   25.0824 H   0  0  0  0  0  0
  -20.9974  -28.3262   24.1418 H   0  0  0  0  0  0
  -20.5679  -26.2295   23.3615 H   0  0  0  0  0  0
  -21.6639  -26.7446   22.1213 H   0  0  0  0  0  0
  -19.6909  -25.6297   21.1250 H   0  0  0  0  0  0
  -19.6690  -27.3199   20.6753 H   0  0  0  0  0  0
  -17.4199  -26.6692   21.4021 H   0  0  0  0  0  0
  -18.0316  -26.0070   22.9017 H   0  0  0  0  0  0
  -19.7931  -30.7277   24.2274 H   0  0  0  0  0  0
  -17.5010  -31.6273   24.5169 H   0  0  0  0  0  0
  -15.5352  -30.3000   23.7644 H   0  0  0  0  0  0
  -15.8669  -28.0832   22.7067 H   0  0  0  0  0  0
  -24.5899  -30.7068   25.7754 H   0  0  0  0  0  0
  -24.8928  -32.2876   26.4873 H   0  0  0  0  0  0
  -25.8060  -30.8869   27.0196 H   0  0  0  0  0  0
  -26.2905  -29.6759   24.1185 H   0  0  0  0  0  0
  -27.4074  -29.7279   25.4629 H   0  0  0  0  0  0
  -27.8751  -30.4320   23.9331 H   0  0  0  0  0  0
  -27.2656  -33.3615   26.2059 H   0  0  0  0  0  0
  -28.3860  -32.6878   25.0312 H   0  0  0  0  0  0
  -28.0708  -31.8438   26.5396 H   0  0  0  0  0  0
  -28.2592  -38.0104   24.7529 H   0  0  0  0  0  0
  -28.1088  -36.2637   24.6274 H   0  0  0  0  0  0
  -27.2299  -37.1432   25.8866 H   0  0  0  0  0  0
  -20.9348  -29.8744   21.6886 H   0  0  0  0  0  0
  -26.0176  -38.2855   24.1420 H   0  0  0  0  0  0
  -30.4104  -19.6996   18.7532 H   0  0  0  0  0  0
  -30.9818  -17.3294   19.1408 H   0  0  0  0  0  0
  -27.7011  -19.6109   22.0817 H   0  0  0  0  0  0
  -27.4365  -17.7237   23.4054 H   0  0  0  0  0  0
  -28.7462  -16.5521   23.4654 H   0  0  0  0  0  0
  -27.3548  -16.2766   22.4061 H   0  0  0  0  0  0
  -27.4198  -21.3324   20.4296 H   0  0  0  0  0  0
  -28.3067  -21.3516   18.9516 H   0  0  0  0  0  0
  -30.0525  -22.7992   19.9010 H   0  0  0  0  0  0
  -29.5501  -22.4061   21.5031 H   0  0  0  0  0  0
  -28.5843  -24.3843   21.6423 H   0  0  0  0  0  0
  -27.2569  -23.7563   20.7453 H   0  0  0  0  0  0
  -27.9325  -25.0338   18.7478 H   0  0  0  0  0  0
  -29.5525  -25.1273   19.3008 H   0  0  0  0  0  0
  -29.0350  -15.2079   21.5630 H   0  0  0  0  0  0
  1 25  1  0  0  0
  1 30  2  0  0  0
  1 82  1  0  0  0
  2  3  1  0  0  0
  2 25  1  0  0  0
  2 83  1  0  0  0
  2 84  1  0  0  0
  3  4  1  0  0  0
  3 85  1  0  0  0
  3 86  1  0  0  0
  4  5  1  0  0  0
  4 87  1  0  0  0
  4 88  1  0  0  0
  5  6  1  0  0  0
  5 26  1  0  0  0
  5 89  1  0  0  0
  6 25  1  0  0  0
  6 90  1  0  0  0
  6 91  1  0  0  0
  7  8  2  0  0  0
  7 26  1  0  0  0
  7 29  1  0  0  0
  8  9  1  0  0  0
  8 22  1  0  0  0
  9 10  1  0  0  0
  9 27  2  0  0  0
 10 11  2  0  0  0
 10 15  1  0  0  0
 11 12  1  0  0  0
 11 92  1  0  0  0
 12 13  2  0  0  0
 12 93  1  0  0  0
 13 14  1  0  0  0
 13 31  1  0  0  0
 14 15  2  0  0  0
 14 94  1  0  0  0
 15 95  1  0  0  0
 16 17  2  0  0  0
 16 21  1  0  0  0
 16 31  1  0  0  0
 17 18  1  0  0  0
 17 96  1  0  0  0
 18 19  2  0  0  0
 18 97  1  0  0  0
 19 20  1  0  0  0
 19 24  1  0  0  0
 20 21  2  0  0  0
 20 98  1  0  0  0
 21 23  1  0  0  0
 22 28  1  0  0  0
 22 32  2  0  0  0
 26 27  1  0  0  0
 28 99  1  0  0  0
 28100  1  0  0  0
 29101  1  0  0  0
 29102  1  0  0  0
 33 34  1  0  0  0
 33 66  1  0  0  0
 33 70  2  0  0  0
 34 36  1  0  0  0
 34 59  1  0  0  0
 34103  1  0  0  0
 35 44  2  0  0  0
 35 45  1  0  0  0
 35 68  1  0  0  0
 36 56  1  0  0  0
 36104  1  0  0  0
 37 39  1  0  0  0
 37 47  1  0  0  0
 37 66  1  0  0  0
 37105  1  0  0  0
 38 43  2  0  0  0
 38 46  1  0  0  0
 38 47  1  0  0  0
 39 64  1  0  0  0
 39 67  2  0  0  0
 40 52  1  0  0  0
 40 53  2  0  0  0
 40 58  1  0  0  0
 41106  1  0  0  0
 41107  1  0  0  0
 41108  1  0  0  0
 41 48  1  0  0  0
 42 43  1  0  0  0
 42 66  1  0  0  0
 42109  1  0  0  0
 42110  1  0  0  0
 43 44  1  0  0  0
 44111  1  0  0  0
 45 46  2  0  0  0
 45112  1  0  0  0
 46113  1  0  0  0
 47114  1  0  0  0
 47115  1  0  0  0
 48 56  1  0  0  0
 48 65  1  0  0  0
 48116  1  0  0  0
 49 50  1  0  0  0
 49 53  1  0  0  0
 49 64  1  0  0  0
 49117  1  0  0  0
 50 51  1  0  0  0
 50118  1  0  0  0
 50119  1  0  0  0
 51 52  1  0  0  0
 51120  1  0  0  0
 51121  1  0  0  0
 52122  1  0  0  0
 52123  1  0  0  0
 53 54  1  0  0  0
 54 55  2  0  0  0
 54124  1  0  0  0
 55 57  1  0  0  0
 55125  1  0  0  0
 56 69  2  0  0  0
 57 58  2  0  0  0
 57126  1  0  0  0
 58127  1  0  0  0
 59 60  1  0  0  0
 59 61  1  0  0  0
 59 62  1  0  0  0
 60128  1  0  0  0
 60129  1  0  0  0
 60130  1  0  0  0
 61131  1  0  0  0
 61132  1  0  0  0
 61133  1  0  0  0
 62134  1  0  0  0
 62135  1  0  0  0
 62136  1  0  0  0
 63 65  1  0  0  0
 63137  1  0  0  0
 63138  1  0  0  0
 63139  1  0  0  0
 64140  1  0  0  0
 65141  1  0  0  0
 68 81  1  0  0  0
 71 72  2  0  0  0
 71 74  1  0  0  0
 71142  1  0  0  0
 72 76  1  0  0  0
 72143  1  0  0  0
 73 74  2  0  0  0
 73 75  1  0  0  0
 73144  1  0  0  0
 74 78  1  0  0  0
 75 76  2  0  0  0
 75 77  1  0  0  0
 76 82  1  0  0  0
 77145  1  0  0  0
 77146  1  0  0  0
 77147  1  0  0  0
 78 79  1  0  0  0
 78148  1  0  0  0
 78149  1  0  0  0
 79 80  1  0  0  0
 79150  1  0  0  0
 79151  1  0  0  0
 80 81  1  0  0  0
 80152  1  0  0  0
 80153  1  0  0  0
 81154  1  0  0  0
 81155  1  0  0  0
 82156  1  0  0  0
M  ISO  4   1 100  68 101  81 101  82 100
M  END
> <chiral flag>
0

> <version>
0

> <s_m_source_file>
/data/baiqing/PycharmProjects/Reinvent-master-3.2/result/LINK_invent/BTK/process_docking_weight1_custom_product_contain_oxygen_bond_distance_aromatic_linkinvent_7_9_3/rearranged_h_0131.sdf

> <i_m_source_file_index>
5

> <r_mmod_Potential_Energy-OPLS-2005>
56.0194282531738

> <r_mmod_Stretch_Energy-OPLS-2005>
75.4395370483398

> <r_mmod_Bend_Energy-OPLS-2005>
159.136138916016

> <r_mmod_Torsional_Energy-OPLS-2005>
226.887954711914

> <r_mmod_Improper_Torsional_Energy-OPLS-2005>
4.29480504989624

> <r_mmod_Van_der_Waal_Energy-OPLS-2005>
136.684051513672

> <r_mmod_Electrostatic_Energy-OPLS-2005>
-387.721099853516

> <r_mmod_Solvation_Energy-OPLS-2005>
-199.807403564453

> <b_mmod_Minimization_Converged-OPLS-2005>
0

> <r_mmod_RMS_Derivative-OPLS-2005>
0.691461265087128

$$$$
5
                    3D
 Structure written by MMmdl.
161169  0  0  1  0            999 V2000
  -30.6613  -14.6297   20.5630 C   0  0  0  0  0  0
  -30.4279  -12.4038   19.4635 C   0  0  0  0  0  0
  -29.5073  -12.5317   18.2298 C   0  0  0  0  0  0
  -28.0291  -12.3630   18.6308 C   0  0  0  0  0  0
  -27.6527  -13.2198   19.8677 C   0  0  2  0  0  0
  -28.6878  -13.0544   20.9993 C   0  0  0  0  0  0
  -25.2549  -13.8179   20.5672 C   0  0  0  0  0  0
  -24.1819  -13.0439   20.9177 C   0  0  0  0  0  0
  -24.6391  -11.6911   20.8726 C   0  0  0  0  0  0
  -23.9060  -10.4295   21.0396 C   0  0  0  0  0  0
  -24.3618   -9.4211   21.9175 C   0  0  0  0  0  0
  -23.6295   -8.2247   22.0749 C   0  0  0  0  0  0
  -22.4274   -8.0284   21.3545 C   0  0  0  0  0  0
  -21.9908   -9.0253   20.4643 C   0  0  0  0  0  0
  -22.7231  -10.2134   20.3048 C   0  0  0  0  0  0
  -21.6855   -6.0735   22.5277 C   0  0  0  0  0  0
  -21.4016   -6.5637   23.8211 C   0  0  0  0  0  0
  -21.3661   -5.6791   24.9174 C   0  0  0  0  0  0
  -21.6047   -4.3055   24.7224 C   0  0  0  0  0  0
  -21.8823   -3.8142   23.4345 C   0  0  0  0  0  0
  -21.9195   -4.6960   22.3401 C   0  0  0  0  0  0
  -22.7846  -13.5232   21.1845 C   0  0  0  0  0  0
  -22.1665   -4.2145   21.0978 F   0  0  0  0  0  0
  -21.5628   -3.4540   25.7737 F   0  0  0  0  0  0
  -30.0108  -13.4177   20.4604 N   0  0  0  0  0  0
  -26.2974  -12.9365   20.3306 N   0  0  0  0  0  0
  -25.9317  -11.6515   20.5733 N   0  0  0  0  0  0
  -22.0495  -12.8223   22.0409 N   0  0  0  0  0  0
  -25.4264  -15.1899   20.4085 N   0  0  0  0  0  0
  -31.7450  -14.8022   19.9967 O   0  0  0  0  0  0
  -21.6643   -6.8877   21.4238 O   0  0  0  0  0  0
  -22.3529  -14.5540   20.6698 O   0  0  0  0  0  0
  -24.6235  -31.8593   23.1996 C   0  0  0  0  0  0
  -25.9088  -32.4769   23.8333 C   0  0  1  0  0  0
  -27.2323  -27.3250   20.1122 C   0  0  0  0  0  0
  -25.5907  -33.8572   24.2264 N   0  0  0  0  0  0
  -23.4172  -30.4794   21.5421 C   0  0  2  0  0  0
  -24.8640  -28.9282   20.1098 C   0  0  0  0  0  0
  -22.7462  -29.4615   22.4941 C   0  0  0  0  0  0
  -18.0282  -28.1373   22.8488 C   0  0  0  0  0  0
  -24.1490  -36.7301   23.2640 C   0  0  0  0  0  0
  -25.9549  -30.7906   21.3686 C   0  0  0  0  0  0
  -26.0284  -29.4163   20.7134 C   0  0  0  0  0  0
  -27.2108  -28.6243   20.7057 C   0  0  0  0  0  0
  -26.0419  -26.8745   19.4993 C   0  0  0  0  0  0
  -24.8718  -27.6628   19.4969 C   0  0  0  0  0  0
  -23.6301  -29.8066   20.1589 C   0  0  0  0  0  0
  -25.4116  -36.3085   24.0327 C   0  0  1  0  0  0
  -20.5879  -28.3678   23.1287 C   0  0  2  0  0  0
  -20.6765  -26.9401   22.5415 C   0  0  0  0  0  0
  -19.5746  -26.6376   21.5211 C   0  0  0  0  0  0
  -18.1925  -26.7920   22.1620 C   0  0  0  0  0  0
  -19.1532  -28.8842   23.2883 C   0  0  0  0  0  0
  -18.9458  -30.1446   23.8896 C   0  0  0  0  0  0
  -17.6456  -30.6578   24.0562 C   0  0  0  0  0  0
  -25.9048  -34.9449   23.5100 C   0  0  0  0  0  0
  -16.5348  -29.9079   23.6324 C   0  0  0  0  0  0
  -16.7268  -28.6493   23.0352 C   0  0  0  0  0  0
  -26.4479  -31.6584   25.0709 C   0  0  0  0  0  0
  -25.3715  -31.3725   26.1440 C   0  0  0  0  0  0
  -27.0326  -30.3010   24.6168 C   0  0  0  0  0  0
  -27.6040  -32.4326   25.7475 C   0  0  0  0  0  0
  -27.5585  -37.1804   24.8462 C   0  0  0  0  0  0
  -21.4179  -29.3036   22.3687 N   0  0  0  0  0  0
  -26.4299  -37.3777   23.9404 N   0  0  0  0  0  0
  -24.6838  -31.0609   22.0938 N   0  0  0  0  0  0
  -23.4191  -28.8167   23.3025 O   0  0  0  0  0  0
  -28.3889  -26.5374   20.1742 O   0  0  0  0  0  0
  -26.5627  -34.8919   22.4676 O   0  0  0  0  0  0
  -23.5402  -32.1393   23.7331 O   0  0  0  0  0  0
  -28.4120  -17.6639   21.4250 C   0  0  0  0  0  0
  -27.9860  -19.0107   21.2921 C   0  0  0  0  0  0
  -30.0460  -19.5604   20.2152 C   0  0  0  0  0  0
  -29.6919  -17.1980   21.0142 C   0  0  0  0  0  0
  -30.5139  -18.2013   20.3802 C   0  0  0  0  0  0
  -28.7920  -20.0125   20.7099 C   0  0  0  0  0  0
  -30.0685  -15.7617   21.4877 C   0  0  0  0  0  0
  -33.3107  -19.7551   20.9274 C   0  0  0  0  0  0
  -31.9232  -17.8336   19.9047 C   0  0  0  0  0  0
  -32.9218  -18.9838   19.6567 C   0  0  0  0  0  0
  -28.2474  -23.8905   20.4947 C   0  0  0  0  0  0
  -28.5106  -25.1808   19.5991 C   0  0  0  0  0  0
  -28.8668  -22.4840   20.0396 C   0  0  0  0  0  0
  -29.8834  -15.4995   22.7165 N   0  0  0  0  0  0
  -28.2855  -21.3315   20.7279 O   0  0  0  0  0  0
  -31.4724  -12.5118   19.1670 H   0  0  0  0  0  0
  -30.3529  -11.4039   19.8934 H   0  0  0  0  0  0
  -29.7774  -11.7901   17.4767 H   0  0  0  0  0  0
  -29.6528  -13.5081   17.7648 H   0  0  0  0  0  0
  -27.8619  -11.3071   18.8478 H   0  0  0  0  0  0
  -27.3784  -12.6079   17.7904 H   0  0  0  0  0  0
  -27.6806  -14.2614   19.5474 H   0  0  0  0  0  0
  -28.7012  -12.0232   21.3548 H   0  0  0  0  0  0
  -28.3885  -13.6454   21.8614 H   0  0  0  0  0  0
  -25.2765   -9.5693   22.4743 H   0  0  0  0  0  0
  -24.0007   -7.4641   22.7471 H   0  0  0  0  0  0
  -21.0839   -8.8769   19.8951 H   0  0  0  0  0  0
  -22.3684  -10.9674   19.6158 H   0  0  0  0  0  0
  -21.2010   -7.6146   23.9713 H   0  0  0  0  0  0
  -21.1480   -6.0521   25.9079 H   0  0  0  0  0  0
  -22.0600   -2.7603   23.2845 H   0  0  0  0  0  0
  -22.4121  -11.9887   22.4795 H   0  0  0  0  0  0
  -21.1116  -13.1247   22.2625 H   0  0  0  0  0  0
  -24.6557  -15.8419   20.5037 H   0  0  0  0  0  0
  -26.2748  -15.6273   20.0726 H   0  0  0  0  0  0
  -26.7154  -32.5436   23.1080 H   0  0  0  0  0  0
  -25.0043  -33.9722   25.0399 H   0  0  0  0  0  0
  -22.7098  -31.2985   21.3965 H   0  0  0  0  0  0
  -23.3750  -35.9636   23.3303 H   0  0  0  0  0  0
  -24.3579  -36.8927   22.2056 H   0  0  0  0  0  0
  -23.7248  -37.6503   23.6668 H   0  0  0  0  0  0
  -26.0849  -31.5527   20.5989 H   0  0  0  0  0  0
  -26.8356  -30.8408   21.9976 H   0  0  0  0  0  0
  -28.1074  -28.9982   21.1807 H   0  0  0  0  0  0
  -25.9876  -25.9001   19.0380 H   0  0  0  0  0  0
  -23.9745  -27.2816   19.0289 H   0  0  0  0  0  0
  -23.7426  -30.5789   19.3972 H   0  0  0  0  0  0
  -22.7512  -29.2311   19.8630 H   0  0  0  0  0  0
  -25.1297  -36.1939   25.0818 H   0  0  0  0  0  0
  -20.9967  -28.3254   24.1410 H   0  0  0  0  0  0
  -20.5655  -26.2292   23.3618 H   0  0  0  0  0  0
  -21.6635  -26.7424   22.1216 H   0  0  0  0  0  0
  -19.6910  -25.6288   21.1241 H   0  0  0  0  0  0
  -19.6681  -27.3184   20.6737 H   0  0  0  0  0  0
  -17.4198  -26.6669   21.4020 H   0  0  0  0  0  0
  -18.0322  -26.0056   22.9006 H   0  0  0  0  0  0
  -19.7933  -30.7263   24.2263 H   0  0  0  0  0  0
  -17.5011  -31.6257   24.5166 H   0  0  0  0  0  0
  -15.5347  -30.2980   23.7646 H   0  0  0  0  0  0
  -15.8670  -28.0811   22.7066 H   0  0  0  0  0  0
  -24.5895  -30.7063   25.7777 H   0  0  0  0  0  0
  -24.8891  -32.2884   26.4857 H   0  0  0  0  0  0
  -25.8039  -30.8915   27.0222 H   0  0  0  0  0  0
  -26.2900  -29.6755   24.1199 H   0  0  0  0  0  0
  -27.4033  -29.7274   25.4673 H   0  0  0  0  0  0
  -27.8760  -30.4301   23.9383 H   0  0  0  0  0  0
  -27.2648  -33.3622   26.2061 H   0  0  0  0  0  0
  -28.3834  -32.6899   25.0291 H   0  0  0  0  0  0
  -28.0728  -31.8452   26.5380 H   0  0  0  0  0  0
  -28.2602  -38.0101   24.7505 H   0  0  0  0  0  0
  -28.1079  -36.2632   24.6286 H   0  0  0  0  0  0
  -27.2304  -37.1452   25.8866 H   0  0  0  0  0  0
  -20.9359  -29.8755   21.6894 H   0  0  0  0  0  0
  -26.0182  -38.2857   24.1391 H   0  0  0  0  0  0
  -27.7376  -16.9780   21.9207 H   0  0  0  0  0  0
  -27.0147  -19.2848   21.6796 H   0  0  0  0  0  0
  -30.6795  -20.2961   19.7471 H   0  0  0  0  0  0
  -34.0668  -20.5086   20.7052 H   0  0  0  0  0  0
  -33.7253  -19.0846   21.6806 H   0  0  0  0  0  0
  -32.4593  -20.2671   21.3746 H   0  0  0  0  0  0
  -31.8211  -17.2559   18.9849 H   0  0  0  0  0  0
  -32.3792  -17.1727   20.6412 H   0  0  0  0  0  0
  -33.8317  -18.5525   19.2368 H   0  0  0  0  0  0
  -32.5567  -19.6633   18.8863 H   0  0  0  0  0  0
  -27.1680  -23.7773   20.5965 H   0  0  0  0  0  0
  -28.6108  -24.0945   21.5019 H   0  0  0  0  0  0
  -27.9629  -25.1030   18.6606 H   0  0  0  0  0  0
  -29.5551  -25.1247   19.2923 H   0  0  0  0  0  0
  -29.9470  -22.5009   20.1899 H   0  0  0  0  0  0
  -28.7034  -22.3458   18.9705 H   0  0  0  0  0  0
  -29.5106  -16.3057   23.2033 H   0  0  0  0  0  0
  1 25  1  0  0  0
  1 30  2  0  0  0
  1 77  1  0  0  0
  2  3  1  0  0  0
  2 25  1  0  0  0
  2 86  1  0  0  0
  2 87  1  0  0  0
  3  4  1  0  0  0
  3 88  1  0  0  0
  3 89  1  0  0  0
  4  5  1  0  0  0
  4 90  1  0  0  0
  4 91  1  0  0  0
  5  6  1  0  0  0
  5 26  1  0  0  0
  5 92  1  0  0  0
  6 25  1  0  0  0
  6 93  1  0  0  0
  6 94  1  0  0  0
  7  8  2  0  0  0
  7 26  1  0  0  0
  7 29  1  0  0  0
  8  9  1  0  0  0
  8 22  1  0  0  0
  9 10  1  0  0  0
  9 27  2  0  0  0
 10 11  2  0  0  0
 10 15  1  0  0  0
 11 12  1  0  0  0
 11 95  1  0  0  0
 12 13  2  0  0  0
 12 96  1  0  0  0
 13 14  1  0  0  0
 13 31  1  0  0  0
 14 15  2  0  0  0
 14 97  1  0  0  0
 15 98  1  0  0  0
 16 17  2  0  0  0
 16 21  1  0  0  0
 16 31  1  0  0  0
 17 18  1  0  0  0
 17 99  1  0  0  0
 18 19  2  0  0  0
 18100  1  0  0  0
 19 20  1  0  0  0
 19 24  1  0  0  0
 20 21  2  0  0  0
 20101  1  0  0  0
 21 23  1  0  0  0
 22 28  1  0  0  0
 22 32  2  0  0  0
 26 27  1  0  0  0
 28102  1  0  0  0
 28103  1  0  0  0
 29104  1  0  0  0
 29105  1  0  0  0
 33 34  1  0  0  0
 33 66  1  0  0  0
 33 70  2  0  0  0
 34 36  1  0  0  0
 34 59  1  0  0  0
 34106  1  0  0  0
 35 44  2  0  0  0
 35 45  1  0  0  0
 35 68  1  0  0  0
 36 56  1  0  0  0
 36107  1  0  0  0
 37 39  1  0  0  0
 37 47  1  0  0  0
 37 66  1  0  0  0
 37108  1  0  0  0
 38 43  2  0  0  0
 38 46  1  0  0  0
 38 47  1  0  0  0
 39 64  1  0  0  0
 39 67  2  0  0  0
 40 52  1  0  0  0
 40 53  2  0  0  0
 40 58  1  0  0  0
 41109  1  0  0  0
 41110  1  0  0  0
 41111  1  0  0  0
 41 48  1  0  0  0
 42 43  1  0  0  0
 42 66  1  0  0  0
 42112  1  0  0  0
 42113  1  0  0  0
 43 44  1  0  0  0
 44114  1  0  0  0
 45 46  2  0  0  0
 45115  1  0  0  0
 46116  1  0  0  0
 47117  1  0  0  0
 47118  1  0  0  0
 48 56  1  0  0  0
 48 65  1  0  0  0
 48119  1  0  0  0
 49 50  1  0  0  0
 49 53  1  0  0  0
 49 64  1  0  0  0
 49120  1  0  0  0
 50 51  1  0  0  0
 50121  1  0  0  0
 50122  1  0  0  0
 51 52  1  0  0  0
 51123  1  0  0  0
 51124  1  0  0  0
 52125  1  0  0  0
 52126  1  0  0  0
 53 54  1  0  0  0
 54 55  2  0  0  0
 54127  1  0  0  0
 55 57  1  0  0  0
 55128  1  0  0  0
 56 69  2  0  0  0
 57 58  2  0  0  0
 57129  1  0  0  0
 58130  1  0  0  0
 59 60  1  0  0  0
 59 61  1  0  0  0
 59 62  1  0  0  0
 60131  1  0  0  0
 60132  1  0  0  0
 60133  1  0  0  0
 61134  1  0  0  0
 61135  1  0  0  0
 61136  1  0  0  0
 62137  1  0  0  0
 62138  1  0  0  0
 62139  1  0  0  0
 63 65  1  0  0  0
 63140  1  0  0  0
 63141  1  0  0  0
 63142  1  0  0  0
 64143  1  0  0  0
 65144  1  0  0  0
 68 82  1  0  0  0
 71 72  2  0  0  0
 71 74  1  0  0  0
 71145  1  0  0  0
 72 76  1  0  0  0
 72146  1  0  0  0
 73 75  1  0  0  0
 73 76  2  0  0  0
 73147  1  0  0  0
 74 75  2  0  0  0
 74 77  1  0  0  0
 75 79  1  0  0  0
 76 85  1  0  0  0
 77 84  2  0  0  0
 78 80  1  0  0  0
 78148  1  0  0  0
 78149  1  0  0  0
 78150  1  0  0  0
 79 80  1  0  0  0
 79151  1  0  0  0
 79152  1  0  0  0
 80153  1  0  0  0
 80154  1  0  0  0
 81 82  1  0  0  0
 81 83  1  0  0  0
 81155  1  0  0  0
 81156  1  0  0  0
 82157  1  0  0  0
 82158  1  0  0  0
 83 85  1  0  0  0
 83159  1  0  0  0
 83160  1  0  0  0
 84161  1  0  0  0
M  ISO  4   1 100  68 101  77 100  82 101
M  END
> <chiral flag>
0

> <version>
0

> <s_m_source_file>
/data/baiqing/PycharmProjects/Reinvent-master-3.2/result/LINK_invent/BTK/process_docking_weight1_custom_product_contain_oxygen_bond_distance_aromatic_linkinvent_7_9_3/rearranged_h_0131.sdf

> <i_m_source_file_index>
6

> <r_mmod_Potential_Energy-OPLS-2005>
278.627227783203

> <r_mmod_Stretch_Energy-OPLS-2005>
96.141471862793

> <r_mmod_Bend_Energy-OPLS-2005>
193.437652587891

> <r_mmod_Torsional_Energy-OPLS-2005>
213.218292236328

> <r_mmod_Improper_Torsional_Energy-OPLS-2005>
3.57169675827026

> <r_mmod_Van_der_Waal_Energy-OPLS-2005>
145.027770996094

> <r_mmod_Electrostatic_Energy-OPLS-2005>
-222.693557739258

> <r_mmod_Solvation_Energy-OPLS-2005>
-192.141479492188

> <b_mmod_Minimization_Converged-OPLS-2005>
0

> <r_mmod_RMS_Derivative-OPLS-2005>
0.824107825756073

$$$$
6
                    3D
 Structure written by MMmdl.
168177  0  0  1  0            999 V2000
  -30.7333  -14.4134   20.5753 C   0  0  0  0  0  0
  -30.4079  -12.2677   19.4314 C   0  0  0  0  0  0
  -29.4920  -12.4979   18.2117 C   0  0  0  0  0  0
  -28.0111  -12.3713   18.6171 C   0  0  0  0  0  0
  -27.6606  -13.2091   19.8770 C   0  0  2  0  0  0
  -28.6966  -12.9880   21.0019 C   0  0  0  0  0  0
  -25.2578  -13.8175   20.5682 C   0  0  0  0  0  0
  -24.1828  -13.0448   20.9164 C   0  0  0  0  0  0
  -24.6383  -11.6917   20.8724 C   0  0  0  0  0  0
  -23.9051  -10.4306   21.0395 C   0  0  0  0  0  0
  -24.3609   -9.4221   21.9175 C   0  0  0  0  0  0
  -23.6288   -8.2254   22.0744 C   0  0  0  0  0  0
  -22.4270   -8.0285   21.3537 C   0  0  0  0  0  0
  -21.9908   -9.0262   20.4643 C   0  0  0  0  0  0
  -22.7228  -10.2144   20.3041 C   0  0  0  0  0  0
  -21.6846   -6.0737   22.5282 C   0  0  0  0  0  0
  -21.4015   -6.5641   23.8217 C   0  0  0  0  0  0
  -21.3658   -5.6795   24.9182 C   0  0  0  0  0  0
  -21.6041   -4.3054   24.7234 C   0  0  0  0  0  0
  -21.8818   -3.8145   23.4356 C   0  0  0  0  0  0
  -21.9189   -4.6965   22.3410 C   0  0  0  0  0  0
  -22.7854  -13.5244   21.1851 C   0  0  0  0  0  0
  -22.1654   -4.2147   21.0991 F   0  0  0  0  0  0
  -21.5630   -3.4541   25.7745 F   0  0  0  0  0  0
  -30.0359  -13.2544   20.4567 N   0  0  0  0  0  0
  -26.3017  -12.9350   20.3376 N   0  0  0  0  0  0
  -25.9311  -11.6502   20.5763 N   0  0  0  0  0  0
  -22.0500  -12.8232   22.0415 N   0  0  0  0  0  0
  -25.4319  -15.1894   20.4114 N   0  0  0  0  0  0
  -31.8600  -14.5607   20.0947 O   0  0  0  0  0  0
  -21.6633   -6.8881   21.4240 O   0  0  0  0  0  0
  -22.3532  -14.5559   20.6716 O   0  0  0  0  0  0
  -24.6093  -31.8716   23.2133 C   0  0  0  0  0  0
  -25.9009  -32.4839   23.8414 C   0  0  1  0  0  0
  -27.2371  -27.4727   20.1071 C   0  0  0  0  0  0
  -25.5885  -33.8637   24.2350 N   0  0  0  0  0  0
  -23.3956  -30.4941   21.5520 C   0  0  2  0  0  0
  -24.8451  -28.9630   20.1165 C   0  0  0  0  0  0
  -22.7380  -29.4675   22.5012 C   0  0  0  0  0  0
  -18.0264  -28.1370   22.8497 C   0  0  0  0  0  0
  -24.1485  -36.7325   23.2638 C   0  0  0  0  0  0
  -25.9183  -30.8495   21.3610 C   0  0  0  0  0  0
  -25.9980  -29.4837   20.7180 C   0  0  0  0  0  0
  -27.1975  -28.7442   20.7181 C   0  0  0  0  0  0
  -26.0786  -26.9634   19.4892 C   0  0  0  0  0  0
  -24.8774  -27.6986   19.5004 C   0  0  0  0  0  0
  -23.6030  -29.8235   20.1664 C   0  0  0  0  0  0
  -25.4102  -36.3124   24.0345 C   0  0  1  0  0  0
  -20.5851  -28.3652   23.1334 C   0  0  2  0  0  0
  -20.6756  -26.9394   22.5421 C   0  0  0  0  0  0
  -19.5740  -26.6383   21.5212 C   0  0  0  0  0  0
  -18.1917  -26.7920   22.1620 C   0  0  0  0  0  0
  -19.1513  -28.8825   23.2915 C   0  0  0  0  0  0
  -18.9447  -30.1433   23.8920 C   0  0  0  0  0  0
  -17.6451  -30.6579   24.0567 C   0  0  0  0  0  0
  -25.9023  -34.9487   23.5142 C   0  0  0  0  0  0
  -16.5339  -29.9085   23.6324 C   0  0  0  0  0  0
  -16.7254  -28.6501   23.0347 C   0  0  0  0  0  0
  -26.4460  -31.6599   25.0717 C   0  0  0  0  0  0
  -25.3747  -31.3698   26.1482 C   0  0  0  0  0  0
  -27.0280  -30.3049   24.6052 C   0  0  0  0  0  0
  -27.6046  -32.4310   25.7473 C   0  0  0  0  0  0
  -27.5583  -37.1815   24.8464 C   0  0  0  0  0  0
  -21.4114  -29.3027   22.3746 N   0  0  0  0  0  0
  -26.4295  -37.3800   23.9410 N   0  0  0  0  0  0
  -24.6589  -31.0853   22.1014 N   0  0  0  0  0  0
  -23.4172  -28.8229   23.3046 O   0  0  0  0  0  0
  -28.3804  -26.7179   20.0633 O   0  0  0  0  0  0
  -26.5580  -34.8931   22.4700 O   0  0  0  0  0  0
  -23.5299  -32.1451   23.7553 O   0  0  0  0  0  0
  -29.3969  -18.5495   21.7132 C   0  0  0  0  0  0
  -29.1135  -19.9280   21.8071 C   0  0  0  0  0  0
  -28.5113  -18.5383   19.4521 C   0  0  0  0  0  0
  -29.1676  -17.8678   20.5006 C   0  0  0  0  0  0
  -28.5715  -20.6353   20.7080 C   0  0  0  0  0  0
  -28.2094  -19.9123   19.5382 C   0  0  0  0  0  0
  -29.6826  -16.5193   20.2398 C   0  0  0  0  0  0
  -30.0177  -15.5547   21.1197 C   0  0  0  0  0  0
  -29.9356  -22.7488   20.5798 C   0  0  0  0  0  0
  -27.8515  -22.7803   21.9884 C   0  0  0  0  0  0
  -29.8805  -24.2703   20.3998 C   0  0  0  0  0  0
  -27.7616  -24.3140   21.8315 C   0  0  0  0  0  0
  -28.5223  -22.1660   20.7470 C   0  0  2  0  0  0
  -29.1394  -24.9674   21.5603 C   0  0  2  0  0  0
  -26.0677  -20.8714   18.5630 C   0  0  0  0  0  0
  -27.5542  -20.5678   18.3267 C   0  0  0  0  0  0
  -29.0334  -26.4871   21.3126 C   0  0  0  0  0  0
  -31.4569  -12.3323   19.1375 H   0  0  0  0  0  0
  -30.2777  -11.2581   19.8231 H   0  0  0  0  0  0
  -29.7247  -11.7795   17.4248 H   0  0  0  0  0  0
  -29.6770  -13.4860   17.7877 H   0  0  0  0  0  0
  -27.8109  -11.3164   18.8064 H   0  0  0  0  0  0
  -27.3660  -12.6555   17.7851 H   0  0  0  0  0  0
  -27.7081  -14.2580   19.5843 H   0  0  0  0  0  0
  -28.6524  -11.9596   21.3620 H   0  0  0  0  0  0
  -28.4681  -13.6111   21.8671 H   0  0  0  0  0  0
  -25.2761   -9.5700   22.4741 H   0  0  0  0  0  0
  -23.9993   -7.4641   22.7463 H   0  0  0  0  0  0
  -21.0834   -8.8784   19.8953 H   0  0  0  0  0  0
  -22.3689  -10.9675   19.6140 H   0  0  0  0  0  0
  -21.2011   -7.6149   23.9726 H   0  0  0  0  0  0
  -21.1474   -6.0523   25.9083 H   0  0  0  0  0  0
  -22.0598   -2.7607   23.2856 H   0  0  0  0  0  0
  -22.4101  -11.9876   22.4786 H   0  0  0  0  0  0
  -21.1118  -13.1247   22.2630 H   0  0  0  0  0  0
  -24.6753  -15.8518   20.5396 H   0  0  0  0  0  0
  -26.3052  -15.6308   20.1510 H   0  0  0  0  0  0
  -26.7083  -32.5579   23.1190 H   0  0  0  0  0  0
  -25.0054  -33.9806   25.0507 H   0  0  0  0  0  0
  -22.6826  -31.3093   21.4135 H   0  0  0  0  0  0
  -23.3737  -35.9669   23.3318 H   0  0  0  0  0  0
  -24.3582  -36.8913   22.2048 H   0  0  0  0  0  0
  -23.7244  -37.6544   23.6631 H   0  0  0  0  0  0
  -26.0199  -31.6125   20.5880 H   0  0  0  0  0  0
  -26.8105  -30.9106   21.9722 H   0  0  0  0  0  0
  -28.0882  -29.1517   21.1755 H   0  0  0  0  0  0
  -26.1071  -25.9944   19.0113 H   0  0  0  0  0  0
  -23.9928  -27.2926   19.0290 H   0  0  0  0  0  0
  -23.7048  -30.5971   19.4044 H   0  0  0  0  0  0
  -22.7296  -29.2372   19.8746 H   0  0  0  0  0  0
  -25.1277  -36.1998   25.0839 H   0  0  0  0  0  0
  -20.9941  -28.3207   24.1454 H   0  0  0  0  0  0
  -20.5657  -26.2257   23.3603 H   0  0  0  0  0  0
  -21.6631  -26.7443   22.1215 H   0  0  0  0  0  0
  -19.6903  -25.6298   21.1231 H   0  0  0  0  0  0
  -19.6683  -27.3204   20.6755 H   0  0  0  0  0  0
  -17.4191  -26.6673   21.4017 H   0  0  0  0  0  0
  -18.0314  -26.0050   22.9007 H   0  0  0  0  0  0
  -19.7925  -30.7242   24.2296 H   0  0  0  0  0  0
  -17.5010  -31.6268   24.5160 H   0  0  0  0  0  0
  -15.5343  -30.2999   23.7634 H   0  0  0  0  0  0
  -15.8654  -28.0832   22.7046 H   0  0  0  0  0  0
  -24.5903  -30.7061   25.7829 H   0  0  0  0  0  0
  -24.8961  -32.2855   26.4966 H   0  0  0  0  0  0
  -25.8117  -30.8844   27.0218 H   0  0  0  0  0  0
  -26.2808  -29.6820   24.1120 H   0  0  0  0  0  0
  -27.4084  -29.7268   25.4484 H   0  0  0  0  0  0
  -27.8628  -30.4382   23.9166 H   0  0  0  0  0  0
  -27.2669  -33.3593   26.2097 H   0  0  0  0  0  0
  -28.3832  -32.6896   25.0284 H   0  0  0  0  0  0
  -28.0741  -31.8406   26.5352 H   0  0  0  0  0  0
  -28.2610  -38.0104   24.7504 H   0  0  0  0  0  0
  -28.1070  -36.2636   24.6295 H   0  0  0  0  0  0
  -27.2308  -37.1472   25.8871 H   0  0  0  0  0  0
  -20.9259  -29.8749   21.6979 H   0  0  0  0  0  0
  -26.0192  -38.2886   24.1396 H   0  0  0  0  0  0
  -29.8833  -18.0512   22.5397 H   0  0  0  0  0  0
  -29.3891  -20.4534   22.7106 H   0  0  0  0  0  0
  -28.3014  -18.0042   18.5350 H   0  0  0  0  0  0
  -29.8797  -16.3276   19.1917 H   0  0  0  0  0  0
  -29.8271  -15.6404   22.1794 H   0  0  0  0  0  0
  -30.5557  -22.4920   21.4397 H   0  0  0  0  0  0
  -30.4177  -22.3047   19.7079 H   0  0  0  0  0  0
  -26.8492  -22.3678   22.1102 H   0  0  0  0  0  0
  -28.4045  -22.5322   22.8945 H   0  0  0  0  0  0
  -29.3829  -24.4874   19.4537 H   0  0  0  0  0  0
  -30.8921  -24.6675   20.3081 H   0  0  0  0  0  0
  -27.3138  -24.7483   22.7260 H   0  0  0  0  0  0
  -27.0792  -24.5451   21.0127 H   0  0  0  0  0  0
  -27.9335  -22.5207   19.9056 H   0  0  0  0  0  0
  -29.7401  -24.8290   22.4604 H   0  0  0  0  0  0
  -25.6197  -21.3319   17.6824 H   0  0  0  0  0  0
  -25.9159  -21.5482   19.4041 H   0  0  0  0  0  0
  -25.5140  -19.9563   18.7741 H   0  0  0  0  0  0
  -27.6405  -19.9054   17.4643 H   0  0  0  0  0  0
  -28.0997  -21.4661   18.0383 H   0  0  0  0  0  0
  -30.0292  -26.9294   21.2654 H   0  0  0  0  0  0
  -28.5247  -26.9555   22.1576 H   0  0  0  0  0  0
  1 25  1  0  0  0
  1 30  2  0  0  0
  1 78  1  0  0  0
  2  3  1  0  0  0
  2 25  1  0  0  0
  2 88  1  0  0  0
  2 89  1  0  0  0
  3  4  1  0  0  0
  3 90  1  0  0  0
  3 91  1  0  0  0
  4  5  1  0  0  0
  4 92  1  0  0  0
  4 93  1  0  0  0
  5  6  1  0  0  0
  5 26  1  0  0  0
  5 94  1  0  0  0
  6 25  1  0  0  0
  6 95  1  0  0  0
  6 96  1  0  0  0
  7  8  2  0  0  0
  7 26  1  0  0  0
  7 29  1  0  0  0
  8  9  1  0  0  0
  8 22  1  0  0  0
  9 10  1  0  0  0
  9 27  2  0  0  0
 10 11  2  0  0  0
 10 15  1  0  0  0
 11 12  1  0  0  0
 11 97  1  0  0  0
 12 13  2  0  0  0
 12 98  1  0  0  0
 13 14  1  0  0  0
 13 31  1  0  0  0
 14 15  2  0  0  0
 14 99  1  0  0  0
 15100  1  0  0  0
 16 17  2  0  0  0
 16 21  1  0  0  0
 16 31  1  0  0  0
 17 18  1  0  0  0
 17101  1  0  0  0
 18 19  2  0  0  0
 18102  1  0  0  0
 19 20  1  0  0  0
 19 24  1  0  0  0
 20 21  2  0  0  0
 20103  1  0  0  0
 21 23  1  0  0  0
 22 28  1  0  0  0
 22 32  2  0  0  0
 26 27  1  0  0  0
 28104  1  0  0  0
 28105  1  0  0  0
 29106  1  0  0  0
 29107  1  0  0  0
 33 34  1  0  0  0
 33 66  1  0  0  0
 33 70  2  0  0  0
 34 36  1  0  0  0
 34 59  1  0  0  0
 34108  1  0  0  0
 35 44  2  0  0  0
 35 45  1  0  0  0
 35 68  1  0  0  0
 36 56  1  0  0  0
 36109  1  0  0  0
 37 39  1  0  0  0
 37 47  1  0  0  0
 37 66  1  0  0  0
 37110  1  0  0  0
 38 43  2  0  0  0
 38 46  1  0  0  0
 38 47  1  0  0  0
 39 64  1  0  0  0
 39 67  2  0  0  0
 40 52  1  0  0  0
 40 53  2  0  0  0
 40 58  1  0  0  0
 41111  1  0  0  0
 41112  1  0  0  0
 41113  1  0  0  0
 41 48  1  0  0  0
 42 43  1  0  0  0
 42 66  1  0  0  0
 42114  1  0  0  0
 42115  1  0  0  0
 43 44  1  0  0  0
 44116  1  0  0  0
 45 46  2  0  0  0
 45117  1  0  0  0
 46118  1  0  0  0
 47119  1  0  0  0
 47120  1  0  0  0
 48 56  1  0  0  0
 48 65  1  0  0  0
 48121  1  0  0  0
 49 50  1  0  0  0
 49 53  1  0  0  0
 49 64  1  0  0  0
 49122  1  0  0  0
 50 51  1  0  0  0
 50123  1  0  0  0
 50124  1  0  0  0
 51 52  1  0  0  0
 51125  1  0  0  0
 51126  1  0  0  0
 52127  1  0  0  0
 52128  1  0  0  0
 53 54  1  0  0  0
 54 55  2  0  0  0
 54129  1  0  0  0
 55 57  1  0  0  0
 55130  1  0  0  0
 56 69  2  0  0  0
 57 58  2  0  0  0
 57131  1  0  0  0
 58132  1  0  0  0
 59 60  1  0  0  0
 59 61  1  0  0  0
 59 62  1  0  0  0
 60133  1  0  0  0
 60134  1  0  0  0
 60135  1  0  0  0
 61136  1  0  0  0
 61137  1  0  0  0
 61138  1  0  0  0
 62139  1  0  0  0
 62140  1  0  0  0
 62141  1  0  0  0
 63 65  1  0  0  0
 63142  1  0  0  0
 63143  1  0  0  0
 63144  1  0  0  0
 64145  1  0  0  0
 65146  1  0  0  0
 68 87  1  0  0  0
 71 72  2  0  0  0
 71 74  1  0  0  0
 71147  1  0  0  0
 72 75  1  0  0  0
 72148  1  0  0  0
 73 74  2  0  0  0
 73 76  1  0  0  0
 73149  1  0  0  0
 74 77  1  0  0  0
 75 76  2  0  0  0
 75 83  1  0  0  0
 76 86  1  0  0  0
 77 78  2  0  0  0
 77150  1  0  0  0
 78151  1  0  0  0
 79 81  1  0  0  0
 79 83  1  0  0  0
 79152  1  0  0  0
 79153  1  0  0  0
 80 82  1  0  0  0
 80 83  1  0  0  0
 80154  1  0  0  0
 80155  1  0  0  0
 81 84  1  0  0  0
 81156  1  0  0  0
 81157  1  0  0  0
 82 84  1  0  0  0
 82158  1  0  0  0
 82159  1  0  0  0
 83160  1  0  0  0
 84 87  1  0  0  0
 84161  1  0  0  0
 85 86  1  0  0  0
 85162  1  0  0  0
 85163  1  0  0  0
 85164  1  0  0  0
 86165  1  0  0  0
 86166  1  0  0  0
 87167  1  0  0  0
 87168  1  0  0  0
M  ISO  4   1 100  68 101  78 100  87 101
M  END
> <chiral flag>
0

> <version>
0

> <s_m_source_file>
/data/baiqing/PycharmProjects/Reinvent-master-3.2/result/LINK_invent/BTK/process_docking_weight1_custom_product_contain_oxygen_bond_distance_aromatic_linkinvent_7_9_3/rearranged_h_0131.sdf

> <i_m_source_file_index>
7

> <r_mmod_Potential_Energy-OPLS-2005>
33.2667999267578

> <r_mmod_Stretch_Energy-OPLS-2005>
33.1381225585938

> <r_mmod_Bend_Energy-OPLS-2005>
101.063659667969

> <r_mmod_Torsional_Energy-OPLS-2005>
253.643997192383

> <r_mmod_Improper_Torsional_Energy-OPLS-2005>
6.25973844528198

> <r_mmod_Van_der_Waal_Energy-OPLS-2005>
153.479568481445

> <r_mmod_Electrostatic_Energy-OPLS-2005>
-345.134857177734

> <r_mmod_Solvation_Energy-OPLS-2005>
-178.899276733398

> <b_mmod_Minimization_Converged-OPLS-2005>
0

> <r_mmod_RMS_Derivative-OPLS-2005>
1.02161574363708

$$$$
7
                    3D
 Structure written by MMmdl.
159167  0  0  1  0            999 V2000
  -30.7460  -14.3902   20.6557 C   0  0  0  0  0  0
  -30.4196  -12.2887   19.4000 C   0  0  0  0  0  0
  -29.4883  -12.5212   18.1947 C   0  0  0  0  0  0
  -28.0106  -12.3797   18.6088 C   0  0  0  0  0  0
  -27.6665  -13.2017   19.8792 C   0  0  2  0  0  0
  -28.7045  -12.9406   20.9932 C   0  0  0  0  0  0
  -25.2604  -13.8155   20.5668 C   0  0  0  0  0  0
  -24.1845  -13.0439   20.9162 C   0  0  0  0  0  0
  -24.6391  -11.6903   20.8720 C   0  0  0  0  0  0
  -23.9053  -10.4291   21.0391 C   0  0  0  0  0  0
  -24.3607   -9.4211   21.9175 C   0  0  0  0  0  0
  -23.6285   -8.2247   22.0752 C   0  0  0  0  0  0
  -22.4267   -8.0279   21.3544 C   0  0  0  0  0  0
  -21.9898   -9.0249   20.4644 C   0  0  0  0  0  0
  -22.7224  -10.2128   20.3045 C   0  0  0  0  0  0
  -21.6852   -6.0731   22.5279 C   0  0  0  0  0  0
  -21.4013   -6.5636   23.8213 C   0  0  0  0  0  0
  -21.3659   -5.6790   24.9177 C   0  0  0  0  0  0
  -21.6045   -4.3052   24.7228 C   0  0  0  0  0  0
  -21.8819   -3.8142   23.4350 C   0  0  0  0  0  0
  -21.9192   -4.6958   22.3404 C   0  0  0  0  0  0
  -22.7868  -13.5240   21.1830 C   0  0  0  0  0  0
  -22.1660   -4.2142   21.0982 F   0  0  0  0  0  0
  -21.5629   -3.4537   25.7741 F   0  0  0  0  0  0
  -30.0452  -13.2425   20.4554 N   0  0  0  0  0  0
  -26.3044  -12.9318   20.3369 N   0  0  0  0  0  0
  -25.9316  -11.6479   20.5747 N   0  0  0  0  0  0
  -22.0502  -12.8237   22.0384 N   0  0  0  0  0  0
  -25.4345  -15.1873   20.4086 N   0  0  0  0  0  0
  -31.8010  -14.6371   20.0622 O   0  0  0  0  0  0
  -21.6637   -6.8872   21.4241 O   0  0  0  0  0  0
  -22.3555  -14.5548   20.6678 O   0  0  0  0  0  0
  -24.6122  -31.8690   23.2112 C   0  0  0  0  0  0
  -25.9021  -32.4831   23.8401 C   0  0  1  0  0  0
  -27.2337  -27.4623   20.0916 C   0  0  0  0  0  0
  -25.5878  -33.8628   24.2327 N   0  0  0  0  0  0
  -23.3996  -30.4933   21.5501 C   0  0  2  0  0  0
  -24.8478  -28.9613   20.1127 C   0  0  0  0  0  0
  -22.7406  -29.4664   22.4987 C   0  0  0  0  0  0
  -18.0275  -28.1378   22.8499 C   0  0  0  0  0  0
  -24.1485  -36.7322   23.2640 C   0  0  0  0  0  0
  -25.9249  -30.8424   21.3604 C   0  0  0  0  0  0
  -26.0047  -29.4787   20.7097 C   0  0  0  0  0  0
  -27.2044  -28.7343   20.7006 C   0  0  0  0  0  0
  -26.0669  -26.9504   19.4912 C   0  0  0  0  0  0
  -24.8712  -27.6939   19.5028 C   0  0  0  0  0  0
  -23.6074  -29.8259   20.1638 C   0  0  0  0  0  0
  -25.4104  -36.3117   24.0341 C   0  0  1  0  0  0
  -20.5861  -28.3658   23.1321 C   0  0  2  0  0  0
  -20.6766  -26.9397   22.5418 C   0  0  0  0  0  0
  -19.5744  -26.6384   21.5217 C   0  0  0  0  0  0
  -18.1923  -26.7926   22.1626 C   0  0  0  0  0  0
  -19.1525  -28.8832   23.2910 C   0  0  0  0  0  0
  -18.9457  -30.1442   23.8917 C   0  0  0  0  0  0
  -17.6463  -30.6583   24.0571 C   0  0  0  0  0  0
  -25.9027  -34.9480   23.5130 C   0  0  0  0  0  0
  -16.5351  -29.9093   23.6324 C   0  0  0  0  0  0
  -16.7266  -28.6511   23.0344 C   0  0  0  0  0  0
  -26.4464  -31.6602   25.0717 C   0  0  0  0  0  0
  -25.3745  -31.3709   26.1482 C   0  0  0  0  0  0
  -27.0290  -30.3048   24.6065 C   0  0  0  0  0  0
  -27.6038  -32.4325   25.7481 C   0  0  0  0  0  0
  -27.5583  -37.1816   24.8470 C   0  0  0  0  0  0
  -21.4135  -29.3028   22.3731 N   0  0  0  0  0  0
  -26.4294  -37.3795   23.9413 N   0  0  0  0  0  0
  -24.6635  -31.0819   22.0999 N   0  0  0  0  0  0
  -23.4191  -28.8200   23.3016 O   0  0  0  0  0  0
  -28.3755  -26.7030   20.0891 O   0  0  0  0  0  0
  -26.5591  -34.8935   22.4699 O   0  0  0  0  0  0
  -23.5315  -32.1422   23.7518 O   0  0  0  0  0  0
  -29.9193  -18.7844   22.6932 C   0  0  0  0  0  0
  -32.2626  -18.3087   22.2615 C   0  0  0  0  0  0
  -29.5853  -17.4721   22.2983 C   0  0  0  0  0  0
  -31.9304  -16.9985   21.8667 C   0  0  0  0  0  0
  -31.2657  -19.2148   22.6814 C   0  0  0  0  0  0
  -30.5828  -16.5688   21.8735 C   0  0  0  0  0  0
  -31.7053  -20.5883   23.1872 C   0  0  0  0  0  0
  -30.6520  -21.7172   23.2546 C   0  0  0  0  0  0
  -30.3864  -22.4492   21.9242 C   0  0  0  0  0  0
  -29.4765  -23.6777   22.1269 C   0  0  0  0  0  0
  -29.3505  -24.6008   20.8993 C   0  0  0  0  0  0
  -28.4180  -25.7907   21.1858 C   0  0  0  0  0  0
  -30.1803  -15.2488   21.5219 N   0  0  0  0  0  0
  -31.4634  -12.3867   19.0961 H   0  0  0  0  0  0
  -30.3168  -11.2671   19.7693 H   0  0  0  0  0  0
  -29.7215  -11.8155   17.3961 H   0  0  0  0  0  0
  -29.6614  -13.5167   17.7832 H   0  0  0  0  0  0
  -27.8149  -11.3219   18.7876 H   0  0  0  0  0  0
  -27.3595  -12.6720   17.7839 H   0  0  0  0  0  0
  -27.7246  -14.2559   19.6064 H   0  0  0  0  0  0
  -28.6706  -11.8935   21.2976 H   0  0  0  0  0  0
  -28.4531  -13.5029   21.8928 H   0  0  0  0  0  0
  -25.2754   -9.5688   22.4746 H   0  0  0  0  0  0
  -23.9994   -7.4639   22.7471 H   0  0  0  0  0  0
  -21.0831   -8.8764   19.8951 H   0  0  0  0  0  0
  -22.3683  -10.9662   19.6148 H   0  0  0  0  0  0
  -21.2004   -7.6143   23.9716 H   0  0  0  0  0  0
  -21.1481   -6.0520   25.9079 H   0  0  0  0  0  0
  -22.0598   -2.7603   23.2854 H   0  0  0  0  0  0
  -22.4105  -11.9898   22.4783 H   0  0  0  0  0  0
  -21.1117  -13.1264   22.2571 H   0  0  0  0  0  0
  -24.6713  -15.8463   20.5181 H   0  0  0  0  0  0
  -26.2921  -15.6246   20.0940 H   0  0  0  0  0  0
  -26.7095  -32.5556   23.1169 H   0  0  0  0  0  0
  -25.0040  -33.9792   25.0477 H   0  0  0  0  0  0
  -22.6869  -31.3090   21.4113 H   0  0  0  0  0  0
  -23.3736  -35.9665   23.3318 H   0  0  0  0  0  0
  -24.3580  -36.8915   22.2052 H   0  0  0  0  0  0
  -23.7250  -37.6539   23.6643 H   0  0  0  0  0  0
  -26.0314  -31.6085   20.5907 H   0  0  0  0  0  0
  -26.8145  -30.8968   21.9756 H   0  0  0  0  0  0
  -28.0984  -29.1267   21.1636 H   0  0  0  0  0  0
  -26.0835  -25.9753   19.0251 H   0  0  0  0  0  0
  -23.9804  -27.2884   19.0422 H   0  0  0  0  0  0
  -23.7141  -30.6013   19.4045 H   0  0  0  0  0  0
  -22.7319  -29.2449   19.8681 H   0  0  0  0  0  0
  -25.1276  -36.1984   25.0831 H   0  0  0  0  0  0
  -20.9953  -28.3219   24.1440 H   0  0  0  0  0  0
  -20.5666  -26.2267   23.3602 H   0  0  0  0  0  0
  -21.6640  -26.7441   22.1212 H   0  0  0  0  0  0
  -19.6912  -25.6300   21.1230 H   0  0  0  0  0  0
  -19.6690  -27.3216   20.6764 H   0  0  0  0  0  0
  -17.4199  -26.6682   21.4021 H   0  0  0  0  0  0
  -18.0315  -26.0060   22.9009 H   0  0  0  0  0  0
  -19.7937  -30.7249   24.2286 H   0  0  0  0  0  0
  -17.5026  -31.6266   24.5173 H   0  0  0  0  0  0
  -15.5356  -30.3008   23.7639 H   0  0  0  0  0  0
  -15.8666  -28.0845   22.7035 H   0  0  0  0  0  0
  -24.5906  -30.7061   25.7845 H   0  0  0  0  0  0
  -24.8952  -32.2867   26.4952 H   0  0  0  0  0  0
  -25.8111  -30.8882   27.0229 H   0  0  0  0  0  0
  -26.2823  -29.6818   24.1128 H   0  0  0  0  0  0
  -27.4089  -29.7276   25.4503 H   0  0  0  0  0  0
  -27.8644  -30.4384   23.9185 H   0  0  0  0  0  0
  -27.2644  -33.3607   26.2090 H   0  0  0  0  0  0
  -28.3831  -32.6909   25.0303 H   0  0  0  0  0  0
  -28.0720  -31.8431   26.5374 H   0  0  0  0  0  0
  -28.2607  -38.0106   24.7493 H   0  0  0  0  0  0
  -28.1062  -36.2631   24.6303 H   0  0  0  0  0  0
  -27.2300  -37.1482   25.8873 H   0  0  0  0  0  0
  -20.9284  -29.8761   21.6971 H   0  0  0  0  0  0
  -26.0185  -38.2876   24.1402 H   0  0  0  0  0  0
  -29.1249  -19.4366   23.0220 H   0  0  0  0  0  0
  -33.3022  -18.6072   22.2650 H   0  0  0  0  0  0
  -28.5488  -17.1653   22.3298 H   0  0  0  0  0  0
  -32.7314  -16.3308   21.5829 H   0  0  0  0  0  0
  -32.5572  -20.9281   22.5964 H   0  0  0  0  0  0
  -32.0971  -20.4288   24.1930 H   0  0  0  0  0  0
  -31.0472  -22.4614   23.9478 H   0  0  0  0  0  0
  -29.7245  -21.3817   23.7172 H   0  0  0  0  0  0
  -29.9427  -21.7642   21.2005 H   0  0  0  0  0  0
  -31.3374  -22.7733   21.4989 H   0  0  0  0  0  0
  -29.8611  -24.2724   22.9580 H   0  0  0  0  0  0
  -28.4848  -23.3424   22.4328 H   0  0  0  0  0  0
  -28.9725  -24.0369   20.0457 H   0  0  0  0  0  0
  -30.3362  -24.9715   20.6163 H   0  0  0  0  0  0
  -28.7589  -26.3308   22.0705 H   0  0  0  0  0  0
  -27.4220  -25.4063   21.4191 H   0  0  0  0  0  0
  -29.2870  -14.9467   21.8790 H   0  0  0  0  0  0
  1 25  1  0  0  0
  1 30  2  0  0  0
  1 83  1  0  0  0
  2  3  1  0  0  0
  2 25  1  0  0  0
  2 84  1  0  0  0
  2 85  1  0  0  0
  3  4  1  0  0  0
  3 86  1  0  0  0
  3 87  1  0  0  0
  4  5  1  0  0  0
  4 88  1  0  0  0
  4 89  1  0  0  0
  5  6  1  0  0  0
  5 26  1  0  0  0
  5 90  1  0  0  0
  6 25  1  0  0  0
  6 91  1  0  0  0
  6 92  1  0  0  0
  7  8  2  0  0  0
  7 26  1  0  0  0
  7 29  1  0  0  0
  8  9  1  0  0  0
  8 22  1  0  0  0
  9 10  1  0  0  0
  9 27  2  0  0  0
 10 11  2  0  0  0
 10 15  1  0  0  0
 11 12  1  0  0  0
 11 93  1  0  0  0
 12 13  2  0  0  0
 12 94  1  0  0  0
 13 14  1  0  0  0
 13 31  1  0  0  0
 14 15  2  0  0  0
 14 95  1  0  0  0
 15 96  1  0  0  0
 16 17  2  0  0  0
 16 21  1  0  0  0
 16 31  1  0  0  0
 17 18  1  0  0  0
 17 97  1  0  0  0
 18 19  2  0  0  0
 18 98  1  0  0  0
 19 20  1  0  0  0
 19 24  1  0  0  0
 20 21  2  0  0  0
 20 99  1  0  0  0
 21 23  1  0  0  0
 22 28  1  0  0  0
 22 32  2  0  0  0
 26 27  1  0  0  0
 28100  1  0  0  0
 28101  1  0  0  0
 29102  1  0  0  0
 29103  1  0  0  0
 33 34  1  0  0  0
 33 66  1  0  0  0
 33 70  2  0  0  0
 34 36  1  0  0  0
 34 59  1  0  0  0
 34104  1  0  0  0
 35 44  2  0  0  0
 35 45  1  0  0  0
 35 68  1  0  0  0
 36 56  1  0  0  0
 36105  1  0  0  0
 37 39  1  0  0  0
 37 47  1  0  0  0
 37 66  1  0  0  0
 37106  1  0  0  0
 38 43  2  0  0  0
 38 46  1  0  0  0
 38 47  1  0  0  0
 39 64  1  0  0  0
 39 67  2  0  0  0
 40 52  1  0  0  0
 40 53  2  0  0  0
 40 58  1  0  0  0
 41107  1  0  0  0
 41108  1  0  0  0
 41109  1  0  0  0
 41 48  1  0  0  0
 42 43  1  0  0  0
 42 66  1  0  0  0
 42110  1  0  0  0
 42111  1  0  0  0
 43 44  1  0  0  0
 44112  1  0  0  0
 45 46  2  0  0  0
 45113  1  0  0  0
 46114  1  0  0  0
 47115  1  0  0  0
 47116  1  0  0  0
 48 56  1  0  0  0
 48 65  1  0  0  0
 48117  1  0  0  0
 49 50  1  0  0  0
 49 53  1  0  0  0
 49 64  1  0  0  0
 49118  1  0  0  0
 50 51  1  0  0  0
 50119  1  0  0  0
 50120  1  0  0  0
 51 52  1  0  0  0
 51121  1  0  0  0
 51122  1  0  0  0
 52123  1  0  0  0
 52124  1  0  0  0
 53 54  1  0  0  0
 54 55  2  0  0  0
 54125  1  0  0  0
 55 57  1  0  0  0
 55126  1  0  0  0
 56 69  2  0  0  0
 57 58  2  0  0  0
 57127  1  0  0  0
 58128  1  0  0  0
 59 60  1  0  0  0
 59 61  1  0  0  0
 59 62  1  0  0  0
 60129  1  0  0  0
 60130  1  0  0  0
 60131  1  0  0  0
 61132  1  0  0  0
 61133  1  0  0  0
 61134  1  0  0  0
 62135  1  0  0  0
 62136  1  0  0  0
 62137  1  0  0  0
 63 65  1  0  0  0
 63138  1  0  0  0
 63139  1  0  0  0
 63140  1  0  0  0
 64141  1  0  0  0
 65142  1  0  0  0
 68 82  1  0  0  0
 71 73  2  0  0  0
 71 75  1  0  0  0
 71143  1  0  0  0
 72 74  1  0  0  0
 72 75  2  0  0  0
 72144  1  0  0  0
 73 76  1  0  0  0
 73145  1  0  0  0
 74 76  2  0  0  0
 74146  1  0  0  0
 75 77  1  0  0  0
 76 83  1  0  0  0
 77 78  1  0  0  0
 77147  1  0  0  0
 77148  1  0  0  0
 78 79  1  0  0  0
 78149  1  0  0  0
 78150  1  0  0  0
 79 80  1  0  0  0
 79151  1  0  0  0
 79152  1  0  0  0
 80 81  1  0  0  0
 80153  1  0  0  0
 80154  1  0  0  0
 81 82  1  0  0  0
 81155  1  0  0  0
 81156  1  0  0  0
 82157  1  0  0  0
 82158  1  0  0  0
 83159  1  0  0  0
M  ISO  4   1 100  68 101  82 101  83 100
M  END
> <chiral flag>
0

> <version>
0

> <s_m_source_file>
/data/baiqing/PycharmProjects/Reinvent-master-3.2/result/LINK_invent/BTK/process_docking_weight1_custom_product_contain_oxygen_bond_distance_aromatic_linkinvent_7_9_3/rearranged_h_0131.sdf

> <i_m_source_file_index>
8

> <r_mmod_Potential_Energy-OPLS-2005>
-30.8333435058594

> <r_mmod_Stretch_Energy-OPLS-2005>
32.8229713439941

> <r_mmod_Bend_Energy-OPLS-2005>
95.6967544555664

> <r_mmod_Torsional_Energy-OPLS-2005>
234.519149780273

> <r_mmod_Improper_Torsional_Energy-OPLS-2005>
2.23053193092346

> <r_mmod_Van_der_Waal_Energy-OPLS-2005>
154.152770996094

> <r_mmod_Electrostatic_Energy-OPLS-2005>
-361.456237792969

> <r_mmod_Solvation_Energy-OPLS-2005>
-196.275436401367

> <b_mmod_Minimization_Converged-OPLS-2005>
0

> <r_mmod_RMS_Derivative-OPLS-2005>
1.06177568435669

$$$$
8
                    3D
 Structure written by MMmdl.
161169  0  0  1  0            999 V2000
  -30.6976  -14.5733   20.4560 C   0  0  0  0  0  0
  -30.4232  -12.3392   19.4580 C   0  0  0  0  0  0
  -29.5061  -12.4712   18.2231 C   0  0  0  0  0  0
  -28.0295  -12.3072   18.6283 C   0  0  0  0  0  0
  -27.6428  -13.2054   19.8324 C   0  0  2  0  0  0
  -28.6893  -13.1241   20.9692 C   0  0  0  0  0  0
  -25.2585  -13.8124   20.5680 C   0  0  0  0  0  0
  -24.1843  -13.0426   20.9190 C   0  0  0  0  0  0
  -24.6391  -11.6882   20.8727 C   0  0  0  0  0  0
  -23.9040  -10.4295   21.0420 C   0  0  0  0  0  0
  -24.3604   -9.4225   21.9207 C   0  0  0  0  0  0
  -23.6291   -8.2257   22.0781 C   0  0  0  0  0  0
  -22.4270   -8.0287   21.3570 C   0  0  0  0  0  0
  -21.9887   -9.0255   20.4680 C   0  0  0  0  0  0
  -22.7199  -10.2140   20.3084 C   0  0  0  0  0  0
  -21.6861   -6.0742   22.5286 C   0  0  0  0  0  0
  -21.4019   -6.5655   23.8213 C   0  0  0  0  0  0
  -21.3644   -5.6811   24.9175 C   0  0  0  0  0  0
  -21.6043   -4.3077   24.7230 C   0  0  0  0  0  0
  -21.8815   -3.8152   23.4360 C   0  0  0  0  0  0
  -21.9203   -4.6970   22.3412 C   0  0  0  0  0  0
  -22.7869  -13.5247   21.1864 C   0  0  0  0  0  0
  -22.1684   -4.2157   21.0988 F   0  0  0  0  0  0
  -21.5625   -3.4566   25.7746 F   0  0  0  0  0  0
  -30.0207  -13.3884   20.4090 N   0  0  0  0  0  0
  -26.2955  -12.9273   20.3167 N   0  0  0  0  0  0
  -25.9299  -11.6447   20.5668 N   0  0  0  0  0  0
  -22.0495  -12.8261   22.0417 N   0  0  0  0  0  0
  -25.4353  -15.1855   20.4207 N   0  0  0  0  0  0
  -31.9091  -14.6226   20.2394 O   0  0  0  0  0  0
  -21.6652   -6.8880   21.4245 O   0  0  0  0  0  0
  -22.3570  -14.5563   20.6704 O   0  0  0  0  0  0
  -24.6168  -31.8647   23.2057 C   0  0  0  0  0  0
  -25.9074  -32.4781   23.8347 C   0  0  1  0  0  0
  -27.2346  -27.4002   20.1465 C   0  0  0  0  0  0
  -25.5931  -33.8585   24.2291 N   0  0  0  0  0  0
  -23.4047  -30.4851   21.5429 C   0  0  2  0  0  0
  -24.8571  -28.9436   20.1122 C   0  0  0  0  0  0
  -22.7407  -29.4650   22.4950 C   0  0  0  0  0  0
  -18.0282  -28.1366   22.8420 C   0  0  0  0  0  0
  -24.1500  -36.7298   23.2636 C   0  0  0  0  0  0
  -25.9364  -30.8174   21.3697 C   0  0  0  0  0  0
  -26.0124  -29.4502   20.7210 C   0  0  0  0  0  0
  -27.2056  -28.6880   20.7303 C   0  0  0  0  0  0
  -26.0655  -26.9118   19.5227 C   0  0  0  0  0  0
  -24.8808  -27.6757   19.5043 C   0  0  0  0  0  0
  -23.6189  -29.8132   20.1582 C   0  0  0  0  0  0
  -25.4118  -36.3065   24.0318 C   0  0  1  0  0  0
  -20.5860  -28.3670   23.1289 C   0  0  2  0  0  0
  -20.6770  -26.9399   22.5432 C   0  0  0  0  0  0
  -19.5818  -26.6414   21.5129 C   0  0  0  0  0  0
  -18.1954  -26.7962   22.1458 C   0  0  0  0  0  0
  -19.1520  -28.8826   23.2868 C   0  0  0  0  0  0
  -18.9451  -30.1408   23.8925 C   0  0  0  0  0  0
  -17.6462  -30.6561   24.0580 C   0  0  0  0  0  0
  -25.9048  -34.9445   23.5100 C   0  0  0  0  0  0
  -16.5361  -29.9071   23.6319 C   0  0  0  0  0  0
  -16.7264  -28.6486   23.0317 C   0  0  0  0  0  0
  -26.4504  -31.6586   25.0709 C   0  0  0  0  0  0
  -25.3764  -31.3756   26.1458 C   0  0  0  0  0  0
  -27.0392  -30.3007   24.6198 C   0  0  0  0  0  0
  -27.6055  -32.4325   25.7503 C   0  0  0  0  0  0
  -27.5569  -37.1814   24.8461 C   0  0  0  0  0  0
  -21.4129  -29.3029   22.3679 N   0  0  0  0  0  0
  -26.4298  -37.3753   23.9386 N   0  0  0  0  0  0
  -24.6686  -31.0735   22.0963 N   0  0  0  0  0  0
  -23.4156  -28.8208   23.3022 O   0  0  0  0  0  0
  -28.3890  -26.6411   20.1622 O   0  0  0  0  0  0
  -26.5613  -34.8908   22.4662 O   0  0  0  0  0  0
  -23.5367  -32.1454   23.7434 O   0  0  0  0  0  0
  -28.8156  -19.5033   18.1220 C   0  0  0  0  0  0
  -29.3483  -18.3413   18.7024 C   0  0  0  0  0  0
  -28.6406  -20.6608   18.8973 C   0  0  0  0  0  0
  -29.7531  -18.3146   20.0560 C   0  0  0  0  0  0
  -28.9916  -20.6780   20.2633 C   0  0  0  0  0  0
  -29.5812  -19.5024   20.8438 C   0  0  0  0  0  0
  -30.4110  -17.0466   20.4968 C   0  0  0  0  0  0
  -29.8814  -15.7997   20.3613 C   0  0  0  0  0  0
  -28.8905  -19.0850   23.2593 C   0  0  0  0  0  0
  -28.6279  -21.9597   21.0495 C   0  0  0  0  0  0
  -30.0146  -19.5109   22.3058 C   0  0  0  0  0  0
  -29.7085  -23.0764   21.1086 C   0  0  0  0  0  0
  -29.4624  -24.4223   20.3492 C   0  0  0  0  0  0
  -28.2968  -25.3439   20.8004 C   0  0  0  0  0  0
  -31.4729  -12.4178   19.1685 H   0  0  0  0  0  0
  -30.3122  -11.3553   19.9136 H   0  0  0  0  0  0
  -29.7729  -11.7227   17.4754 H   0  0  0  0  0  0
  -29.6538  -13.4425   17.7492 H   0  0  0  0  0  0
  -27.8688  -11.2577   18.8781 H   0  0  0  0  0  0
  -27.3838  -12.5194   17.7761 H   0  0  0  0  0  0
  -27.6253  -14.2135   19.4298 H   0  0  0  0  0  0
  -28.6765  -12.1374   21.4348 H   0  0  0  0  0  0
  -28.4567  -13.8408   21.7585 H   0  0  0  0  0  0
  -25.2774   -9.5736   22.4743 H   0  0  0  0  0  0
  -24.0024   -7.4667   22.7506 H   0  0  0  0  0  0
  -21.0821   -8.8752   19.9005 H   0  0  0  0  0  0
  -22.3648  -10.9669   19.6182 H   0  0  0  0  0  0
  -21.2015   -7.6165   23.9713 H   0  0  0  0  0  0
  -21.1465   -6.0560   25.9075 H   0  0  0  0  0  0
  -22.0600   -2.7619   23.2859 H   0  0  0  0  0  0
  -22.4062  -11.9881   22.4785 H   0  0  0  0  0  0
  -21.1121  -13.1317   22.2595 H   0  0  0  0  0  0
  -24.6832  -15.8476   20.5781 H   0  0  0  0  0  0
  -26.3091  -15.6324   20.1737 H   0  0  0  0  0  0
  -26.7138  -32.5464   23.1093 H   0  0  0  0  0  0
  -25.0110  -33.9740   25.0451 H   0  0  0  0  0  0
  -22.6935  -31.3001   21.3992 H   0  0  0  0  0  0
  -23.3729  -35.9666   23.3338 H   0  0  0  0  0  0
  -24.3583  -36.8892   22.2042 H   0  0  0  0  0  0
  -23.7317  -37.6540   23.6647 H   0  0  0  0  0  0
  -26.0722  -31.5781   20.6009 H   0  0  0  0  0  0
  -26.8155  -30.8589   22.0010 H   0  0  0  0  0  0
  -28.0907  -29.0746   21.2161 H   0  0  0  0  0  0
  -26.0665  -25.9392   19.0524 H   0  0  0  0  0  0
  -23.9961  -27.2796   19.0233 H   0  0  0  0  0  0
  -23.7324  -30.5875   19.3988 H   0  0  0  0  0  0
  -22.7434  -29.2347   19.8561 H   0  0  0  0  0  0
  -25.1304  -36.1909   25.0811 H   0  0  0  0  0  0
  -20.9934  -28.3252   24.1405 H   0  0  0  0  0  0
  -20.5550  -26.2294   23.3628 H   0  0  0  0  0  0
  -21.6686  -26.7400   22.1344 H   0  0  0  0  0  0
  -19.6994  -25.6332   21.1148 H   0  0  0  0  0  0
  -19.6837  -27.3206   20.6653 H   0  0  0  0  0  0
  -17.4279  -26.6780   21.3780 H   0  0  0  0  0  0
  -18.0271  -26.0038   22.8748 H   0  0  0  0  0  0
  -19.7946  -30.7175   24.2322 H   0  0  0  0  0  0
  -17.5042  -31.6228   24.5205 H   0  0  0  0  0  0
  -15.5364  -30.2973   23.7661 H   0  0  0  0  0  0
  -15.8644  -28.0822   22.7033 H   0  0  0  0  0  0
  -24.5819  -30.7253   25.7778 H   0  0  0  0  0  0
  -24.9117  -32.2979   26.4962 H   0  0  0  0  0  0
  -25.8063  -30.8827   27.0186 H   0  0  0  0  0  0
  -26.3013  -29.6712   24.1210 H   0  0  0  0  0  0
  -27.4088  -29.7285   25.4726 H   0  0  0  0  0  0
  -27.8862  -30.4293   23.9453 H   0  0  0  0  0  0
  -27.2609  -33.3533   26.2214 H   0  0  0  0  0  0
  -28.3816  -32.7042   25.0336 H   0  0  0  0  0  0
  -28.0809  -31.8401   26.5339 H   0  0  0  0  0  0
  -28.2611  -38.0080   24.7434 H   0  0  0  0  0  0
  -28.1038  -36.2609   24.6362 H   0  0  0  0  0  0
  -27.2289  -37.1553   25.8868 H   0  0  0  0  0  0
  -20.9305  -29.8714   21.6869 H   0  0  0  0  0  0
  -26.0172  -38.2840   24.1332 H   0  0  0  0  0  0
  -28.5343  -19.5064   17.0773 H   0  0  0  0  0  0
  -29.4842  -17.4663   18.0808 H   0  0  0  0  0  0
  -28.2064  -21.5379   18.4378 H   0  0  0  0  0  0
  -31.4337  -17.1461   20.8384 H   0  0  0  0  0  0
  -28.8481  -15.7412   20.0760 H   0  0  0  0  0  0
  -29.2441  -19.0829   24.2905 H   0  0  0  0  0  0
  -28.5345  -18.0807   23.0260 H   0  0  0  0  0  0
  -28.0338  -19.7571   23.2095 H   0  0  0  0  0  0
  -28.3532  -21.6815   22.0662 H   0  0  0  0  0  0
  -27.7041  -22.3692   20.6403 H   0  0  0  0  0  0
  -30.3760  -20.5035   22.5738 H   0  0  0  0  0  0
  -30.8749  -18.8563   22.4443 H   0  0  0  0  0  0
  -30.6479  -22.6565   20.7464 H   0  0  0  0  0  0
  -29.8944  -23.3049   22.1592 H   0  0  0  0  0  0
  -29.3595  -24.2269   19.2815 H   0  0  0  0  0  0
  -30.3788  -25.0049   20.4605 H   0  0  0  0  0  0
  -28.3323  -25.4982   21.8812 H   0  0  0  0  0  0
  -27.3521  -24.8443   20.5879 H   0  0  0  0  0  0
  1 25  1  0  0  0
  1 30  2  0  0  0
  1 78  1  0  0  0
  2  3  1  0  0  0
  2 25  1  0  0  0
  2 85  1  0  0  0
  2 86  1  0  0  0
  3  4  1  0  0  0
  3 87  1  0  0  0
  3 88  1  0  0  0
  4  5  1  0  0  0
  4 89  1  0  0  0
  4 90  1  0  0  0
  5  6  1  0  0  0
  5 26  1  0  0  0
  5 91  1  0  0  0
  6 25  1  0  0  0
  6 92  1  0  0  0
  6 93  1  0  0  0
  7  8  2  0  0  0
  7 26  1  0  0  0
  7 29  1  0  0  0
  8  9  1  0  0  0
  8 22  1  0  0  0
  9 10  1  0  0  0
  9 27  2  0  0  0
 10 11  2  0  0  0
 10 15  1  0  0  0
 11 12  1  0  0  0
 11 94  1  0  0  0
 12 13  2  0  0  0
 12 95  1  0  0  0
 13 14  1  0  0  0
 13 31  1  0  0  0
 14 15  2  0  0  0
 14 96  1  0  0  0
 15 97  1  0  0  0
 16 17  2  0  0  0
 16 21  1  0  0  0
 16 31  1  0  0  0
 17 18  1  0  0  0
 17 98  1  0  0  0
 18 19  2  0  0  0
 18 99  1  0  0  0
 19 20  1  0  0  0
 19 24  1  0  0  0
 20 21  2  0  0  0
 20100  1  0  0  0
 21 23  1  0  0  0
 22 28  1  0  0  0
 22 32  2  0  0  0
 26 27  1  0  0  0
 28101  1  0  0  0
 28102  1  0  0  0
 29103  1  0  0  0
 29104  1  0  0  0
 33 34  1  0  0  0
 33 66  1  0  0  0
 33 70  2  0  0  0
 34 36  1  0  0  0
 34 59  1  0  0  0
 34105  1  0  0  0
 35 44  2  0  0  0
 35 45  1  0  0  0
 35 68  1  0  0  0
 36 56  1  0  0  0
 36106  1  0  0  0
 37 39  1  0  0  0
 37 47  1  0  0  0
 37 66  1  0  0  0
 37107  1  0  0  0
 38 43  2  0  0  0
 38 46  1  0  0  0
 38 47  1  0  0  0
 39 64  1  0  0  0
 39 67  2  0  0  0
 40 52  1  0  0  0
 40 53  2  0  0  0
 40 58  1  0  0  0
 41108  1  0  0  0
 41109  1  0  0  0
 41110  1  0  0  0
 41 48  1  0  0  0
 42 43  1  0  0  0
 42 66  1  0  0  0
 42111  1  0  0  0
 42112  1  0  0  0
 43 44  1  0  0  0
 44113  1  0  0  0
 45 46  2  0  0  0
 45114  1  0  0  0
 46115  1  0  0  0
 47116  1  0  0  0
 47117  1  0  0  0
 48 56  1  0  0  0
 48 65  1  0  0  0
 48118  1  0  0  0
 49 50  1  0  0  0
 49 53  1  0  0  0
 49 64  1  0  0  0
 49119  1  0  0  0
 50 51  1  0  0  0
 50120  1  0  0  0
 50121  1  0  0  0
 51 52  1  0  0  0
 51122  1  0  0  0
 51123  1  0  0  0
 52124  1  0  0  0
 52125  1  0  0  0
 53 54  1  0  0  0
 54 55  2  0  0  0
 54126  1  0  0  0
 55 57  1  0  0  0
 55127  1  0  0  0
 56 69  2  0  0  0
 57 58  2  0  0  0
 57128  1  0  0  0
 58129  1  0  0  0
 59 60  1  0  0  0
 59 61  1  0  0  0
 59 62  1  0  0  0
 60130  1  0  0  0
 60131  1  0  0  0
 60132  1  0  0  0
 61133  1  0  0  0
 61134  1  0  0  0
 61135  1  0  0  0
 62136  1  0  0  0
 62137  1  0  0  0
 62138  1  0  0  0
 63 65  1  0  0  0
 63139  1  0  0  0
 63140  1  0  0  0
 63141  1  0  0  0
 64142  1  0  0  0
 65143  1  0  0  0
 68 84  1  0  0  0
 71 72  2  0  0  0
 71 73  1  0  0  0
 71144  1  0  0  0
 72 74  1  0  0  0
 72145  1  0  0  0
 73 75  2  0  0  0
 73146  1  0  0  0
 74 76  2  0  0  0
 74 77  1  0  0  0
 75 76  1  0  0  0
 75 80  1  0  0  0
 76 81  1  0  0  0
 77 78  2  0  0  0
 77147  1  0  0  0
 78148  1  0  0  0
 79 81  1  0  0  0
 79149  1  0  0  0
 79150  1  0  0  0
 79151  1  0  0  0
 80 82  1  0  0  0
 80152  1  0  0  0
 80153  1  0  0  0
 81154  1  0  0  0
 81155  1  0  0  0
 82 83  1  0  0  0
 82156  1  0  0  0
 82157  1  0  0  0
 83 84  1  0  0  0
 83158  1  0  0  0
 83159  1  0  0  0
 84160  1  0  0  0
 84161  1  0  0  0
M  ISO  4   1 100  68 101  78 100  84 101
M  END
> <chiral flag>
0

> <version>
0

> <s_m_source_file>
/data/baiqing/PycharmProjects/Reinvent-master-3.2/result/LINK_invent/BTK/process_docking_weight1_custom_product_contain_oxygen_bond_distance_aromatic_linkinvent_7_9_3/rearranged_h_0131.sdf

> <i_m_source_file_index>
9

> <r_mmod_Potential_Energy-OPLS-2005>
76.2927093505859

> <r_mmod_Stretch_Energy-OPLS-2005>
48.0307655334473

> <r_mmod_Bend_Energy-OPLS-2005>
109.062171936035

> <r_mmod_Torsional_Energy-OPLS-2005>
255.489562988281

> <r_mmod_Improper_Torsional_Energy-OPLS-2005>
13.8616371154785

> <r_mmod_Van_der_Waal_Energy-OPLS-2005>
142.629043579102

> <r_mmod_Electrostatic_Energy-OPLS-2005>
-343.946411132812

> <r_mmod_Solvation_Energy-OPLS-2005>
-185.221786499023

> <b_mmod_Minimization_Converged-OPLS-2005>
0

> <r_mmod_RMS_Derivative-OPLS-2005>
3.30563259124756

$$$$
9
                    3D
 Structure written by MMmdl.
156164  0  0  1  0            999 V2000
  -30.6664  -14.5744   20.5015 C   0  0  0  0  0  0
  -30.4298  -12.3542   19.4452 C   0  0  0  0  0  0
  -29.4977  -12.4742   18.2197 C   0  0  0  0  0  0
  -28.0212  -12.3243   18.6363 C   0  0  0  0  0  0
  -27.6463  -13.2095   19.8539 C   0  0  2  0  0  0
  -28.6916  -13.0766   20.9837 C   0  0  0  0  0  0
  -25.2513  -13.8151   20.5650 C   0  0  0  0  0  0
  -24.1774  -13.0438   20.9191 C   0  0  0  0  0  0
  -24.6342  -11.6905   20.8749 C   0  0  0  0  0  0
  -23.9008  -10.4292   21.0414 C   0  0  0  0  0  0
  -24.3579   -9.4203   21.9190 C   0  0  0  0  0  0
  -23.6273   -8.2225   22.0748 C   0  0  0  0  0  0
  -22.4259   -8.0265   21.3536 C   0  0  0  0  0  0
  -21.9881   -9.0222   20.4632 C   0  0  0  0  0  0
  -22.7184  -10.2115   20.3053 C   0  0  0  0  0  0
  -21.6867   -6.0712   22.5274 C   0  0  0  0  0  0
  -21.4016   -6.5629   23.8200 C   0  0  0  0  0  0
  -21.3658   -5.6779   24.9171 C   0  0  0  0  0  0
  -21.6049   -4.3042   24.7224 C   0  0  0  0  0  0
  -21.8822   -3.8130   23.4351 C   0  0  0  0  0  0
  -21.9192   -4.6937   22.3405 C   0  0  0  0  0  0
  -22.7793  -13.5212   21.1878 C   0  0  0  0  0  0
  -22.1656   -4.2118   21.0979 F   0  0  0  0  0  0
  -21.5633   -3.4538   25.7745 F   0  0  0  0  0  0
  -30.0110  -13.3824   20.4089 N   0  0  0  0  0  0
  -26.2929  -12.9327   20.3276 N   0  0  0  0  0  0
  -25.9270  -11.6496   20.5752 N   0  0  0  0  0  0
  -22.0456  -12.8190   22.0439 N   0  0  0  0  0  0
  -25.4222  -15.1870   20.4018 N   0  0  0  0  0  0
  -31.8567  -14.6913   20.1963 O   0  0  0  0  0  0
  -21.6636   -6.8855   21.4236 O   0  0  0  0  0  0
  -22.3464  -14.5531   20.6745 O   0  0  0  0  0  0
  -24.6158  -31.8652   23.2077 C   0  0  0  0  0  0
  -25.9048  -32.4805   23.8374 C   0  0  1  0  0  0
  -27.2384  -27.4139   20.0960 C   0  0  0  0  0  0
  -25.5906  -33.8602   24.2309 N   0  0  0  0  0  0
  -23.4063  -30.4871   21.5503 C   0  0  2  0  0  0
  -24.8573  -28.9518   20.1122 C   0  0  0  0  0  0
  -22.7418  -29.4638   22.4992 C   0  0  0  0  0  0
  -18.0247  -28.1349   22.8502 C   0  0  0  0  0  0
  -24.1503  -36.7316   23.2643 C   0  0  0  0  0  0
  -25.9399  -30.8246   21.3679 C   0  0  0  0  0  0
  -26.0194  -29.4592   20.7073 C   0  0  0  0  0  0
  -27.2164  -28.6997   20.6913 C   0  0  0  0  0  0
  -26.0609  -26.9250   19.4942 C   0  0  0  0  0  0
  -24.8750  -27.6858   19.4980 C   0  0  0  0  0  0
  -23.6155  -29.8166   20.1661 C   0  0  0  0  0  0
  -25.4129  -36.3111   24.0338 C   0  0  1  0  0  0
  -20.5851  -28.3639   23.1326 C   0  0  2  0  0  0
  -20.6762  -26.9378   22.5436 C   0  0  0  0  0  0
  -19.5752  -26.6376   21.5221 C   0  0  0  0  0  0
  -18.1905  -26.7897   22.1613 C   0  0  0  0  0  0
  -19.1509  -28.8809   23.2897 C   0  0  0  0  0  0
  -18.9450  -30.1407   23.8913 C   0  0  0  0  0  0
  -17.6465  -30.6577   24.0538 C   0  0  0  0  0  0
  -25.9061  -34.9471   23.5133 C   0  0  0  0  0  0
  -16.5341  -29.9081   23.6326 C   0  0  0  0  0  0
  -16.7238  -28.6481   23.0379 C   0  0  0  0  0  0
  -26.4470  -31.6591   25.0713 C   0  0  0  0  0  0
  -25.3714  -31.3707   26.1447 C   0  0  0  0  0  0
  -27.0324  -30.3033   24.6125 C   0  0  0  0  0  0
  -27.6057  -32.4313   25.7467 C   0  0  0  0  0  0
  -27.5593  -37.1805   24.8455 C   0  0  0  0  0  0
  -21.4142  -29.2993   22.3720 N   0  0  0  0  0  0
  -26.4305  -37.3802   23.9403 N   0  0  0  0  0  0
  -24.6723  -31.0729   22.1002 N   0  0  0  0  0  0
  -23.4191  -28.8185   23.3052 O   0  0  0  0  0  0
  -28.3778  -26.6327   20.0788 O   0  0  0  0  0  0
  -26.5618  -34.8905   22.4696 O   0  0  0  0  0  0
  -23.5348  -32.1434   23.7449 O   0  0  0  0  0  0
  -30.9791  -19.6761   21.7147 C   0  0  0  0  0  0
  -31.2494  -17.2625   21.9316 C   0  0  0  0  0  0
  -30.0076  -19.5142   20.7046 C   0  0  0  0  0  0
  -29.6483  -18.1749   20.3158 C   0  0  0  0  0  0
  -30.2664  -17.0349   20.9428 C   0  0  0  0  0  0
  -31.5983  -18.5671   22.3173 C   0  0  0  0  0  0
  -28.1505  -22.9219   21.0842 C   0  0  0  0  0  0
  -28.4743  -21.5994   20.9915 C   0  0  0  0  0  0
  -28.6328  -24.1106   20.3212 C   0  0  0  0  0  0
  -28.6458  -17.9716   19.1866 C   0  0  0  0  0  0
  -29.4291  -20.8173   20.0791 C   0  0  0  0  0  0
  -28.3201  -25.4938   20.9690 C   0  0  0  0  0  0
  -29.8778  -15.6693   20.6624 N   0  0  0  0  0  0
  -29.2382  -24.0412   19.2473 O   0  0  0  0  0  0
  -32.5410  -18.7531   23.2726 F   0  0  0  0  0  0
  -31.4700  -12.4774   19.1358 H   0  0  0  0  0  0
  -30.3639  -11.3632   19.8982 H   0  0  0  0  0  0
  -29.7546  -11.7156   17.4793 H   0  0  0  0  0  0
  -29.6451  -13.4392   17.7327 H   0  0  0  0  0  0
  -27.8580  -11.2750   18.8843 H   0  0  0  0  0  0
  -27.3643  -12.5392   17.7924 H   0  0  0  0  0  0
  -27.6611  -14.2392   19.5015 H   0  0  0  0  0  0
  -28.6844  -12.0659   21.3927 H   0  0  0  0  0  0
  -28.4511  -13.7414   21.8154 H   0  0  0  0  0  0
  -25.2726   -9.5694   22.4763 H   0  0  0  0  0  0
  -23.9994   -7.4615   22.7471 H   0  0  0  0  0  0
  -21.0816   -8.8713   19.8937 H   0  0  0  0  0  0
  -22.3628  -10.9643   19.6154 H   0  0  0  0  0  0
  -21.2013   -7.6140   23.9697 H   0  0  0  0  0  0
  -21.1482   -6.0519   25.9067 H   0  0  0  0  0  0
  -22.0611   -2.7593   23.2865 H   0  0  0  0  0  0
  -22.4068  -11.9847   22.4804 H   0  0  0  0  0  0
  -21.1075  -13.1201   22.2673 H   0  0  0  0  0  0
  -24.6568  -15.8447   20.5093 H   0  0  0  0  0  0
  -26.2688  -15.6221   20.0630 H   0  0  0  0  0  0
  -26.7126  -32.5498   23.1127 H   0  0  0  0  0  0
  -25.0019  -33.9738   25.0430 H   0  0  0  0  0  0
  -22.6973  -31.3044   21.4087 H   0  0  0  0  0  0
  -23.3758  -35.9654   23.3313 H   0  0  0  0  0  0
  -24.3584  -36.8928   22.2057 H   0  0  0  0  0  0
  -23.7258  -37.6524   23.6657 H   0  0  0  0  0  0
  -26.0617  -31.5988   20.6082 H   0  0  0  0  0  0
  -26.8224  -30.8697   21.9948 H   0  0  0  0  0  0
  -28.1153  -29.0914   21.1456 H   0  0  0  0  0  0
  -26.0638  -25.9548   19.0179 H   0  0  0  0  0  0
  -23.9858  -27.2935   19.0253 H   0  0  0  0  0  0
  -23.7069  -30.5902   19.4043 H   0  0  0  0  0  0
  -22.7396  -29.2335   19.8759 H   0  0  0  0  0  0
  -25.1301  -36.1997   25.0835 H   0  0  0  0  0  0
  -20.9901  -28.3204   24.1464 H   0  0  0  0  0  0
  -20.5723  -26.2221   23.3612 H   0  0  0  0  0  0
  -21.6631  -26.7465   22.1200 H   0  0  0  0  0  0
  -19.6945  -25.6300   21.1225 H   0  0  0  0  0  0
  -19.6710  -27.3200   20.6767 H   0  0  0  0  0  0
  -17.4207  -26.6629   21.3989 H   0  0  0  0  0  0
  -18.0280  -26.0024   22.8995 H   0  0  0  0  0  0
  -19.7941  -30.7177   24.2329 H   0  0  0  0  0  0
  -17.5038  -31.6267   24.5110 H   0  0  0  0  0  0
  -15.5342  -30.2993   23.7673 H   0  0  0  0  0  0
  -15.8617  -28.0790   22.7158 H   0  0  0  0  0  0
  -24.5867  -30.7094   25.7748 H   0  0  0  0  0  0
  -24.8930  -32.2868   26.4933 H   0  0  0  0  0  0
  -25.8022  -30.8829   27.0196 H   0  0  0  0  0  0
  -26.2900  -29.6754   24.1197 H   0  0  0  0  0  0
  -27.4100  -29.7305   25.4598 H   0  0  0  0  0  0
  -27.8712  -30.4337   23.9284 H   0  0  0  0  0  0
  -27.2712  -33.3606   26.2084 H   0  0  0  0  0  0
  -28.3848  -32.6876   25.0281 H   0  0  0  0  0  0
  -28.0754  -31.8419   26.5350 H   0  0  0  0  0  0
  -28.2607  -38.0105   24.7517 H   0  0  0  0  0  0
  -28.1088  -36.2632   24.6287 H   0  0  0  0  0  0
  -27.2277  -37.1452   25.8842 H   0  0  0  0  0  0
  -20.9312  -29.8732   21.6949 H   0  0  0  0  0  0
  -26.0198  -38.2885   24.1401 H   0  0  0  0  0  0
  -31.2660  -20.6682   22.0324 H   0  0  0  0  0  0
  -31.7412  -16.4334   22.4199 H   0  0  0  0  0  0
  -27.4146  -23.1656   21.8358 H   0  0  0  0  0  0
  -27.9398  -20.9557   21.6736 H   0  0  0  0  0  0
  -27.7620  -18.5953   19.3192 H   0  0  0  0  0  0
  -28.3067  -16.9426   19.0900 H   0  0  0  0  0  0
  -29.1170  -18.2423   18.2395 H   0  0  0  0  0  0
  -28.8975  -20.5998   19.1536 H   0  0  0  0  0  0
  -30.2516  -21.4762   19.7972 H   0  0  0  0  0  0
  -29.0509  -25.6551   21.7616 H   0  0  0  0  0  0
  -27.3486  -25.4430   21.4638 H   0  0  0  0  0  0
  -28.8865  -15.4944   20.6163 H   0  0  0  0  0  0
  1 25  1  0  0  0
  1 30  2  0  0  0
  1 83  1  0  0  0
  2  3  1  0  0  0
  2 25  1  0  0  0
  2 86  1  0  0  0
  2 87  1  0  0  0
  3  4  1  0  0  0
  3 88  1  0  0  0
  3 89  1  0  0  0
  4  5  1  0  0  0
  4 90  1  0  0  0
  4 91  1  0  0  0
  5  6  1  0  0  0
  5 26  1  0  0  0
  5 92  1  0  0  0
  6 25  1  0  0  0
  6 93  1  0  0  0
  6 94  1  0  0  0
  7  8  2  0  0  0
  7 26  1  0  0  0
  7 29  1  0  0  0
  8  9  1  0  0  0
  8 22  1  0  0  0
  9 10  1  0  0  0
  9 27  2  0  0  0
 10 11  2  0  0  0
 10 15  1  0  0  0
 11 12  1  0  0  0
 11 95  1  0  0  0
 12 13  2  0  0  0
 12 96  1  0  0  0
 13 14  1  0  0  0
 13 31  1  0  0  0
 14 15  2  0  0  0
 14 97  1  0  0  0
 15 98  1  0  0  0
 16 17  2  0  0  0
 16 21  1  0  0  0
 16 31  1  0  0  0
 17 18  1  0  0  0
 17 99  1  0  0  0
 18 19  2  0  0  0
 18100  1  0  0  0
 19 20  1  0  0  0
 19 24  1  0  0  0
 20 21  2  0  0  0
 20101  1  0  0  0
 21 23  1  0  0  0
 22 28  1  0  0  0
 22 32  2  0  0  0
 26 27  1  0  0  0
 28102  1  0  0  0
 28103  1  0  0  0
 29104  1  0  0  0
 29105  1  0  0  0
 33 34  1  0  0  0
 33 66  1  0  0  0
 33 70  2  0  0  0
 34 36  1  0  0  0
 34 59  1  0  0  0
 34106  1  0  0  0
 35 44  2  0  0  0
 35 45  1  0  0  0
 35 68  1  0  0  0
 36 56  1  0  0  0
 36107  1  0  0  0
 37 39  1  0  0  0
 37 47  1  0  0  0
 37 66  1  0  0  0
 37108  1  0  0  0
 38 43  2  0  0  0
 38 46  1  0  0  0
 38 47  1  0  0  0
 39 64  1  0  0  0
 39 67  2  0  0  0
 40 52  1  0  0  0
 40 53  2  0  0  0
 40 58  1  0  0  0
 41109  1  0  0  0
 41110  1  0  0  0
 41111  1  0  0  0
 41 48  1  0  0  0
 42 43  1  0  0  0
 42 66  1  0  0  0
 42112  1  0  0  0
 42113  1  0  0  0
 43 44  1  0  0  0
 44114  1  0  0  0
 45 46  2  0  0  0
 45115  1  0  0  0
 46116  1  0  0  0
 47117  1  0  0  0
 47118  1  0  0  0
 48 56  1  0  0  0
 48 65  1  0  0  0
 48119  1  0  0  0
 49 50  1  0  0  0
 49 53  1  0  0  0
 49 64  1  0  0  0
 49120  1  0  0  0
 50 51  1  0  0  0
 50121  1  0  0  0
 50122  1  0  0  0
 51 52  1  0  0  0
 51123  1  0  0  0
 51124  1  0  0  0
 52125  1  0  0  0
 52126  1  0  0  0
 53 54  1  0  0  0
 54 55  2  0  0  0
 54127  1  0  0  0
 55 57  1  0  0  0
 55128  1  0  0  0
 56 69  2  0  0  0
 57 58  2  0  0  0
 57129  1  0  0  0
 58130  1  0  0  0
 59 60  1  0  0  0
 59 61  1  0  0  0
 59 62  1  0  0  0
 60131  1  0  0  0
 60132  1  0  0  0
 60133  1  0  0  0
 61134  1  0  0  0
 61135  1  0  0  0
 61136  1  0  0  0
 62137  1  0  0  0
 62138  1  0  0  0
 62139  1  0  0  0
 63 65  1  0  0  0
 63140  1  0  0  0
 63141  1  0  0  0
 63142  1  0  0  0
 64143  1  0  0  0
 65144  1  0  0  0
 68 82  1  0  0  0
 71 73  2  0  0  0
 71 76  1  0  0  0
 71145  1  0  0  0
 72 75  1  0  0  0
 72 76  2  0  0  0
 72146  1  0  0  0
 73 74  1  0  0  0
 73 81  1  0  0  0
 74 75  2  0  0  0
 74 80  1  0  0  0
 75 83  1  0  0  0
 76 85  1  0  0  0
 77 78  2  0  0  0
 77 79  1  0  0  0
 77147  1  0  0  0
 78 81  1  0  0  0
 78148  1  0  0  0
 79 82  1  0  0  0
 79 84  2  0  0  0
 80149  1  0  0  0
 80150  1  0  0  0
 80151  1  0  0  0
 81152  1  0  0  0
 81153  1  0  0  0
 82154  1  0  0  0
 82155  1  0  0  0
 83156  1  0  0  0
M  ISO  4   1 100  68 101  82 101  83 100
M  END
> <chiral flag>
0

> <version>
0

> <s_m_source_file>
/data/baiqing/PycharmProjects/Reinvent-master-3.2/result/LINK_invent/BTK/process_docking_weight1_custom_product_contain_oxygen_bond_distance_aromatic_linkinvent_7_9_3/rearranged_h_0131.sdf

> <i_m_source_file_index>
10

> <r_mmod_Potential_Energy-OPLS-2005>
33.0963745117188

> <r_mmod_Stretch_Energy-OPLS-2005>
52.0856742858887

> <r_mmod_Bend_Energy-OPLS-2005>
121.315536499023

> <r_mmod_Torsional_Energy-OPLS-2005>
259.767639160156

> <r_mmod_Improper_Torsional_Energy-OPLS-2005>
7.08260107040405

> <r_mmod_Van_der_Waal_Energy-OPLS-2005>
140.504257202148

> <r_mmod_Electrostatic_Energy-OPLS-2005>
-350.914093017578

> <r_mmod_Solvation_Energy-OPLS-2005>
-224.893096923828

> <b_mmod_Minimization_Converged-OPLS-2005>
0

> <r_mmod_RMS_Derivative-OPLS-2005>
3.39575815200806

$$$$
10
                    3D
 Structure written by MMmdl.
165173  0  0  1  0            999 V2000
  -30.5409  -14.8504   20.4507 C   0  0  0  0  0  0
  -30.4508  -12.5226   19.4948 C   0  0  0  0  0  0
  -29.5266  -12.5260   18.2532 C   0  0  0  0  0  0
  -28.0534  -12.3289   18.6633 C   0  0  0  0  0  0
  -27.6426  -13.2348   19.8534 C   0  0  2  0  0  0
  -28.6831  -13.1846   20.9930 C   0  0  0  0  0  0
  -25.2511  -13.8206   20.5714 C   0  0  0  0  0  0
  -24.1798  -13.0444   20.9210 C   0  0  0  0  0  0
  -24.6388  -11.6918   20.8738 C   0  0  0  0  0  0
  -23.9074  -10.4295   21.0399 C   0  0  0  0  0  0
  -24.3624   -9.4202   21.9167 C   0  0  0  0  0  0
  -23.6291   -8.2244   22.0740 C   0  0  0  0  0  0
  -22.4268   -8.0291   21.3543 C   0  0  0  0  0  0
  -21.9915   -9.0258   20.4639 C   0  0  0  0  0  0
  -22.7250  -10.2131   20.3044 C   0  0  0  0  0  0
  -21.6856   -6.0733   22.5274 C   0  0  0  0  0  0
  -21.4009   -6.5633   23.8208 C   0  0  0  0  0  0
  -21.3661   -5.6787   24.9170 C   0  0  0  0  0  0
  -21.6051   -4.3052   24.7217 C   0  0  0  0  0  0
  -21.8822   -3.8141   23.4337 C   0  0  0  0  0  0
  -21.9188   -4.6959   22.3393 C   0  0  0  0  0  0
  -22.7817  -13.5221   21.1877 C   0  0  0  0  0  0
  -22.1660   -4.2147   21.0972 F   0  0  0  0  0  0
  -21.5633   -3.4533   25.7727 F   0  0  0  0  0  0
  -29.9773  -13.5846   20.4208 N   0  0  0  0  0  0
  -26.2937  -12.9408   20.3280 N   0  0  0  0  0  0
  -25.9319  -11.6548   20.5726 N   0  0  0  0  0  0
  -22.0462  -12.8205   22.0434 N   0  0  0  0  0  0
  -25.4221  -15.1936   20.4179 N   0  0  0  0  0  0
  -31.7120  -14.9884   20.0804 O   0  0  0  0  0  0
  -21.6640   -6.8877   21.4237 O   0  0  0  0  0  0
  -22.3501  -14.5526   20.6731 O   0  0  0  0  0  0
  -24.6397  -31.8502   23.1912 C   0  0  0  0  0  0
  -25.9186  -32.4737   23.8286 C   0  0  1  0  0  0
  -27.2241  -27.1882   20.1352 C   0  0  0  0  0  0
  -25.5952  -33.8541   24.2225 N   0  0  0  0  0  0
  -23.4400  -30.4702   21.5372 C   0  0  2  0  0  0
  -24.8907  -28.9081   20.1073 C   0  0  0  0  0  0
  -22.7543  -29.4583   22.4885 C   0  0  0  0  0  0
  -18.0299  -28.1392   22.8485 C   0  0  0  0  0  0
  -24.1496  -36.7256   23.2640 C   0  0  0  0  0  0
  -25.9928  -30.7410   21.3811 C   0  0  0  0  0  0
  -26.0672  -29.3579   20.7203 C   0  0  0  0  0  0
  -27.2355  -28.5137   20.7180 C   0  0  0  0  0  0
  -26.0197  -26.8323   19.4857 C   0  0  0  0  0  0
  -24.8777  -27.6569   19.4758 C   0  0  0  0  0  0
  -23.6622  -29.8012   20.1555 C   0  0  0  0  0  0
  -25.4127  -36.3056   24.0331 C   0  0  1  0  0  0
  -20.5911  -28.3716   23.1254 C   0  0  2  0  0  0
  -20.6787  -26.9426   22.5405 C   0  0  0  0  0  0
  -19.5755  -26.6386   21.5215 C   0  0  0  0  0  0
  -18.1940  -26.7933   22.1627 C   0  0  0  0  0  0
  -19.1556  -28.8873   23.2865 C   0  0  0  0  0  0
  -18.9469  -30.1473   23.8888 C   0  0  0  0  0  0
  -17.6469  -30.6594   24.0564 C   0  0  0  0  0  0
  -25.9074  -34.9434   23.5081 C   0  0  0  0  0  0
  -16.5363  -29.9085   23.6336 C   0  0  0  0  0  0
  -16.7285  -28.6500   23.0360 C   0  0  0  0  0  0
  -26.4510  -31.6577   25.0697 C   0  0  0  0  0  0
  -25.3706  -31.3736   26.1388 C   0  0  0  0  0  0
  -27.0369  -30.2992   24.6224 C   0  0  0  0  0  0
  -27.6063  -32.4317   25.7462 C   0  0  0  0  0  0
  -27.5580  -37.1784   24.8471 C   0  0  0  0  0  0
  -21.4243  -29.3052   22.3630 N   0  0  0  0  0  0
  -26.4293  -37.3764   23.9409 N   0  0  0  0  0  0
  -24.7108  -31.0403   22.0924 N   0  0  0  0  0  0
  -23.4217  -28.8143   23.3023 O   0  0  0  0  0  0
  -28.2889  -26.2295   20.2037 O   0  0  0  0  0  0
  -26.5645  -34.8922   22.4651 O   0  0  0  0  0  0
  -23.5527  -32.1357   23.7159 O   0  0  0  0  0  0
  -29.1249  -19.4606   19.1563 C   0  0  0  0  0  0
  -29.7185  -18.3870   21.6239 C   0  0  0  0  0  0
  -29.0731  -20.4102   20.2323 C   0  0  0  0  0  0
  -29.4140  -18.0464   19.2954 C   0  0  0  0  0  0
  -29.4253  -19.8038   21.4863 C   0  0  0  0  0  0
  -29.7121  -17.4324   20.5530 C   0  0  0  0  0  0
  -29.3084  -17.1633   18.0639 C   0  0  0  0  0  0
  -33.0867  -22.1706   22.2357 C   0  0  0  0  0  0
  -28.4037  -21.8908   20.0115 C   0  0  0  0  0  0
  -29.4416  -20.6580   22.7479 C   0  0  0  0  0  0
  -31.8312  -21.3570   21.9091 C   0  0  0  0  0  0
  -28.9688  -23.4175   20.3239 C   0  0  0  0  0  0
  -30.7601  -21.4274   23.0149 C   0  0  0  0  0  0
  -27.9997  -24.7323   20.0007 C   0  0  0  0  0  0
  -29.7213  -15.9366   20.7918 N   0  0  0  0  0  0
  -31.4848  -12.6850   19.1874 H   0  0  0  0  0  0
  -30.4381  -11.5508   19.9909 H   0  0  0  0  0  0
  -29.8322  -11.7440   17.5583 H   0  0  0  0  0  0
  -29.6349  -13.4696   17.7158 H   0  0  0  0  0  0
  -27.9293  -11.2810   18.9393 H   0  0  0  0  0  0
  -27.3964  -12.4994   17.8097 H   0  0  0  0  0  0
  -27.6315  -14.2543   19.4673 H   0  0  0  0  0  0
  -28.7424  -12.1816   21.4181 H   0  0  0  0  0  0
  -28.3923  -13.8420   21.8127 H   0  0  0  0  0  0
  -25.2762   -9.5681   22.4744 H   0  0  0  0  0  0
  -24.0005   -7.4633   22.7450 H   0  0  0  0  0  0
  -21.0853   -8.8767   19.8940 H   0  0  0  0  0  0
  -22.3701  -10.9663   19.6156 H   0  0  0  0  0  0
  -21.2000   -7.6141   23.9714 H   0  0  0  0  0  0
  -21.1489   -6.0512   25.9077 H   0  0  0  0  0  0
  -22.0602   -2.7605   23.2831 H   0  0  0  0  0  0
  -22.4083  -11.9873   22.4838 H   0  0  0  0  0  0
  -21.1067  -13.1200   22.2624 H   0  0  0  0  0  0
  -24.6599  -15.8494   20.5452 H   0  0  0  0  0  0
  -26.2725  -15.6363   20.0940 H   0  0  0  0  0  0
  -26.7249  -32.5362   23.1015 H   0  0  0  0  0  0
  -25.0079  -33.9667   25.0355 H   0  0  0  0  0  0
  -22.7393  -31.2939   21.3861 H   0  0  0  0  0  0
  -23.3781  -35.9563   23.3299 H   0  0  0  0  0  0
  -24.3577  -36.8882   22.2051 H   0  0  0  0  0  0
  -23.7231  -37.6449   23.6667 H   0  0  0  0  0  0
  -26.1398  -31.5019   20.6139 H   0  0  0  0  0  0
  -26.8669  -30.7909   22.0188 H   0  0  0  0  0  0
  -28.1310  -28.8559   21.2148 H   0  0  0  0  0  0
  -25.9220  -25.8778   18.9928 H   0  0  0  0  0  0
  -23.9801  -27.3071   18.9840 H   0  0  0  0  0  0
  -23.7852  -30.5762   19.3984 H   0  0  0  0  0  0
  -22.7803  -29.2347   19.8522 H   0  0  0  0  0  0
  -25.1316  -36.1883   25.0828 H   0  0  0  0  0  0
  -21.0007  -28.3291   24.1376 H   0  0  0  0  0  0
  -20.5699  -26.2322   23.3614 H   0  0  0  0  0  0
  -21.6647  -26.7450   22.1191 H   0  0  0  0  0  0
  -19.6924  -25.6297   21.1242 H   0  0  0  0  0  0
  -19.6689  -27.3197   20.6747 H   0  0  0  0  0  0
  -17.4211  -26.6688   21.4032 H   0  0  0  0  0  0
  -18.0341  -26.0082   22.9029 H   0  0  0  0  0  0
  -19.7949  -30.7291   24.2256 H   0  0  0  0  0  0
  -17.5021  -31.6272   24.5155 H   0  0  0  0  0  0
  -15.5361  -30.2980   23.7673 H   0  0  0  0  0  0
  -15.8683  -28.0816   22.7085 H   0  0  0  0  0  0
  -24.5895  -30.7085   25.7680 H   0  0  0  0  0  0
  -24.8872  -32.2905   26.4769 H   0  0  0  0  0  0
  -25.7984  -30.8915   27.0187 H   0  0  0  0  0  0
  -26.2973  -29.6714   24.1241 H   0  0  0  0  0  0
  -27.4034  -29.7273   25.4757 H   0  0  0  0  0  0
  -27.8853  -30.4252   23.9495 H   0  0  0  0  0  0
  -27.2696  -33.3643   26.1992 H   0  0  0  0  0  0
  -28.3882  -32.6837   25.0289 H   0  0  0  0  0  0
  -28.0719  -31.8467   26.5398 H   0  0  0  0  0  0
  -28.2606  -38.0072   24.7526 H   0  0  0  0  0  0
  -28.1074  -36.2611   24.6303 H   0  0  0  0  0  0
  -27.2291  -37.1429   25.8871 H   0  0  0  0  0  0
  -20.9444  -29.8754   21.6801 H   0  0  0  0  0  0
  -26.0173  -38.2838   24.1407 H   0  0  0  0  0  0
  -28.8498  -19.8155   18.1721 H   0  0  0  0  0  0
  -29.9101  -18.0101   22.6194 H   0  0  0  0  0  0
  -28.4699  -16.4723   18.1609 H   0  0  0  0  0  0
  -30.2172  -16.5758   17.9302 H   0  0  0  0  0  0
  -29.1554  -17.7511   17.1589 H   0  0  0  0  0  0
  -33.8205  -22.0835   21.4321 H   0  0  0  0  0  0
  -33.5583  -21.8208   23.1535 H   0  0  0  0  0  0
  -32.8504  -23.2282   22.3548 H   0  0  0  0  0  0
  -27.4507  -21.8255   20.5382 H   0  0  0  0  0  0
  -28.1135  -21.9077   18.9602 H   0  0  0  0  0  0
  -29.2272  -20.0184   23.6052 H   0  0  0  0  0  0
  -28.6099  -21.3617   22.7124 H   0  0  0  0  0  0
  -32.1186  -20.3186   21.7355 H   0  0  0  0  0  0
  -31.4184  -21.7276   20.9705 H   0  0  0  0  0  0
  -29.9041  -23.5507   19.7784 H   0  0  0  0  0  0
  -29.2432  -23.4628   21.3771 H   0  0  0  0  0  0
  -31.1969  -21.0550   23.9435 H   0  0  0  0  0  0
  -30.5160  -22.4710   23.2171 H   0  0  0  0  0  0
  -27.0785  -24.5369   20.5508 H   0  0  0  0  0  0
  -27.7323  -24.6313   18.9486 H   0  0  0  0  0  0
  -28.8622  -15.6075   21.2065 H   0  0  0  0  0  0
  1 25  1  0  0  0
  1 30  2  0  0  0
  1 85  1  0  0  0
  2  3  1  0  0  0
  2 25  1  0  0  0
  2 86  1  0  0  0
  2 87  1  0  0  0
  3  4  1  0  0  0
  3 88  1  0  0  0
  3 89  1  0  0  0
  4  5  1  0  0  0
  4 90  1  0  0  0
  4 91  1  0  0  0
  5  6  1  0  0  0
  5 26  1  0  0  0
  5 92  1  0  0  0
  6 25  1  0  0  0
  6 93  1  0  0  0
  6 94  1  0  0  0
  7  8  2  0  0  0
  7 26  1  0  0  0
  7 29  1  0  0  0
  8  9  1  0  0  0
  8 22  1  0  0  0
  9 10  1  0  0  0
  9 27  2  0  0  0
 10 11  2  0  0  0
 10 15  1  0  0  0
 11 12  1  0  0  0
 11 95  1  0  0  0
 12 13  2  0  0  0
 12 96  1  0  0  0
 13 14  1  0  0  0
 13 31  1  0  0  0
 14 15  2  0  0  0
 14 97  1  0  0  0
 15 98  1  0  0  0
 16 17  2  0  0  0
 16 21  1  0  0  0
 16 31  1  0  0  0
 17 18  1  0  0  0
 17 99  1  0  0  0
 18 19  2  0  0  0
 18100  1  0  0  0
 19 20  1  0  0  0
 19 24  1  0  0  0
 20 21  2  0  0  0
 20101  1  0  0  0
 21 23  1  0  0  0
 22 28  1  0  0  0
 22 32  2  0  0  0
 26 27  1  0  0  0
 28102  1  0  0  0
 28103  1  0  0  0
 29104  1  0  0  0
 29105  1  0  0  0
 33 34  1  0  0  0
 33 66  1  0  0  0
 33 70  2  0  0  0
 34 36  1  0  0  0
 34 59  1  0  0  0
 34106  1  0  0  0
 35 44  2  0  0  0
 35 45  1  0  0  0
 35 68  1  0  0  0
 36 56  1  0  0  0
 36107  1  0  0  0
 37 39  1  0  0  0
 37 47  1  0  0  0
 37 66  1  0  0  0
 37108  1  0  0  0
 38 43  2  0  0  0
 38 46  1  0  0  0
 38 47  1  0  0  0
 39 64  1  0  0  0
 39 67  2  0  0  0
 40 52  1  0  0  0
 40 53  2  0  0  0
 40 58  1  0  0  0
 41109  1  0  0  0
 41110  1  0  0  0
 41111  1  0  0  0
 41 48  1  0  0  0
 42 43  1  0  0  0
 42 66  1  0  0  0
 42112  1  0  0  0
 42113  1  0  0  0
 43 44  1  0  0  0
 44114  1  0  0  0
 45 46  2  0  0  0
 45115  1  0  0  0
 46116  1  0  0  0
 47117  1  0  0  0
 47118  1  0  0  0
 48 56  1  0  0  0
 48 65  1  0  0  0
 48119  1  0  0  0
 49 50  1  0  0  0
 49 53  1  0  0  0
 49 64  1  0  0  0
 49120  1  0  0  0
 50 51  1  0  0  0
 50121  1  0  0  0
 50122  1  0  0  0
 51 52  1  0  0  0
 51123  1  0  0  0
 51124  1  0  0  0
 52125  1  0  0  0
 52126  1  0  0  0
 53 54  1  0  0  0
 54 55  2  0  0  0
 54127  1  0  0  0
 55 57  1  0  0  0
 55128  1  0  0  0
 56 69  2  0  0  0
 57 58  2  0  0  0
 57129  1  0  0  0
 58130  1  0  0  0
 59 60  1  0  0  0
 59 61  1  0  0  0
 59 62  1  0  0  0
 60131  1  0  0  0
 60132  1  0  0  0
 60133  1  0  0  0
 61134  1  0  0  0
 61135  1  0  0  0
 61136  1  0  0  0
 62137  1  0  0  0
 62138  1  0  0  0
 62139  1  0  0  0
 63 65  1  0  0  0
 63140  1  0  0  0
 63141  1  0  0  0
 63142  1  0  0  0
 64143  1  0  0  0
 65144  1  0  0  0
 68 84  1  0  0  0
 71 73  2  0  0  0
 71 74  1  0  0  0
 71145  1  0  0  0
 72 75  2  0  0  0
 72 76  1  0  0  0
 72146  1  0  0  0
 73 75  1  0  0  0
 73 79  1  0  0  0
 74 76  2  0  0  0
 74 77  1  0  0  0
 75 80  1  0  0  0
 76 85  1  0  0  0
 77147  1  0  0  0
 77148  1  0  0  0
 77149  1  0  0  0
 78 81  1  0  0  0
 78150  1  0  0  0
 78151  1  0  0  0
 78152  1  0  0  0
 79 82  1  0  0  0
 79153  1  0  0  0
 79154  1  0  0  0
 80 83  1  0  0  0
 80155  1  0  0  0
 80156  1  0  0  0
 81 83  1  0  0  0
 81157  1  0  0  0
 81158  1  0  0  0
 82 84  1  0  0  0
 82159  1  0  0  0
 82160  1  0  0  0
 83161  1  0  0  0
 83162  1  0  0  0
 84163  1  0  0  0
 84164  1  0  0  0
 85165  1  0  0  0
M  ISO  4   1 100  68 101  84 101  85 100
M  END
> <chiral flag>
0

> <version>
0

> <s_m_source_file>
/data/baiqing/PycharmProjects/Reinvent-master-3.2/result/LINK_invent/BTK/process_docking_weight1_custom_product_contain_oxygen_bond_distance_aromatic_linkinvent_7_9_3/rearranged_h_0131.sdf

> <i_m_source_file_index>
11

> <r_mmod_Potential_Energy-OPLS-2005>
362.513732910156

> <r_mmod_Stretch_Energy-OPLS-2005>
186.751968383789

> <r_mmod_Bend_Energy-OPLS-2005>
233.041793823242

> <r_mmod_Torsional_Energy-OPLS-2005>
257.030609130859

> <r_mmod_Improper_Torsional_Energy-OPLS-2005>
6.77896976470947

> <r_mmod_Van_der_Waal_Energy-OPLS-2005>
129.704818725586

> <r_mmod_Electrostatic_Energy-OPLS-2005>
-386.275268554688

> <r_mmod_Solvation_Energy-OPLS-2005>
-203.241546630859

> <b_mmod_Minimization_Converged-OPLS-2005>
0

> <r_mmod_RMS_Derivative-OPLS-2005>
2.20518493652344

$$$$
11
                    3D
 Structure written by MMmdl.
153161  0  0  1  0            999 V2000
  -30.6142  -14.6917   20.4117 C   0  0  0  0  0  0
  -30.4293  -12.3982   19.4830 C   0  0  0  0  0  0
  -29.5159  -12.4579   18.2407 C   0  0  0  0  0  0
  -28.0365  -12.3100   18.6446 C   0  0  0  0  0  0
  -27.6424  -13.2190   19.8407 C   0  0  2  0  0  0
  -28.6843  -13.1513   20.9791 C   0  0  0  0  0  0
  -25.2533  -13.8165   20.5654 C   0  0  0  0  0  0
  -24.1819  -13.0453   20.9175 C   0  0  0  0  0  0
  -24.6394  -11.6905   20.8744 C   0  0  0  0  0  0
  -23.9063  -10.4294   21.0436 C   0  0  0  0  0  0
  -24.3616   -9.4191   21.9184 C   0  0  0  0  0  0
  -23.6285   -8.2221   22.0768 C   0  0  0  0  0  0
  -22.4261   -8.0266   21.3559 C   0  0  0  0  0  0
  -21.9902   -9.0247   20.4658 C   0  0  0  0  0  0
  -22.7245  -10.2120   20.3069 C   0  0  0  0  0  0
  -21.6854   -6.0732   22.5284 C   0  0  0  0  0  0
  -21.4006   -6.5632   23.8218 C   0  0  0  0  0  0
  -21.3665   -5.6787   24.9171 C   0  0  0  0  0  0
  -21.6059   -4.3052   24.7234 C   0  0  0  0  0  0
  -21.8818   -3.8139   23.4352 C   0  0  0  0  0  0
  -21.9184   -4.6959   22.3404 C   0  0  0  0  0  0
  -22.7851  -13.5235   21.1874 C   0  0  0  0  0  0
  -22.1655   -4.2145   21.0990 F   0  0  0  0  0  0
  -21.5635   -3.4536   25.7745 F   0  0  0  0  0  0
  -29.9922  -13.4701   20.3992 N   0  0  0  0  0  0
  -26.2939  -12.9348   20.3197 N   0  0  0  0  0  0
  -25.9292  -11.6522   20.5711 N   0  0  0  0  0  0
  -22.0497  -12.8225   22.0438 N   0  0  0  0  0  0
  -25.4322  -15.1878   20.4091 N   0  0  0  0  0  0
  -31.8127  -14.7601   20.1309 O   0  0  0  0  0  0
  -21.6635   -6.8864   21.4244 O   0  0  0  0  0  0
  -22.3537  -14.5554   20.6725 O   0  0  0  0  0  0
  -24.6304  -31.8566   23.1955 C   0  0  0  0  0  0
  -25.9145  -32.4753   23.8294 C   0  0  1  0  0  0
  -27.2076  -27.2707   20.1450 C   0  0  0  0  0  0
  -25.5958  -33.8547   24.2254 N   0  0  0  0  0  0
  -23.4244  -30.4760   21.5413 C   0  0  2  0  0  0
  -24.8681  -28.9187   20.1110 C   0  0  0  0  0  0
  -22.7483  -29.4608   22.4943 C   0  0  0  0  0  0
  -18.0284  -28.1371   22.8492 C   0  0  0  0  0  0
  -24.1483  -36.7280   23.2625 C   0  0  0  0  0  0
  -25.9631  -30.7741   21.3693 C   0  0  0  0  0  0
  -26.0347  -29.3909   20.7247 C   0  0  0  0  0  0
  -27.2101  -28.5775   20.7283 C   0  0  0  0  0  0
  -26.0245  -26.8541   19.5071 C   0  0  0  0  0  0
  -24.8678  -27.6591   19.4872 C   0  0  0  0  0  0
  -23.6373  -29.8029   20.1577 C   0  0  0  0  0  0
  -25.4106  -36.3064   24.0310 C   0  0  1  0  0  0
  -20.5886  -28.3678   23.1253 C   0  0  2  0  0  0
  -20.6823  -26.9447   22.5283 C   0  0  0  0  0  0
  -19.5712  -26.6331   21.5214 C   0  0  0  0  0  0
  -18.1910  -26.7901   22.1656 C   0  0  0  0  0  0
  -19.1540  -28.8843   23.2868 C   0  0  0  0  0  0
  -18.9465  -30.1446   23.8872 C   0  0  0  0  0  0
  -17.6473  -30.6600   24.0525 C   0  0  0  0  0  0
  -25.9038  -34.9440   23.5068 C   0  0  0  0  0  0
  -16.5362  -29.9091   23.6321 C   0  0  0  0  0  0
  -16.7277  -28.6492   23.0367 C   0  0  0  0  0  0
  -26.4523  -31.6566   25.0678 C   0  0  0  0  0  0
  -25.3750  -31.3725   26.1412 C   0  0  0  0  0  0
  -27.0356  -30.2982   24.6136 C   0  0  0  0  0  0
  -27.6103  -32.4281   25.7450 C   0  0  0  0  0  0
  -27.5564  -37.1794   24.8458 C   0  0  0  0  0  0
  -21.4195  -29.3053   22.3687 N   0  0  0  0  0  0
  -26.4286  -37.3758   23.9382 N   0  0  0  0  0  0
  -24.6912  -31.0535   22.0922 N   0  0  0  0  0  0
  -23.4202  -28.8185   23.3049 O   0  0  0  0  0  0
  -28.3173  -26.4117   20.1194 O   0  0  0  0  0  0
  -26.5608  -34.8927   22.4628 O   0  0  0  0  0  0
  -23.5466  -32.1351   23.7274 O   0  0  0  0  0  0
  -29.1671  -18.3334   20.4774 C   0  0  0  0  0  0
  -30.6139  -19.9916   19.4445 C   0  0  0  0  0  0
  -31.2462  -17.6198   19.4640 C   0  0  0  0  0  0
  -29.4088  -19.7248   20.1216 C   0  0  0  0  0  0
  -30.0824  -17.2457   20.1824 C   0  0  0  0  0  0
  -31.5055  -18.9574   19.1072 C   0  0  0  0  0  0
  -28.4192  -20.8919   20.3296 C   0  0  0  0  0  0
  -28.8418  -22.3639   20.7721 C   0  0  0  0  0  0
  -28.2343  -23.6645   20.0209 C   0  0  0  0  0  0
  -28.2568  -25.0818   20.7942 C   0  0  0  0  0  0
  -27.1819  -20.6769   20.1864 N   0  0  0  0  0  0
  -29.8258  -15.8252   20.5443 N   0  0  0  0  0  0
  -32.6322  -19.2505   18.4129 F   0  0  0  0  0  0
  -31.4773  -12.4978   19.1912 H   0  0  0  0  0  0
  -30.3478  -11.4264   19.9718 H   0  0  0  0  0  0
  -29.7873  -11.6652   17.5408 H   0  0  0  0  0  0
  -29.6634  -13.4024   17.7148 H   0  0  0  0  0  0
  -27.8776  -11.2639   18.9101 H   0  0  0  0  0  0
  -27.3870  -12.5007   17.7918 H   0  0  0  0  0  0
  -27.6443  -14.2353   19.4491 H   0  0  0  0  0  0
  -28.6939  -12.1587   21.4263 H   0  0  0  0  0  0
  -28.4331  -13.8464   21.7853 H   0  0  0  0  0  0
  -25.2786   -9.5639   22.4719 H   0  0  0  0  0  0
  -23.9988   -7.4617   22.7493 H   0  0  0  0  0  0
  -21.0821   -8.8778   19.8974 H   0  0  0  0  0  0
  -22.3721  -10.9648   19.6149 H   0  0  0  0  0  0
  -21.1989   -7.6138   23.9720 H   0  0  0  0  0  0
  -21.1505   -6.0519   25.9087 H   0  0  0  0  0  0
  -22.0588   -2.7598   23.2859 H   0  0  0  0  0  0
  -22.4110  -11.9857   22.4790 H   0  0  0  0  0  0
  -21.1143  -13.1276   22.2747 H   0  0  0  0  0  0
  -24.6761  -15.8500   20.5468 H   0  0  0  0  0  0
  -26.2794  -15.6241   20.0705 H   0  0  0  0  0  0
  -26.7241  -32.5382   23.1066 H   0  0  0  0  0  0
  -25.0152  -33.9664   25.0448 H   0  0  0  0  0  0
  -22.7204  -31.2972   21.3942 H   0  0  0  0  0  0
  -23.3725  -35.9633   23.3303 H   0  0  0  0  0  0
  -24.3597  -36.8888   22.2042 H   0  0  0  0  0  0
  -23.7283  -37.6497   23.6646 H   0  0  0  0  0  0
  -26.0837  -31.5283   20.5907 H   0  0  0  0  0  0
  -26.8480  -30.8380   21.9885 H   0  0  0  0  0  0
  -28.1084  -28.9267   21.2168 H   0  0  0  0  0  0
  -25.9929  -25.8881   19.0218 H   0  0  0  0  0  0
  -23.9802  -27.3006   18.9838 H   0  0  0  0  0  0
  -23.7495  -30.5696   19.3907 H   0  0  0  0  0  0
  -22.7571  -29.2265   19.8675 H   0  0  0  0  0  0
  -25.1317  -36.1893   25.0809 H   0  0  0  0  0  0
  -20.9986  -28.3198   24.1360 H   0  0  0  0  0  0
  -20.5989  -26.2267   23.3450 H   0  0  0  0  0  0
  -21.6649  -26.7646   22.0895 H   0  0  0  0  0  0
  -19.6841  -25.6216   21.1299 H   0  0  0  0  0  0
  -19.6564  -27.3094   20.6713 H   0  0  0  0  0  0
  -17.4163  -26.6677   21.4052 H   0  0  0  0  0  0
  -18.0286  -26.0051   22.9071 H   0  0  0  0  0  0
  -19.7948  -30.7265   24.2222 H   0  0  0  0  0  0
  -17.5042  -31.6316   24.5068 H   0  0  0  0  0  0
  -15.5373  -30.3026   23.7578 H   0  0  0  0  0  0
  -15.8694  -28.0800   22.7105 H   0  0  0  0  0  0
  -24.5935  -30.7073   25.7736 H   0  0  0  0  0  0
  -24.8922  -32.2890   26.4801 H   0  0  0  0  0  0
  -25.8060  -30.8925   27.0211 H   0  0  0  0  0  0
  -26.2919  -29.6727   24.1192 H   0  0  0  0  0  0
  -27.4099  -29.7260   25.4635 H   0  0  0  0  0  0
  -27.8771  -30.4256   23.9326 H   0  0  0  0  0  0
  -27.2753  -33.3579   26.2063 H   0  0  0  0  0  0
  -28.3906  -32.6841   25.0269 H   0  0  0  0  0  0
  -28.0799  -31.8381   26.5338 H   0  0  0  0  0  0
  -28.2607  -38.0066   24.7483 H   0  0  0  0  0  0
  -28.1045  -36.2601   24.6321 H   0  0  0  0  0  0
  -27.2291  -37.1510   25.8867 H   0  0  0  0  0  0
  -20.9385  -29.8719   21.6843 H   0  0  0  0  0  0
  -26.0155  -38.2824   24.1376 H   0  0  0  0  0  0
  -28.2388  -18.1013   20.9787 H   0  0  0  0  0  0
  -30.8491  -20.9966   19.1246 H   0  0  0  0  0  0
  -31.9748  -16.8925   19.1399 H   0  0  0  0  0  0
  -29.9308  -22.4302   20.7713 H   0  0  0  0  0  0
  -28.5675  -22.4420   21.8272 H   0  0  0  0  0  0
  -27.1949  -23.4637   19.7533 H   0  0  0  0  0  0
  -28.7545  -23.7692   19.0689 H   0  0  0  0  0  0
  -29.1513  -25.0717   21.4161 H   0  0  0  0  0  0
  -27.4388  -25.0949   21.5164 H   0  0  0  0  0  0
  -27.0094  -19.7140   19.9173 H   0  0  0  0  0  0
  -28.8894  -15.6276   20.8617 H   0  0  0  0  0  0
  1 25  1  0  0  0
  1 30  2  0  0  0
  1 82  1  0  0  0
  2  3  1  0  0  0
  2 25  1  0  0  0
  2 84  1  0  0  0
  2 85  1  0  0  0
  3  4  1  0  0  0
  3 86  1  0  0  0
  3 87  1  0  0  0
  4  5  1  0  0  0
  4 88  1  0  0  0
  4 89  1  0  0  0
  5  6  1  0  0  0
  5 26  1  0  0  0
  5 90  1  0  0  0
  6 25  1  0  0  0
  6 91  1  0  0  0
  6 92  1  0  0  0
  7  8  2  0  0  0
  7 26  1  0  0  0
  7 29  1  0  0  0
  8  9  1  0  0  0
  8 22  1  0  0  0
  9 10  1  0  0  0
  9 27  2  0  0  0
 10 11  2  0  0  0
 10 15  1  0  0  0
 11 12  1  0  0  0
 11 93  1  0  0  0
 12 13  2  0  0  0
 12 94  1  0  0  0
 13 14  1  0  0  0
 13 31  1  0  0  0
 14 15  2  0  0  0
 14 95  1  0  0  0
 15 96  1  0  0  0
 16 17  2  0  0  0
 16 21  1  0  0  0
 16 31  1  0  0  0
 17 18  1  0  0  0
 17 97  1  0  0  0
 18 19  2  0  0  0
 18 98  1  0  0  0
 19 20  1  0  0  0
 19 24  1  0  0  0
 20 21  2  0  0  0
 20 99  1  0  0  0
 21 23  1  0  0  0
 22 28  1  0  0  0
 22 32  2  0  0  0
 26 27  1  0  0  0
 28100  1  0  0  0
 28101  1  0  0  0
 29102  1  0  0  0
 29103  1  0  0  0
 33 34  1  0  0  0
 33 66  1  0  0  0
 33 70  2  0  0  0
 34 36  1  0  0  0
 34 59  1  0  0  0
 34104  1  0  0  0
 35 44  2  0  0  0
 35 45  1  0  0  0
 35 68  1  0  0  0
 36 56  1  0  0  0
 36105  1  0  0  0
 37 39  1  0  0  0
 37 47  1  0  0  0
 37 66  1  0  0  0
 37106  1  0  0  0
 38 43  2  0  0  0
 38 46  1  0  0  0
 38 47  1  0  0  0
 39 64  1  0  0  0
 39 67  2  0  0  0
 40 52  1  0  0  0
 40 53  2  0  0  0
 40 58  1  0  0  0
 41107  1  0  0  0
 41108  1  0  0  0
 41109  1  0  0  0
 41 48  1  0  0  0
 42 43  1  0  0  0
 42 66  1  0  0  0
 42110  1  0  0  0
 42111  1  0  0  0
 43 44  1  0  0  0
 44112  1  0  0  0
 45 46  2  0  0  0
 45113  1  0  0  0
 46114  1  0  0  0
 47115  1  0  0  0
 47116  1  0  0  0
 48 56  1  0  0  0
 48 65  1  0  0  0
 48117  1  0  0  0
 49 50  1  0  0  0
 49 53  1  0  0  0
 49 64  1  0  0  0
 49118  1  0  0  0
 50 51  1  0  0  0
 50119  1  0  0  0
 50120  1  0  0  0
 51 52  1  0  0  0
 51121  1  0  0  0
 51122  1  0  0  0
 52123  1  0  0  0
 52124  1  0  0  0
 53 54  1  0  0  0
 54 55  2  0  0  0
 54125  1  0  0  0
 55 57  1  0  0  0
 55126  1  0  0  0
 56 69  2  0  0  0
 57 58  2  0  0  0
 57127  1  0  0  0
 58128  1  0  0  0
 59 60  1  0  0  0
 59 61  1  0  0  0
 59 62  1  0  0  0
 60129  1  0  0  0
 60130  1  0  0  0
 60131  1  0  0  0
 61132  1  0  0  0
 61133  1  0  0  0
 61134  1  0  0  0
 62135  1  0  0  0
 62136  1  0  0  0
 62137  1  0  0  0
 63 65  1  0  0  0
 63138  1  0  0  0
 63139  1  0  0  0
 63140  1  0  0  0
 64141  1  0  0  0
 65142  1  0  0  0
 68 80  1  0  0  0
 71 74  2  0  0  0
 71 75  1  0  0  0
 71143  1  0  0  0
 72 74  1  0  0  0
 72 76  2  0  0  0
 72144  1  0  0  0
 73 75  2  0  0  0
 73 76  1  0  0  0
 73145  1  0  0  0
 74 77  1  0  0  0
 75 82  1  0  0  0
 76 83  1  0  0  0
 77 78  1  0  0  0
 77 81  2  0  0  0
 78 79  1  0  0  0
 78146  1  0  0  0
 78147  1  0  0  0
 79 80  1  0  0  0
 79148  1  0  0  0
 79149  1  0  0  0
 80150  1  0  0  0
 80151  1  0  0  0
 81152  1  0  0  0
 82153  1  0  0  0
M  ISO  4   1 100  68 101  80 101  82 100
M  END
> <chiral flag>
0

> <version>
0

> <s_m_source_file>
/data/baiqing/PycharmProjects/Reinvent-master-3.2/result/LINK_invent/BTK/process_docking_weight1_custom_product_contain_oxygen_bond_distance_aromatic_linkinvent_7_9_3/rearranged_h_0131.sdf

> <i_m_source_file_index>
12

> <r_mmod_Potential_Energy-OPLS-2005>
100.171653747559

> <r_mmod_Stretch_Energy-OPLS-2005>
109.169792175293

> <r_mmod_Bend_Energy-OPLS-2005>
154.910003662109

> <r_mmod_Torsional_Energy-OPLS-2005>
245.029907226562

> <r_mmod_Improper_Torsional_Energy-OPLS-2005>
5.01158332824707

> <r_mmod_Van_der_Waal_Energy-OPLS-2005>
138.365341186523

> <r_mmod_Electrostatic_Energy-OPLS-2005>
-406.730102539062

> <r_mmod_Solvation_Energy-OPLS-2005>
-216.823791503906

> <b_mmod_Minimization_Converged-OPLS-2005>
0

> <r_mmod_RMS_Derivative-OPLS-2005>
4.91817474365234

$$$$
12
                    3D
 Structure written by MMmdl.
161169  0  0  1  0            999 V2000
  -30.7475  -14.5307   20.4561 C   0  0  0  0  0  0
  -30.3944  -12.3113   19.4711 C   0  0  0  0  0  0
  -29.4998  -12.4700   18.2268 C   0  0  0  0  0  0
  -28.0195  -12.3417   18.6271 C   0  0  0  0  0  0
  -27.6438  -13.2314   19.8459 C   0  0  2  0  0  0
  -28.6840  -13.1364   20.9825 C   0  0  0  0  0  0
  -25.2519  -13.8212   20.5679 C   0  0  0  0  0  0
  -24.1812  -13.0453   20.9190 C   0  0  0  0  0  0
  -24.6404  -11.6930   20.8719 C   0  0  0  0  0  0
  -23.9079  -10.4312   21.0386 C   0  0  0  0  0  0
  -24.3626   -9.4219   21.9157 C   0  0  0  0  0  0
  -23.6305   -8.2250   22.0737 C   0  0  0  0  0  0
  -22.4290   -8.0279   21.3526 C   0  0  0  0  0  0
  -21.9923   -9.0257   20.4634 C   0  0  0  0  0  0
  -22.7249  -10.2140   20.3045 C   0  0  0  0  0  0
  -21.6862   -6.0734   22.5273 C   0  0  0  0  0  0
  -21.4018   -6.5632   23.8210 C   0  0  0  0  0  0
  -21.3662   -5.6782   24.9165 C   0  0  0  0  0  0
  -21.6058   -4.3050   24.7207 C   0  0  0  0  0  0
  -21.8814   -3.8137   23.4326 C   0  0  0  0  0  0
  -21.9195   -4.6959   22.3384 C   0  0  0  0  0  0
  -22.7829  -13.5231   21.1843 C   0  0  0  0  0  0
  -22.1654   -4.2153   21.0960 F   0  0  0  0  0  0
  -21.5628   -3.4524   25.7713 F   0  0  0  0  0  0
  -30.0132  -13.3813   20.4143 N   0  0  0  0  0  0
  -26.2944  -12.9424   20.3257 N   0  0  0  0  0  0
  -25.9332  -11.6559   20.5723 N   0  0  0  0  0  0
  -22.0467  -12.8237   22.0407 N   0  0  0  0  0  0
  -25.4223  -15.1937   20.4121 N   0  0  0  0  0  0
  -31.9524  -14.4789   20.2017 O   0  0  0  0  0  0
  -21.6642   -6.8878   21.4237 O   0  0  0  0  0  0
  -22.3500  -14.5521   20.6677 O   0  0  0  0  0  0
  -24.6183  -31.8645   23.2081 C   0  0  0  0  0  0
  -25.9065  -32.4797   23.8386 C   0  0  1  0  0  0
  -27.2178  -27.3985   20.1125 C   0  0  0  0  0  0
  -25.5903  -33.8598   24.2310 N   0  0  0  0  0  0
  -23.4080  -30.4910   21.5476 C   0  0  2  0  0  0
  -24.8535  -28.9579   20.1097 C   0  0  0  0  0  0
  -22.7424  -29.4648   22.4941 C   0  0  0  0  0  0
  -18.0273  -28.1385   22.8481 C   0  0  0  0  0  0
  -24.1480  -36.7318   23.2634 C   0  0  0  0  0  0
  -25.9414  -30.8229   21.3666 C   0  0  0  0  0  0
  -26.0180  -29.4571   20.7085 C   0  0  0  0  0  0
  -27.2089  -28.6869   20.7024 C   0  0  0  0  0  0
  -26.0423  -26.9333   19.4860 C   0  0  0  0  0  0
  -24.8614  -27.6972   19.4926 C   0  0  0  0  0  0
  -23.6186  -29.8293   20.1606 C   0  0  0  0  0  0
  -25.4100  -36.3089   24.0326 C   0  0  1  0  0  0
  -20.5866  -28.3677   23.1293 C   0  0  2  0  0  0
  -20.6758  -26.9408   22.5408 C   0  0  0  0  0  0
  -19.5743  -26.6382   21.5199 C   0  0  0  0  0  0
  -18.1923  -26.7927   22.1617 C   0  0  0  0  0  0
  -19.1523  -28.8842   23.2891 C   0  0  0  0  0  0
  -18.9457  -30.1443   23.8908 C   0  0  0  0  0  0
  -17.6462  -30.6594   24.0561 C   0  0  0  0  0  0
  -25.9031  -34.9459   23.5115 C   0  0  0  0  0  0
  -16.5351  -29.9103   23.6322 C   0  0  0  0  0  0
  -16.7261  -28.6514   23.0354 C   0  0  0  0  0  0
  -26.4480  -31.6589   25.0733 C   0  0  0  0  0  0
  -25.3735  -31.3747   26.1483 C   0  0  0  0  0  0
  -27.0328  -30.3016   24.6168 C   0  0  0  0  0  0
  -27.6046  -32.4314   25.7519 C   0  0  0  0  0  0
  -27.5572  -37.1804   24.8455 C   0  0  0  0  0  0
  -21.4144  -29.3045   22.3690 N   0  0  0  0  0  0
  -26.4279  -37.3782   23.9401 N   0  0  0  0  0  0
  -24.6740  -31.0735   22.0995 N   0  0  0  0  0  0
  -23.4179  -28.8172   23.2986 O   0  0  0  0  0  0
  -28.3265  -26.5736   20.1623 O   0  0  0  0  0  0
  -26.5605  -34.8914   22.4680 O   0  0  0  0  0  0
  -23.5366  -32.1408   23.7457 O   0  0  0  0  0  0
  -30.4747  -21.2111   19.4618 C   0  0  0  0  0  0
  -31.4995  -20.4366   18.9135 C   0  0  0  0  0  0
  -29.5556  -19.2181   20.5438 C   0  0  0  0  0  0
  -30.6130  -18.4156   20.0161 C   0  0  0  0  0  0
  -29.4931  -20.6254   20.2788 C   0  0  0  0  0  0
  -31.5641  -19.0547   19.1621 C   0  0  0  0  0  0
  -30.8257  -16.9474   20.2413 C   0  0  0  0  0  0
  -30.0548  -15.8458   20.4899 C   0  0  0  0  0  0
  -32.6772  -18.2872   18.4546 C   0  0  0  0  0  0
  -30.5233  -24.6371   20.8460 C   0  0  0  0  0  0
  -28.3655  -21.5319   20.8017 C   0  0  0  0  0  0
  -28.7783  -22.8842   21.4821 C   0  0  0  0  0  0
  -28.0962  -25.3402   20.8973 C   0  0  0  0  0  0
  -29.0782  -24.1616   20.6076 C   0  0  1  0  0  0
  -31.4472  -12.3392   19.1837 H   0  0  0  0  0  0
  -30.2428  -11.3341   19.9321 H   0  0  0  0  0  0
  -29.7555  -11.7138   17.4834 H   0  0  0  0  0  0
  -29.6764  -13.4384   17.7575 H   0  0  0  0  0  0
  -27.8369  -11.2918   18.8620 H   0  0  0  0  0  0
  -27.3778  -12.5766   17.7766 H   0  0  0  0  0  0
  -27.6520  -14.2596   19.4834 H   0  0  0  0  0  0
  -28.6588  -12.1499   21.4467 H   0  0  0  0  0  0
  -28.4607  -13.8526   21.7748 H   0  0  0  0  0  0
  -25.2772   -9.5691   22.4728 H   0  0  0  0  0  0
  -24.0016   -7.4643   22.7464 H   0  0  0  0  0  0
  -21.0842   -8.8779   19.8948 H   0  0  0  0  0  0
  -22.3701  -10.9668   19.6153 H   0  0  0  0  0  0
  -21.2020   -7.6145   23.9714 H   0  0  0  0  0  0
  -21.1488   -6.0502   25.9072 H   0  0  0  0  0  0
  -22.0601   -2.7605   23.2810 H   0  0  0  0  0  0
  -22.4099  -11.9941   22.4857 H   0  0  0  0  0  0
  -21.1072  -13.1246   22.2573 H   0  0  0  0  0  0
  -24.6616  -15.8527   20.5371 H   0  0  0  0  0  0
  -26.2815  -15.6330   20.1058 H   0  0  0  0  0  0
  -26.7147  -32.5500   23.1157 H   0  0  0  0  0  0
  -25.0010  -33.9757   25.0425 H   0  0  0  0  0  0
  -22.6991  -31.3092   21.4090 H   0  0  0  0  0  0
  -23.3721  -35.9671   23.3297 H   0  0  0  0  0  0
  -24.3573  -36.8940   22.2050 H   0  0  0  0  0  0
  -23.7263  -37.6530   23.6666 H   0  0  0  0  0  0
  -26.0605  -31.5914   20.6008 H   0  0  0  0  0  0
  -26.8263  -30.8704   21.9907 H   0  0  0  0  0  0
  -28.1055  -29.0600   21.1768 H   0  0  0  0  0  0
  -26.0292  -25.9645   19.0073 H   0  0  0  0  0  0
  -23.9670  -27.3078   19.0263 H   0  0  0  0  0  0
  -23.7347  -30.6075   19.4057 H   0  0  0  0  0  0
  -22.7416  -29.2543   19.8584 H   0  0  0  0  0  0
  -25.1274  -36.1941   25.0822 H   0  0  0  0  0  0
  -20.9970  -28.3249   24.1405 H   0  0  0  0  0  0
  -20.5640  -26.2288   23.3597 H   0  0  0  0  0  0
  -21.6631  -26.7428   22.1211 H   0  0  0  0  0  0
  -19.6902  -25.6287   21.1238 H   0  0  0  0  0  0
  -19.6693  -27.3179   20.6717 H   0  0  0  0  0  0
  -17.4185  -26.6653   21.4031 H   0  0  0  0  0  0
  -18.0345  -26.0074   22.9025 H   0  0  0  0  0  0
  -19.7941  -30.7238   24.2301 H   0  0  0  0  0  0
  -17.5032  -31.6280   24.5149 H   0  0  0  0  0  0
  -15.5357  -30.3017   23.7642 H   0  0  0  0  0  0
  -15.8657  -28.0838   22.7073 H   0  0  0  0  0  0
  -24.5883  -30.7117   25.7833 H   0  0  0  0  0  0
  -24.8964  -32.2937   26.4904 H   0  0  0  0  0  0
  -25.8064  -30.8933   27.0260 H   0  0  0  0  0  0
  -26.2918  -29.6777   24.1163 H   0  0  0  0  0  0
  -27.4000  -29.7256   25.4670 H   0  0  0  0  0  0
  -27.8784  -30.4298   23.9408 H   0  0  0  0  0  0
  -27.2641  -33.3580   26.2153 H   0  0  0  0  0  0
  -28.3850  -32.6927   25.0361 H   0  0  0  0  0  0
  -28.0732  -31.8409   26.5403 H   0  0  0  0  0  0
  -28.2577  -38.0107   24.7489 H   0  0  0  0  0  0
  -28.1073  -36.2637   24.6281 H   0  0  0  0  0  0
  -27.2295  -37.1456   25.8858 H   0  0  0  0  0  0
  -20.9289  -29.8803   21.6949 H   0  0  0  0  0  0
  -26.0156  -38.2847   24.1424 H   0  0  0  0  0  0
  -30.4454  -22.2622   19.2259 H   0  0  0  0  0  0
  -32.2329  -20.9159   18.2806 H   0  0  0  0  0  0
  -28.8052  -18.7527   21.1679 H   0  0  0  0  0  0
  -31.8815  -16.7433   20.1808 H   0  0  0  0  0  0
  -28.9877  -15.9231   20.6366 H   0  0  0  0  0  0
  -33.1738  -18.8995   17.7021 H   0  0  0  0  0  0
  -32.2777  -17.4136   17.9384 H   0  0  0  0  0  0
  -33.4394  -17.9611   19.1632 H   0  0  0  0  0  0
  -31.2517  -23.8469   20.6669 H   0  0  0  0  0  0
  -30.6563  -24.9724   21.8759 H   0  0  0  0  0  0
  -30.7815  -25.4720   20.1948 H   0  0  0  0  0  0
  -27.8040  -20.9488   21.5327 H   0  0  0  0  0  0
  -27.6667  -21.7230   19.9879 H   0  0  0  0  0  0
  -29.5982  -22.6889   22.1743 H   0  0  0  0  0  0
  -27.9472  -23.1481   22.1386 H   0  0  0  0  0  0
  -28.1458  -25.5932   21.9571 H   0  0  0  0  0  0
  -27.0875  -24.9575   20.7388 H   0  0  0  0  0  0
  -28.9694  -23.9005   19.5540 H   0  0  0  0  0  0
  1 25  1  0  0  0
  1 30  2  0  0  0
  1 78  1  0  0  0
  2  3  1  0  0  0
  2 25  1  0  0  0
  2 85  1  0  0  0
  2 86  1  0  0  0
  3  4  1  0  0  0
  3 87  1  0  0  0
  3 88  1  0  0  0
  4  5  1  0  0  0
  4 89  1  0  0  0
  4 90  1  0  0  0
  5  6  1  0  0  0
  5 26  1  0  0  0
  5 91  1  0  0  0
  6 25  1  0  0  0
  6 92  1  0  0  0
  6 93  1  0  0  0
  7  8  2  0  0  0
  7 26  1  0  0  0
  7 29  1  0  0  0
  8  9  1  0  0  0
  8 22  1  0  0  0
  9 10  1  0  0  0
  9 27  2  0  0  0
 10 11  2  0  0  0
 10 15  1  0  0  0
 11 12  1  0  0  0
 11 94  1  0  0  0
 12 13  2  0  0  0
 12 95  1  0  0  0
 13 14  1  0  0  0
 13 31  1  0  0  0
 14 15  2  0  0  0
 14 96  1  0  0  0
 15 97  1  0  0  0
 16 17  2  0  0  0
 16 21  1  0  0  0
 16 31  1  0  0  0
 17 18  1  0  0  0
 17 98  1  0  0  0
 18 19  2  0  0  0
 18 99  1  0  0  0
 19 20  1  0  0  0
 19 24  1  0  0  0
 20 21  2  0  0  0
 20100  1  0  0  0
 21 23  1  0  0  0
 22 28  1  0  0  0
 22 32  2  0  0  0
 26 27  1  0  0  0
 28101  1  0  0  0
 28102  1  0  0  0
 29103  1  0  0  0
 29104  1  0  0  0
 33 34  1  0  0  0
 33 66  1  0  0  0
 33 70  2  0  0  0
 34 36  1  0  0  0
 34 59  1  0  0  0
 34105  1  0  0  0
 35 44  2  0  0  0
 35 45  1  0  0  0
 35 68  1  0  0  0
 36 56  1  0  0  0
 36106  1  0  0  0
 37 39  1  0  0  0
 37 47  1  0  0  0
 37 66  1  0  0  0
 37107  1  0  0  0
 38 43  2  0  0  0
 38 46  1  0  0  0
 38 47  1  0  0  0
 39 64  1  0  0  0
 39 67  2  0  0  0
 40 52  1  0  0  0
 40 53  2  0  0  0
 40 58  1  0  0  0
 41108  1  0  0  0
 41109  1  0  0  0
 41110  1  0  0  0
 41 48  1  0  0  0
 42 43  1  0  0  0
 42 66  1  0  0  0
 42111  1  0  0  0
 42112  1  0  0  0
 43 44  1  0  0  0
 44113  1  0  0  0
 45 46  2  0  0  0
 45114  1  0  0  0
 46115  1  0  0  0
 47116  1  0  0  0
 47117  1  0  0  0
 48 56  1  0  0  0
 48 65  1  0  0  0
 48118  1  0  0  0
 49 50  1  0  0  0
 49 53  1  0  0  0
 49 64  1  0  0  0
 49119  1  0  0  0
 50 51  1  0  0  0
 50120  1  0  0  0
 50121  1  0  0  0
 51 52  1  0  0  0
 51122  1  0  0  0
 51123  1  0  0  0
 52124  1  0  0  0
 52125  1  0  0  0
 53 54  1  0  0  0
 54 55  2  0  0  0
 54126  1  0  0  0
 55 57  1  0  0  0
 55127  1  0  0  0
 56 69  2  0  0  0
 57 58  2  0  0  0
 57128  1  0  0  0
 58129  1  0  0  0
 59 60  1  0  0  0
 59 61  1  0  0  0
 59 62  1  0  0  0
 60130  1  0  0  0
 60131  1  0  0  0
 60132  1  0  0  0
 61133  1  0  0  0
 61134  1  0  0  0
 61135  1  0  0  0
 62136  1  0  0  0
 62137  1  0  0  0
 62138  1  0  0  0
 63 65  1  0  0  0
 63139  1  0  0  0
 63140  1  0  0  0
 63141  1  0  0  0
 64142  1  0  0  0
 65143  1  0  0  0
 68 83  1  0  0  0
 71 72  2  0  0  0
 71 75  1  0  0  0
 71144  1  0  0  0
 72 76  1  0  0  0
 72145  1  0  0  0
 73 74  1  0  0  0
 73 75  2  0  0  0
 73146  1  0  0  0
 74 76  2  0  0  0
 74 77  1  0  0  0
 75 81  1  0  0  0
 76 79  1  0  0  0
 77 78  2  0  0  0
 77147  1  0  0  0
 78148  1  0  0  0
 79149  1  0  0  0
 79150  1  0  0  0
 79151  1  0  0  0
 80152  1  0  0  0
 80153  1  0  0  0
 80154  1  0  0  0
 80 84  1  0  0  0
 81 82  1  0  0  0
 81155  1  0  0  0
 81156  1  0  0  0
 82 84  1  0  0  0
 82157  1  0  0  0
 82158  1  0  0  0
 83 84  1  0  0  0
 83159  1  0  0  0
 83160  1  0  0  0
 84161  1  0  0  0
M  ISO  4   1 100  68 101  78 100  83 101
M  END
> <chiral flag>
0

> <version>
0

> <s_m_source_file>
/data/baiqing/PycharmProjects/Reinvent-master-3.2/result/LINK_invent/BTK/process_docking_weight1_custom_product_contain_oxygen_bond_distance_aromatic_linkinvent_7_9_3/rearranged_h_0131.sdf

> <i_m_source_file_index>
13

> <r_mmod_Potential_Energy-OPLS-2005>
113.793327331543

> <r_mmod_Stretch_Energy-OPLS-2005>
53.2000770568848

> <r_mmod_Bend_Energy-OPLS-2005>
138.746658325195

> <r_mmod_Torsional_Energy-OPLS-2005>
237.172119140625

> <r_mmod_Improper_Torsional_Energy-OPLS-2005>
7.87506103515625

> <r_mmod_Van_der_Waal_Energy-OPLS-2005>
166.552368164062

> <r_mmod_Electrostatic_Energy-OPLS-2005>
-344.811431884766

> <r_mmod_Solvation_Energy-OPLS-2005>
-184.374969482422

> <b_mmod_Minimization_Converged-OPLS-2005>
0

> <r_mmod_RMS_Derivative-OPLS-2005>
2.27948427200317

$$$$
13
                    3D
 Structure written by MMmdl.
158166  0  0  1  0            999 V2000
  -30.6227  -14.6208   20.4926 C   0  0  0  0  0  0
  -30.4416  -12.3807   19.4408 C   0  0  0  0  0  0
  -29.5056  -12.5030   18.2172 C   0  0  0  0  0  0
  -28.0289  -12.3364   18.6319 C   0  0  0  0  0  0
  -27.6527  -13.2018   19.8631 C   0  0  2  0  0  0
  -28.7015  -13.0544   20.9884 C   0  0  0  0  0  0
  -25.2552  -13.8107   20.5642 C   0  0  0  0  0  0
  -24.1821  -13.0403   20.9202 C   0  0  0  0  0  0
  -24.6376  -11.6871   20.8752 C   0  0  0  0  0  0
  -23.9037  -10.4270   21.0413 C   0  0  0  0  0  0
  -24.3598   -9.4184   21.9184 C   0  0  0  0  0  0
  -23.6277   -8.2218   22.0747 C   0  0  0  0  0  0
  -22.4260   -8.0259   21.3538 C   0  0  0  0  0  0
  -21.9890   -9.0233   20.4640 C   0  0  0  0  0  0
  -22.7216  -10.2114   20.3054 C   0  0  0  0  0  0
  -21.6840   -6.0719   22.5278 C   0  0  0  0  0  0
  -21.4007   -6.5628   23.8210 C   0  0  0  0  0  0
  -21.3658   -5.6781   24.9175 C   0  0  0  0  0  0
  -21.6048   -4.3045   24.7226 C   0  0  0  0  0  0
  -21.8820   -3.8135   23.4347 C   0  0  0  0  0  0
  -21.9192   -4.6951   22.3403 C   0  0  0  0  0  0
  -22.7850  -13.5215   21.1865 C   0  0  0  0  0  0
  -22.1660   -4.2134   21.0980 F   0  0  0  0  0  0
  -21.5635   -3.4530   25.7741 F   0  0  0  0  0  0
  -30.0168  -13.3955   20.4212 N   0  0  0  0  0  0
  -26.2977  -12.9266   20.3311 N   0  0  0  0  0  0
  -25.9300  -11.6442   20.5777 N   0  0  0  0  0  0
  -22.0480  -12.8215   22.0419 N   0  0  0  0  0  0
  -25.4231  -15.1813   20.3927 N   0  0  0  0  0  0
  -31.7984  -14.7894   20.1538 O   0  0  0  0  0  0
  -21.6623   -6.8858   21.4237 O   0  0  0  0  0  0
  -22.3550  -14.5525   20.6712 O   0  0  0  0  0  0
  -24.6251  -31.8619   23.2053 C   0  0  0  0  0  0
  -25.9109  -32.4791   23.8371 C   0  0  1  0  0  0
  -27.2255  -27.3451   20.1016 C   0  0  0  0  0  0
  -25.5930  -33.8592   24.2305 N   0  0  0  0  0  0
  -23.4163  -30.4877   21.5482 C   0  0  2  0  0  0
  -24.8601  -28.9471   20.1109 C   0  0  0  0  0  0
  -22.7463  -29.4635   22.4950 C   0  0  0  0  0  0
  -18.0279  -28.1383   22.8488 C   0  0  0  0  0  0
  -24.1487  -36.7296   23.2638 C   0  0  0  0  0  0
  -25.9563  -30.7988   21.3733 C   0  0  0  0  0  0
  -26.0293  -29.4296   20.7122 C   0  0  0  0  0  0
  -27.2138  -28.6400   20.6992 C   0  0  0  0  0  0
  -26.0309  -26.9108   19.4776 C   0  0  0  0  0  0
  -24.8609  -27.6907   19.4880 C   0  0  0  0  0  0
  -23.6288  -29.8270   20.1619 C   0  0  0  0  0  0
  -25.4110  -36.3096   24.0338 C   0  0  1  0  0  0
  -20.5881  -28.3686   23.1288 C   0  0  2  0  0  0
  -20.6775  -26.9411   22.5412 C   0  0  0  0  0  0
  -19.5749  -26.6387   21.5214 C   0  0  0  0  0  0
  -18.1928  -26.7931   22.1625 C   0  0  0  0  0  0
  -19.1534  -28.8849   23.2883 C   0  0  0  0  0  0
  -18.9461  -30.1456   23.8893 C   0  0  0  0  0  0
  -17.6464  -30.6586   24.0567 C   0  0  0  0  0  0
  -25.9047  -34.9462   23.5124 C   0  0  0  0  0  0
  -16.5352  -29.9090   23.6330 C   0  0  0  0  0  0
  -16.7269  -28.6508   23.0346 C   0  0  0  0  0  0
  -26.4498  -31.6588   25.0729 C   0  0  0  0  0  0
  -25.3736  -31.3724   26.1462 C   0  0  0  0  0  0
  -27.0336  -30.3015   24.6161 C   0  0  0  0  0  0
  -27.6071  -32.4311   25.7489 C   0  0  0  0  0  0
  -27.5582  -37.1799   24.8462 C   0  0  0  0  0  0
  -21.4179  -29.3042   22.3682 N   0  0  0  0  0  0
  -26.4290  -37.3785   23.9416 N   0  0  0  0  0  0
  -24.6849  -31.0653   22.0993 N   0  0  0  0  0  0
  -23.4194  -28.8165   23.3011 O   0  0  0  0  0  0
  -28.3576  -26.5219   20.1471 O   0  0  0  0  0  0
  -26.5602  -34.8928   22.4682 O   0  0  0  0  0  0
  -23.5422  -32.1406   23.7398 O   0  0  0  0  0  0
  -30.8698  -19.2235   21.5189 C   0  0  0  0  0  0
  -30.8162  -17.8041   21.4893 C   0  0  0  0  0  0
  -29.2202  -19.3445   19.7752 C   0  0  0  0  0  0
  -29.1422  -17.9129   19.7342 C   0  0  0  0  0  0
  -30.0652  -20.0316   20.6769 C   0  0  0  0  0  0
  -29.9510  -17.1076   20.6099 C   0  0  0  0  0  0
  -28.2451  -17.3063   18.7017 C   0  0  0  0  0  0
  -27.0064  -18.0949   18.2890 C   0  0  0  0  0  0
  -30.1930  -21.5901   20.7542 C   0  0  0  0  0  0
  -29.0890  -22.5447   20.1515 C   0  0  0  0  0  0
  -29.3150  -24.0995   20.3910 C   0  0  0  0  0  0
  -28.1721  -25.0794   19.9218 C   0  0  0  0  0  0
  -29.7812  -15.6643   20.7540 N   0  0  0  0  0  0
  -28.4414  -16.2077   18.1780 O   0  0  0  0  0  0
  -31.4809  -12.5143   19.1362 H   0  0  0  0  0  0
  -30.3820  -11.3823   19.8768 H   0  0  0  0  0  0
  -29.7695  -11.7578   17.4653 H   0  0  0  0  0  0
  -29.6444  -13.4767   17.7437 H   0  0  0  0  0  0
  -27.8675  -11.2827   18.8613 H   0  0  0  0  0  0
  -27.3723  -12.5681   17.7924 H   0  0  0  0  0  0
  -27.6669  -14.2344   19.5263 H   0  0  0  0  0  0
  -28.7126  -12.0317   21.3677 H   0  0  0  0  0  0
  -28.4509  -13.6860   21.8424 H   0  0  0  0  0  0
  -25.2743   -9.5658   22.4757 H   0  0  0  0  0  0
  -23.9988   -7.4599   22.7458 H   0  0  0  0  0  0
  -21.0821   -8.8739   19.8949 H   0  0  0  0  0  0
  -22.3666  -10.9647   19.6162 H   0  0  0  0  0  0
  -21.1988   -7.6133   23.9713 H   0  0  0  0  0  0
  -21.1487   -6.0509   25.9078 H   0  0  0  0  0  0
  -22.0604   -2.7599   23.2848 H   0  0  0  0  0  0
  -22.4081  -11.9884   22.4830 H   0  0  0  0  0  0
  -21.1101  -13.1258   22.2624 H   0  0  0  0  0  0
  -24.6312  -15.8129   20.4400 H   0  0  0  0  0  0
  -26.2323  -15.5894   19.9471 H   0  0  0  0  0  0
  -26.7171  -32.5459   23.1113 H   0  0  0  0  0  0
  -25.0088  -33.9737   25.0459 H   0  0  0  0  0  0
  -22.7102  -31.3092   21.4101 H   0  0  0  0  0  0
  -23.3760  -35.9617   23.3294 H   0  0  0  0  0  0
  -24.3581  -36.8911   22.2052 H   0  0  0  0  0  0
  -23.7230  -37.6497   23.6653 H   0  0  0  0  0  0
  -26.0889  -31.5651   20.6079 H   0  0  0  0  0  0
  -26.8373  -30.8418   22.0024 H   0  0  0  0  0  0
  -28.1124  -29.0074   21.1749 H   0  0  0  0  0  0
  -25.9704  -25.9556   18.9774 H   0  0  0  0  0  0
  -23.9641  -27.3162   19.0136 H   0  0  0  0  0  0
  -23.7512  -30.6072   19.4096 H   0  0  0  0  0  0
  -22.7472  -29.2613   19.8558 H   0  0  0  0  0  0
  -25.1290  -36.1945   25.0829 H   0  0  0  0  0  0
  -20.9976  -28.3256   24.1407 H   0  0  0  0  0  0
  -20.5687  -26.2293   23.3607 H   0  0  0  0  0  0
  -21.6640  -26.7447   22.1196 H   0  0  0  0  0  0
  -19.6912  -25.6300   21.1241 H   0  0  0  0  0  0
  -19.6694  -27.3199   20.6745 H   0  0  0  0  0  0
  -17.4204  -26.6680   21.4020 H   0  0  0  0  0  0
  -18.0321  -26.0072   22.9017 H   0  0  0  0  0  0
  -19.7941  -30.7270   24.2259 H   0  0  0  0  0  0
  -17.5023  -31.6268   24.5173 H   0  0  0  0  0  0
  -15.5355  -30.2995   23.7661 H   0  0  0  0  0  0
  -15.8666  -28.0836   22.7053 H   0  0  0  0  0  0
  -24.5883  -30.7109   25.7783 H   0  0  0  0  0  0
  -24.8964  -32.2897   26.4922 H   0  0  0  0  0  0
  -25.8056  -30.8862   27.0218 H   0  0  0  0  0  0
  -26.2897  -29.6759   24.1211 H   0  0  0  0  0  0
  -27.4075  -29.7269   25.4644 H   0  0  0  0  0  0
  -27.8752  -30.4316   23.9353 H   0  0  0  0  0  0
  -27.2700  -33.3618   26.2065 H   0  0  0  0  0  0
  -28.3876  -32.6854   25.0304 H   0  0  0  0  0  0
  -28.0744  -31.8432   26.5397 H   0  0  0  0  0  0
  -28.2594  -38.0102   24.7523 H   0  0  0  0  0  0
  -28.1087  -36.2638   24.6272 H   0  0  0  0  0  0
  -27.2304  -37.1412   25.8863 H   0  0  0  0  0  0
  -20.9352  -29.8781   21.6913 H   0  0  0  0  0  0
  -26.0178  -38.2863   24.1421 H   0  0  0  0  0  0
  -31.5441  -19.6989   22.2183 H   0  0  0  0  0  0
  -31.4275  -17.2475   22.1854 H   0  0  0  0  0  0
  -28.6279  -19.9383   19.0937 H   0  0  0  0  0  0
  -26.6009  -18.6478   19.1360 H   0  0  0  0  0  0
  -26.2343  -17.4196   17.9225 H   0  0  0  0  0  0
  -27.2566  -18.7982   17.4955 H   0  0  0  0  0  0
  -31.1514  -21.8521   20.3032 H   0  0  0  0  0  0
  -30.2948  -21.8407   21.8110 H   0  0  0  0  0  0
  -28.1214  -22.2624   20.5672 H   0  0  0  0  0  0
  -29.0190  -22.3685   19.0778 H   0  0  0  0  0  0
  -30.2432  -24.3949   19.9009 H   0  0  0  0  0  0
  -29.4800  -24.2615   21.4565 H   0  0  0  0  0  0
  -27.2623  -24.7563   20.4304 H   0  0  0  0  0  0
  -28.0068  -24.9210   18.8552 H   0  0  0  0  0  0
  -28.8306  -15.3596   20.8942 H   0  0  0  0  0  0
  1 25  1  0  0  0
  1 30  2  0  0  0
  1 83  1  0  0  0
  2  3  1  0  0  0
  2 25  1  0  0  0
  2 85  1  0  0  0
  2 86  1  0  0  0
  3  4  1  0  0  0
  3 87  1  0  0  0
  3 88  1  0  0  0
  4  5  1  0  0  0
  4 89  1  0  0  0
  4 90  1  0  0  0
  5  6  1  0  0  0
  5 26  1  0  0  0
  5 91  1  0  0  0
  6 25  1  0  0  0
  6 92  1  0  0  0
  6 93  1  0  0  0
  7  8  2  0  0  0
  7 26  1  0  0  0
  7 29  1  0  0  0
  8  9  1  0  0  0
  8 22  1  0  0  0
  9 10  1  0  0  0
  9 27  2  0  0  0
 10 11  2  0  0  0
 10 15  1  0  0  0
 11 12  1  0  0  0
 11 94  1  0  0  0
 12 13  2  0  0  0
 12 95  1  0  0  0
 13 14  1  0  0  0
 13 31  1  0  0  0
 14 15  2  0  0  0
 14 96  1  0  0  0
 15 97  1  0  0  0
 16 17  2  0  0  0
 16 21  1  0  0  0
 16 31  1  0  0  0
 17 18  1  0  0  0
 17 98  1  0  0  0
 18 19  2  0  0  0
 18 99  1  0  0  0
 19 20  1  0  0  0
 19 24  1  0  0  0
 20 21  2  0  0  0
 20100  1  0  0  0
 21 23  1  0  0  0
 22 28  1  0  0  0
 22 32  2  0  0  0
 26 27  1  0  0  0
 28101  1  0  0  0
 28102  1  0  0  0
 29103  1  0  0  0
 29104  1  0  0  0
 33 34  1  0  0  0
 33 66  1  0  0  0
 33 70  2  0  0  0
 34 36  1  0  0  0
 34 59  1  0  0  0
 34105  1  0  0  0
 35 44  2  0  0  0
 35 45  1  0  0  0
 35 68  1  0  0  0
 36 56  1  0  0  0
 36106  1  0  0  0
 37 39  1  0  0  0
 37 47  1  0  0  0
 37 66  1  0  0  0
 37107  1  0  0  0
 38 43  2  0  0  0
 38 46  1  0  0  0
 38 47  1  0  0  0
 39 64  1  0  0  0
 39 67  2  0  0  0
 40 52  1  0  0  0
 40 53  2  0  0  0
 40 58  1  0  0  0
 41108  1  0  0  0
 41109  1  0  0  0
 41110  1  0  0  0
 41 48  1  0  0  0
 42 43  1  0  0  0
 42 66  1  0  0  0
 42111  1  0  0  0
 42112  1  0  0  0
 43 44  1  0  0  0
 44113  1  0  0  0
 45 46  2  0  0  0
 45114  1  0  0  0
 46115  1  0  0  0
 47116  1  0  0  0
 47117  1  0  0  0
 48 56  1  0  0  0
 48 65  1  0  0  0
 48118  1  0  0  0
 49 50  1  0  0  0
 49 53  1  0  0  0
 49 64  1  0  0  0
 49119  1  0  0  0
 50 51  1  0  0  0
 50120  1  0  0  0
 50121  1  0  0  0
 51 52  1  0  0  0
 51122  1  0  0  0
 51123  1  0  0  0
 52124  1  0  0  0
 52125  1  0  0  0
 53 54  1  0  0  0
 54 55  2  0  0  0
 54126  1  0  0  0
 55 57  1  0  0  0
 55127  1  0  0  0
 56 69  2  0  0  0
 57 58  2  0  0  0
 57128  1  0  0  0
 58129  1  0  0  0
 59 60  1  0  0  0
 59 61  1  0  0  0
 59 62  1  0  0  0
 60130  1  0  0  0
 60131  1  0  0  0
 60132  1  0  0  0
 61133  1  0  0  0
 61134  1  0  0  0
 61135  1  0  0  0
 62136  1  0  0  0
 62137  1  0  0  0
 62138  1  0  0  0
 63 65  1  0  0  0
 63139  1  0  0  0
 63140  1  0  0  0
 63141  1  0  0  0
 64142  1  0  0  0
 65143  1  0  0  0
 68 82  1  0  0  0
 71 72  2  0  0  0
 71 75  1  0  0  0
 71144  1  0  0  0
 72 76  1  0  0  0
 72145  1  0  0  0
 73 74  1  0  0  0
 73 75  2  0  0  0
 73146  1  0  0  0
 74 76  2  0  0  0
 74 77  1  0  0  0
 75 79  1  0  0  0
 76 83  1  0  0  0
 77 78  1  0  0  0
 77 84  2  0  0  0
 78147  1  0  0  0
 78148  1  0  0  0
 78149  1  0  0  0
 79 80  1  0  0  0
 79150  1  0  0  0
 79151  1  0  0  0
 80 81  1  0  0  0
 80152  1  0  0  0
 80153  1  0  0  0
 81 82  1  0  0  0
 81154  1  0  0  0
 81155  1  0  0  0
 82156  1  0  0  0
 82157  1  0  0  0
 83158  1  0  0  0
M  ISO  4   1 100  68 101  82 101  83 100
M  END
> <chiral flag>
0

> <version>
0

> <s_m_source_file>
/data/baiqing/PycharmProjects/Reinvent-master-3.2/result/LINK_invent/BTK/process_docking_weight1_custom_product_contain_oxygen_bond_distance_aromatic_linkinvent_7_9_3/rearranged_h_0131.sdf

> <i_m_source_file_index>
14

> <r_mmod_Potential_Energy-OPLS-2005>
92.6710815429688

> <r_mmod_Stretch_Energy-OPLS-2005>
69.3420562744141

> <r_mmod_Bend_Energy-OPLS-2005>
122.059272766113

> <r_mmod_Torsional_Energy-OPLS-2005>
259.057647705078

> <r_mmod_Improper_Torsional_Energy-OPLS-2005>
7.02412033081055

> <r_mmod_Van_der_Waal_Energy-OPLS-2005>
140.489959716797

> <r_mmod_Electrostatic_Energy-OPLS-2005>
-335.021453857422

> <r_mmod_Solvation_Energy-OPLS-2005>
-211.752212524414

> <b_mmod_Minimization_Converged-OPLS-2005>
0

> <r_mmod_RMS_Derivative-OPLS-2005>
1.24638903141022

$$$$
14
                    3D
 Structure written by MMmdl.
157165  0  0  1  0            999 V2000
  -30.7106  -14.4876   20.5982 C   0  0  0  0  0  0
  -30.4148  -12.3091   19.4590 C   0  0  0  0  0  0
  -29.5069  -12.5009   18.2240 C   0  0  0  0  0  0
  -28.0201  -12.3784   18.6165 C   0  0  0  0  0  0
  -27.6619  -13.2162   19.8757 C   0  0  2  0  0  0
  -28.6970  -13.0058   21.0076 C   0  0  0  0  0  0
  -25.2582  -13.8191   20.5710 C   0  0  0  0  0  0
  -24.1837  -13.0463   20.9213 C   0  0  0  0  0  0
  -24.6397  -11.6922   20.8740 C   0  0  0  0  0  0
  -23.9070  -10.4286   21.0389 C   0  0  0  0  0  0
  -24.3635   -9.4207   21.9164 C   0  0  0  0  0  0
  -23.6326   -8.2234   22.0752 C   0  0  0  0  0  0
  -22.4297   -8.0275   21.3547 C   0  0  0  0  0  0
  -21.9904   -9.0251   20.4668 C   0  0  0  0  0  0
  -22.7238  -10.2130   20.3059 C   0  0  0  0  0  0
  -21.6866   -6.0761   22.5284 C   0  0  0  0  0  0
  -21.4015   -6.5637   23.8224 C   0  0  0  0  0  0
  -21.3673   -5.6779   24.9168 C   0  0  0  0  0  0
  -21.6048   -4.3054   24.7212 C   0  0  0  0  0  0
  -21.8806   -3.8157   23.4332 C   0  0  0  0  0  0
  -21.9180   -4.6986   22.3395 C   0  0  0  0  0  0
  -22.7852  -13.5278   21.1829 C   0  0  0  0  0  0
  -22.1652   -4.2184   21.0969 F   0  0  0  0  0  0
  -21.5627   -3.4529   25.7710 F   0  0  0  0  0  0
  -30.0287  -13.3080   20.4719 N   0  0  0  0  0  0
  -26.3018  -12.9398   20.3350 N   0  0  0  0  0  0
  -25.9317  -11.6550   20.5759 N   0  0  0  0  0  0
  -22.0421  -12.8332   22.0385 N   0  0  0  0  0  0
  -25.4290  -15.1925   20.4218 N   0  0  0  0  0  0
  -31.7969  -14.6577   20.0398 O   0  0  0  0  0  0
  -21.6655   -6.8896   21.4241 O   0  0  0  0  0  0
  -22.3576  -14.5553   20.6606 O   0  0  0  0  0  0
  -24.6170  -31.8646   23.2063 C   0  0  0  0  0  0
  -25.9051  -32.4814   23.8378 C   0  0  1  0  0  0
  -27.2366  -27.4013   20.1024 C   0  0  0  0  0  0
  -25.5911  -33.8626   24.2298 N   0  0  0  0  0  0
  -23.4070  -30.4838   21.5433 C   0  0  2  0  0  0
  -24.8535  -28.9429   20.1063 C   0  0  0  0  0  0
  -22.7427  -29.4638   22.4968 C   0  0  0  0  0  0
  -18.0296  -28.1372   22.8468 C   0  0  0  0  0  0
  -24.1473  -36.7285   23.2636 C   0  0  0  0  0  0
  -25.9386  -30.8122   21.3705 C   0  0  0  0  0  0
  -26.0113  -29.4478   20.7116 C   0  0  0  0  0  0
  -27.2032  -28.6862   20.7010 C   0  0  0  0  0  0
  -26.0584  -26.9123   19.4938 C   0  0  0  0  0  0
  -24.8753  -27.6801   19.4887 C   0  0  0  0  0  0
  -23.6154  -29.8096   20.1597 C   0  0  0  0  0  0
  -25.4113  -36.3110   24.0325 C   0  0  1  0  0  0
  -20.5865  -28.3655   23.1302 C   0  0  2  0  0  0
  -20.6765  -26.9400   22.5378 C   0  0  0  0  0  0
  -19.5754  -26.6370   21.5170 C   0  0  0  0  0  0
  -18.1935  -26.7929   22.1593 C   0  0  0  0  0  0
  -19.1529  -28.8843   23.2880 C   0  0  0  0  0  0
  -18.9462  -30.1439   23.8908 C   0  0  0  0  0  0
  -17.6465  -30.6593   24.0535 C   0  0  0  0  0  0
  -25.9040  -34.9477   23.5106 C   0  0  0  0  0  0
  -16.5355  -29.9075   23.6327 C   0  0  0  0  0  0
  -16.7282  -28.6473   23.0381 C   0  0  0  0  0  0
  -26.4466  -31.6664   25.0759 C   0  0  0  0  0  0
  -25.3724  -31.3796   26.1506 C   0  0  0  0  0  0
  -27.0304  -30.3104   24.6203 C   0  0  0  0  0  0
  -27.6019  -32.4440   25.7513 C   0  0  0  0  0  0
  -27.5594  -37.1788   24.8461 C   0  0  0  0  0  0
  -21.4155  -29.3023   22.3718 N   0  0  0  0  0  0
  -26.4302  -37.3793   23.9404 N   0  0  0  0  0  0
  -24.6712  -31.0702   22.0973 N   0  0  0  0  0  0
  -23.4185  -28.8220   23.3050 O   0  0  0  0  0  0
  -28.4218  -26.6826   20.1573 O   0  0  0  0  0  0
  -26.5588  -34.8949   22.4661 O   0  0  0  0  0  0
  -23.5366  -32.1415   23.7430 O   0  0  0  0  0  0
  -29.8388  -18.2574   22.8714 C   0  0  0  0  0  0
  -28.9782  -19.1591   20.7791 C   0  0  0  0  0  0
  -29.0474  -20.5653   22.7723 C   0  0  0  0  0  0
  -29.5658  -18.0776   21.4959 C   0  0  0  0  0  0
  -29.6015  -19.4956   23.5025 C   0  0  0  0  0  0
  -28.7133  -20.4098   21.4102 C   0  0  0  0  0  0
  -29.9405  -16.8014   20.8206 C   0  0  0  0  0  0
  -30.0954  -15.5678   21.3777 C   0  0  0  0  0  0
  -28.1058  -24.2075   20.5198 C   0  0  0  0  0  0
  -29.9693  -19.6876   24.9632 C   0  0  0  0  0  0
  -28.0033  -21.5708   20.6901 C   0  0  0  0  0  0
  -28.8653  -22.8518   20.4465 C   0  0  0  0  0  0
  -28.5569  -25.3579   19.5803 C   0  0  0  0  0  0
  -27.1769  -24.3705   21.3193 O   0  0  0  0  0  0
  -31.4648  -12.3856   19.1739 H   0  0  0  0  0  0
  -30.3033  -11.3052   19.8744 H   0  0  0  0  0  0
  -29.7537  -11.7510   17.4703 H   0  0  0  0  0  0
  -29.6976  -13.4757   17.7681 H   0  0  0  0  0  0
  -27.8123  -11.3244   18.8055 H   0  0  0  0  0  0
  -27.3871  -12.6719   17.7767 H   0  0  0  0  0  0
  -27.7058  -14.2641   19.5785 H   0  0  0  0  0  0
  -28.6710  -11.9727   21.3579 H   0  0  0  0  0  0
  -28.4497  -13.6107   21.8787 H   0  0  0  0  0  0
  -25.2763   -9.5720   22.4766 H   0  0  0  0  0  0
  -24.0044   -7.4634   22.7479 H   0  0  0  0  0  0
  -21.0796   -8.8794   19.9011 H   0  0  0  0  0  0
  -22.3662  -10.9689   19.6202 H   0  0  0  0  0  0
  -21.2013   -7.6149   23.9732 H   0  0  0  0  0  0
  -21.1514   -6.0507   25.9075 H   0  0  0  0  0  0
  -22.0583   -2.7627   23.2788 H   0  0  0  0  0  0
  -22.4021  -12.0102   22.4952 H   0  0  0  0  0  0
  -21.1039  -13.1465   22.2470 H   0  0  0  0  0  0
  -24.6695  -15.8500   20.5607 H   0  0  0  0  0  0
  -26.2998  -15.6374   20.1563 H   0  0  0  0  0  0
  -26.7137  -32.5488   23.1148 H   0  0  0  0  0  0
  -25.0154  -33.9792   25.0511 H   0  0  0  0  0  0
  -22.6983  -31.3023   21.4005 H   0  0  0  0  0  0
  -23.3766  -35.9582   23.3295 H   0  0  0  0  0  0
  -24.3564  -36.8912   22.2053 H   0  0  0  0  0  0
  -23.7193  -37.6466   23.6663 H   0  0  0  0  0  0
  -26.0767  -31.5814   20.6086 H   0  0  0  0  0  0
  -26.8190  -30.8522   22.0000 H   0  0  0  0  0  0
  -28.1025  -29.0707   21.1603 H   0  0  0  0  0  0
  -26.0292  -25.9342   19.0334 H   0  0  0  0  0  0
  -23.9839  -27.2902   19.0128 H   0  0  0  0  0  0
  -23.7244  -30.5780   19.3949 H   0  0  0  0  0  0
  -22.7397  -29.2238   19.8689 H   0  0  0  0  0  0
  -25.1294  -36.1947   25.0817 H   0  0  0  0  0  0
  -20.9972  -28.3208   24.1411 H   0  0  0  0  0  0
  -20.5631  -26.2272   23.3547 H   0  0  0  0  0  0
  -21.6648  -26.7417   22.1191 H   0  0  0  0  0  0
  -19.6890  -25.6263   21.1242 H   0  0  0  0  0  0
  -19.6722  -27.3137   20.6663 H   0  0  0  0  0  0
  -17.4190  -26.6696   21.4002 H   0  0  0  0  0  0
  -18.0359  -26.0080   22.9012 H   0  0  0  0  0  0
  -19.7947  -30.7228   24.2320 H   0  0  0  0  0  0
  -17.5030  -31.6290   24.5110 H   0  0  0  0  0  0
  -15.5354  -30.2966   23.7648 H   0  0  0  0  0  0
  -15.8689  -28.0751   22.7148 H   0  0  0  0  0  0
  -24.5842  -30.7221   25.7824 H   0  0  0  0  0  0
  -24.8984  -32.2981   26.4997 H   0  0  0  0  0  0
  -25.8064  -30.8905   27.0240 H   0  0  0  0  0  0
  -26.2866  -29.6900   24.1201 H   0  0  0  0  0  0
  -27.3989  -29.7337   25.4693 H   0  0  0  0  0  0
  -27.8746  -30.4417   23.9429 H   0  0  0  0  0  0
  -27.2586  -33.3721   26.2109 H   0  0  0  0  0  0
  -28.3791  -32.7081   25.0324 H   0  0  0  0  0  0
  -28.0753  -31.8606   26.5418 H   0  0  0  0  0  0
  -28.2576  -38.0115   24.7553 H   0  0  0  0  0  0
  -28.1124  -36.2652   24.6223 H   0  0  0  0  0  0
  -27.2325  -37.1369   25.8866 H   0  0  0  0  0  0
  -20.9333  -29.8708   21.6898 H   0  0  0  0  0  0
  -26.0183  -38.2857   24.1443 H   0  0  0  0  0  0
  -30.2896  -17.4576   23.4427 H   0  0  0  0  0  0
  -28.7323  -19.0270   19.7360 H   0  0  0  0  0  0
  -28.8589  -21.5092   23.2702 H   0  0  0  0  0  0
  -30.1763  -16.9064   19.7700 H   0  0  0  0  0  0
  -29.8355  -15.3916   22.4125 H   0  0  0  0  0  0
  -29.9862  -18.7395   25.5007 H   0  0  0  0  0  0
  -29.2603  -20.3461   25.4639 H   0  0  0  0  0  0
  -30.9597  -20.1359   25.0463 H   0  0  0  0  0  0
  -27.1173  -21.8118   21.2797 H   0  0  0  0  0  0
  -27.6126  -21.2161   19.7339 H   0  0  0  0  0  0
  -29.6495  -22.9080   21.2018 H   0  0  0  0  0  0
  -29.3834  -22.7640   19.4900 H   0  0  0  0  0  0
  -28.0566  -25.2769   18.6157 H   0  0  0  0  0  0
  -29.6180  -25.2137   19.3765 H   0  0  0  0  0  0
  1 25  1  0  0  0
  1 30  2  0  0  0
  1 78  1  0  0  0
  2  3  1  0  0  0
  2 25  1  0  0  0
  2 85  1  0  0  0
  2 86  1  0  0  0
  3  4  1  0  0  0
  3 87  1  0  0  0
  3 88  1  0  0  0
  4  5  1  0  0  0
  4 89  1  0  0  0
  4 90  1  0  0  0
  5  6  1  0  0  0
  5 26  1  0  0  0
  5 91  1  0  0  0
  6 25  1  0  0  0
  6 92  1  0  0  0
  6 93  1  0  0  0
  7  8  2  0  0  0
  7 26  1  0  0  0
  7 29  1  0  0  0
  8  9  1  0  0  0
  8 22  1  0  0  0
  9 10  1  0  0  0
  9 27  2  0  0  0
 10 11  2  0  0  0
 10 15  1  0  0  0
 11 12  1  0  0  0
 11 94  1  0  0  0
 12 13  2  0  0  0
 12 95  1  0  0  0
 13 14  1  0  0  0
 13 31  1  0  0  0
 14 15  2  0  0  0
 14 96  1  0  0  0
 15 97  1  0  0  0
 16 17  2  0  0  0
 16 21  1  0  0  0
 16 31  1  0  0  0
 17 18  1  0  0  0
 17 98  1  0  0  0
 18 19  2  0  0  0
 18 99  1  0  0  0
 19 20  1  0  0  0
 19 24  1  0  0  0
 20 21  2  0  0  0
 20100  1  0  0  0
 21 23  1  0  0  0
 22 28  1  0  0  0
 22 32  2  0  0  0
 26 27  1  0  0  0
 28101  1  0  0  0
 28102  1  0  0  0
 29103  1  0  0  0
 29104  1  0  0  0
 33 34  1  0  0  0
 33 66  1  0  0  0
 33 70  2  0  0  0
 34 36  1  0  0  0
 34 59  1  0  0  0
 34105  1  0  0  0
 35 44  2  0  0  0
 35 45  1  0  0  0
 35 68  1  0  0  0
 36 56  1  0  0  0
 36106  1  0  0  0
 37 39  1  0  0  0
 37 47  1  0  0  0
 37 66  1  0  0  0
 37107  1  0  0  0
 38 43  2  0  0  0
 38 46  1  0  0  0
 38 47  1  0  0  0
 39 64  1  0  0  0
 39 67  2  0  0  0
 40 52  1  0  0  0
 40 53  2  0  0  0
 40 58  1  0  0  0
 41108  1  0  0  0
 41109  1  0  0  0
 41110  1  0  0  0
 41 48  1  0  0  0
 42 43  1  0  0  0
 42 66  1  0  0  0
 42111  1  0  0  0
 42112  1  0  0  0
 43 44  1  0  0  0
 44113  1  0  0  0
 45 46  2  0  0  0
 45114  1  0  0  0
 46115  1  0  0  0
 47116  1  0  0  0
 47117  1  0  0  0
 48 56  1  0  0  0
 48 65  1  0  0  0
 48118  1  0  0  0
 49 50  1  0  0  0
 49 53  1  0  0  0
 49 64  1  0  0  0
 49119  1  0  0  0
 50 51  1  0  0  0
 50120  1  0  0  0
 50121  1  0  0  0
 51 52  1  0  0  0
 51122  1  0  0  0
 51123  1  0  0  0
 52124  1  0  0  0
 52125  1  0  0  0
 53 54  1  0  0  0
 54 55  2  0  0  0
 54126  1  0  0  0
 55 57  1  0  0  0
 55127  1  0  0  0
 56 69  2  0  0  0
 57 58  2  0  0  0
 57128  1  0  0  0
 58129  1  0  0  0
 59 60  1  0  0  0
 59 61  1  0  0  0
 59 62  1  0  0  0
 60130  1  0  0  0
 60131  1  0  0  0
 60132  1  0  0  0
 61133  1  0  0  0
 61134  1  0  0  0
 61135  1  0  0  0
 62136  1  0  0  0
 62137  1  0  0  0
 62138  1  0  0  0
 63 65  1  0  0  0
 63139  1  0  0  0
 63140  1  0  0  0
 63141  1  0  0  0
 64142  1  0  0  0
 65143  1  0  0  0
 68 83  1  0  0  0
 71 74  2  0  0  0
 71 75  1  0  0  0
 71144  1  0  0  0
 72 74  1  0  0  0
 72 76  2  0  0  0
 72145  1  0  0  0
 73 75  2  0  0  0
 73 76  1  0  0  0
 73146  1  0  0  0
 74 77  1  0  0  0
 75 80  1  0  0  0
 76 81  1  0  0  0
 77 78  2  0  0  0
 77147  1  0  0  0
 78148  1  0  0  0
 79 82  1  0  0  0
 79 83  1  0  0  0
 79 84  2  0  0  0
 80149  1  0  0  0
 80150  1  0  0  0
 80151  1  0  0  0
 81 82  1  0  0  0
 81152  1  0  0  0
 81153  1  0  0  0
 82154  1  0  0  0
 82155  1  0  0  0
 83156  1  0  0  0
 83157  1  0  0  0
M  ISO  4   1 100  68 101  78 100  83 101
M  END
> <chiral flag>
0

> <version>
0

> <s_m_source_file>
/data/baiqing/PycharmProjects/Reinvent-master-3.2/result/LINK_invent/BTK/process_docking_weight1_custom_product_contain_oxygen_bond_distance_aromatic_linkinvent_7_9_3/rearranged_h_0131.sdf

> <i_m_source_file_index>
15

> <r_mmod_Potential_Energy-OPLS-2005>
-18.1989231109619

> <r_mmod_Stretch_Energy-OPLS-2005>
46.7924194335938

> <r_mmod_Bend_Energy-OPLS-2005>
111.680267333984

> <r_mmod_Torsional_Energy-OPLS-2005>
197.733947753906

> <r_mmod_Improper_Torsional_Energy-OPLS-2005>
3.46796178817749

> <r_mmod_Van_der_Waal_Energy-OPLS-2005>
144.002593994141

> <r_mmod_Electrostatic_Energy-OPLS-2005>
-327.548919677734

> <r_mmod_Solvation_Energy-OPLS-2005>
-210.926605224609

> <b_mmod_Minimization_Converged-OPLS-2005>
0

> <r_mmod_RMS_Derivative-OPLS-2005>
4.94585418701172

$$$$
15
                    3D
 Structure written by MMmdl.
150158  0  0  1  0            999 V2000
  -30.5944  -14.7522   20.4520 C   0  0  0  0  0  0
  -30.4351  -12.4554   19.4773 C   0  0  0  0  0  0
  -29.5129  -12.5073   18.2381 C   0  0  0  0  0  0
  -28.0375  -12.3332   18.6504 C   0  0  0  0  0  0
  -27.6428  -13.2308   19.8533 C   0  0  2  0  0  0
  -28.6861  -13.1566   20.9896 C   0  0  0  0  0  0
  -25.2507  -13.8189   20.5702 C   0  0  0  0  0  0
  -24.1798  -13.0432   20.9209 C   0  0  0  0  0  0
  -24.6390  -11.6910   20.8754 C   0  0  0  0  0  0
  -23.9060  -10.4287   21.0413 C   0  0  0  0  0  0
  -24.3614   -9.4199   21.9186 C   0  0  0  0  0  0
  -23.6286   -8.2237   22.0754 C   0  0  0  0  0  0
  -22.4265   -8.0279   21.3550 C   0  0  0  0  0  0
  -21.9897   -9.0252   20.4654 C   0  0  0  0  0  0
  -22.7229  -10.2129   20.3067 C   0  0  0  0  0  0
  -21.6850   -6.0733   22.5280 C   0  0  0  0  0  0
  -21.4012   -6.5642   23.8214 C   0  0  0  0  0  0
  -21.3659   -5.6794   24.9178 C   0  0  0  0  0  0
  -21.6046   -4.3056   24.7229 C   0  0  0  0  0  0
  -21.8814   -3.8146   23.4348 C   0  0  0  0  0  0
  -21.9189   -4.6961   22.3403 C   0  0  0  0  0  0
  -22.7822  -13.5218   21.1874 C   0  0  0  0  0  0
  -22.1662   -4.2147   21.0982 F   0  0  0  0  0  0
  -21.5621   -3.4542   25.7739 F   0  0  0  0  0  0
  -29.9893  -13.5134   20.4145 N   0  0  0  0  0  0
  -26.2934  -12.9396   20.3284 N   0  0  0  0  0  0
  -25.9317  -11.6536   20.5747 N   0  0  0  0  0  0
  -22.0468  -12.8216   22.0437 N   0  0  0  0  0  0
  -25.4184  -15.1920   20.4148 N   0  0  0  0  0  0
  -31.7782  -14.8554   20.1145 O   0  0  0  0  0  0
  -21.6635   -6.8874   21.4244 O   0  0  0  0  0  0
  -22.3509  -14.5523   20.6715 O   0  0  0  0  0  0
  -24.6310  -31.8541   23.1967 C   0  0  0  0  0  0
  -25.9137  -32.4747   23.8316 C   0  0  1  0  0  0
  -27.2273  -27.2613   20.1256 C   0  0  0  0  0  0
  -25.5932  -33.8551   24.2239 N   0  0  0  0  0  0
  -23.4279  -30.4753   21.5397 C   0  0  2  0  0  0
  -24.8749  -28.9186   20.1066 C   0  0  0  0  0  0
  -22.7504  -29.4593   22.4909 C   0  0  0  0  0  0
  -18.0292  -28.1390   22.8487 C   0  0  0  0  0  0
  -24.1486  -36.7279   23.2642 C   0  0  0  0  0  0
  -25.9725  -30.7667   21.3759 C   0  0  0  0  0  0
  -26.0439  -29.3892   20.7162 C   0  0  0  0  0  0
  -27.2180  -28.5724   20.7127 C   0  0  0  0  0  0
  -26.0304  -26.8483   19.4993 C   0  0  0  0  0  0
  -24.8739  -27.6572   19.4880 C   0  0  0  0  0  0
  -23.6453  -29.8065   20.1555 C   0  0  0  0  0  0
  -25.4114  -36.3065   24.0325 C   0  0  1  0  0  0
  -20.5897  -28.3697   23.1273 C   0  0  2  0  0  0
  -20.6779  -26.9416   22.5414 C   0  0  0  0  0  0
  -19.5750  -26.6382   21.5222 C   0  0  0  0  0  0
  -18.1931  -26.7930   22.1632 C   0  0  0  0  0  0
  -19.1547  -28.8861   23.2874 C   0  0  0  0  0  0
  -18.9469  -30.1464   23.8890 C   0  0  0  0  0  0
  -17.6468  -30.6589   24.0567 C   0  0  0  0  0  0
  -25.9058  -34.9438   23.5086 C   0  0  0  0  0  0
  -16.5358  -29.9089   23.6332 C   0  0  0  0  0  0
  -16.7279  -28.6508   23.0350 C   0  0  0  0  0  0
  -26.4503  -31.6584   25.0718 C   0  0  0  0  0  0
  -25.3722  -31.3753   26.1438 C   0  0  0  0  0  0
  -27.0362  -30.2998   24.6229 C   0  0  0  0  0  0
  -27.6038  -32.4349   25.7495 C   0  0  0  0  0  0
  -27.5578  -37.1794   24.8466 C   0  0  0  0  0  0
  -21.4209  -29.3039   22.3654 N   0  0  0  0  0  0
  -26.4287  -37.3769   23.9412 N   0  0  0  0  0  0
  -24.6960  -31.0509   22.0936 N   0  0  0  0  0  0
  -23.4200  -28.8143   23.3016 O   0  0  0  0  0  0
  -28.3559  -26.4131   20.2119 O   0  0  0  0  0  0
  -26.5640  -34.8917   22.4661 O   0  0  0  0  0  0
  -23.5463  -32.1367   23.7266 O   0  0  0  0  0  0
  -30.6888  -19.2450   19.6597 C   0  0  0  0  0  0
  -30.9541  -17.8290   19.6988 C   0  0  0  0  0  0
  -29.5510  -19.5175   20.3804 C   0  0  0  0  0  0
  -29.9700  -17.2387   20.4496 C   0  0  0  0  0  0
  -28.7956  -20.8542   20.7693 C   0  0  0  0  0  0
  -29.0314  -22.2648   19.9936 C   0  0  0  0  0  0
  -28.4318  -23.6725   20.5646 C   0  0  0  0  0  0
  -28.4569  -25.0186   19.6560 C   0  0  0  0  0  0
  -29.7988  -15.8644   20.7109 N   0  0  0  0  0  0
  -29.1017  -18.2673   20.8725 O   0  0  0  0  0  0
  -31.4762  -12.5811   19.1762 H   0  0  0  0  0  0
  -30.3826  -11.4774   19.9578 H   0  0  0  0  0  0
  -29.7932  -11.7311   17.5243 H   0  0  0  0  0  0
  -29.6429  -13.4595   17.7205 H   0  0  0  0  0  0
  -27.8939  -11.2845   18.9132 H   0  0  0  0  0  0
  -27.3802  -12.5259   17.8018 H   0  0  0  0  0  0
  -27.6374  -14.2540   19.4763 H   0  0  0  0  0  0
  -28.7199  -12.1540   21.4193 H   0  0  0  0  0  0
  -28.4178  -13.8279   21.8070 H   0  0  0  0  0  0
  -25.2762   -9.5668   22.4756 H   0  0  0  0  0  0
  -23.9998   -7.4622   22.7465 H   0  0  0  0  0  0
  -21.0825   -8.8770   19.8967 H   0  0  0  0  0  0
  -22.3686  -10.9667   19.6179 H   0  0  0  0  0  0
  -21.2018   -7.6149   23.9718 H   0  0  0  0  0  0
  -21.1483   -6.0527   25.9080 H   0  0  0  0  0  0
  -22.0596   -2.7605   23.2851 H   0  0  0  0  0  0
  -22.4083  -11.9890   22.4847 H   0  0  0  0  0  0
  -21.1090  -13.1249   22.2648 H   0  0  0  0  0  0
  -24.6454  -15.8397   20.5244 H   0  0  0  0  0  0
  -26.2592  -15.6372   20.0694 H   0  0  0  0  0  0
  -26.7206  -32.5394   23.1057 H   0  0  0  0  0  0
  -25.0068  -33.9683   25.0378 H   0  0  0  0  0  0
  -22.7243  -31.2974   21.3932 H   0  0  0  0  0  0
  -23.3752  -35.9608   23.3300 H   0  0  0  0  0  0
  -24.3571  -36.8912   22.2059 H   0  0  0  0  0  0
  -23.7233  -37.6473   23.6675 H   0  0  0  0  0  0
  -26.1161  -31.5295   20.6093 H   0  0  0  0  0  0
  -26.8480  -30.8117   22.0122 H   0  0  0  0  0  0
  -28.1150  -28.9306   21.1984 H   0  0  0  0  0  0
  -25.9504  -25.8764   19.0391 H   0  0  0  0  0  0
  -23.9761  -27.2889   19.0102 H   0  0  0  0  0  0
  -23.7693  -30.5829   19.3997 H   0  0  0  0  0  0
  -22.7630  -29.2406   19.8510 H   0  0  0  0  0  0
  -25.1296  -36.1907   25.0818 H   0  0  0  0  0  0
  -20.9991  -28.3284   24.1394 H   0  0  0  0  0  0
  -20.5684  -26.2314   23.3622 H   0  0  0  0  0  0
  -21.6645  -26.7441   22.1204 H   0  0  0  0  0  0
  -19.6910  -25.6292   21.1254 H   0  0  0  0  0  0
  -19.6680  -27.3191   20.6750 H   0  0  0  0  0  0
  -17.4201  -26.6682   21.4037 H   0  0  0  0  0  0
  -18.0326  -26.0076   22.9030 H   0  0  0  0  0  0
  -19.7946  -30.7287   24.2250 H   0  0  0  0  0  0
  -17.5021  -31.6264   24.5177 H   0  0  0  0  0  0
  -15.5358  -30.2989   23.7657 H   0  0  0  0  0  0
  -15.8680  -28.0827   22.7060 H   0  0  0  0  0  0
  -24.5868  -30.7138   25.7766 H   0  0  0  0  0  0
  -24.8952  -32.2939   26.4868 H   0  0  0  0  0  0
  -25.8027  -30.8913   27.0212 H   0  0  0  0  0  0
  -26.2964  -29.6733   24.1235 H   0  0  0  0  0  0
  -27.4014  -29.7276   25.4767 H   0  0  0  0  0  0
  -27.8847  -30.4264   23.9500 H   0  0  0  0  0  0
  -27.2612  -33.3641   26.2063 H   0  0  0  0  0  0
  -28.3845  -32.6935   25.0330 H   0  0  0  0  0  0
  -28.0712  -31.8497   26.5422 H   0  0  0  0  0  0
  -28.2593  -38.0094   24.7516 H   0  0  0  0  0  0
  -28.1075  -36.2626   24.6281 H   0  0  0  0  0  0
  -27.2301  -37.1432   25.8871 H   0  0  0  0  0  0
  -20.9401  -29.8752   21.6846 H   0  0  0  0  0  0
  -26.0163  -38.2841   24.1415 H   0  0  0  0  0  0
  -31.2878  -19.9938   19.1582 H   0  0  0  0  0  0
  -31.7762  -17.3169   19.2182 H   0  0  0  0  0  0
  -29.0124  -21.0393   21.8215 H   0  0  0  0  0  0
  -27.7250  -20.6483   20.7488 H   0  0  0  0  0  0
  -28.6690  -22.1366   18.9730 H   0  0  0  0  0  0
  -30.1081  -22.4041   19.8940 H   0  0  0  0  0  0
  -28.9625  -23.8930   21.4912 H   0  0  0  0  0  0
  -27.3977  -23.5048   20.8651 H   0  0  0  0  0  0
  -27.7882  -24.8844   18.8084 H   0  0  0  0  0  0
  -29.4407  -25.0196   19.1875 H   0  0  0  0  0  0
  -28.8878  -15.6230   21.0668 H   0  0  0  0  0  0
  1 25  1  0  0  0
  1 30  2  0  0  0
  1 79  1  0  0  0
  2  3  1  0  0  0
  2 25  1  0  0  0
  2 81  1  0  0  0
  2 82  1  0  0  0
  3  4  1  0  0  0
  3 83  1  0  0  0
  3 84  1  0  0  0
  4  5  1  0  0  0
  4 85  1  0  0  0
  4 86  1  0  0  0
  5  6  1  0  0  0
  5 26  1  0  0  0
  5 87  1  0  0  0
  6 25  1  0  0  0
  6 88  1  0  0  0
  6 89  1  0  0  0
  7  8  2  0  0  0
  7 26  1  0  0  0
  7 29  1  0  0  0
  8  9  1  0  0  0
  8 22  1  0  0  0
  9 10  1  0  0  0
  9 27  2  0  0  0
 10 11  2  0  0  0
 10 15  1  0  0  0
 11 12  1  0  0  0
 11 90  1  0  0  0
 12 13  2  0  0  0
 12 91  1  0  0  0
 13 14  1  0  0  0
 13 31  1  0  0  0
 14 15  2  0  0  0
 14 92  1  0  0  0
 15 93  1  0  0  0
 16 17  2  0  0  0
 16 21  1  0  0  0
 16 31  1  0  0  0
 17 18  1  0  0  0
 17 94  1  0  0  0
 18 19  2  0  0  0
 18 95  1  0  0  0
 19 20  1  0  0  0
 19 24  1  0  0  0
 20 21  2  0  0  0
 20 96  1  0  0  0
 21 23  1  0  0  0
 22 28  1  0  0  0
 22 32  2  0  0  0
 26 27  1  0  0  0
 28 97  1  0  0  0
 28 98  1  0  0  0
 29 99  1  0  0  0
 29100  1  0  0  0
 33 34  1  0  0  0
 33 66  1  0  0  0
 33 70  2  0  0  0
 34 36  1  0  0  0
 34 59  1  0  0  0
 34101  1  0  0  0
 35 44  2  0  0  0
 35 45  1  0  0  0
 35 68  1  0  0  0
 36 56  1  0  0  0
 36102  1  0  0  0
 37 39  1  0  0  0
 37 47  1  0  0  0
 37 66  1  0  0  0
 37103  1  0  0  0
 38 43  2  0  0  0
 38 46  1  0  0  0
 38 47  1  0  0  0
 39 64  1  0  0  0
 39 67  2  0  0  0
 40 52  1  0  0  0
 40 53  2  0  0  0
 40 58  1  0  0  0
 41104  1  0  0  0
 41105  1  0  0  0
 41106  1  0  0  0
 41 48  1  0  0  0
 42 43  1  0  0  0
 42 66  1  0  0  0
 42107  1  0  0  0
 42108  1  0  0  0
 43 44  1  0  0  0
 44109  1  0  0  0
 45 46  2  0  0  0
 45110  1  0  0  0
 46111  1  0  0  0
 47112  1  0  0  0
 47113  1  0  0  0
 48 56  1  0  0  0
 48 65  1  0  0  0
 48114  1  0  0  0
 49 50  1  0  0  0
 49 53  1  0  0  0
 49 64  1  0  0  0
 49115  1  0  0  0
 50 51  1  0  0  0
 50116  1  0  0  0
 50117  1  0  0  0
 51 52  1  0  0  0
 51118  1  0  0  0
 51119  1  0  0  0
 52120  1  0  0  0
 52121  1  0  0  0
 53 54  1  0  0  0
 54 55  2  0  0  0
 54122  1  0  0  0
 55 57  1  0  0  0
 55123  1  0  0  0
 56 69  2  0  0  0
 57 58  2  0  0  0
 57124  1  0  0  0
 58125  1  0  0  0
 59 60  1  0  0  0
 59 61  1  0  0  0
 59 62  1  0  0  0
 60126  1  0  0  0
 60127  1  0  0  0
 60128  1  0  0  0
 61129  1  0  0  0
 61130  1  0  0  0
 61131  1  0  0  0
 62132  1  0  0  0
 62133  1  0  0  0
 62134  1  0  0  0
 63 65  1  0  0  0
 63135  1  0  0  0
 63136  1  0  0  0
 63137  1  0  0  0
 64138  1  0  0  0
 65139  1  0  0  0
 68 78  1  0  0  0
 71 72  1  0  0  0
 71 73  2  0  0  0
 71140  1  0  0  0
 72 74  2  0  0  0
 72141  1  0  0  0
 73 75  1  0  0  0
 73 80  1  0  0  0
 74 79  1  0  0  0
 74 80  1  0  0  0
 75 76  1  0  0  0
 75142  1  0  0  0
 75143  1  0  0  0
 76 77  1  0  0  0
 76144  1  0  0  0
 76145  1  0  0  0
 77 78  1  0  0  0
 77146  1  0  0  0
 77147  1  0  0  0
 78148  1  0  0  0
 78149  1  0  0  0
 79150  1  0  0  0
M  ISO  4   1 100  68 101  78 101  79 100
M  END
> <chiral flag>
0

> <version>
0

> <s_m_source_file>
/data/baiqing/PycharmProjects/Reinvent-master-3.2/result/LINK_invent/BTK/process_docking_weight1_custom_product_contain_oxygen_bond_distance_aromatic_linkinvent_7_9_3/rearranged_h_0131.sdf

> <i_m_source_file_index>
16

> <r_mmod_Potential_Energy-OPLS-2005>
138.229858398438

> <r_mmod_Stretch_Energy-OPLS-2005>
123.298408508301

> <r_mmod_Bend_Energy-OPLS-2005>
184.548080444336

> <r_mmod_Torsional_Energy-OPLS-2005>
208.906661987305

> <r_mmod_Improper_Torsional_Energy-OPLS-2005>
4.03095293045044

> <r_mmod_Van_der_Waal_Energy-OPLS-2005>
116.678604125977

> <r_mmod_Electrostatic_Energy-OPLS-2005>
-380.911895751953

> <r_mmod_Solvation_Energy-OPLS-2005>
-202.256500244141

> <b_mmod_Minimization_Converged-OPLS-2005>
0

> <r_mmod_RMS_Derivative-OPLS-2005>
1.16666769981384

$$$$
16
                    3D
 Structure written by MMmdl.
167175  0  0  1  0            999 V2000
  -30.7230  -14.4586   20.5452 C   0  0  0  0  0  0
  -30.4114  -12.2880   19.4359 C   0  0  0  0  0  0
  -29.4939  -12.4926   18.2135 C   0  0  0  0  0  0
  -28.0149  -12.3620   18.6233 C   0  0  0  0  0  0
  -27.6592  -13.2110   19.8732 C   0  0  2  0  0  0
  -28.6997  -13.0138   20.9996 C   0  0  0  0  0  0
  -25.2573  -13.8179   20.5683 C   0  0  0  0  0  0
  -24.1835  -13.0444   20.9181 C   0  0  0  0  0  0
  -24.6397  -11.6914   20.8742 C   0  0  0  0  0  0
  -23.9067  -10.4299   21.0406 C   0  0  0  0  0  0
  -24.3619   -9.4217   21.9187 C   0  0  0  0  0  0
  -23.6294   -8.2251   22.0759 C   0  0  0  0  0  0
  -22.4276   -8.0284   21.3546 C   0  0  0  0  0  0
  -21.9915   -9.0255   20.4644 C   0  0  0  0  0  0
  -22.7244  -10.2138   20.3053 C   0  0  0  0  0  0
  -21.6851   -6.0742   22.5278 C   0  0  0  0  0  0
  -21.4007   -6.5644   23.8209 C   0  0  0  0  0  0
  -21.3658   -5.6796   24.9171 C   0  0  0  0  0  0
  -21.6048   -4.3059   24.7220 C   0  0  0  0  0  0
  -21.8823   -3.8153   23.4341 C   0  0  0  0  0  0
  -21.9191   -4.6970   22.3399 C   0  0  0  0  0  0
  -22.7858  -13.5234   21.1848 C   0  0  0  0  0  0
  -22.1662   -4.2158   21.0975 F   0  0  0  0  0  0
  -21.5633   -3.4544   25.7733 F   0  0  0  0  0  0
  -30.0335  -13.2911   20.4436 N   0  0  0  0  0  0
  -26.3014  -12.9356   20.3364 N   0  0  0  0  0  0
  -25.9322  -11.6511   20.5773 N   0  0  0  0  0  0
  -22.0503  -12.8217   22.0399 N   0  0  0  0  0  0
  -25.4304  -15.1898   20.4095 N   0  0  0  0  0  0
  -31.8775  -14.5694   20.1279 O   0  0  0  0  0  0
  -21.6643   -6.8884   21.4242 O   0  0  0  0  0  0
  -22.3533  -14.5542   20.6705 O   0  0  0  0  0  0
  -24.6112  -31.8681   23.2108 C   0  0  0  0  0  0
  -25.9021  -32.4820   23.8390 C   0  0  1  0  0  0
  -27.2393  -27.4607   20.1014 C   0  0  0  0  0  0
  -25.5893  -33.8612   24.2339 N   0  0  0  0  0  0
  -23.3979  -30.4894   21.5492 C   0  0  2  0  0  0
  -24.8487  -28.9544   20.1174 C   0  0  0  0  0  0
  -22.7381  -29.4648   22.5001 C   0  0  0  0  0  0
  -18.0259  -28.1361   22.8506 C   0  0  0  0  0  0
  -24.1480  -36.7305   23.2644 C   0  0  0  0  0  0
  -25.9202  -30.8454   21.3555 C   0  0  0  0  0  0
  -26.0037  -29.4761   20.7148 C   0  0  0  0  0  0
  -27.2031  -28.7325   20.7123 C   0  0  0  0  0  0
  -26.0759  -26.9459   19.4969 C   0  0  0  0  0  0
  -24.8772  -27.6859   19.5092 C   0  0  0  0  0  0
  -23.6063  -29.8158   20.1650 C   0  0  0  0  0  0
  -25.4104  -36.3107   24.0347 C   0  0  1  0  0  0
  -20.5846  -28.3637   23.1329 C   0  0  2  0  0  0
  -20.6750  -26.9380   22.5414 C   0  0  0  0  0  0
  -19.5729  -26.6373   21.5209 C   0  0  0  0  0  0
  -18.1903  -26.7913   22.1619 C   0  0  0  0  0  0
  -19.1511  -28.8817   23.2910 C   0  0  0  0  0  0
  -18.9452  -30.1426   23.8916 C   0  0  0  0  0  0
  -17.6461  -30.6581   24.0561 C   0  0  0  0  0  0
  -25.9034  -34.9471   23.5142 C   0  0  0  0  0  0
  -16.5349  -29.9087   23.6335 C   0  0  0  0  0  0
  -16.7254  -28.6496   23.0374 C   0  0  0  0  0  0
  -26.4466  -31.6580   25.0696 C   0  0  0  0  0  0
  -25.3748  -31.3643   26.1448 C   0  0  0  0  0  0
  -27.0298  -30.3051   24.5998 C   0  0  0  0  0  0
  -27.6042  -32.4278   25.7470 C   0  0  0  0  0  0
  -27.5573  -37.1801   24.8475 C   0  0  0  0  0  0
  -21.4116  -29.3012   22.3741 N   0  0  0  0  0  0
  -26.4291  -37.3791   23.9422 N   0  0  0  0  0  0
  -24.6614  -31.0807   22.0986 N   0  0  0  0  0  0
  -23.4156  -28.8201   23.3047 O   0  0  0  0  0  0
  -28.3939  -26.7224   20.0741 O   0  0  0  0  0  0
  -26.5583  -34.8922   22.4693 O   0  0  0  0  0  0
  -23.5313  -32.1403   23.7533 O   0  0  0  0  0  0
  -30.7373  -19.7055   20.4592 C   0  0  0  0  0  0
  -31.2339  -17.3991   19.8590 C   0  0  0  0  0  0
  -29.5608  -17.8693   21.5613 C   0  0  0  0  0  0
  -31.4621  -18.7779   19.6921 C   0  0  0  0  0  0
  -29.7775  -19.2599   21.3866 C   0  0  0  0  0  0
  -30.2955  -16.9175   20.8098 C   0  0  0  0  0  0
  -28.4497  -24.4491   20.9900 C   0  0  0  0  0  0
  -32.4833  -19.2562   18.6801 C   0  0  0  0  0  0
  -26.7883  -21.8529   23.4372 C   0  0  0  0  0  0
  -25.9931  -22.6404   21.2299 C   0  0  0  0  0  0
  -29.0070  -20.3000   22.1889 C   0  0  0  0  0  0
  -28.1741  -23.5489   22.2137 C   0  0  0  0  0  0
  -28.6080  -25.9553   21.2642 C   0  0  0  0  0  0
  -27.9912  -21.0964   21.3312 C   0  0  0  0  0  0
  -27.2655  -22.2870   22.0345 C   0  0  0  0  0  0
  -30.0259  -15.5195   21.0059 N   0  0  0  0  0  0
  -28.5743  -23.9898   19.8500 O   0  0  0  0  0  0
  -31.4595  -12.3577   19.1395 H   0  0  0  0  0  0
  -30.2878  -11.2840   19.8453 H   0  0  0  0  0  0
  -29.7311  -11.7630   17.4379 H   0  0  0  0  0  0
  -29.6693  -13.4765   17.7739 H   0  0  0  0  0  0
  -27.8249  -11.3072   18.8270 H   0  0  0  0  0  0
  -27.3663  -12.6307   17.7890 H   0  0  0  0  0  0
  -27.6988  -14.2557   19.5644 H   0  0  0  0  0  0
  -28.6668  -11.9899   21.3745 H   0  0  0  0  0  0
  -28.4706  -13.6478   21.8572 H   0  0  0  0  0  0
  -25.2751   -9.5697   22.4767 H   0  0  0  0  0  0
  -24.0002   -7.4644   22.7484 H   0  0  0  0  0  0
  -21.0848   -8.8769   19.8944 H   0  0  0  0  0  0
  -22.3699  -10.9674   19.6166 H   0  0  0  0  0  0
  -21.1998   -7.6147   23.9710 H   0  0  0  0  0  0
  -21.1478   -6.0527   25.9069 H   0  0  0  0  0  0
  -22.0606   -2.7618   23.2838 H   0  0  0  0  0  0
  -22.4118  -11.9867   22.4768 H   0  0  0  0  0  0
  -21.1119  -13.1241   22.2622 H   0  0  0  0  0  0
  -24.6659  -15.8477   20.5169 H   0  0  0  0  0  0
  -26.2864  -15.6274   20.0921 H   0  0  0  0  0  0
  -26.7104  -32.5570   23.1172 H   0  0  0  0  0  0
  -25.0083  -33.9765   25.0508 H   0  0  0  0  0  0
  -22.6856  -31.3045   21.4077 H   0  0  0  0  0  0
  -23.3750  -35.9628   23.3292 H   0  0  0  0  0  0
  -24.3594  -36.8928   22.2063 H   0  0  0  0  0  0
  -23.7203  -37.6497   23.6665 H   0  0  0  0  0  0
  -26.0132  -31.6064   20.5793 H   0  0  0  0  0  0
  -26.8145  -30.9148   21.9629 H   0  0  0  0  0  0
  -28.0971  -29.1323   21.1710 H   0  0  0  0  0  0
  -26.0998  -25.9739   19.0233 H   0  0  0  0  0  0
  -23.9893  -27.2766   19.0482 H   0  0  0  0  0  0
  -23.7074  -30.5856   19.3993 H   0  0  0  0  0  0
  -22.7345  -29.2267   19.8753 H   0  0  0  0  0  0
  -25.1273  -36.1975   25.0840 H   0  0  0  0  0  0
  -20.9931  -28.3200   24.1452 H   0  0  0  0  0  0
  -20.5663  -26.2243   23.3599 H   0  0  0  0  0  0
  -21.6620  -26.7427   22.1200 H   0  0  0  0  0  0
  -19.6884  -25.6286   21.1234 H   0  0  0  0  0  0
  -19.6674  -27.3193   20.6748 H   0  0  0  0  0  0
  -17.4173  -26.6683   21.4014 H   0  0  0  0  0  0
  -18.0285  -26.0033   22.8988 H   0  0  0  0  0  0
  -19.7937  -30.7226   24.2300 H   0  0  0  0  0  0
  -17.5029  -31.6275   24.5134 H   0  0  0  0  0  0
  -15.5358  -30.3003   23.7659 H   0  0  0  0  0  0
  -15.8644  -28.0823   22.7103 H   0  0  0  0  0  0
  -24.5954  -30.6953   25.7779 H   0  0  0  0  0  0
  -24.8901  -32.2774   26.4908 H   0  0  0  0  0  0
  -25.8117  -30.8815   27.0195 H   0  0  0  0  0  0
  -26.2796  -29.6800   24.1139 H   0  0  0  0  0  0
  -27.4213  -29.7294   25.4392 H   0  0  0  0  0  0
  -27.8561  -30.4423   23.9020 H   0  0  0  0  0  0
  -27.2676  -33.3582   26.2051 H   0  0  0  0  0  0
  -28.3868  -32.6805   25.0305 H   0  0  0  0  0  0
  -28.0681  -31.8380   26.5390 H   0  0  0  0  0  0
  -28.2587  -38.0101   24.7546 H   0  0  0  0  0  0
  -28.1067  -36.2632   24.6279 H   0  0  0  0  0  0
  -27.2291  -37.1429   25.8877 H   0  0  0  0  0  0
  -20.9266  -29.8738   21.6977 H   0  0  0  0  0  0
  -26.0178  -38.2866   24.1440 H   0  0  0  0  0  0
  -30.9091  -20.7661   20.3310 H   0  0  0  0  0  0
  -31.7978  -16.7326   19.2253 H   0  0  0  0  0  0
  -28.8263  -17.5353   22.2811 H   0  0  0  0  0  0
  -32.6264  -20.3359   18.7346 H   0  0  0  0  0  0
  -32.1596  -19.0075   17.6693 H   0  0  0  0  0  0
  -33.4481  -18.7800   18.8569 H   0  0  0  0  0  0
  -26.1464  -22.6078   23.8925 H   0  0  0  0  0  0
  -27.6212  -21.6959   24.1231 H   0  0  0  0  0  0
  -26.2159  -20.9254   23.3952 H   0  0  0  0  0  0
  -25.4943  -23.5226   21.6345 H   0  0  0  0  0  0
  -25.2704  -21.8238   21.2487 H   0  0  0  0  0  0
  -26.2120  -22.8396   20.1806 H   0  0  0  0  0  0
  -29.7280  -20.9801   22.6435 H   0  0  0  0  0  0
  -28.4999  -19.7987   23.0133 H   0  0  0  0  0  0
  -27.7195  -24.1939   22.9661 H   0  0  0  0  0  0
  -29.1360  -23.2543   22.6322 H   0  0  0  0  0  0
  -29.6204  -26.1414   21.6225 H   0  0  0  0  0  0
  -27.9279  -26.2572   22.0619 H   0  0  0  0  0  0
  -27.2480  -20.3844   20.9688 H   0  0  0  0  0  0
  -28.4886  -21.4632   20.4338 H   0  0  0  0  0  0
  -29.1422  -15.2936   21.4357 H   0  0  0  0  0  0
  1 25  1  0  0  0
  1 30  2  0  0  0
  1 86  1  0  0  0
  2  3  1  0  0  0
  2 25  1  0  0  0
  2 88  1  0  0  0
  2 89  1  0  0  0
  3  4  1  0  0  0
  3 90  1  0  0  0
  3 91  1  0  0  0
  4  5  1  0  0  0
  4 92  1  0  0  0
  4 93  1  0  0  0
  5  6  1  0  0  0
  5 26  1  0  0  0
  5 94  1  0  0  0
  6 25  1  0  0  0
  6 95  1  0  0  0
  6 96  1  0  0  0
  7  8  2  0  0  0
  7 26  1  0  0  0
  7 29  1  0  0  0
  8  9  1  0  0  0
  8 22  1  0  0  0
  9 10  1  0  0  0
  9 27  2  0  0  0
 10 11  2  0  0  0
 10 15  1  0  0  0
 11 12  1  0  0  0
 11 97  1  0  0  0
 12 13  2  0  0  0
 12 98  1  0  0  0
 13 14  1  0  0  0
 13 31  1  0  0  0
 14 15  2  0  0  0
 14 99  1  0  0  0
 15100  1  0  0  0
 16 17  2  0  0  0
 16 21  1  0  0  0
 16 31  1  0  0  0
 17 18  1  0  0  0
 17101  1  0  0  0
 18 19  2  0  0  0
 18102  1  0  0  0
 19 20  1  0  0  0
 19 24  1  0  0  0
 20 21  2  0  0  0
 20103  1  0  0  0
 21 23  1  0  0  0
 22 28  1  0  0  0
 22 32  2  0  0  0
 26 27  1  0  0  0
 28104  1  0  0  0
 28105  1  0  0  0
 29106  1  0  0  0
 29107  1  0  0  0
 33 34  1  0  0  0
 33 66  1  0  0  0
 33 70  2  0  0  0
 34 36  1  0  0  0
 34 59  1  0  0  0
 34108  1  0  0  0
 35 44  2  0  0  0
 35 45  1  0  0  0
 35 68  1  0  0  0
 36 56  1  0  0  0
 36109  1  0  0  0
 37 39  1  0  0  0
 37 47  1  0  0  0
 37 66  1  0  0  0
 37110  1  0  0  0
 38 43  2  0  0  0
 38 46  1  0  0  0
 38 47  1  0  0  0
 39 64  1  0  0  0
 39 67  2  0  0  0
 40 52  1  0  0  0
 40 53  2  0  0  0
 40 58  1  0  0  0
 41111  1  0  0  0
 41112  1  0  0  0
 41113  1  0  0  0
 41 48  1  0  0  0
 42 43  1  0  0  0
 42 66  1  0  0  0
 42114  1  0  0  0
 42115  1  0  0  0
 43 44  1  0  0  0
 44116  1  0  0  0
 45 46  2  0  0  0
 45117  1  0  0  0
 46118  1  0  0  0
 47119  1  0  0  0
 47120  1  0  0  0
 48 56  1  0  0  0
 48 65  1  0  0  0
 48121  1  0  0  0
 49 50  1  0  0  0
 49 53  1  0  0  0
 49 64  1  0  0  0
 49122  1  0  0  0
 50 51  1  0  0  0
 50123  1  0  0  0
 50124  1  0  0  0
 51 52  1  0  0  0
 51125  1  0  0  0
 51126  1  0  0  0
 52127  1  0  0  0
 52128  1  0  0  0
 53 54  1  0  0  0
 54 55  2  0  0  0
 54129  1  0  0  0
 55 57  1  0  0  0
 55130  1  0  0  0
 56 69  2  0  0  0
 57 58  2  0  0  0
 57131  1  0  0  0
 58132  1  0  0  0
 59 60  1  0  0  0
 59 61  1  0  0  0
 59 62  1  0  0  0
 60133  1  0  0  0
 60134  1  0  0  0
 60135  1  0  0  0
 61136  1  0  0  0
 61137  1  0  0  0
 61138  1  0  0  0
 62139  1  0  0  0
 62140  1  0  0  0
 62141  1  0  0  0
 63 65  1  0  0  0
 63142  1  0  0  0
 63143  1  0  0  0
 63144  1  0  0  0
 64145  1  0  0  0
 65146  1  0  0  0
 68 83  1  0  0  0
 71 74  2  0  0  0
 71 75  1  0  0  0
 71147  1  0  0  0
 72 74  1  0  0  0
 72 76  2  0  0  0
 72148  1  0  0  0
 73 75  2  0  0  0
 73 76  1  0  0  0
 73149  1  0  0  0
 74 78  1  0  0  0
 75 81  1  0  0  0
 76 86  1  0  0  0
 77 82  1  0  0  0
 77 83  1  0  0  0
 77 87  2  0  0  0
 78150  1  0  0  0
 78151  1  0  0  0
 78152  1  0  0  0
 79153  1  0  0  0
 79154  1  0  0  0
 79155  1  0  0  0
 79 85  1  0  0  0
 80 85  1  0  0  0
 80156  1  0  0  0
 80157  1  0  0  0
 80158  1  0  0  0
 81 84  1  0  0  0
 81159  1  0  0  0
 81160  1  0  0  0
 82 85  1  0  0  0
 82161  1  0  0  0
 82162  1  0  0  0
 83163  1  0  0  0
 83164  1  0  0  0
 84 85  1  0  0  0
 84165  1  0  0  0
 84166  1  0  0  0
 86167  1  0  0  0
M  ISO  4   1 100  68 101  83 101  86 100
M  END
> <chiral flag>
0

> <version>
0

> <s_m_source_file>
/data/baiqing/PycharmProjects/Reinvent-master-3.2/result/LINK_invent/BTK/process_docking_weight1_custom_product_contain_oxygen_bond_distance_aromatic_linkinvent_7_9_3/rearranged_h_0131.sdf

> <i_m_source_file_index>
17

> <r_mmod_Potential_Energy-OPLS-2005>
12.6284513473511

> <r_mmod_Stretch_Energy-OPLS-2005>
38.6688117980957

> <r_mmod_Bend_Energy-OPLS-2005>
103.088973999023

> <r_mmod_Torsional_Energy-OPLS-2005>
236.616592407227

> <r_mmod_Improper_Torsional_Energy-OPLS-2005>
3.32353401184082

> <r_mmod_Van_der_Waal_Energy-OPLS-2005>
155.098846435547

> <r_mmod_Electrostatic_Energy-OPLS-2005>
-326.470001220703

> <r_mmod_Solvation_Energy-OPLS-2005>
-210.590713500977

> <b_mmod_Minimization_Converged-OPLS-2005>
0

> <r_mmod_RMS_Derivative-OPLS-2005>
1.25994944572449

$$$$
17
                    3D
 Structure written by MMmdl.
153161  0  0  1  0            999 V2000
  -30.6061  -14.7616   20.4857 C   0  0  0  0  0  0
  -30.4317  -12.4679   19.4919 C   0  0  0  0  0  0
  -29.5185  -12.5185   18.2469 C   0  0  0  0  0  0
  -28.0456  -12.3271   18.6545 C   0  0  0  0  0  0
  -27.6426  -13.2309   19.8493 C   0  0  2  0  0  0
  -28.6765  -13.1623   20.9932 C   0  0  0  0  0  0
  -25.2509  -13.8197   20.5688 C   0  0  0  0  0  0
  -24.1780  -13.0449   20.9191 C   0  0  0  0  0  0
  -24.6348  -11.6921   20.8690 C   0  0  0  0  0  0
  -23.9007  -10.4304   21.0375 C   0  0  0  0  0  0
  -24.3581   -9.4224   21.9149 C   0  0  0  0  0  0
  -23.6297   -8.2237   22.0723 C   0  0  0  0  0  0
  -22.4262   -8.0271   21.3541 C   0  0  0  0  0  0
  -21.9857   -9.0237   20.4657 C   0  0  0  0  0  0
  -22.7160  -10.2137   20.3059 C   0  0  0  0  0  0
  -21.6855   -6.0733   22.5288 C   0  0  0  0  0  0
  -21.4011   -6.5620   23.8222 C   0  0  0  0  0  0
  -21.3668   -5.6768   24.9174 C   0  0  0  0  0  0
  -21.6052   -4.3042   24.7232 C   0  0  0  0  0  0
  -21.8812   -3.8145   23.4332 C   0  0  0  0  0  0
  -21.9195   -4.6952   22.3402 C   0  0  0  0  0  0
  -22.7818  -13.5249   21.1898 C   0  0  0  0  0  0
  -22.1664   -4.2146   21.0972 F   0  0  0  0  0  0
  -21.5635   -3.4519   25.7736 F   0  0  0  0  0  0
  -29.9857  -13.5266   20.4363 N   0  0  0  0  0  0
  -26.2917  -12.9403   20.3230 N   0  0  0  0  0  0
  -25.9272  -11.6536   20.5655 N   0  0  0  0  0  0
  -22.0440  -12.8299   22.0488 N   0  0  0  0  0  0
  -25.4221  -15.1925   20.4181 N   0  0  0  0  0  0
  -31.7609  -14.8494   20.0562 O   0  0  0  0  0  0
  -21.6635   -6.8861   21.4251 O   0  0  0  0  0  0
  -22.3490  -14.5552   20.6725 O   0  0  0  0  0  0
  -24.6357  -31.8506   23.1993 C   0  0  0  0  0  0
  -25.9181  -32.4695   23.8320 C   0  0  1  0  0  0
  -27.1843  -27.2092   20.1260 C   0  0  0  0  0  0
  -25.5974  -33.8500   24.2228 N   0  0  0  0  0  0
  -23.4291  -30.4806   21.5416 C   0  0  2  0  0  0
  -24.8733  -28.9357   20.0937 C   0  0  0  0  0  0
  -22.7494  -29.4597   22.4869 C   0  0  0  0  0  0
  -18.0285  -28.1398   22.8458 C   0  0  0  0  0  0
  -24.1496  -36.7291   23.2644 C   0  0  0  0  0  0
  -25.9812  -30.7417   21.3956 C   0  0  0  0  0  0
  -26.0447  -29.3656   20.7304 C   0  0  0  0  0  0
  -27.1989  -28.5096   20.7493 C   0  0  0  0  0  0
  -26.0064  -26.8908   19.4106 C   0  0  0  0  0  0
  -24.8652  -27.7106   19.4167 C   0  0  0  0  0  0
  -23.6489  -29.8294   20.1511 C   0  0  0  0  0  0
  -25.4108  -36.3016   24.0324 C   0  0  1  0  0  0
  -20.5891  -28.3703   23.1265 C   0  0  2  0  0  0
  -20.6760  -26.9398   22.5460 C   0  0  0  0  0  0
  -19.5777  -26.6374   21.5216 C   0  0  0  0  0  0
  -18.1930  -26.7955   22.1574 C   0  0  0  0  0  0
  -19.1536  -28.8868   23.2861 C   0  0  0  0  0  0
  -18.9460  -30.1466   23.8873 C   0  0  0  0  0  0
  -17.6467  -30.6582   24.0570 C   0  0  0  0  0  0
  -25.9064  -34.9394   23.5066 C   0  0  0  0  0  0
  -16.5355  -29.9086   23.6342 C   0  0  0  0  0  0
  -16.7273  -28.6517   23.0322 C   0  0  0  0  0  0
  -26.4545  -31.6522   25.0721 C   0  0  0  0  0  0
  -25.3792  -31.3776   26.1486 C   0  0  0  0  0  0
  -27.0318  -30.2869   24.6296 C   0  0  0  0  0  0
  -27.6133  -32.4257   25.7441 C   0  0  0  0  0  0
  -27.5609  -37.1735   24.8415 C   0  0  0  0  0  0
  -21.4195  -29.3039   22.3620 N   0  0  0  0  0  0
  -26.4264  -37.3742   23.9445 N   0  0  0  0  0  0
  -24.7008  -31.0452   22.0994 N   0  0  0  0  0  0
  -23.4189  -28.8126   23.2971 O   0  0  0  0  0  0
  -28.2174  -26.2312   20.2298 O   0  0  0  0  0  0
  -26.5632  -34.8894   22.4631 O   0  0  0  0  0  0
  -23.5516  -32.1370   23.7269 O   0  0  0  0  0  0
  -29.3075  -19.1092   22.2312 C   0  0  0  0  0  0
  -28.9679  -20.5051   22.1462 C   0  0  0  0  0  0
  -29.5488  -18.6285   20.9708 C   0  0  0  0  0  0
  -28.9138  -20.8789   20.8283 C   0  0  0  0  0  0
  -30.0143  -17.2812   20.5027 C   0  0  0  0  0  0
  -29.8650  -15.9837   20.9889 C   0  0  0  0  0  0
  -28.6007  -23.4959   20.5174 C   0  0  0  0  0  0
  -28.4298  -22.1473   20.1745 C   0  0  0  0  0  0
  -26.0695  -21.4390   19.5578 C   0  0  0  0  0  0
  -27.8839  -24.7850   19.8851 C   0  0  0  0  0  0
  -27.4722  -21.7991   19.0365 C   0  0  0  0  0  0
  -29.2835  -19.7142   20.0964 O   0  0  0  0  0  0
  -31.4743  -12.5898   19.1929 H   0  0  0  0  0  0
  -30.3737  -11.4870   19.9648 H   0  0  0  0  0  0
  -29.8136  -11.7496   17.5314 H   0  0  0  0  0  0
  -29.6423  -13.4746   17.7364 H   0  0  0  0  0  0
  -27.9171  -11.2797   18.9296 H   0  0  0  0  0  0
  -27.3903  -12.5034   17.8011 H   0  0  0  0  0  0
  -27.6409  -14.2519   19.4678 H   0  0  0  0  0  0
  -28.7128  -12.1628   21.4260 H   0  0  0  0  0  0
  -28.3866  -13.8265   21.8071 H   0  0  0  0  0  0
  -25.2731   -9.5741   22.4703 H   0  0  0  0  0  0
  -24.0052   -7.4618   22.7393 H   0  0  0  0  0  0
  -21.0795   -8.8737   19.8976 H   0  0  0  0  0  0
  -22.3577  -10.9670   19.6185 H   0  0  0  0  0  0
  -21.1987   -7.6136   23.9722 H   0  0  0  0  0  0
  -21.1505   -6.0498   25.9084 H   0  0  0  0  0  0
  -22.0588   -2.7607   23.2823 H   0  0  0  0  0  0
  -22.4056  -12.0045   22.5047 H   0  0  0  0  0  0
  -21.1075  -13.1385   22.2653 H   0  0  0  0  0  0
  -24.6568  -15.8478   20.5352 H   0  0  0  0  0  0
  -26.2845  -15.6410   20.1357 H   0  0  0  0  0  0
  -26.7227  -32.5315   23.1031 H   0  0  0  0  0  0
  -25.0066  -33.9607   25.0334 H   0  0  0  0  0  0
  -22.7281  -31.3072   21.4020 H   0  0  0  0  0  0
  -23.3754  -35.9622   23.3203 H   0  0  0  0  0  0
  -24.3627  -36.9037   22.2088 H   0  0  0  0  0  0
  -23.7252  -37.6455   23.6753 H   0  0  0  0  0  0
  -26.1350  -31.5036   20.6313 H   0  0  0  0  0  0
  -26.8544  -30.7792   22.0342 H   0  0  0  0  0  0
  -28.0771  -28.8125   21.3001 H   0  0  0  0  0  0
  -25.9187  -25.9768   18.8415 H   0  0  0  0  0  0
  -23.9814  -27.3952   18.8785 H   0  0  0  0  0  0
  -23.7756  -30.6150   19.4053 H   0  0  0  0  0  0
  -22.7640  -29.2731   19.8380 H   0  0  0  0  0  0
  -25.1280  -36.1818   25.0815 H   0  0  0  0  0  0
  -20.9985  -28.3324   24.1388 H   0  0  0  0  0  0
  -20.5574  -26.2331   23.3685 H   0  0  0  0  0  0
  -21.6648  -26.7364   22.1332 H   0  0  0  0  0  0
  -19.6940  -25.6268   21.1281 H   0  0  0  0  0  0
  -19.6781  -27.3159   20.6730 H   0  0  0  0  0  0
  -17.4237  -26.6736   21.3932 H   0  0  0  0  0  0
  -18.0279  -26.0079   22.8940 H   0  0  0  0  0  0
  -19.7939  -30.7289   24.2225 H   0  0  0  0  0  0
  -17.5017  -31.6253   24.5191 H   0  0  0  0  0  0
  -15.5349  -30.2978   23.7676 H   0  0  0  0  0  0
  -15.8682  -28.0849   22.7015 H   0  0  0  0  0  0
  -24.5984  -30.7044   25.7936 H   0  0  0  0  0  0
  -24.8964  -32.2973   26.4793 H   0  0  0  0  0  0
  -25.8170  -30.9115   27.0316 H   0  0  0  0  0  0
  -26.2865  -29.6627   24.1350 H   0  0  0  0  0  0
  -27.3902  -29.7166   25.4876 H   0  0  0  0  0  0
  -27.8830  -30.4014   23.9583 H   0  0  0  0  0  0
  -27.2733  -33.3509   26.2102 H   0  0  0  0  0  0
  -28.3866  -32.6884   25.0209 H   0  0  0  0  0  0
  -28.0887  -31.8334   26.5264 H   0  0  0  0  0  0
  -28.2527  -38.0120   24.7537 H   0  0  0  0  0  0
  -28.1179  -36.2657   24.6045 H   0  0  0  0  0  0
  -27.2399  -37.1194   25.8831 H   0  0  0  0  0  0
  -20.9357  -29.8798   21.6866 H   0  0  0  0  0  0
  -26.0121  -38.2783   24.1542 H   0  0  0  0  0  0
  -29.4061  -18.5287   23.1373 H   0  0  0  0  0  0
  -28.7224  -21.1559   22.9742 H   0  0  0  0  0  0
  -30.6691  -17.3618   19.6451 H   0  0  0  0  0  0
  -29.2025  -15.8535   21.8327 H   0  0  0  0  0  0
  -29.2534  -23.7174   21.3475 H   0  0  0  0  0  0
  -25.3973  -21.1799   18.7386 H   0  0  0  0  0  0
  -25.6258  -22.2754   20.0983 H   0  0  0  0  0  0
  -26.1004  -20.5865   20.2395 H   0  0  0  0  0  0
  -26.8490  -24.6008   20.1774 H   0  0  0  0  0  0
  -27.9218  -24.6960   18.7994 H   0  0  0  0  0  0
  -27.8768  -20.9793   18.4432 H   0  0  0  0  0  0
  -27.3760  -22.6244   18.3339 H   0  0  0  0  0  0
  1 25  1  0  0  0
  1 30  2  0  0  0
  1 76  1  0  0  0
  2  3  1  0  0  0
  2 25  1  0  0  0
  2 83  1  0  0  0
  2 84  1  0  0  0
  3  4  1  0  0  0
  3 85  1  0  0  0
  3 86  1  0  0  0
  4  5  1  0  0  0
  4 87  1  0  0  0
  4 88  1  0  0  0
  5  6  1  0  0  0
  5 26  1  0  0  0
  5 89  1  0  0  0
  6 25  1  0  0  0
  6 90  1  0  0  0
  6 91  1  0  0  0
  7  8  2  0  0  0
  7 26  1  0  0  0
  7 29  1  0  0  0
  8  9  1  0  0  0
  8 22  1  0  0  0
  9 10  1  0  0  0
  9 27  2  0  0  0
 10 11  2  0  0  0
 10 15  1  0  0  0
 11 12  1  0  0  0
 11 92  1  0  0  0
 12 13  2  0  0  0
 12 93  1  0  0  0
 13 14  1  0  0  0
 13 31  1  0  0  0
 14 15  2  0  0  0
 14 94  1  0  0  0
 15 95  1  0  0  0
 16 17  2  0  0  0
 16 21  1  0  0  0
 16 31  1  0  0  0
 17 18  1  0  0  0
 17 96  1  0  0  0
 18 19  2  0  0  0
 18 97  1  0  0  0
 19 20  1  0  0  0
 19 24  1  0  0  0
 20 21  2  0  0  0
 20 98  1  0  0  0
 21 23  1  0  0  0
 22 28  1  0  0  0
 22 32  2  0  0  0
 26 27  1  0  0  0
 28 99  1  0  0  0
 28100  1  0  0  0
 29101  1  0  0  0
 29102  1  0  0  0
 33 34  1  0  0  0
 33 66  1  0  0  0
 33 70  2  0  0  0
 34 36  1  0  0  0
 34 59  1  0  0  0
 34103  1  0  0  0
 35 44  2  0  0  0
 35 45  1  0  0  0
 35 68  1  0  0  0
 36 56  1  0  0  0
 36104  1  0  0  0
 37 39  1  0  0  0
 37 47  1  0  0  0
 37 66  1  0  0  0
 37105  1  0  0  0
 38 43  2  0  0  0
 38 46  1  0  0  0
 38 47  1  0  0  0
 39 64  1  0  0  0
 39 67  2  0  0  0
 40 52  1  0  0  0
 40 53  2  0  0  0
 40 58  1  0  0  0
 41106  1  0  0  0
 41107  1  0  0  0
 41108  1  0  0  0
 41 48  1  0  0  0
 42 43  1  0  0  0
 42 66  1  0  0  0
 42109  1  0  0  0
 42110  1  0  0  0
 43 44  1  0  0  0
 44111  1  0  0  0
 45 46  2  0  0  0
 45112  1  0  0  0
 46113  1  0  0  0
 47114  1  0  0  0
 47115  1  0  0  0
 48 56  1  0  0  0
 48 65  1  0  0  0
 48116  1  0  0  0
 49 50  1  0  0  0
 49 53  1  0  0  0
 49 64  1  0  0  0
 49117  1  0  0  0
 50 51  1  0  0  0
 50118  1  0  0  0
 50119  1  0  0  0
 51 52  1  0  0  0
 51120  1  0  0  0
 51121  1  0  0  0
 52122  1  0  0  0
 52123  1  0  0  0
 53 54  1  0  0  0
 54 55  2  0  0  0
 54124  1  0  0  0
 55 57  1  0  0  0
 55125  1  0  0  0
 56 69  2  0  0  0
 57 58  2  0  0  0
 57126  1  0  0  0
 58127  1  0  0  0
 59 60  1  0  0  0
 59 61  1  0  0  0
 59 62  1  0  0  0
 60128  1  0  0  0
 60129  1  0  0  0
 60130  1  0  0  0
 61131  1  0  0  0
 61132  1  0  0  0
 61133  1  0  0  0
 62134  1  0  0  0
 62135  1  0  0  0
 62136  1  0  0  0
 63 65  1  0  0  0
 63137  1  0  0  0
 63138  1  0  0  0
 63139  1  0  0  0
 64140  1  0  0  0
 65141  1  0  0  0
 68 80  1  0  0  0
 71 72  1  0  0  0
 71 73  2  0  0  0
 71142  1  0  0  0
 72 74  2  0  0  0
 72143  1  0  0  0
 73 75  1  0  0  0
 73 82  1  0  0  0
 74 78  1  0  0  0
 74 82  1  0  0  0
 75 76  2  0  0  0
 75144  1  0  0  0
 76145  1  0  0  0
 77 78  2  0  0  0
 77 80  1  0  0  0
 77146  1  0  0  0
 78 81  1  0  0  0
 79 81  1  0  0  0
 79147  1  0  0  0
 79148  1  0  0  0
 79149  1  0  0  0
 80150  1  0  0  0
 80151  1  0  0  0
 81152  1  0  0  0
 81153  1  0  0  0
M  ISO  4   1 100  68 101  76 100  80 101
M  END
> <chiral flag>
0

> <version>
0

> <s_m_source_file>
/data/baiqing/PycharmProjects/Reinvent-master-3.2/result/LINK_invent/BTK/process_docking_weight1_custom_product_contain_oxygen_bond_distance_aromatic_linkinvent_7_9_3/rearranged_h_0131.sdf

> <i_m_source_file_index>
18

> <r_mmod_Potential_Energy-OPLS-2005>
219.471694946289

> <r_mmod_Stretch_Energy-OPLS-2005>
134.065841674805

> <r_mmod_Bend_Energy-OPLS-2005>
170.48014831543

> <r_mmod_Torsional_Energy-OPLS-2005>
206.221038818359

> <r_mmod_Improper_Torsional_Energy-OPLS-2005>
5.64726114273071

> <r_mmod_Van_der_Waal_Energy-OPLS-2005>
126.567726135254

> <r_mmod_Electrostatic_Energy-OPLS-2005>
-345.275421142578

> <r_mmod_Solvation_Energy-OPLS-2005>
-191.433471679688

> <b_mmod_Minimization_Converged-OPLS-2005>
0

> <r_mmod_RMS_Derivative-OPLS-2005>
3.546790599823

$$$$
18
                    3D
 Structure written by MMmdl.
163171  0  0  1  0            999 V2000
  -30.6939  -14.4246   20.6089 C   0  0  0  0  0  0
  -30.4310  -12.2925   19.3968 C   0  0  0  0  0  0
  -29.4901  -12.5181   18.1935 C   0  0  0  0  0  0
  -28.0107  -12.3839   18.6084 C   0  0  0  0  0  0
  -27.6705  -13.1992   19.8834 C   0  0  2  0  0  0
  -28.7102  -12.9163   20.9903 C   0  0  0  0  0  0
  -25.2634  -13.8144   20.5688 C   0  0  0  0  0  0
  -24.1873  -13.0439   20.9146 C   0  0  0  0  0  0
  -24.6414  -11.6895   20.8729 C   0  0  0  0  0  0
  -23.9075  -10.4287   21.0407 C   0  0  0  0  0  0
  -24.3626   -9.4196   21.9184 C   0  0  0  0  0  0
  -23.6291   -8.2241   22.0759 C   0  0  0  0  0  0
  -22.4267   -8.0287   21.3558 C   0  0  0  0  0  0
  -21.9912   -9.0265   20.4660 C   0  0  0  0  0  0
  -22.7248  -10.2131   20.3059 C   0  0  0  0  0  0
  -21.6851   -6.0738   22.5284 C   0  0  0  0  0  0
  -21.4011   -6.5643   23.8215 C   0  0  0  0  0  0
  -21.3652   -5.6799   24.9181 C   0  0  0  0  0  0
  -21.6039   -4.3061   24.7237 C   0  0  0  0  0  0
  -21.8817   -3.8149   23.4359 C   0  0  0  0  0  0
  -21.9182   -4.6964   22.3408 C   0  0  0  0  0  0
  -22.7891  -13.5235   21.1817 C   0  0  0  0  0  0
  -22.1662   -4.2151   21.0990 F   0  0  0  0  0  0
  -21.5618   -3.4541   25.7747 F   0  0  0  0  0  0
  -30.0493  -13.2365   20.4570 N   0  0  0  0  0  0
  -26.3083  -12.9314   20.3415 N   0  0  0  0  0  0
  -25.9337  -11.6473   20.5763 N   0  0  0  0  0  0
  -22.0547  -12.8238   22.0387 N   0  0  0  0  0  0
  -25.4376  -15.1865   20.4126 N   0  0  0  0  0  0
  -31.7900  -14.6731   20.0974 O   0  0  0  0  0  0
  -21.6631   -6.8884   21.4249 O   0  0  0  0  0  0
  -22.3574  -14.5547   20.6659 O   0  0  0  0  0  0
  -24.6147  -31.8733   23.2132 C   0  0  0  0  0  0
  -25.9048  -32.4853   23.8420 C   0  0  1  0  0  0
  -27.2263  -27.4409   20.0913 C   0  0  0  0  0  0
  -25.5897  -33.8644   24.2361 N   0  0  0  0  0  0
  -23.3976  -30.5063   21.5521 C   0  0  2  0  0  0
  -24.8406  -28.9726   20.1159 C   0  0  0  0  0  0
  -22.7398  -29.4740   22.4969 C   0  0  0  0  0  0
  -18.0317  -28.1305   22.8489 C   0  0  0  0  0  0
  -24.1482  -36.7307   23.2647 C   0  0  0  0  0  0
  -25.9300  -30.8396   21.3688 C   0  0  0  0  0  0
  -26.0031  -29.4758   20.7129 C   0  0  0  0  0  0
  -27.1962  -28.7159   20.7031 C   0  0  0  0  0  0
  -26.0395  -26.9552   19.4889 C   0  0  0  0  0  0
  -24.8514  -27.7084   19.5066 C   0  0  0  0  0  0
  -23.6052  -29.8454   20.1648 C   0  0  0  0  0  0
  -25.4104  -36.3122   24.0361 C   0  0  1  0  0  0
  -20.5898  -28.3632   23.1277 C   0  0  2  0  0  0
  -20.6854  -26.9410   22.5271 C   0  0  0  0  0  0
  -19.5777  -26.6270   21.5170 C   0  0  0  0  0  0
  -18.1964  -26.7862   22.1609 C   0  0  0  0  0  0
  -19.1560  -28.8771   23.2887 C   0  0  0  0  0  0
  -18.9477  -30.1373   23.8912 C   0  0  0  0  0  0
  -17.6474  -30.6494   24.0582 C   0  0  0  0  0  0
  -25.9039  -34.9495   23.5153 C   0  0  0  0  0  0
  -16.5377  -29.8988   23.6339 C   0  0  0  0  0  0
  -16.7308  -28.6423   23.0352 C   0  0  0  0  0  0
  -26.4469  -31.6610   25.0744 C   0  0  0  0  0  0
  -25.3730  -31.3710   26.1492 C   0  0  0  0  0  0
  -27.0295  -30.3053   24.6108 C   0  0  0  0  0  0
  -27.6056  -32.4335   25.7477 C   0  0  0  0  0  0
  -27.5587  -37.1811   24.8479 C   0  0  0  0  0  0
  -21.4122  -29.3089   22.3728 N   0  0  0  0  0  0
  -26.4294  -37.3801   23.9429 N   0  0  0  0  0  0
  -24.6656  -31.0880   22.1013 N   0  0  0  0  0  0
  -23.4188  -28.8249   23.2974 O   0  0  0  0  0  0
  -28.4003  -26.7105   20.1066 O   0  0  0  0  0  0
  -26.5594  -34.8939   22.4705 O   0  0  0  0  0  0
  -23.5361  -32.1469   23.7562 O   0  0  0  0  0  0
  -28.5745  -18.6428   22.1248 C   0  0  0  0  0  0
  -29.1037  -17.3424   22.2291 C   0  0  0  0  0  0
  -29.2389  -18.7057   19.7941 C   0  0  0  0  0  0
  -28.6213  -19.3289   20.8975 C   0  0  0  0  0  0
  -29.7748  -17.4006   19.8824 C   0  0  0  0  0  0
  -29.6939  -16.6913   21.1219 C   0  0  0  0  0  0
  -28.3832  -25.4457   19.5702 C   0  0  0  0  0  0
  -28.0053  -24.3317   20.2351 C   0  0  0  0  0  0
  -30.3476  -16.8195   18.6007 C   0  0  0  0  0  0
  -27.6215  -24.3404   21.7062 C   0  0  0  0  0  0
  -26.3867  -22.6949   19.2183 C   0  0  0  0  0  0
  -27.8839  -20.6535   20.7302 C   0  0  0  0  0  0
  -28.6964  -21.8145   20.0984 C   0  0  0  0  0  0
  -27.8715  -22.9969   19.4990 C   0  0  2  0  0  0
  -30.0225  -15.3178   21.3528 N   0  0  0  0  0  0
  -31.4726  -12.4085   19.0923 H   0  0  0  0  0  0
  -30.3421  -11.2686   19.7635 H   0  0  0  0  0  0
  -29.7217  -11.8071   17.3985 H   0  0  0  0  0  0
  -29.6612  -13.5078   17.7687 H   0  0  0  0  0  0
  -27.8112  -11.3263   18.7811 H   0  0  0  0  0  0
  -27.3604  -12.6873   17.7864 H   0  0  0  0  0  0
  -27.7342  -14.2559   19.6217 H   0  0  0  0  0  0
  -28.6781  -11.8611   21.2676 H   0  0  0  0  0  0
  -28.4653  -13.4528   21.9075 H   0  0  0  0  0  0
  -25.2776   -9.5643   22.4765 H   0  0  0  0  0  0
  -23.9983   -7.4617   22.7469 H   0  0  0  0  0  0
  -21.0847   -8.8790   19.8976 H   0  0  0  0  0  0
  -22.3722  -10.9674   19.6167 H   0  0  0  0  0  0
  -21.2023   -7.6153   23.9723 H   0  0  0  0  0  0
  -21.1474   -6.0534   25.9084 H   0  0  0  0  0  0
  -22.0602   -2.7614   23.2860 H   0  0  0  0  0  0
  -22.4175  -11.9884   22.4745 H   0  0  0  0  0  0
  -21.1180  -13.1274   22.2642 H   0  0  0  0  0  0
  -24.6784  -15.8471   20.5357 H   0  0  0  0  0  0
  -26.3061  -15.6294   20.1410 H   0  0  0  0  0  0
  -26.7129  -32.5579   23.1191 H   0  0  0  0  0  0
  -25.0010  -33.9778   25.0491 H   0  0  0  0  0  0
  -22.6871  -31.3261   21.4195 H   0  0  0  0  0  0
  -23.3756  -35.9626   23.3321 H   0  0  0  0  0  0
  -24.3574  -36.8887   22.2056 H   0  0  0  0  0  0
  -23.7222  -37.6525   23.6622 H   0  0  0  0  0  0
  -26.0538  -31.6116   20.6088 H   0  0  0  0  0  0
  -26.8148  -30.8846   21.9906 H   0  0  0  0  0  0
  -28.0939  -29.1007   21.1671 H   0  0  0  0  0  0
  -26.0090  -25.9913   19.0064 H   0  0  0  0  0  0
  -23.9526  -27.3120   19.0550 H   0  0  0  0  0  0
  -22.7251  -29.2749   19.8623 H   0  0  0  0  0  0
  -23.7201  -30.6281   19.4125 H   0  0  0  0  0  0
  -25.1274  -36.1981   25.0856 H   0  0  0  0  0  0
  -21.0018  -28.3138   24.1394 H   0  0  0  0  0  0
  -21.6698  -26.7638   22.0910 H   0  0  0  0  0  0
  -20.5955  -26.2206   23.3423 H   0  0  0  0  0  0
  -19.6658  -27.2990   20.6625 H   0  0  0  0  0  0
  -19.6944  -25.6123   21.1308 H   0  0  0  0  0  0
  -17.4246  -26.6669   21.3984 H   0  0  0  0  0  0
  -18.0295  -26.0032   22.9024 H   0  0  0  0  0  0
  -19.7969  -30.7173   24.2280 H   0  0  0  0  0  0
  -17.5036  -31.6142   24.5251 H   0  0  0  0  0  0
  -15.5368  -30.2844   23.7696 H   0  0  0  0  0  0
  -15.8708  -28.0751   22.7050 H   0  0  0  0  0  0
  -24.5908  -30.7049   25.7833 H   0  0  0  0  0  0
  -24.8919  -32.2868   26.4945 H   0  0  0  0  0  0
  -25.8099  -30.8879   27.0238 H   0  0  0  0  0  0
  -26.2832  -29.6831   24.1156 H   0  0  0  0  0  0
  -27.4072  -29.7284   25.4558 H   0  0  0  0  0  0
  -27.8670  -30.4408   23.9259 H   0  0  0  0  0  0
  -27.2679  -33.3626   26.2080 H   0  0  0  0  0  0
  -28.3820  -32.6904   25.0258 H   0  0  0  0  0  0
  -28.0758  -31.8435   26.5349 H   0  0  0  0  0  0
  -28.2620  -38.0095   24.7507 H   0  0  0  0  0  0
  -28.1052  -36.2618   24.6301 H   0  0  0  0  0  0
  -27.2300  -37.1488   25.8884 H   0  0  0  0  0  0
  -20.9229  -29.8860   21.7025 H   0  0  0  0  0  0
  -26.0188  -38.2885   24.1402 H   0  0  0  0  0  0
  -28.0824  -19.0883   22.9783 H   0  0  0  0  0  0
  -29.0122  -16.8251   23.1743 H   0  0  0  0  0  0
  -29.2472  -19.2181   18.8417 H   0  0  0  0  0  0
  -28.6638  -25.4518   18.5252 H   0  0  0  0  0  0
  -30.1330  -17.4549   17.7412 H   0  0  0  0  0  0
  -29.9195  -15.8434   18.3855 H   0  0  0  0  0  0
  -31.4315  -16.7340   18.6687 H   0  0  0  0  0  0
  -27.8264  -25.3070   22.1667 H   0  0  0  0  0  0
  -28.1807  -23.5896   22.2620 H   0  0  0  0  0  0
  -26.5582  -24.1289   21.8229 H   0  0  0  0  0  0
  -25.9037  -23.5368   18.7221 H   0  0  0  0  0  0
  -25.8308  -22.4895   20.1334 H   0  0  0  0  0  0
  -26.2756  -21.8387   18.5539 H   0  0  0  0  0  0
  -27.4645  -20.9735   21.6841 H   0  0  0  0  0  0
  -27.0354  -20.3935   20.1015 H   0  0  0  0  0  0
  -29.2854  -21.4104   19.2756 H   0  0  0  0  0  0
  -29.4368  -22.1782   20.8115 H   0  0  0  0  0  0
  -28.3077  -23.1701   18.5137 H   0  0  0  0  0  0
  -29.3839  -14.8622   21.9861 H   0  0  0  0  0  0
  1 25  1  0  0  0
  1 30  2  0  0  0
  1 85  1  0  0  0
  2  3  1  0  0  0
  2 25  1  0  0  0
  2 86  1  0  0  0
  2 87  1  0  0  0
  3  4  1  0  0  0
  3 88  1  0  0  0
  3 89  1  0  0  0
  4  5  1  0  0  0
  4 90  1  0  0  0
  4 91  1  0  0  0
  5  6  1  0  0  0
  5 26  1  0  0  0
  5 92  1  0  0  0
  6 25  1  0  0  0
  6 93  1  0  0  0
  6 94  1  0  0  0
  7  8  2  0  0  0
  7 26  1  0  0  0
  7 29  1  0  0  0
  8  9  1  0  0  0
  8 22  1  0  0  0
  9 10  1  0  0  0
  9 27  2  0  0  0
 10 11  2  0  0  0
 10 15  1  0  0  0
 11 12  1  0  0  0
 11 95  1  0  0  0
 12 13  2  0  0  0
 12 96  1  0  0  0
 13 14  1  0  0  0
 13 31  1  0  0  0
 14 15  2  0  0  0
 14 97  1  0  0  0
 15 98  1  0  0  0
 16 17  2  0  0  0
 16 21  1  0  0  0
 16 31  1  0  0  0
 17 18  1  0  0  0
 17 99  1  0  0  0
 18 19  2  0  0  0
 18100  1  0  0  0
 19 20  1  0  0  0
 19 24  1  0  0  0
 20 21  2  0  0  0
 20101  1  0  0  0
 21 23  1  0  0  0
 22 28  1  0  0  0
 22 32  2  0  0  0
 26 27  1  0  0  0
 28102  1  0  0  0
 28103  1  0  0  0
 29104  1  0  0  0
 29105  1  0  0  0
 33 34  1  0  0  0
 33 66  1  0  0  0
 33 70  2  0  0  0
 34 36  1  0  0  0
 34 59  1  0  0  0
 34106  1  0  0  0
 35 44  2  0  0  0
 35 45  1  0  0  0
 35 68  1  0  0  0
 36 56  1  0  0  0
 36107  1  0  0  0
 37 39  1  0  0  0
 37 47  1  0  0  0
 37 66  1  0  0  0
 37108  1  0  0  0
 38 43  2  0  0  0
 38 46  1  0  0  0
 38 47  1  0  0  0
 39 64  1  0  0  0
 39 67  2  0  0  0
 40 52  1  0  0  0
 40 53  2  0  0  0
 40 58  1  0  0  0
 41109  1  0  0  0
 41110  1  0  0  0
 41111  1  0  0  0
 41 48  1  0  0  0
 42 43  1  0  0  0
 42 66  1  0  0  0
 42112  1  0  0  0
 42113  1  0  0  0
 43 44  1  0  0  0
 44114  1  0  0  0
 45 46  2  0  0  0
 45115  1  0  0  0
 46116  1  0  0  0
 47117  1  0  0  0
 47118  1  0  0  0
 48 56  1  0  0  0
 48 65  1  0  0  0
 48119  1  0  0  0
 49 50  1  0  0  0
 49 53  1  0  0  0
 49 64  1  0  0  0
 49120  1  0  0  0
 50 51  1  0  0  0
 50121  1  0  0  0
 50122  1  0  0  0
 51 52  1  0  0  0
 51123  1  0  0  0
 51124  1  0  0  0
 52125  1  0  0  0
 52126  1  0  0  0
 53 54  1  0  0  0
 54 55  2  0  0  0
 54127  1  0  0  0
 55 57  1  0  0  0
 55128  1  0  0  0
 56 69  2  0  0  0
 57 58  2  0  0  0
 57129  1  0  0  0
 58130  1  0  0  0
 59 60  1  0  0  0
 59 61  1  0  0  0
 59 62  1  0  0  0
 60131  1  0  0  0
 60132  1  0  0  0
 60133  1  0  0  0
 61134  1  0  0  0
 61135  1  0  0  0
 61136  1  0  0  0
 62137  1  0  0  0
 62138  1  0  0  0
 62139  1  0  0  0
 63 65  1  0  0  0
 63140  1  0  0  0
 63141  1  0  0  0
 63142  1  0  0  0
 64143  1  0  0  0
 65144  1  0  0  0
 68 77  1  0  0  0
 71 72  2  0  0  0
 71 74  1  0  0  0
 71145  1  0  0  0
 72 76  1  0  0  0
 72146  1  0  0  0
 73 74  2  0  0  0
 73 75  1  0  0  0
 73147  1  0  0  0
 74 82  1  0  0  0
 75 76  2  0  0  0
 75 79  1  0  0  0
 76 85  1  0  0  0
 77 78  2  0  0  0
 77148  1  0  0  0
 78 80  1  0  0  0
 78 84  1  0  0  0
 79149  1  0  0  0
 79150  1  0  0  0
 79151  1  0  0  0
 80152  1  0  0  0
 80153  1  0  0  0
 80154  1  0  0  0
 81155  1  0  0  0
 81156  1  0  0  0
 81157  1  0  0  0
 81 84  1  0  0  0
 82 83  1  0  0  0
 82158  1  0  0  0
 82159  1  0  0  0
 83 84  1  0  0  0
 83160  1  0  0  0
 83161  1  0  0  0
 84162  1  0  0  0
 85163  1  0  0  0
M  ISO  4   1 100  68 101  77 101  85 100
M  END
> <chiral flag>
0

> <version>
0

> <s_m_source_file>
/data/baiqing/PycharmProjects/Reinvent-master-3.2/result/LINK_invent/BTK/process_docking_weight1_custom_product_contain_oxygen_bond_distance_aromatic_linkinvent_7_9_3/rearranged_h_0131.sdf

> <i_m_source_file_index>
19

> <r_mmod_Potential_Energy-OPLS-2005>
1.33594214916229

> <r_mmod_Stretch_Energy-OPLS-2005>
37.8486251831055

> <r_mmod_Bend_Energy-OPLS-2005>
119.367965698242

> <r_mmod_Torsional_Energy-OPLS-2005>
252.076446533203

> <r_mmod_Improper_Torsional_Energy-OPLS-2005>
5.34204769134521

> <r_mmod_Van_der_Waal_Energy-OPLS-2005>
163.419784545898

> <r_mmod_Electrostatic_Energy-OPLS-2005>
-400.543975830078

> <r_mmod_Solvation_Energy-OPLS-2005>
-186.388092041016

> <b_mmod_Minimization_Converged-OPLS-2005>
0

> <r_mmod_RMS_Derivative-OPLS-2005>
2.95101881027222

$$$$
19
                    3D
 Structure written by MMmdl.
158166  0  0  1  0            999 V2000
  -30.5376  -14.7633   20.5624 C   0  0  0  0  0  0
  -30.4549  -12.4984   19.4643 C   0  0  0  0  0  0
  -29.5230  -12.5706   18.2311 C   0  0  0  0  0  0
  -28.0422  -12.3559   18.6165 C   0  0  0  0  0  0
  -27.6405  -13.2169   19.8410 C   0  0  2  0  0  0
  -28.6695  -13.0568   20.9750 C   0  0  0  0  0  0
  -25.2573  -13.8229   20.5612 C   0  0  0  0  0  0
  -24.1790  -13.0470   20.9175 C   0  0  0  0  0  0
  -24.6343  -11.6970   20.8673 C   0  0  0  0  0  0
  -23.9038  -10.4320   21.0364 C   0  0  0  0  0  0
  -24.3622   -9.4270   21.9150 C   0  0  0  0  0  0
  -23.6342   -8.2272   22.0718 C   0  0  0  0  0  0
  -22.4328   -8.0290   21.3527 C   0  0  0  0  0  0
  -21.9931   -9.0239   20.4632 C   0  0  0  0  0  0
  -22.7227  -10.2140   20.3013 C   0  0  0  0  0  0
  -21.6877   -6.0757   22.5261 C   0  0  0  0  0  0
  -21.4015   -6.5663   23.8187 C   0  0  0  0  0  0
  -21.3629   -5.6832   24.9142 C   0  0  0  0  0  0
  -21.6025   -4.3081   24.7227 C   0  0  0  0  0  0
  -21.8824   -3.8186   23.4352 C   0  0  0  0  0  0
  -21.9212   -4.6987   22.3411 C   0  0  0  0  0  0
  -22.7841  -13.5306   21.1880 C   0  0  0  0  0  0
  -22.1688   -4.2159   21.0993 F   0  0  0  0  0  0
  -21.5601   -3.4571   25.7745 F   0  0  0  0  0  0
  -29.9825  -13.4982   20.4537 N   0  0  0  0  0  0
  -26.2873  -12.9333   20.3091 N   0  0  0  0  0  0
  -25.9240  -11.6496   20.5594 N   0  0  0  0  0  0
  -22.0453  -12.8216   22.0401 N   0  0  0  0  0  0
  -25.4448  -15.1910   20.4080 N   0  0  0  0  0  0
  -31.6658  -14.9739   20.1027 O   0  0  0  0  0  0
  -21.6689   -6.8893   21.4230 O   0  0  0  0  0  0
  -22.3482  -14.5563   20.6735 O   0  0  0  0  0  0
  -24.6456  -31.8467   23.1919 C   0  0  0  0  0  0
  -25.9230  -32.4720   23.8305 C   0  0  1  0  0  0
  -27.3047  -27.2727   20.1860 C   0  0  0  0  0  0
  -25.5971  -33.8510   24.2225 N   0  0  0  0  0  0
  -23.4508  -30.4471   21.5426 C   0  0  2  0  0  0
  -24.9249  -28.8915   20.1168 C   0  0  0  0  0  0
  -22.7586  -29.4543   22.5054 C   0  0  0  0  0  0
  -18.0230  -28.1546   22.8482 C   0  0  0  0  0  0
  -24.1436  -36.7211   23.2629 C   0  0  0  0  0  0
  -25.9908  -30.7766   21.3602 C   0  0  0  0  0  0
  -26.0869  -29.3948   20.7129 C   0  0  0  0  0  0
  -27.2869  -28.6135   20.7024 C   0  0  0  0  0  0
  -26.1127  -26.8209   19.5844 C   0  0  0  0  0  0
  -24.9441  -27.6155   19.5179 C   0  0  0  0  0  0
  -23.6747  -29.7490   20.1713 C   0  0  0  0  0  0
  -25.4075  -36.2989   24.0293 C   0  0  1  0  0  0
  -20.5853  -28.3832   23.1290 C   0  0  2  0  0  0
  -20.6732  -26.9532   22.5455 C   0  0  0  0  0  0
  -19.5706  -26.6497   21.5252 C   0  0  0  0  0  0
  -18.1877  -26.8071   22.1646 C   0  0  0  0  0  0
  -19.1515  -28.8997   23.2849 C   0  0  0  0  0  0
  -18.9445  -30.1585   23.8907 C   0  0  0  0  0  0
  -17.6465  -30.6706   24.0628 C   0  0  0  0  0  0
  -25.9042  -34.9402   23.5034 C   0  0  0  0  0  0
  -16.5335  -29.9225   23.6404 C   0  0  0  0  0  0
  -16.7224  -28.6650   23.0372 C   0  0  0  0  0  0
  -26.4531  -31.6581   25.0731 C   0  0  0  0  0  0
  -25.3745  -31.3770   26.1450 C   0  0  0  0  0  0
  -27.0333  -30.2968   24.6242 C   0  0  0  0  0  0
  -27.6058  -32.4323   25.7560 C   0  0  0  0  0  0
  -27.5505  -37.1741   24.8466 C   0  0  0  0  0  0
  -21.4280  -29.3105   22.3737 N   0  0  0  0  0  0
  -26.4194  -37.3738   23.9429 N   0  0  0  0  0  0
  -24.7154  -31.0390   22.0928 N   0  0  0  0  0  0
  -23.4186  -28.8079   23.3226 O   0  0  0  0  0  0
  -28.4502  -26.4395   20.1870 O   0  0  0  0  0  0
  -26.5619  -34.8902   22.4602 O   0  0  0  0  0  0
  -23.5590  -32.1302   23.7180 O   0  0  0  0  0  0
  -28.5905  -19.5723   20.5942 C   0  0  0  0  0  0
  -30.4838  -20.3925   19.9863 C   0  0  0  0  0  0
  -29.2004  -20.8376   20.2202 C   0  0  0  0  0  0
  -29.4949  -18.5093   20.6245 C   0  0  0  0  0  0
  -29.3525  -17.1448   21.2016 C   0  0  0  0  0  0
  -29.6897  -15.7888   21.2704 C   0  0  0  0  0  0
  -28.7180  -25.1881   17.3996 C   0  0  0  0  0  0
  -30.4791  -23.7051   19.2535 C   0  0  0  0  0  0
  -28.4738  -22.2831   20.2285 C   0  0  0  0  0  0
  -28.2146  -24.0057   18.2861 C   0  0  0  0  0  0
  -28.4121  -24.9753   20.5664 C   0  0  0  0  0  0
  -28.9538  -23.7416   19.6235 C   0  0  2  0  0  0
  -30.6761  -19.0194   20.1781 O   0  0  0  0  0  0
  -31.4839  -12.6864   19.1565 H   0  0  0  0  0  0
  -30.4604  -11.5020   19.9047 H   0  0  0  0  0  0
  -29.8387  -11.8550   17.4717 H   0  0  0  0  0  0
  -29.6252  -13.5574   17.7748 H   0  0  0  0  0  0
  -27.8876  -11.2972   18.8326 H   0  0  0  0  0  0
  -27.4082  -12.5906   17.7602 H   0  0  0  0  0  0
  -27.6631  -14.2509   19.4951 H   0  0  0  0  0  0
  -28.7046  -12.0155   21.2948 H   0  0  0  0  0  0
  -28.3317  -13.5881   21.8601 H   0  0  0  0  0  0
  -25.2715   -9.5800   22.4760 H   0  0  0  0  0  0
  -24.0068   -7.4672   22.7415 H   0  0  0  0  0  0
  -21.0845   -8.8731   19.8952 H   0  0  0  0  0  0
  -22.3628  -10.9664   19.6129 H   0  0  0  0  0  0
  -21.1995   -7.6175   23.9678 H   0  0  0  0  0  0
  -21.1424   -6.0567   25.9040 H   0  0  0  0  0  0
  -22.0628   -2.7656   23.2856 H   0  0  0  0  0  0
  -22.4094  -11.9915   22.4840 H   0  0  0  0  0  0
  -21.1000  -13.1102   22.2477 H   0  0  0  0  0  0
  -24.7164  -15.8881   20.5187 H   0  0  0  0  0  0
  -26.3251  -15.5929   20.1141 H   0  0  0  0  0  0
  -26.7319  -32.5397   23.1109 H   0  0  0  0  0  0
  -25.0150  -33.9619   25.0377 H   0  0  0  0  0  0
  -22.7522  -31.2714   21.3775 H   0  0  0  0  0  0
  -23.3678  -35.9558   23.3337 H   0  0  0  0  0  0
  -24.3483  -36.8821   22.2029 H   0  0  0  0  0  0
  -23.7232  -37.6413   23.6676 H   0  0  0  0  0  0
  -26.1111  -31.5304   20.5792 H   0  0  0  0  0  0
  -26.8775  -30.8544   21.9792 H   0  0  0  0  0  0
  -28.2047  -29.0403   21.0953 H   0  0  0  0  0  0
  -26.1084  -25.8364   19.1543 H   0  0  0  0  0  0
  -24.0709  -27.2140   19.0293 H   0  0  0  0  0  0
  -23.7601  -30.5104   19.3985 H   0  0  0  0  0  0
  -22.8134  -29.1375   19.8963 H   0  0  0  0  0  0
  -25.1264  -36.1757   25.0769 H   0  0  0  0  0  0
  -20.9865  -28.3442   24.1437 H   0  0  0  0  0  0
  -20.5680  -26.2444   23.3686 H   0  0  0  0  0  0
  -21.6589  -26.7598   22.1230 H   0  0  0  0  0  0
  -19.6869  -25.6396   21.1311 H   0  0  0  0  0  0
  -19.6663  -27.3301   20.6777 H   0  0  0  0  0  0
  -17.4151  -26.6831   21.4044 H   0  0  0  0  0  0
  -18.0244  -26.0250   22.9072 H   0  0  0  0  0  0
  -19.7918  -30.7399   24.2305 H   0  0  0  0  0  0
  -17.5012  -31.6368   24.5282 H   0  0  0  0  0  0
  -15.5341  -30.3164   23.7742 H   0  0  0  0  0  0
  -15.8599  -28.1007   22.7118 H   0  0  0  0  0  0
  -24.5923  -30.7092   25.7823 H   0  0  0  0  0  0
  -24.8926  -32.2951   26.4826 H   0  0  0  0  0  0
  -25.8071  -30.9014   27.0276 H   0  0  0  0  0  0
  -26.2909  -29.6788   24.1181 H   0  0  0  0  0  0
  -27.3848  -29.7169   25.4793 H   0  0  0  0  0  0
  -27.8880  -30.4145   23.9574 H   0  0  0  0  0  0
  -27.2600  -33.3595   26.2158 H   0  0  0  0  0  0
  -28.3920  -32.6968   25.0469 H   0  0  0  0  0  0
  -28.0706  -31.8464   26.5501 H   0  0  0  0  0  0
  -28.2530  -38.0029   24.7485 H   0  0  0  0  0  0
  -28.0978  -36.2555   24.6314 H   0  0  0  0  0  0
  -27.2225  -37.1434   25.8869 H   0  0  0  0  0  0
  -20.9622  -29.8669   21.6719 H   0  0  0  0  0  0
  -26.0031  -38.2744   24.1586 H   0  0  0  0  0  0
  -27.5670  -19.4699   20.9131 H   0  0  0  0  0  0
  -31.3963  -20.9044   19.7279 H   0  0  0  0  0  0
  -28.6249  -17.2926   21.9925 H   0  0  0  0  0  0
  -29.1962  -15.3689   22.1237 H   0  0  0  0  0  0
  -28.0328  -25.3503   16.5625 H   0  0  0  0  0  0
  -29.6997  -24.9762   16.9657 H   0  0  0  0  0  0
  -28.8031  -26.1489   17.9179 H   0  0  0  0  0  0
  -30.6193  -23.0422   18.3929 H   0  0  0  0  0  0
  -31.1623  -23.3193   20.0129 H   0  0  0  0  0  0
  -30.8645  -24.6746   18.9263 H   0  0  0  0  0  0
  -28.3348  -22.4654   21.2965 H   0  0  0  0  0  0
  -27.4620  -22.0882   19.8589 H   0  0  0  0  0  0
  -28.2143  -23.0998   17.6907 H   0  0  0  0  0  0
  -27.1616  -24.1577   18.5044 H   0  0  0  0  0  0
  -27.3889  -24.7163   20.8552 H   0  0  0  0  0  0
  -28.9184  -24.9005   21.5322 H   0  0  0  0  0  0
  1 25  1  0  0  0
  1 30  2  0  0  0
  1 76  1  0  0  0
  2  3  1  0  0  0
  2 25  1  0  0  0
  2 84  1  0  0  0
  2 85  1  0  0  0
  3  4  1  0  0  0
  3 86  1  0  0  0
  3 87  1  0  0  0
  4  5  1  0  0  0
  4 88  1  0  0  0
  4 89  1  0  0  0
  5  6  1  0  0  0
  5 26  1  0  0  0
  5 90  1  0  0  0
  6 25  1  0  0  0
  6 91  1  0  0  0
  6 92  1  0  0  0
  7  8  2  0  0  0
  7 26  1  0  0  0
  7 29  1  0  0  0
  8  9  1  0  0  0
  8 22  1  0  0  0
  9 10  1  0  0  0
  9 27  2  0  0  0
 10 11  2  0  0  0
 10 15  1  0  0  0
 11 12  1  0  0  0
 11 93  1  0  0  0
 12 13  2  0  0  0
 12 94  1  0  0  0
 13 14  1  0  0  0
 13 31  1  0  0  0
 14 15  2  0  0  0
 14 95  1  0  0  0
 15 96  1  0  0  0
 16 17  2  0  0  0
 16 21  1  0  0  0
 16 31  1  0  0  0
 17 18  1  0  0  0
 17 97  1  0  0  0
 18 19  2  0  0  0
 18 98  1  0  0  0
 19 20  1  0  0  0
 19 24  1  0  0  0
 20 21  2  0  0  0
 20 99  1  0  0  0
 21 23  1  0  0  0
 22 28  1  0  0  0
 22 32  2  0  0  0
 26 27  1  0  0  0
 28100  1  0  0  0
 28101  1  0  0  0
 29102  1  0  0  0
 29103  1  0  0  0
 33 34  1  0  0  0
 33 66  1  0  0  0
 33 70  2  0  0  0
 34 36  1  0  0  0
 34 59  1  0  0  0
 34104  1  0  0  0
 35 44  2  0  0  0
 35 45  1  0  0  0
 35 68  1  0  0  0
 36 56  1  0  0  0
 36105  1  0  0  0
 37 39  1  0  0  0
 37 47  1  0  0  0
 37 66  1  0  0  0
 37106  1  0  0  0
 38 43  2  0  0  0
 38 46  1  0  0  0
 38 47  1  0  0  0
 39 64  1  0  0  0
 39 67  2  0  0  0
 40 52  1  0  0  0
 40 53  2  0  0  0
 40 58  1  0  0  0
 41107  1  0  0  0
 41108  1  0  0  0
 41109  1  0  0  0
 41 48  1  0  0  0
 42 43  1  0  0  0
 42 66  1  0  0  0
 42110  1  0  0  0
 42111  1  0  0  0
 43 44  1  0  0  0
 44112  1  0  0  0
 45 46  2  0  0  0
 45113  1  0  0  0
 46114  1  0  0  0
 47115  1  0  0  0
 47116  1  0  0  0
 48 56  1  0  0  0
 48 65  1  0  0  0
 48117  1  0  0  0
 49 50  1  0  0  0
 49 53  1  0  0  0
 49 64  1  0  0  0
 49118  1  0  0  0
 50 51  1  0  0  0
 50119  1  0  0  0
 50120  1  0  0  0
 51 52  1  0  0  0
 51121  1  0  0  0
 51122  1  0  0  0
 52123  1  0  0  0
 52124  1  0  0  0
 53 54  1  0  0  0
 54 55  2  0  0  0
 54125  1  0  0  0
 55 57  1  0  0  0
 55126  1  0  0  0
 56 69  2  0  0  0
 57 58  2  0  0  0
 57127  1  0  0  0
 58128  1  0  0  0
 59 60  1  0  0  0
 59 61  1  0  0  0
 59 62  1  0  0  0
 60129  1  0  0  0
 60130  1  0  0  0
 60131  1  0  0  0
 61132  1  0  0  0
 61133  1  0  0  0
 61134  1  0  0  0
 62135  1  0  0  0
 62136  1  0  0  0
 62137  1  0  0  0
 63 65  1  0  0  0
 63138  1  0  0  0
 63139  1  0  0  0
 63140  1  0  0  0
 64141  1  0  0  0
 65142  1  0  0  0
 68 81  1  0  0  0
 71 73  1  0  0  0
 71 74  2  0  0  0
 71143  1  0  0  0
 72 73  2  0  0  0
 72 83  1  0  0  0
 72144  1  0  0  0
 73 79  1  0  0  0
 74 75  1  0  0  0
 74 83  1  0  0  0
 75 76  2  0  0  0
 75145  1  0  0  0
 76146  1  0  0  0
 77 80  1  0  0  0
 77147  1  0  0  0
 77148  1  0  0  0
 77149  1  0  0  0
 78150  1  0  0  0
 78151  1  0  0  0
 78152  1  0  0  0
 78 82  1  0  0  0
 79 82  1  0  0  0
 79153  1  0  0  0
 79154  1  0  0  0
 80 82  1  0  0  0
 80155  1  0  0  0
 80156  1  0  0  0
 81 82  1  0  0  0
 81157  1  0  0  0
 81158  1  0  0  0
M  ISO  4   1 100  68 101  76 100  81 101
M  END
> <chiral flag>
0

> <version>
0

> <s_m_source_file>
/data/baiqing/PycharmProjects/Reinvent-master-3.2/result/LINK_invent/BTK/process_docking_weight1_custom_product_contain_oxygen_bond_distance_aromatic_linkinvent_7_9_3/rearranged_h_0131.sdf

> <i_m_source_file_index>
20

> <r_mmod_Potential_Energy-OPLS-2005>
380.440704345703

> <r_mmod_Stretch_Energy-OPLS-2005>
139.861022949219

> <r_mmod_Bend_Energy-OPLS-2005>
319.677398681641

> <r_mmod_Torsional_Energy-OPLS-2005>
222.097534179688

> <r_mmod_Improper_Torsional_Energy-OPLS-2005>
3.31710362434387

> <r_mmod_Van_der_Waal_Energy-OPLS-2005>
127.042015075684

> <r_mmod_Electrostatic_Energy-OPLS-2005>
-324.825836181641

> <r_mmod_Solvation_Energy-OPLS-2005>
-197.123596191406

> <b_mmod_Minimization_Converged-OPLS-2005>
0

> <r_mmod_RMS_Derivative-OPLS-2005>
13.2319564819336

$$$$
20
                    3D
 Structure written by MMmdl.
165173  0  0  1  0            999 V2000
  -30.6917  -14.5224   20.5339 C   0  0  0  0  0  0
  -30.4297  -12.3305   19.4273 C   0  0  0  0  0  0
  -29.4961  -12.5126   18.2093 C   0  0  0  0  0  0
  -28.0190  -12.3548   18.6212 C   0  0  0  0  0  0
  -27.6611  -13.2024   19.8706 C   0  0  2  0  0  0
  -28.7076  -13.0050   20.9928 C   0  0  0  0  0  0
  -25.2606  -13.8149   20.5708 C   0  0  0  0  0  0
  -24.1837  -13.0457   20.9224 C   0  0  0  0  0  0
  -24.6358  -11.6919   20.8734 C   0  0  0  0  0  0
  -23.9000  -10.4305   21.0390 C   0  0  0  0  0  0
  -24.3568   -9.4226   21.9178 C   0  0  0  0  0  0
  -23.6276   -8.2248   22.0749 C   0  0  0  0  0  0
  -22.4255   -8.0267   21.3537 C   0  0  0  0  0  0
  -21.9876   -9.0207   20.4640 C   0  0  0  0  0  0
  -22.7153  -10.2115   20.3053 C   0  0  0  0  0  0
  -21.6824   -6.0757   22.5289 C   0  0  0  0  0  0
  -21.3987   -6.5670   23.8228 C   0  0  0  0  0  0
  -21.3651   -5.6804   24.9174 C   0  0  0  0  0  0
  -21.6031   -4.3066   24.7215 C   0  0  0  0  0  0
  -21.8814   -3.8171   23.4324 C   0  0  0  0  0  0
  -21.9178   -4.7003   22.3400 C   0  0  0  0  0  0
  -22.7851  -13.5253   21.1883 C   0  0  0  0  0  0
  -22.1652   -4.2207   21.0974 F   0  0  0  0  0  0
  -21.5632   -3.4543   25.7715 F   0  0  0  0  0  0
  -30.0337  -13.3282   20.4399 N   0  0  0  0  0  0
  -26.3012  -12.9308   20.3344 N   0  0  0  0  0  0
  -25.9277  -11.6471   20.5712 N   0  0  0  0  0  0
  -22.0436  -12.8262   22.0428 N   0  0  0  0  0  0
  -25.4430  -15.1863   20.4141 N   0  0  0  0  0  0
  -31.8497  -14.6457   20.1182 O   0  0  0  0  0  0
  -21.6619   -6.8872   21.4240 O   0  0  0  0  0  0
  -22.3529  -14.5508   20.6652 O   0  0  0  0  0  0
  -24.6155  -31.8662   23.2120 C   0  0  0  0  0  0
  -25.9035  -32.4810   23.8423 C   0  0  1  0  0  0
  -27.2236  -27.4025   20.0993 C   0  0  0  0  0  0
  -25.5921  -33.8621   24.2364 N   0  0  0  0  0  0
  -23.4040  -30.4894   21.5544 C   0  0  2  0  0  0
  -24.8460  -28.9478   20.1211 C   0  0  0  0  0  0
  -22.7396  -29.4654   22.5017 C   0  0  0  0  0  0
  -18.0275  -28.1358   22.8503 C   0  0  0  0  0  0
  -24.1481  -36.7281   23.2636 C   0  0  0  0  0  0
  -25.9349  -30.8194   21.3688 C   0  0  0  0  0  0
  -26.0107  -29.4524   20.7124 C   0  0  0  0  0  0
  -27.2031  -28.6881   20.6951 C   0  0  0  0  0  0
  -26.0389  -26.9212   19.4987 C   0  0  0  0  0  0
  -24.8545  -27.6812   19.5148 C   0  0  0  0  0  0
  -23.6102  -29.8163   20.1719 C   0  0  0  0  0  0
  -25.4104  -36.3109   24.0351 C   0  0  1  0  0  0
  -20.5858  -28.3661   23.1321 C   0  0  2  0  0  0
  -20.6770  -26.9401   22.5410 C   0  0  0  0  0  0
  -19.5746  -26.6373   21.5210 C   0  0  0  0  0  0
  -18.1924  -26.7916   22.1612 C   0  0  0  0  0  0
  -19.1525  -28.8828   23.2911 C   0  0  0  0  0  0
  -18.9447  -30.1436   23.8912 C   0  0  0  0  0  0
  -17.6446  -30.6573   24.0555 C   0  0  0  0  0  0
  -25.9035  -34.9468   23.5147 C   0  0  0  0  0  0
  -16.5338  -29.9053   23.6340 C   0  0  0  0  0  0
  -16.7263  -28.6466   23.0373 C   0  0  0  0  0  0
  -26.4477  -31.6591   25.0751 C   0  0  0  0  0  0
  -25.3768  -31.3654   26.1520 C   0  0  0  0  0  0
  -27.0310  -30.3045   24.6104 C   0  0  0  0  0  0
  -27.6069  -32.4312   25.7492 C   0  0  0  0  0  0
  -27.5589  -37.1789   24.8470 C   0  0  0  0  0  0
  -21.4127  -29.3037   22.3741 N   0  0  0  0  0  0
  -26.4287  -37.3801   23.9433 N   0  0  0  0  0  0
  -24.6702  -31.0719   22.1040 N   0  0  0  0  0  0
  -23.4156  -28.8185   23.3069 O   0  0  0  0  0  0
  -28.3882  -26.6579   20.0777 O   0  0  0  0  0  0
  -26.5575  -34.8914   22.4698 O   0  0  0  0  0  0
  -23.5344  -32.1448   23.7494 O   0  0  0  0  0  0
  -28.1962  -20.5543   21.9740 C   0  0  0  0  0  0
  -28.0653  -19.4091   22.7714 C   0  0  0  0  0  0
  -29.8049  -19.3817   20.5782 C   0  0  0  0  0  0
  -29.6562  -18.1932   21.3547 C   0  0  0  0  0  0
  -29.0808  -20.5708   20.8810 C   0  0  0  0  0  0
  -28.7884  -18.2356   22.4827 C   0  0  0  0  0  0
  -30.3764  -16.9527   20.9344 C   0  0  0  0  0  0
  -29.8959  -15.6817   20.9716 C   0  0  0  0  0  0
  -28.6147  -17.0747   23.4495 C   0  0  0  0  0  0
  -31.7466  -24.1594   18.8163 C   0  0  0  0  0  0
  -29.2029  -21.8741   20.0692 C   0  0  0  0  0  0
  -30.2923  -24.6434   18.9380 C   0  0  0  0  0  0
  -29.6795  -23.0796   20.9383 C   0  0  0  0  0  0
  -28.2837  -25.2495   20.4054 C   0  0  0  0  0  0
  -29.6748  -24.5381   20.3518 C   0  0  2  0  0  0
  -30.4885  -25.2787   21.2496 O   0  0  0  0  0  0
  -31.4697  -12.4361   19.1132 H   0  0  0  0  0  0
  -30.3481  -11.3200   19.8325 H   0  0  0  0  0  0
  -29.7460  -11.7959   17.4247 H   0  0  0  0  0  0
  -29.6451  -13.5021   17.7738 H   0  0  0  0  0  0
  -27.8419  -11.2992   18.8276 H   0  0  0  0  0  0
  -27.3632  -12.6107   17.7881 H   0  0  0  0  0  0
  -27.7019  -14.2457   19.5565 H   0  0  0  0  0  0
  -28.7033  -11.9709   21.3402 H   0  0  0  0  0  0
  -28.4699  -13.5918   21.8797 H   0  0  0  0  0  0
  -25.2704   -9.5733   22.4753 H   0  0  0  0  0  0
  -24.0025   -7.4611   22.7427 H   0  0  0  0  0  0
  -21.0830   -8.8601   19.8920 H   0  0  0  0  0  0
  -22.3515  -10.9618   19.6159 H   0  0  0  0  0  0
  -21.1965   -7.6171   23.9755 H   0  0  0  0  0  0
  -21.1481   -6.0535   25.9079 H   0  0  0  0  0  0
  -22.0608   -2.7650   23.2788 H   0  0  0  0  0  0
  -22.3980  -11.9911   22.4860 H   0  0  0  0  0  0
  -21.0993  -13.1229   22.2494 H   0  0  0  0  0  0
  -24.6913  -15.8527   20.5452 H   0  0  0  0  0  0
  -26.3052  -15.6096   20.0934 H   0  0  0  0  0  0
  -26.7084  -32.5508   23.1171 H   0  0  0  0  0  0
  -25.0203  -33.9800   25.0598 H   0  0  0  0  0  0
  -22.6970  -31.3095   21.4125 H   0  0  0  0  0  0
  -23.3782  -35.9571   23.3282 H   0  0  0  0  0  0
  -24.3593  -36.8907   22.2054 H   0  0  0  0  0  0
  -23.7170  -37.6459   23.6649 H   0  0  0  0  0  0
  -26.0520  -31.5867   20.6028 H   0  0  0  0  0  0
  -26.8208  -30.8708   21.9897 H   0  0  0  0  0  0
  -28.1014  -29.0759   21.1549 H   0  0  0  0  0  0
  -26.0148  -25.9651   18.9979 H   0  0  0  0  0  0
  -23.9546  -27.2847   19.0622 H   0  0  0  0  0  0
  -23.7166  -30.5859   19.4075 H   0  0  0  0  0  0
  -22.7345  -29.2324   19.8811 H   0  0  0  0  0  0
  -25.1268  -36.1989   25.0842 H   0  0  0  0  0  0
  -20.9959  -28.3219   24.1437 H   0  0  0  0  0  0
  -20.5690  -26.2269   23.3597 H   0  0  0  0  0  0
  -21.6642  -26.7456   22.1195 H   0  0  0  0  0  0
  -19.6911  -25.6282   21.1246 H   0  0  0  0  0  0
  -19.6679  -27.3187   20.6740 H   0  0  0  0  0  0
  -17.4207  -26.6711   21.3992 H   0  0  0  0  0  0
  -18.0293  -26.0026   22.8970 H   0  0  0  0  0  0
  -19.7920  -30.7260   24.2285 H   0  0  0  0  0  0
  -17.4991  -31.6269   24.5127 H   0  0  0  0  0  0
  -15.5342  -30.2943   23.7655 H   0  0  0  0  0  0
  -15.8667  -28.0762   22.7100 H   0  0  0  0  0  0
  -24.5961  -30.6971   25.7874 H   0  0  0  0  0  0
  -24.8934  -32.2773   26.5026 H   0  0  0  0  0  0
  -25.8166  -30.8812   27.0246 H   0  0  0  0  0  0
  -26.2832  -29.6802   24.1197 H   0  0  0  0  0  0
  -27.4147  -29.7284   25.4532 H   0  0  0  0  0  0
  -27.8644  -30.4399   23.9208 H   0  0  0  0  0  0
  -27.2710  -33.3605   26.2102 H   0  0  0  0  0  0
  -28.3843  -32.6880   25.0286 H   0  0  0  0  0  0
  -28.0772  -31.8422   26.5375 H   0  0  0  0  0  0
  -28.2587  -38.0112   24.7598 H   0  0  0  0  0  0
  -28.1112  -36.2659   24.6203 H   0  0  0  0  0  0
  -27.2327  -37.1318   25.8874 H   0  0  0  0  0  0
  -20.9286  -29.8771   21.6972 H   0  0  0  0  0  0
  -26.0183  -38.2873   24.1491 H   0  0  0  0  0  0
  -27.6159  -21.4333   22.2213 H   0  0  0  0  0  0
  -27.4035  -19.4366   23.6261 H   0  0  0  0  0  0
  -30.4737  -19.3658   19.7289 H   0  0  0  0  0  0
  -31.3871  -17.1118   20.5813 H   0  0  0  0  0  0
  -28.8825  -15.5581   21.3099 H   0  0  0  0  0  0
  -28.4288  -17.4426   24.4591 H   0  0  0  0  0  0
  -29.5039  -16.4492   23.5043 H   0  0  0  0  0  0
  -27.7600  -16.4632   23.1603 H   0  0  0  0  0  0
  -32.0848  -24.2435   17.7826 H   0  0  0  0  0  0
  -31.8596  -23.1164   19.1122 H   0  0  0  0  0  0
  -32.4224  -24.7593   19.4263 H   0  0  0  0  0  0
  -28.2272  -22.0912   19.6303 H   0  0  0  0  0  0
  -29.8854  -21.7104   19.2329 H   0  0  0  0  0  0
  -29.6704  -24.0902   18.2325 H   0  0  0  0  0  0
  -30.2490  -25.6827   18.6043 H   0  0  0  0  0  0
  -30.6861  -22.8227   21.2692 H   0  0  0  0  0  0
  -29.0877  -23.1081   21.8533 H   0  0  0  0  0  0
  -27.8455  -25.1575   21.4022 H   0  0  0  0  0  0
  -27.6128  -24.7386   19.7158 H   0  0  0  0  0  0
  -31.3869  -24.9988   21.1230 H   0  0  0  0  0  0
  1 25  1  0  0  0
  1 30  2  0  0  0
  1 78  1  0  0  0
  2  3  1  0  0  0
  2 25  1  0  0  0
  2 87  1  0  0  0
  2 88  1  0  0  0
  3  4  1  0  0  0
  3 89  1  0  0  0
  3 90  1  0  0  0
  4  5  1  0  0  0
  4 91  1  0  0  0
  4 92  1  0  0  0
  5  6  1  0  0  0
  5 26  1  0  0  0
  5 93  1  0  0  0
  6 25  1  0  0  0
  6 94  1  0  0  0
  6 95  1  0  0  0
  7  8  2  0  0  0
  7 26  1  0  0  0
  7 29  1  0  0  0
  8  9  1  0  0  0
  8 22  1  0  0  0
  9 10  1  0  0  0
  9 27  2  0  0  0
 10 11  2  0  0  0
 10 15  1  0  0  0
 11 12  1  0  0  0
 11 96  1  0  0  0
 12 13  2  0  0  0
 12 97  1  0  0  0
 13 14  1  0  0  0
 13 31  1  0  0  0
 14 15  2  0  0  0
 14 98  1  0  0  0
 15 99  1  0  0  0
 16 17  2  0  0  0
 16 21  1  0  0  0
 16 31  1  0  0  0
 17 18  1  0  0  0
 17100  1  0  0  0
 18 19  2  0  0  0
 18101  1  0  0  0
 19 20  1  0  0  0
 19 24  1  0  0  0
 20 21  2  0  0  0
 20102  1  0  0  0
 21 23  1  0  0  0
 22 28  1  0  0  0
 22 32  2  0  0  0
 26 27  1  0  0  0
 28103  1  0  0  0
 28104  1  0  0  0
 29105  1  0  0  0
 29106  1  0  0  0
 33 34  1  0  0  0
 33 66  1  0  0  0
 33 70  2  0  0  0
 34 36  1  0  0  0
 34 59  1  0  0  0
 34107  1  0  0  0
 35 44  2  0  0  0
 35 45  1  0  0  0
 35 68  1  0  0  0
 36 56  1  0  0  0
 36108  1  0  0  0
 37 39  1  0  0  0
 37 47  1  0  0  0
 37 66  1  0  0  0
 37109  1  0  0  0
 38 43  2  0  0  0
 38 46  1  0  0  0
 38 47  1  0  0  0
 39 64  1  0  0  0
 39 67  2  0  0  0
 40 52  1  0  0  0
 40 53  2  0  0  0
 40 58  1  0  0  0
 41110  1  0  0  0
 41111  1  0  0  0
 41112  1  0  0  0
 41 48  1  0  0  0
 42 43  1  0  0  0
 42 66  1  0  0  0
 42113  1  0  0  0
 42114  1  0  0  0
 43 44  1  0  0  0
 44115  1  0  0  0
 45 46  2  0  0  0
 45116  1  0  0  0
 46117  1  0  0  0
 47118  1  0  0  0
 47119  1  0  0  0
 48 56  1  0  0  0
 48 65  1  0  0  0
 48120  1  0  0  0
 49 50  1  0  0  0
 49 53  1  0  0  0
 49 64  1  0  0  0
 49121  1  0  0  0
 50 51  1  0  0  0
 50122  1  0  0  0
 50123  1  0  0  0
 51 52  1  0  0  0
 51124  1  0  0  0
 51125  1  0  0  0
 52126  1  0  0  0
 52127  1  0  0  0
 53 54  1  0  0  0
 54 55  2  0  0  0
 54128  1  0  0  0
 55 57  1  0  0  0
 55129  1  0  0  0
 56 69  2  0  0  0
 57 58  2  0  0  0
 57130  1  0  0  0
 58131  1  0  0  0
 59 60  1  0  0  0
 59 61  1  0  0  0
 59 62  1  0  0  0
 60132  1  0  0  0
 60133  1  0  0  0
 60134  1  0  0  0
 61135  1  0  0  0
 61136  1  0  0  0
 61137  1  0  0  0
 62138  1  0  0  0
 62139  1  0  0  0
 62140  1  0  0  0
 63 65  1  0  0  0
 63141  1  0  0  0
 63142  1  0  0  0
 63143  1  0  0  0
 64144  1  0  0  0
 65145  1  0  0  0
 68 84  1  0  0  0
 71 72  2  0  0  0
 71 75  1  0  0  0
 71146  1  0  0  0
 72 76  1  0  0  0
 72147  1  0  0  0
 73 74  1  0  0  0
 73 75  2  0  0  0
 73148  1  0  0  0
 74 76  2  0  0  0
 74 77  1  0  0  0
 75 81  1  0  0  0
 76 79  1  0  0  0
 77 78  2  0  0  0
 77149  1  0  0  0
 78150  1  0  0  0
 79151  1  0  0  0
 79152  1  0  0  0
 79153  1  0  0  0
 80 82  1  0  0  0
 80154  1  0  0  0
 80155  1  0  0  0
 80156  1  0  0  0
 81 83  1  0  0  0
 81157  1  0  0  0
 81158  1  0  0  0
 82 85  1  0  0  0
 82159  1  0  0  0
 82160  1  0  0  0
 83 85  1  0  0  0
 83161  1  0  0  0
 83162  1  0  0  0
 84 85  1  0  0  0
 84163  1  0  0  0
 84164  1  0  0  0
 85 86  1  0  0  0
 86165  1  0  0  0
M  ISO  4   1 100  68 101  78 100  84 101
M  END
> <chiral flag>
0

> <version>
0

> <s_m_source_file>
/data/baiqing/PycharmProjects/Reinvent-master-3.2/result/LINK_invent/BTK/process_docking_weight1_custom_product_contain_oxygen_bond_distance_aromatic_linkinvent_7_9_3/rearranged_h_0131.sdf

> <i_m_source_file_index>
21

> <r_mmod_Potential_Energy-OPLS-2005>
-6.92093133926392

> <r_mmod_Stretch_Energy-OPLS-2005>
48.2257499694824

> <r_mmod_Bend_Energy-OPLS-2005>
107.84790802002

> <r_mmod_Torsional_Energy-OPLS-2005>
225.93798828125

> <r_mmod_Improper_Torsional_Energy-OPLS-2005>
4.04291152954102

> <r_mmod_Van_der_Waal_Energy-OPLS-2005>
156.829574584961

> <r_mmod_Electrostatic_Energy-OPLS-2005>
-366.006652832031

> <r_mmod_Solvation_Energy-OPLS-2005>
-202.419555664062

> <b_mmod_Minimization_Converged-OPLS-2005>
0

> <r_mmod_RMS_Derivative-OPLS-2005>
3.39133095741272

$$$$
21
                    3D
 Structure written by MMmdl.
169177  0  0  1  0            999 V2000
  -30.7008  -14.5749   20.4814 C   0  0  0  0  0  0
  -30.4291  -12.3522   19.4508 C   0  0  0  0  0  0
  -29.5151  -12.5009   18.2164 C   0  0  0  0  0  0
  -28.0322  -12.3577   18.6214 C   0  0  0  0  0  0
  -27.6567  -13.2245   19.8538 C   0  0  2  0  0  0
  -28.7014  -13.0964   20.9873 C   0  0  0  0  0  0
  -25.2568  -13.8193   20.5640 C   0  0  0  0  0  0
  -24.1829  -13.0461   20.9151 C   0  0  0  0  0  0
  -24.6413  -11.6909   20.8701 C   0  0  0  0  0  0
  -23.9102  -10.4313   21.0385 C   0  0  0  0  0  0
  -24.3638   -9.4235   21.9188 C   0  0  0  0  0  0
  -23.6273   -8.2277   22.0789 C   0  0  0  0  0  0
  -22.4235   -8.0326   21.3591 C   0  0  0  0  0  0
  -21.9891   -9.0304   20.4686 C   0  0  0  0  0  0
  -22.7257  -10.2155   20.3060 C   0  0  0  0  0  0
  -21.6843   -6.0737   22.5269 C   0  0  0  0  0  0
  -21.4029   -6.5654   23.8218 C   0  0  0  0  0  0
  -21.3657   -5.6789   24.9170 C   0  0  0  0  0  0
  -21.6022   -4.3056   24.7222 C   0  0  0  0  0  0
  -21.8829   -3.8154   23.4346 C   0  0  0  0  0  0
  -21.9197   -4.6965   22.3388 C   0  0  0  0  0  0
  -22.7846  -13.5255   21.1772 C   0  0  0  0  0  0
  -22.1661   -4.2187   21.0958 F   0  0  0  0  0  0
  -21.5636   -3.4532   25.7745 F   0  0  0  0  0  0
  -30.0256  -13.3892   20.4172 N   0  0  0  0  0  0
  -26.3009  -12.9399   20.3228 N   0  0  0  0  0  0
  -25.9358  -11.6550   20.5683 N   0  0  0  0  0  0
  -22.0418  -12.8278   22.0299 N   0  0  0  0  0  0
  -25.4291  -15.1910   20.4123 N   0  0  0  0  0  0
  -31.8809  -14.6628   20.1332 O   0  0  0  0  0  0
  -21.6627   -6.8879   21.4235 O   0  0  0  0  0  0
  -22.3530  -14.5536   20.6596 O   0  0  0  0  0  0
  -24.6215  -31.8622   23.2011 C   0  0  0  0  0  0
  -25.9100  -32.4780   23.8300 C   0  0  1  0  0  0
  -27.2422  -27.3845   20.0686 C   0  0  0  0  0  0
  -25.5925  -33.8574   24.2228 N   0  0  0  0  0  0
  -23.4087  -30.4857   21.5445 C   0  0  2  0  0  0
  -24.8604  -28.9541   20.0948 C   0  0  0  0  0  0
  -22.7427  -29.4641   22.4961 C   0  0  0  0  0  0
  -18.0297  -28.1401   22.8475 C   0  0  0  0  0  0
  -24.1507  -36.7280   23.2627 C   0  0  0  0  0  0
  -25.9445  -30.8050   21.3693 C   0  0  0  0  0  0
  -26.0192  -29.4387   20.7121 C   0  0  0  0  0  0
  -27.2035  -28.6539   20.7127 C   0  0  0  0  0  0
  -26.0722  -26.9539   19.4101 C   0  0  0  0  0  0
  -24.8880  -27.7128   19.4393 C   0  0  0  0  0  0
  -23.6135  -29.8104   20.1619 C   0  0  0  0  0  0
  -25.4128  -36.3062   24.0305 C   0  0  1  0  0  0
  -20.5884  -28.3689   23.1289 C   0  0  2  0  0  0
  -20.6804  -26.9415   22.5400 C   0  0  0  0  0  0
  -19.5770  -26.6390   21.5210 C   0  0  0  0  0  0
  -18.1952  -26.7949   22.1609 C   0  0  0  0  0  0
  -19.1545  -28.8862   23.2879 C   0  0  0  0  0  0
  -18.9471  -30.1472   23.8890 C   0  0  0  0  0  0
  -17.6471  -30.6593   24.0564 C   0  0  0  0  0  0
  -25.9057  -34.9446   23.5055 C   0  0  0  0  0  0
  -16.5362  -29.9085   23.6344 C   0  0  0  0  0  0
  -16.7284  -28.6509   23.0339 C   0  0  0  0  0  0
  -26.4504  -31.6589   25.0658 C   0  0  0  0  0  0
  -25.3740  -31.3744   26.1384 C   0  0  0  0  0  0
  -27.0300  -30.2992   24.6096 C   0  0  0  0  0  0
  -27.6048  -32.4340   25.7440 C   0  0  0  0  0  0
  -27.5585  -37.1785   24.8447 C   0  0  0  0  0  0
  -21.4157  -29.3022   22.3662 N   0  0  0  0  0  0
  -26.4295  -37.3761   23.9406 N   0  0  0  0  0  0
  -24.6754  -31.0682   22.0936 N   0  0  0  0  0  0
  -23.4181  -28.8199   23.3032 O   0  0  0  0  0  0
  -28.3769  -26.5784   20.1628 O   0  0  0  0  0  0
  -26.5617  -34.8920   22.4618 O   0  0  0  0  0  0
  -23.5405  -32.1413   23.7406 O   0  0  0  0  0  0
  -30.0283  -19.6783   23.0440 C   0  0  0  0  0  0
  -29.7749  -19.5711   20.2975 C   0  0  0  0  0  0
  -30.1483  -18.4249   22.3987 C   0  0  0  0  0  0
  -29.8513  -20.8920   22.3394 C   0  0  0  0  0  0
  -30.0442  -18.3509   20.9903 C   0  0  0  0  0  0
  -29.6632  -20.8520   20.9230 C   0  0  0  0  0  0
  -30.4762  -17.2001   23.2340 C   0  0  0  0  0  0
  -31.4291  -22.7477   23.0681 C   0  0  0  0  0  0
  -27.3627  -23.2769   17.0622 C   0  0  0  0  0  0
  -30.0097  -22.1694   23.1738 C   0  0  0  0  0  0
  -30.3728  -17.0566   20.1862 C   0  0  0  0  0  0
  -27.3570  -23.4899   18.5884 C   0  0  0  0  0  0
  -28.7899  -25.6680   19.1039 C   0  0  0  0  0  0
  -29.1086  -23.2903   20.4409 C   0  0  0  0  0  0
  -28.6723  -24.0809   19.1634 C   0  0  1  0  0  0
  -29.9659  -15.6986   20.6670 N   0  0  0  0  0  0
  -29.4515  -21.9287   20.0534 O   0  0  0  0  0  0
  -31.4784  -12.4283   19.1587 H   0  0  0  0  0  0
  -30.3282  -11.3651   19.9002 H   0  0  0  0  0  0
  -29.7722  -11.7539   17.4660 H   0  0  0  0  0  0
  -29.6827  -13.4674   17.7367 H   0  0  0  0  0  0
  -27.8497  -11.3019   18.8333 H   0  0  0  0  0  0
  -27.3918  -12.6121   17.7787 H   0  0  0  0  0  0
  -27.6739  -14.2592   19.5071 H   0  0  0  0  0  0
  -28.6856  -12.0942   21.4189 H   0  0  0  0  0  0
  -28.4588  -13.7818   21.8037 H   0  0  0  0  0  0
  -25.2818   -9.5728   22.4722 H   0  0  0  0  0  0
  -24.0060   -7.4648   22.7471 H   0  0  0  0  0  0
  -21.0865   -8.8783   19.8928 H   0  0  0  0  0  0
  -22.3757  -10.9671   19.6133 H   0  0  0  0  0  0
  -21.2034   -7.6170   23.9729 H   0  0  0  0  0  0
  -21.1442   -6.0513   25.9069 H   0  0  0  0  0  0
  -22.0606   -2.7624   23.2792 H   0  0  0  0  0  0
  -22.4015  -12.0068   22.4897 H   0  0  0  0  0  0
  -21.1018  -13.1340   22.2405 H   0  0  0  0  0  0
  -24.6671  -15.8497   20.5399 H   0  0  0  0  0  0
  -26.2805  -15.6357   20.0963 H   0  0  0  0  0  0
  -26.7159  -32.5455   23.1034 H   0  0  0  0  0  0
  -25.0091  -33.9709   25.0390 H   0  0  0  0  0  0
  -22.6995  -31.3041   21.4025 H   0  0  0  0  0  0
  -23.3778  -35.9598   23.3263 H   0  0  0  0  0  0
  -24.3614  -36.8950   22.2050 H   0  0  0  0  0  0
  -23.7274  -37.6464   23.6702 H   0  0  0  0  0  0
  -26.0753  -31.5748   20.6080 H   0  0  0  0  0  0
  -26.8242  -30.8503   21.9973 H   0  0  0  0  0  0
  -28.0872  -29.0172   21.2185 H   0  0  0  0  0  0
  -26.0488  -26.0279   18.8686 H   0  0  0  0  0  0
  -24.0064  -27.3444   18.9337 H   0  0  0  0  0  0
  -23.6847  -30.5738   19.3872 H   0  0  0  0  0  0
  -22.7423  -29.2083   19.8951 H   0  0  0  0  0  0
  -25.1327  -36.1858   25.0790 H   0  0  0  0  0  0
  -20.9988  -28.3296   24.1402 H   0  0  0  0  0  0
  -20.5758  -26.2279   23.3589 H   0  0  0  0  0  0
  -21.6666  -26.7490   22.1176 H   0  0  0  0  0  0
  -19.6936  -25.6296   21.1242 H   0  0  0  0  0  0
  -19.6721  -27.3189   20.6734 H   0  0  0  0  0  0
  -17.4217  -26.6705   21.4012 H   0  0  0  0  0  0
  -18.0334  -26.0096   22.9005 H   0  0  0  0  0  0
  -19.7945  -30.7300   24.2232 H   0  0  0  0  0  0
  -17.5026  -31.6287   24.5148 H   0  0  0  0  0  0
  -15.5364  -30.2969   23.7699 H   0  0  0  0  0  0
  -15.8686  -28.0828   22.7049 H   0  0  0  0  0  0
  -24.5864  -30.7157   25.7713 H   0  0  0  0  0  0
  -24.8986  -32.2919   26.4848 H   0  0  0  0  0  0
  -25.8047  -30.8862   27.0125 H   0  0  0  0  0  0
  -26.2810  -29.6752   24.1183 H   0  0  0  0  0  0
  -27.4051  -29.7260   25.4587 H   0  0  0  0  0  0
  -27.8686  -30.4250   23.9241 H   0  0  0  0  0  0
  -27.2622  -33.3651   26.1975 H   0  0  0  0  0  0
  -28.3870  -32.6893   25.0277 H   0  0  0  0  0  0
  -28.0682  -31.8482   26.5388 H   0  0  0  0  0  0
  -28.2569  -38.0115   24.7542 H   0  0  0  0  0  0
  -28.1121  -36.2648   24.6214 H   0  0  0  0  0  0
  -27.2302  -37.1361   25.8847 H   0  0  0  0  0  0
  -20.9352  -29.8606   21.6750 H   0  0  0  0  0  0
  -26.0151  -38.2820   24.1438 H   0  0  0  0  0  0
  -30.1472  -19.7112   24.1168 H   0  0  0  0  0  0
  -29.7023  -19.5355   19.2203 H   0  0  0  0  0  0
  -30.7260  -17.4523   24.2662 H   0  0  0  0  0  0
  -31.3357  -16.6806   22.8076 H   0  0  0  0  0  0
  -29.6287  -16.5139   23.2497 H   0  0  0  0  0  0
  -31.5199  -23.6569   23.6641 H   0  0  0  0  0  0
  -31.7011  -22.9856   22.0395 H   0  0  0  0  0  0
  -32.1679  -22.0361   23.4376 H   0  0  0  0  0  0
  -26.5802  -22.5742   16.7649 H   0  0  0  0  0  0
  -28.3043  -22.8491   16.7183 H   0  0  0  0  0  0
  -27.1959  -24.2076   16.5204 H   0  0  0  0  0  0
  -29.8314  -21.9267   24.2208 H   0  0  0  0  0  0
  -29.2552  -22.9216   22.9767 H   0  0  0  0  0  0
  -31.4566  -17.0868   20.0502 H   0  0  0  0  0  0
  -29.9787  -17.1625   19.1744 H   0  0  0  0  0  0
  -27.1749  -22.5131   19.0375 H   0  0  0  0  0  0
  -26.4988  -24.0731   18.8911 H   0  0  0  0  0  0
  -28.4003  -26.0166   18.1479 H   0  0  0  0  0  0
  -29.8619  -25.8704   19.0281 H   0  0  0  0  0  0
  -28.2800  -23.2997   21.1469 H   0  0  0  0  0  0
  -29.9658  -23.7860   20.8933 H   0  0  0  0  0  0
  -29.4415  -23.7780   18.4515 H   0  0  0  0  0  0
  -28.9938  -15.5712   20.9078 H   0  0  0  0  0  0
  1 25  1  0  0  0
  1 30  2  0  0  0
  1 86  1  0  0  0
  2  3  1  0  0  0
  2 25  1  0  0  0
  2 88  1  0  0  0
  2 89  1  0  0  0
  3  4  1  0  0  0
  3 90  1  0  0  0
  3 91  1  0  0  0
  4  5  1  0  0  0
  4 92  1  0  0  0
  4 93  1  0  0  0
  5  6  1  0  0  0
  5 26  1  0  0  0
  5 94  1  0  0  0
  6 25  1  0  0  0
  6 95  1  0  0  0
  6 96  1  0  0  0
  7  8  2  0  0  0
  7 26  1  0  0  0
  7 29  1  0  0  0
  8  9  1  0  0  0
  8 22  1  0  0  0
  9 10  1  0  0  0
  9 27  2  0  0  0
 10 11  2  0  0  0
 10 15  1  0  0  0
 11 12  1  0  0  0
 11 97  1  0  0  0
 12 13  2  0  0  0
 12 98  1  0  0  0
 13 14  1  0  0  0
 13 31  1  0  0  0
 14 15  2  0  0  0
 14 99  1  0  0  0
 15100  1  0  0  0
 16 17  2  0  0  0
 16 21  1  0  0  0
 16 31  1  0  0  0
 17 18  1  0  0  0
 17101  1  0  0  0
 18 19  2  0  0  0
 18102  1  0  0  0
 19 20  1  0  0  0
 19 24  1  0  0  0
 20 21  2  0  0  0
 20103  1  0  0  0
 21 23  1  0  0  0
 22 28  1  0  0  0
 22 32  2  0  0  0
 26 27  1  0  0  0
 28104  1  0  0  0
 28105  1  0  0  0
 29106  1  0  0  0
 29107  1  0  0  0
 33 34  1  0  0  0
 33 66  1  0  0  0
 33 70  2  0  0  0
 34 36  1  0  0  0
 34 59  1  0  0  0
 34108  1  0  0  0
 35 44  2  0  0  0
 35 45  1  0  0  0
 35 68  1  0  0  0
 36 56  1  0  0  0
 36109  1  0  0  0
 37 39  1  0  0  0
 37 47  1  0  0  0
 37 66  1  0  0  0
 37110  1  0  0  0
 38 43  2  0  0  0
 38 46  1  0  0  0
 38 47  1  0  0  0
 39 64  1  0  0  0
 39 67  2  0  0  0
 40 52  1  0  0  0
 40 53  2  0  0  0
 40 58  1  0  0  0
 41111  1  0  0  0
 41112  1  0  0  0
 41113  1  0  0  0
 41 48  1  0  0  0
 42 43  1  0  0  0
 42 66  1  0  0  0
 42114  1  0  0  0
 42115  1  0  0  0
 43 44  1  0  0  0
 44116  1  0  0  0
 45 46  2  0  0  0
 45117  1  0  0  0
 46118  1  0  0  0
 47119  1  0  0  0
 47120  1  0  0  0
 48 56  1  0  0  0
 48 65  1  0  0  0
 48121  1  0  0  0
 49 50  1  0  0  0
 49 53  1  0  0  0
 49 64  1  0  0  0
 49122  1  0  0  0
 50 51  1  0  0  0
 50123  1  0  0  0
 50124  1  0  0  0
 51 52  1  0  0  0
 51125  1  0  0  0
 51126  1  0  0  0
 52127  1  0  0  0
 52128  1  0  0  0
 53 54  1  0  0  0
 54 55  2  0  0  0
 54129  1  0  0  0
 55 57  1  0  0  0
 55130  1  0  0  0
 56 69  2  0  0  0
 57 58  2  0  0  0
 57131  1  0  0  0
 58132  1  0  0  0
 59 60  1  0  0  0
 59 61  1  0  0  0
 59 62  1  0  0  0
 60133  1  0  0  0
 60134  1  0  0  0
 60135  1  0  0  0
 61136  1  0  0  0
 61137  1  0  0  0
 61138  1  0  0  0
 62139  1  0  0  0
 62140  1  0  0  0
 62141  1  0  0  0
 63 65  1  0  0  0
 63142  1  0  0  0
 63143  1  0  0  0
 63144  1  0  0  0
 64145  1  0  0  0
 65146  1  0  0  0
 68 83  1  0  0  0
 71 73  2  0  0  0
 71 74  1  0  0  0
 71147  1  0  0  0
 72 75  2  0  0  0
 72 76  1  0  0  0
 72148  1  0  0  0
 73 75  1  0  0  0
 73 77  1  0  0  0
 74 76  2  0  0  0
 74 80  1  0  0  0
 75 81  1  0  0  0
 76 87  1  0  0  0
 77149  1  0  0  0
 77150  1  0  0  0
 77151  1  0  0  0
 78 80  1  0  0  0
 78152  1  0  0  0
 78153  1  0  0  0
 78154  1  0  0  0
 79 82  1  0  0  0
 79155  1  0  0  0
 79156  1  0  0  0
 79157  1  0  0  0
 80158  1  0  0  0
 80159  1  0  0  0
 81 86  1  0  0  0
 81160  1  0  0  0
 81161  1  0  0  0
 82162  1  0  0  0
 82163  1  0  0  0
 82 85  1  0  0  0
 83 85  1  0  0  0
 83164  1  0  0  0
 83165  1  0  0  0
 84 85  1  0  0  0
 84 87  1  0  0  0
 84166  1  0  0  0
 84167  1  0  0  0
 85168  1  0  0  0
 86169  1  0  0  0
M  ISO  4   1 100  68 101  83 101  86 100
M  END
> <chiral flag>
0

> <version>
0

> <s_m_source_file>
/data/baiqing/PycharmProjects/Reinvent-master-3.2/result/LINK_invent/BTK/process_docking_weight1_custom_product_contain_oxygen_bond_distance_aromatic_linkinvent_7_9_3/rearranged_h_0131.sdf

> <i_m_source_file_index>
22

> <r_mmod_Potential_Energy-OPLS-2005>
69.9764022827148

> <r_mmod_Stretch_Energy-OPLS-2005>
63.299488067627

> <r_mmod_Bend_Energy-OPLS-2005>
188.991195678711

> <r_mmod_Torsional_Energy-OPLS-2005>
238.760848999023

> <r_mmod_Improper_Torsional_Energy-OPLS-2005>
8.72726631164551

> <r_mmod_Van_der_Waal_Energy-OPLS-2005>
152.564407348633

> <r_mmod_Electrostatic_Energy-OPLS-2005>
-415.551330566406

> <r_mmod_Solvation_Energy-OPLS-2005>
-201.159439086914

> <b_mmod_Minimization_Converged-OPLS-2005>
0

> <r_mmod_RMS_Derivative-OPLS-2005>
6.11704063415527

$$$$
22
                    3D
 Structure written by MMmdl.
152160  0  0  1  0            999 V2000
  -30.6310  -14.5373   20.7002 C   0  0  0  0  0  0
  -30.4633  -12.4141   19.3973 C   0  0  0  0  0  0
  -29.5095  -12.6013   18.1959 C   0  0  0  0  0  0
  -28.0275  -12.4413   18.5949 C   0  0  0  0  0  0
  -27.6709  -13.2127   19.8917 C   0  0  2  0  0  0
  -28.7127  -12.8882   20.9815 C   0  0  0  0  0  0
  -25.2614  -13.8136   20.5657 C   0  0  0  0  0  0
  -24.1892  -13.0432   20.9206 C   0  0  0  0  0  0
  -24.6466  -11.6899   20.8726 C   0  0  0  0  0  0
  -23.9139  -10.4273   21.0407 C   0  0  0  0  0  0
  -24.3663   -9.4166   21.9173 C   0  0  0  0  0  0
  -23.6309   -8.2231   22.0746 C   0  0  0  0  0  0
  -22.4268   -8.0300   21.3573 C   0  0  0  0  0  0
  -21.9942   -9.0279   20.4660 C   0  0  0  0  0  0
  -22.7316  -10.2119   20.3062 C   0  0  0  0  0  0
  -21.6827   -6.0752   22.5295 C   0  0  0  0  0  0
  -21.3994   -6.5647   23.8243 C   0  0  0  0  0  0
  -21.3666   -5.6789   24.9210 C   0  0  0  0  0  0
  -21.6053   -4.3060   24.7228 C   0  0  0  0  0  0
  -21.8807   -3.8157   23.4353 C   0  0  0  0  0  0
  -21.9173   -4.6975   22.3416 C   0  0  0  0  0  0
  -22.7886  -13.5192   21.1859 C   0  0  0  0  0  0
  -22.1645   -4.2177   21.0992 F   0  0  0  0  0  0
  -21.5640   -3.4529   25.7754 F   0  0  0  0  0  0
  -30.0337  -13.3202   20.4779 N   0  0  0  0  0  0
  -26.3092  -12.9348   20.3377 N   0  0  0  0  0  0
  -25.9383  -11.6497   20.5757 N   0  0  0  0  0  0
  -22.0503  -12.8238   22.0427 N   0  0  0  0  0  0
  -25.4282  -15.1875   20.4049 N   0  0  0  0  0  0
  -31.6790  -14.8500   20.1253 O   0  0  0  0  0  0
  -21.6622   -6.8898   21.4273 O   0  0  0  0  0  0
  -22.3578  -14.5489   20.6672 O   0  0  0  0  0  0
  -24.6223  -31.8583   23.2038 C   0  0  0  0  0  0
  -25.9086  -32.4746   23.8383 C   0  0  1  0  0  0
  -27.2277  -27.3443   20.1272 C   0  0  0  0  0  0
  -25.5908  -33.8551   24.2307 N   0  0  0  0  0  0
  -23.4202  -30.4853   21.5344 C   0  0  2  0  0  0
  -24.8739  -28.9439   20.1079 C   0  0  0  0  0  0
  -22.7486  -29.4632   22.4817 C   0  0  0  0  0  0
  -18.0278  -28.1429   22.8467 C   0  0  0  0  0  0
  -24.1473  -36.7237   23.2646 C   0  0  0  0  0  0
  -25.9599  -30.8013   21.3784 C   0  0  0  0  0  0
  -26.0371  -29.4302   20.7213 C   0  0  0  0  0  0
  -27.2201  -28.6377   20.7284 C   0  0  0  0  0  0
  -26.0527  -26.9132   19.4800 C   0  0  0  0  0  0
  -24.8815  -27.6886   19.4821 C   0  0  0  0  0  0
  -23.6447  -29.8203   20.1503 C   0  0  0  0  0  0
  -25.4095  -36.3045   24.0354 C   0  0  1  0  0  0
  -20.5911  -28.3731   23.1248 C   0  0  2  0  0  0
  -20.6806  -26.9455   22.5398 C   0  0  0  0  0  0
  -19.5780  -26.6432   21.5209 C   0  0  0  0  0  0
  -18.1936  -26.7967   22.1618 C   0  0  0  0  0  0
  -19.1544  -28.8884   23.2872 C   0  0  0  0  0  0
  -18.9463  -30.1481   23.8913 C   0  0  0  0  0  0
  -17.6454  -30.6614   24.0569 C   0  0  0  0  0  0
  -25.9044  -34.9412   23.5123 C   0  0  0  0  0  0
  -16.5349  -29.9121   23.6325 C   0  0  0  0  0  0
  -16.7274  -28.6552   23.0343 C   0  0  0  0  0  0
  -26.4522  -31.6532   25.0715 C   0  0  0  0  0  0
  -25.3811  -31.3601   26.1474 C   0  0  0  0  0  0
  -27.0363  -30.2959   24.6125 C   0  0  0  0  0  0
  -27.6103  -32.4253   25.7454 C   0  0  0  0  0  0
  -27.5555  -37.1764   24.8475 C   0  0  0  0  0  0
  -21.4188  -29.3079   22.3615 N   0  0  0  0  0  0
  -26.4244  -37.3758   23.9447 N   0  0  0  0  0  0
  -24.6841  -31.0673   22.0949 N   0  0  0  0  0  0
  -23.4205  -28.8165   23.2912 O   0  0  0  0  0  0
  -28.3173  -26.4739   20.1762 O   0  0  0  0  0  0
  -26.5584  -34.8882   22.4672 O   0  0  0  0  0  0
  -23.5390  -32.1337   23.7378 O   0  0  0  0  0  0
  -31.5266  -19.7048   20.4395 C   0  0  0  0  0  0
  -30.4921  -20.6402   20.2117 C   0  0  0  0  0  0
  -31.2446  -18.3908   20.8718 C   0  0  0  0  0  0
  -28.8804  -18.9314   20.8146 C   0  0  0  0  0  0
  -29.1408  -20.2855   20.3977 C   0  0  0  0  0  0
  -29.9173  -17.9755   21.0749 C   0  0  0  0  0  0
  -27.9945  -21.2617   20.2388 C   0  0  0  0  0  0
  -29.6505  -16.6969   21.8146 C   0  0  0  0  0  0
  -27.7650  -22.6187   20.1340 C   0  0  0  0  0  0
  -29.9480  -15.3611   21.7212 C   0  0  0  0  0  0
  -28.6139  -23.8686   20.1201 C   0  0  0  0  0  0
  -27.9999  -25.1623   20.7799 C   0  0  0  0  0  0
  -29.7281  -23.9215   19.5908 O   0  0  0  0  0  0
  -31.4854  -12.6212   19.0853 H   0  0  0  0  0  0
  -30.4613  -11.3793   19.7419 H   0  0  0  0  0  0
  -29.7593  -11.8980   17.4014 H   0  0  0  0  0  0
  -29.6695  -13.5955   17.7716 H   0  0  0  0  0  0
  -27.8194  -11.3784   18.7226 H   0  0  0  0  0  0
  -27.3926  -12.7886   17.7787 H   0  0  0  0  0  0
  -27.7415  -14.2825   19.6859 H   0  0  0  0  0  0
  -28.7308  -11.8113   21.1551 H   0  0  0  0  0  0
  -28.4114  -13.3078   21.9391 H   0  0  0  0  0  0
  -25.2792   -9.5606   22.4772 H   0  0  0  0  0  0
  -23.9997   -7.4581   22.7428 H   0  0  0  0  0  0
  -21.0882   -8.8830   19.8944 H   0  0  0  0  0  0
  -22.3797  -10.9687   19.6178 H   0  0  0  0  0  0
  -21.1977   -7.6149   23.9768 H   0  0  0  0  0  0
  -21.1503   -6.0509   25.9111 H   0  0  0  0  0  0
  -22.0575   -2.7626   23.2846 H   0  0  0  0  0  0
  -22.4093  -11.9923   22.4905 H   0  0  0  0  0  0
  -21.1112  -13.1291   22.2583 H   0  0  0  0  0  0
  -24.6549  -15.8366   20.5041 H   0  0  0  0  0  0
  -26.2841  -15.6330   20.0991 H   0  0  0  0  0  0
  -26.7133  -32.5457   23.1134 H   0  0  0  0  0  0
  -25.0145  -33.9682   25.0513 H   0  0  0  0  0  0
  -22.7135  -31.3036   21.3789 H   0  0  0  0  0  0
  -23.3744  -35.9557   23.3313 H   0  0  0  0  0  0
  -24.3593  -36.8826   22.2062 H   0  0  0  0  0  0
  -23.7198  -37.6436   23.6653 H   0  0  0  0  0  0
  -26.0998  -31.5726   20.6186 H   0  0  0  0  0  0
  -26.8398  -30.8428   22.0114 H   0  0  0  0  0  0
  -28.1056  -28.9957   21.2341 H   0  0  0  0  0  0
  -26.0295  -25.9546   18.9824 H   0  0  0  0  0  0
  -23.9918  -27.3093   19.0024 H   0  0  0  0  0  0
  -23.7776  -30.5904   19.3901 H   0  0  0  0  0  0
  -22.7752  -29.2420   19.8357 H   0  0  0  0  0  0
  -25.1259  -36.1878   25.0837 H   0  0  0  0  0  0
  -21.0008  -28.3340   24.1385 H   0  0  0  0  0  0
  -20.5716  -26.2352   23.3615 H   0  0  0  0  0  0
  -21.6658  -26.7505   22.1186 H   0  0  0  0  0  0
  -19.6958  -25.6350   21.1227 H   0  0  0  0  0  0
  -19.6718  -27.3257   20.6759 H   0  0  0  0  0  0
  -17.4219  -26.6696   21.4020 H   0  0  0  0  0  0
  -18.0351  -26.0118   22.9034 H   0  0  0  0  0  0
  -19.7953  -30.7281   24.2326 H   0  0  0  0  0  0
  -17.5035  -31.6302   24.5178 H   0  0  0  0  0  0
  -15.5377  -30.3040   23.7673 H   0  0  0  0  0  0
  -15.8676  -28.0889   22.7065 H   0  0  0  0  0  0
  -24.6082  -30.6804   25.7862 H   0  0  0  0  0  0
  -24.8906  -32.2717   26.4895 H   0  0  0  0  0  0
  -25.8264  -30.8862   27.0237 H   0  0  0  0  0  0
  -26.2901  -29.6685   24.1233 H   0  0  0  0  0  0
  -27.4176  -29.7216   25.4588 H   0  0  0  0  0  0
  -27.8729  -30.4266   23.9258 H   0  0  0  0  0  0
  -27.2766  -33.3614   26.1953 H   0  0  0  0  0  0
  -28.3966  -32.6692   25.0288 H   0  0  0  0  0  0
  -28.0703  -31.8391   26.5432 H   0  0  0  0  0  0
  -28.2554  -38.0079   24.7550 H   0  0  0  0  0  0
  -28.1058  -36.2617   24.6247 H   0  0  0  0  0  0
  -27.2287  -37.1318   25.8876 H   0  0  0  0  0  0
  -20.9373  -29.8751   21.6762 H   0  0  0  0  0  0
  -26.0109  -38.2791   24.1548 H   0  0  0  0  0  0
  -32.5577  -20.0131   20.3292 H   0  0  0  0  0  0
  -30.7468  -21.6373   19.8953 H   0  0  0  0  0  0
  -32.0596  -17.7289   21.1260 H   0  0  0  0  0  0
  -27.8561  -18.6342   20.9984 H   0  0  0  0  0  0
  -27.0580  -20.7219   20.1945 H   0  0  0  0  0  0
  -29.1262  -16.9095   22.7356 H   0  0  0  0  0  0
  -26.7152  -22.8607   20.0430 H   0  0  0  0  0  0
  -29.6245  -14.8144   22.5939 H   0  0  0  0  0  0
  -28.3152  -25.1826   21.8258 H   0  0  0  0  0  0
  -26.9237  -25.0120   20.8243 H   0  0  0  0  0  0
  1 25  1  0  0  0
  1 30  2  0  0  0
  1 80  1  0  0  0
  2  3  1  0  0  0
  2 25  1  0  0  0
  2 84  1  0  0  0
  2 85  1  0  0  0
  3  4  1  0  0  0
  3 86  1  0  0  0
  3 87  1  0  0  0
  4  5  1  0  0  0
  4 88  1  0  0  0
  4 89  1  0  0  0
  5  6  1  0  0  0
  5 26  1  0  0  0
  5 90  1  0  0  0
  6 25  1  0  0  0
  6 91  1  0  0  0
  6 92  1  0  0  0
  7  8  2  0  0  0
  7 26  1  0  0  0
  7 29  1  0  0  0
  8  9  1  0  0  0
  8 22  1  0  0  0
  9 10  1  0  0  0
  9 27  2  0  0  0
 10 11  2  0  0  0
 10 15  1  0  0  0
 11 12  1  0  0  0
 11 93  1  0  0  0
 12 13  2  0  0  0
 12 94  1  0  0  0
 13 14  1  0  0  0
 13 31  1  0  0  0
 14 15  2  0  0  0
 14 95  1  0  0  0
 15 96  1  0  0  0
 16 17  2  0  0  0
 16 21  1  0  0  0
 16 31  1  0  0  0
 17 18  1  0  0  0
 17 97  1  0  0  0
 18 19  2  0  0  0
 18 98  1  0  0  0
 19 20  1  0  0  0
 19 24  1  0  0  0
 20 21  2  0  0  0
 20 99  1  0  0  0
 21 23  1  0  0  0
 22 28  1  0  0  0
 22 32  2  0  0  0
 26 27  1  0  0  0
 28100  1  0  0  0
 28101  1  0  0  0
 29102  1  0  0  0
 29103  1  0  0  0
 33 34  1  0  0  0
 33 66  1  0  0  0
 33 70  2  0  0  0
 34 36  1  0  0  0
 34 59  1  0  0  0
 34104  1  0  0  0
 35 44  2  0  0  0
 35 45  1  0  0  0
 35 68  1  0  0  0
 36 56  1  0  0  0
 36105  1  0  0  0
 37 39  1  0  0  0
 37 47  1  0  0  0
 37 66  1  0  0  0
 37106  1  0  0  0
 38 43  2  0  0  0
 38 46  1  0  0  0
 38 47  1  0  0  0
 39 64  1  0  0  0
 39 67  2  0  0  0
 40 52  1  0  0  0
 40 53  2  0  0  0
 40 58  1  0  0  0
 41107  1  0  0  0
 41108  1  0  0  0
 41109  1  0  0  0
 41 48  1  0  0  0
 42 43  1  0  0  0
 42 66  1  0  0  0
 42110  1  0  0  0
 42111  1  0  0  0
 43 44  1  0  0  0
 44112  1  0  0  0
 45 46  2  0  0  0
 45113  1  0  0  0
 46114  1  0  0  0
 47115  1  0  0  0
 47116  1  0  0  0
 48 56  1  0  0  0
 48 65  1  0  0  0
 48117  1  0  0  0
 49 50  1  0  0  0
 49 53  1  0  0  0
 49 64  1  0  0  0
 49118  1  0  0  0
 50 51  1  0  0  0
 50119  1  0  0  0
 50120  1  0  0  0
 51 52  1  0  0  0
 51121  1  0  0  0
 51122  1  0  0  0
 52123  1  0  0  0
 52124  1  0  0  0
 53 54  1  0  0  0
 54 55  2  0  0  0
 54125  1  0  0  0
 55 57  1  0  0  0
 55126  1  0  0  0
 56 69  2  0  0  0
 57 58  2  0  0  0
 57127  1  0  0  0
 58128  1  0  0  0
 59 60  1  0  0  0
 59 61  1  0  0  0
 59 62  1  0  0  0
 60129  1  0  0  0
 60130  1  0  0  0
 60131  1  0  0  0
 61132  1  0  0  0
 61133  1  0  0  0
 61134  1  0  0  0
 62135  1  0  0  0
 62136  1  0  0  0
 62137  1  0  0  0
 63 65  1  0  0  0
 63138  1  0  0  0
 63139  1  0  0  0
 63140  1  0  0  0
 64141  1  0  0  0
 65142  1  0  0  0
 68 82  1  0  0  0
 71 72  2  0  0  0
 71 73  1  0  0  0
 71143  1  0  0  0
 72 75  1  0  0  0
 72144  1  0  0  0
 73 76  2  0  0  0
 73145  1  0  0  0
 74 75  2  0  0  0
 74 76  1  0  0  0
 74146  1  0  0  0
 75 77  1  0  0  0
 76 78  1  0  0  0
 77 79  2  0  0  0
 77147  1  0  0  0
 78 80  2  0  0  0
 78148  1  0  0  0
 79 81  1  0  0  0
 79149  1  0  0  0
 80150  1  0  0  0
 81 82  1  0  0  0
 81 83  2  0  0  0
 82151  1  0  0  0
 82152  1  0  0  0
M  ISO  4   1 100  68 101  80 100  82 101
M  END
> <chiral flag>
0

> <version>
0

> <s_m_source_file>
/data/baiqing/PycharmProjects/Reinvent-master-3.2/result/LINK_invent/BTK/process_docking_weight1_custom_product_contain_oxygen_bond_distance_aromatic_linkinvent_7_9_3/rearranged_h_0131.sdf

> <i_m_source_file_index>
23

> <r_mmod_Potential_Energy-OPLS-2005>
172.644515991211

> <r_mmod_Stretch_Energy-OPLS-2005>
70.3236770629883

> <r_mmod_Bend_Energy-OPLS-2005>
205.721130371094

> <r_mmod_Torsional_Energy-OPLS-2005>
236.550323486328

> <r_mmod_Improper_Torsional_Energy-OPLS-2005>
5.13242721557617

> <r_mmod_Van_der_Waal_Energy-OPLS-2005>
144.397155761719

> <r_mmod_Electrostatic_Energy-OPLS-2005>
-308.760711669922

> <r_mmod_Solvation_Energy-OPLS-2005>
-219.375091552734

> <b_mmod_Minimization_Converged-OPLS-2005>
0

> <r_mmod_RMS_Derivative-OPLS-2005>
6.44451522827148

$$$$
23
                    3D
 Structure written by MMmdl.
159167  0  0  1  0            999 V2000
  -30.6291  -14.6299   20.5445 C   0  0  0  0  0  0
  -30.4572  -12.3953   19.4481 C   0  0  0  0  0  0
  -29.5165  -12.5026   18.2268 C   0  0  0  0  0  0
  -28.0384  -12.3431   18.6372 C   0  0  0  0  0  0
  -27.6652  -13.2045   19.8719 C   0  0  2  0  0  0
  -28.7105  -13.0120   20.9904 C   0  0  0  0  0  0
  -25.2641  -13.8134   20.5682 C   0  0  0  0  0  0
  -24.1888  -13.0456   20.9150 C   0  0  0  0  0  0
  -24.6412  -11.6894   20.8708 C   0  0  0  0  0  0
  -23.9076  -10.4299   21.0397 C   0  0  0  0  0  0
  -24.3630   -9.4217   21.9177 C   0  0  0  0  0  0
  -23.6307   -8.2258   22.0760 C   0  0  0  0  0  0
  -22.4283   -8.0294   21.3557 C   0  0  0  0  0  0
  -21.9906   -9.0277   20.4668 C   0  0  0  0  0  0
  -22.7243  -10.2146   20.3065 C   0  0  0  0  0  0
  -21.6859   -6.0737   22.5284 C   0  0  0  0  0  0
  -21.4013   -6.5644   23.8214 C   0  0  0  0  0  0
  -21.3649   -5.6799   24.9177 C   0  0  0  0  0  0
  -21.6044   -4.3064   24.7225 C   0  0  0  0  0  0
  -21.8830   -3.8150   23.4350 C   0  0  0  0  0  0
  -21.9199   -4.6964   22.3404 C   0  0  0  0  0  0
  -22.7913  -13.5268   21.1838 C   0  0  0  0  0  0
  -22.1676   -4.2152   21.0982 F   0  0  0  0  0  0
  -21.5618   -3.4545   25.7732 F   0  0  0  0  0  0
  -30.0275  -13.3977   20.4451 N   0  0  0  0  0  0
  -26.3065  -12.9295   20.3336 N   0  0  0  0  0  0
  -25.9332  -11.6454   20.5707 N   0  0  0  0  0  0
  -22.0557  -12.8274   22.0380 N   0  0  0  0  0  0
  -25.4414  -15.1868   20.4146 N   0  0  0  0  0  0
  -31.7379  -14.8302   20.0350 O   0  0  0  0  0  0
  -21.6657   -6.8884   21.4249 O   0  0  0  0  0  0
  -22.3607  -14.5604   20.6705 O   0  0  0  0  0  0
  -24.6258  -31.8593   23.2021 C   0  0  0  0  0  0
  -25.9116  -32.4772   23.8338 C   0  0  1  0  0  0
  -27.2358  -27.3282   20.1362 C   0  0  0  0  0  0
  -25.5933  -33.8572   24.2256 N   0  0  0  0  0  0
  -23.4197  -30.4783   21.5446 C   0  0  2  0  0  0
  -24.8724  -28.9317   20.1152 C   0  0  0  0  0  0
  -22.7479  -29.4602   22.4963 C   0  0  0  0  0  0
  -18.0287  -28.1390   22.8483 C   0  0  0  0  0  0
  -24.1498  -36.7279   23.2640 C   0  0  0  0  0  0
  -25.9598  -30.7944   21.3742 C   0  0  0  0  0  0
  -26.0393  -29.4229   20.7157 C   0  0  0  0  0  0
  -27.2275  -28.6346   20.7111 C   0  0  0  0  0  0
  -26.0488  -26.8824   19.5177 C   0  0  0  0  0  0
  -24.8773  -27.6640   19.5105 C   0  0  0  0  0  0
  -23.6360  -29.8058   20.1629 C   0  0  0  0  0  0
  -25.4132  -36.3075   24.0321 C   0  0  1  0  0  0
  -20.5880  -28.3678   23.1303 C   0  0  2  0  0  0
  -20.6777  -26.9405   22.5425 C   0  0  0  0  0  0
  -19.5765  -26.6382   21.5216 C   0  0  0  0  0  0
  -18.1937  -26.7937   22.1614 C   0  0  0  0  0  0
  -19.1536  -28.8859   23.2879 C   0  0  0  0  0  0
  -18.9460  -30.1464   23.8892 C   0  0  0  0  0  0
  -17.6459  -30.6592   24.0566 C   0  0  0  0  0  0
  -25.9067  -34.9447   23.5088 C   0  0  0  0  0  0
  -16.5350  -29.9085   23.6339 C   0  0  0  0  0  0
  -16.7273  -28.6504   23.0355 C   0  0  0  0  0  0
  -26.4518  -31.6591   25.0709 C   0  0  0  0  0  0
  -25.3748  -31.3751   26.1432 C   0  0  0  0  0  0
  -27.0339  -30.2994   24.6188 C   0  0  0  0  0  0
  -27.6089  -32.4333   25.7461 C   0  0  0  0  0  0
  -27.5588  -37.1792   24.8466 C   0  0  0  0  0  0
  -21.4195  -29.3016   22.3701 N   0  0  0  0  0  0
  -26.4312  -37.3768   23.9394 N   0  0  0  0  0  0
  -24.6860  -31.0607   22.0968 N   0  0  0  0  0  0
  -23.4206  -28.8154   23.3049 O   0  0  0  0  0  0
  -28.3536  -26.4837   20.1442 O   0  0  0  0  0  0
  -26.5638  -34.8918   22.4656 O   0  0  0  0  0  0
  -23.5429  -32.1393   23.7358 O   0  0  0  0  0  0
  -30.2981  -19.4594   20.2880 C   0  0  0  0  0  0
  -29.9497  -20.8511   20.1819 C   0  0  0  0  0  0
  -28.0202  -18.9384   20.8311 C   0  0  0  0  0  0
  -29.3414  -18.4667   20.6523 C   0  0  0  0  0  0
  -27.6587  -20.3043   20.6984 C   0  0  0  0  0  0
  -28.6192  -21.3102   20.4096 C   0  0  0  0  0  0
  -29.5746  -17.0097   21.0243 C   0  0  0  0  0  0
  -29.8613  -15.6797   21.2730 C   0  0  0  0  0  0
  -25.8845  -21.1340   22.3253 C   0  0  0  0  0  0
  -28.6513  -25.2367   22.1974 C   0  0  0  0  0  0
  -26.1977  -20.6868   20.8941 C   0  0  0  0  0  0
  -28.8544  -23.8573   20.0498 C   0  0  0  0  0  0
  -28.1863  -25.1355   20.7371 C   0  0  2  0  0  0
  -28.1438  -22.6384   20.4274 O   0  0  0  0  0  0
  -31.4922  -12.5380   19.1318 H   0  0  0  0  0  0
  -30.4197  -11.3928   19.8792 H   0  0  0  0  0  0
  -29.7758  -11.7413   17.4918 H   0  0  0  0  0  0
  -29.6664  -13.4632   17.7329 H   0  0  0  0  0  0
  -27.8809  -11.2894   18.8690 H   0  0  0  0  0  0
  -27.3842  -12.5694   17.7951 H   0  0  0  0  0  0
  -27.7013  -14.2472   19.5591 H   0  0  0  0  0  0
  -28.7320  -11.9659   21.3007 H   0  0  0  0  0  0
  -28.4307  -13.5546   21.8898 H   0  0  0  0  0  0
  -25.2769   -9.5706   22.4753 H   0  0  0  0  0  0
  -24.0018   -7.4658   22.7489 H   0  0  0  0  0  0
  -21.0826   -8.8829   19.8980 H   0  0  0  0  0  0
  -22.3722  -10.9706   19.6190 H   0  0  0  0  0  0
  -21.2015   -7.6152   23.9721 H   0  0  0  0  0  0
  -21.1449   -6.0522   25.9079 H   0  0  0  0  0  0
  -22.0612   -2.7611   23.2855 H   0  0  0  0  0  0
  -22.4164  -11.9922   22.4766 H   0  0  0  0  0  0
  -21.1204  -13.1353   22.2631 H   0  0  0  0  0  0
  -24.6879  -15.8518   20.5493 H   0  0  0  0  0  0
  -26.3073  -15.6187   20.1192 H   0  0  0  0  0  0
  -26.7174  -32.5449   23.1079 H   0  0  0  0  0  0
  -25.0068  -33.9710   25.0390 H   0  0  0  0  0  0
  -22.7123  -31.2974   21.3985 H   0  0  0  0  0  0
  -23.3769  -35.9602   23.3316 H   0  0  0  0  0  0
  -24.3573  -36.8896   22.2049 H   0  0  0  0  0  0
  -23.7251  -37.6480   23.6666 H   0  0  0  0  0  0
  -26.0995  -31.5631   20.6130 H   0  0  0  0  0  0
  -26.8361  -30.8354   22.0096 H   0  0  0  0  0  0
  -28.1271  -29.0115   21.1778 H   0  0  0  0  0  0
  -26.0214  -25.9088   19.0493 H   0  0  0  0  0  0
  -23.9804  -27.2742   19.0496 H   0  0  0  0  0  0
  -23.7512  -30.5782   19.4031 H   0  0  0  0  0  0
  -22.7587  -29.2293   19.8641 H   0  0  0  0  0  0
  -25.1322  -36.1920   25.0818 H   0  0  0  0  0  0
  -20.9958  -28.3245   24.1429 H   0  0  0  0  0  0
  -20.5677  -26.2279   23.3613 H   0  0  0  0  0  0
  -21.6649  -26.7444   22.1223 H   0  0  0  0  0  0
  -19.6925  -25.6286   21.1258 H   0  0  0  0  0  0
  -19.6721  -27.3183   20.6739 H   0  0  0  0  0  0
  -17.4214  -26.6693   21.4007 H   0  0  0  0  0  0
  -18.0328  -26.0077   22.9007 H   0  0  0  0  0  0
  -19.7936  -30.7284   24.2253 H   0  0  0  0  0  0
  -17.5012  -31.6276   24.5165 H   0  0  0  0  0  0
  -15.5348  -30.2983   23.7678 H   0  0  0  0  0  0
  -15.8673  -28.0823   22.7074 H   0  0  0  0  0  0
  -24.5891  -30.7154   25.7736 H   0  0  0  0  0  0
  -24.8987  -32.2932   26.4881 H   0  0  0  0  0  0
  -25.8050  -30.8879   27.0188 H   0  0  0  0  0  0
  -26.2893  -29.6745   24.1245 H   0  0  0  0  0  0
  -27.4030  -29.7270   25.4707 H   0  0  0  0  0  0
  -27.8781  -30.4235   23.9404 H   0  0  0  0  0  0
  -27.2698  -33.3605   26.2092 H   0  0  0  0  0  0
  -28.3861  -32.6956   25.0268 H   0  0  0  0  0  0
  -28.0821  -31.8444   26.5328 H   0  0  0  0  0  0
  -28.2644  -38.0054   24.7487 H   0  0  0  0  0  0
  -28.1049  -36.2588   24.6340 H   0  0  0  0  0  0
  -27.2293  -37.1501   25.8867 H   0  0  0  0  0  0
  -20.9393  -29.8691   21.6862 H   0  0  0  0  0  0
  -26.0197  -38.2846   24.1391 H   0  0  0  0  0  0
  -31.3276  -19.1672   20.1356 H   0  0  0  0  0  0
  -30.7269  -21.5673   19.9565 H   0  0  0  0  0  0
  -27.2531  -18.2273   21.1060 H   0  0  0  0  0  0
  -30.1335  -16.9419   20.1005 H   0  0  0  0  0  0
  -29.4311  -15.3485   22.2045 H   0  0  0  0  0  0
  -24.8731  -21.5368   22.3802 H   0  0  0  0  0  0
  -26.5702  -21.9128   22.6605 H   0  0  0  0  0  0
  -25.9525  -20.2988   23.0222 H   0  0  0  0  0  0
  -28.5129  -24.2857   22.7143 H   0  0  0  0  0  0
  -28.0908  -25.9963   22.7438 H   0  0  0  0  0  0
  -29.7101  -25.4899   22.2591 H   0  0  0  0  0  0
  -25.5631  -19.8386   20.6312 H   0  0  0  0  0  0
  -25.9329  -21.4783   20.1927 H   0  0  0  0  0  0
  -29.9176  -23.7974   20.2795 H   0  0  0  0  0  0
  -28.7707  -23.9549   18.9676 H   0  0  0  0  0  0
  -27.1221  -24.9065   20.7840 H   0  0  0  0  0  0
  1 25  1  0  0  0
  1 30  2  0  0  0
  1 78  1  0  0  0
  2  3  1  0  0  0
  2 25  1  0  0  0
  2 85  1  0  0  0
  2 86  1  0  0  0
  3  4  1  0  0  0
  3 87  1  0  0  0
  3 88  1  0  0  0
  4  5  1  0  0  0
  4 89  1  0  0  0
  4 90  1  0  0  0
  5  6  1  0  0  0
  5 26  1  0  0  0
  5 91  1  0  0  0
  6 25  1  0  0  0
  6 92  1  0  0  0
  6 93  1  0  0  0
  7  8  2  0  0  0
  7 26  1  0  0  0
  7 29  1  0  0  0
  8  9  1  0  0  0
  8 22  1  0  0  0
  9 10  1  0  0  0
  9 27  2  0  0  0
 10 11  2  0  0  0
 10 15  1  0  0  0
 11 12  1  0  0  0
 11 94  1  0  0  0
 12 13  2  0  0  0
 12 95  1  0  0  0
 13 14  1  0  0  0
 13 31  1  0  0  0
 14 15  2  0  0  0
 14 96  1  0  0  0
 15 97  1  0  0  0
 16 17  2  0  0  0
 16 21  1  0  0  0
 16 31  1  0  0  0
 17 18  1  0  0  0
 17 98  1  0  0  0
 18 19  2  0  0  0
 18 99  1  0  0  0
 19 20  1  0  0  0
 19 24  1  0  0  0
 20 21  2  0  0  0
 20100  1  0  0  0
 21 23  1  0  0  0
 22 28  1  0  0  0
 22 32  2  0  0  0
 26 27  1  0  0  0
 28101  1  0  0  0
 28102  1  0  0  0
 29103  1  0  0  0
 29104  1  0  0  0
 33 34  1  0  0  0
 33 66  1  0  0  0
 33 70  2  0  0  0
 34 36  1  0  0  0
 34 59  1  0  0  0
 34105  1  0  0  0
 35 44  2  0  0  0
 35 45  1  0  0  0
 35 68  1  0  0  0
 36 56  1  0  0  0
 36106  1  0  0  0
 37 39  1  0  0  0
 37 47  1  0  0  0
 37 66  1  0  0  0
 37107  1  0  0  0
 38 43  2  0  0  0
 38 46  1  0  0  0
 38 47  1  0  0  0
 39 64  1  0  0  0
 39 67  2  0  0  0
 40 52  1  0  0  0
 40 53  2  0  0  0
 40 58  1  0  0  0
 41108  1  0  0  0
 41109  1  0  0  0
 41110  1  0  0  0
 41 48  1  0  0  0
 42 43  1  0  0  0
 42 66  1  0  0  0
 42111  1  0  0  0
 42112  1  0  0  0
 43 44  1  0  0  0
 44113  1  0  0  0
 45 46  2  0  0  0
 45114  1  0  0  0
 46115  1  0  0  0
 47116  1  0  0  0
 47117  1  0  0  0
 48 56  1  0  0  0
 48 65  1  0  0  0
 48118  1  0  0  0
 49 50  1  0  0  0
 49 53  1  0  0  0
 49 64  1  0  0  0
 49119  1  0  0  0
 50 51  1  0  0  0
 50120  1  0  0  0
 50121  1  0  0  0
 51 52  1  0  0  0
 51122  1  0  0  0
 51123  1  0  0  0
 52124  1  0  0  0
 52125  1  0  0  0
 53 54  1  0  0  0
 54 55  2  0  0  0
 54126  1  0  0  0
 55 57  1  0  0  0
 55127  1  0  0  0
 56 69  2  0  0  0
 57 58  2  0  0  0
 57128  1  0  0  0
 58129  1  0  0  0
 59 60  1  0  0  0
 59 61  1  0  0  0
 59 62  1  0  0  0
 60130  1  0  0  0
 60131  1  0  0  0
 60132  1  0  0  0
 61133  1  0  0  0
 61134  1  0  0  0
 61135  1  0  0  0
 62136  1  0  0  0
 62137  1  0  0  0
 62138  1  0  0  0
 63 65  1  0  0  0
 63139  1  0  0  0
 63140  1  0  0  0
 63141  1  0  0  0
 64142  1  0  0  0
 65143  1  0  0  0
 68 83  1  0  0  0
 71 72  2  0  0  0
 71 74  1  0  0  0
 71144  1  0  0  0
 72 76  1  0  0  0
 72145  1  0  0  0
 73 74  2  0  0  0
 73 75  1  0  0  0
 73146  1  0  0  0
 74 77  1  0  0  0
 75 76  2  0  0  0
 75 81  1  0  0  0
 76 84  1  0  0  0
 77 78  2  0  0  0
 77147  1  0  0  0
 78148  1  0  0  0
 79 81  1  0  0  0
 79149  1  0  0  0
 79150  1  0  0  0
 79151  1  0  0  0
 80152  1  0  0  0
 80153  1  0  0  0
 80154  1  0  0  0
 80 83  1  0  0  0
 81155  1  0  0  0
 81156  1  0  0  0
 82 83  1  0  0  0
 82 84  1  0  0  0
 82157  1  0  0  0
 82158  1  0  0  0
 83159  1  0  0  0
M  ISO  4   1 100  68 101  78 100  83 101
M  END
> <chiral flag>
0

> <version>
0

> <s_m_source_file>
/data/baiqing/PycharmProjects/Reinvent-master-3.2/result/LINK_invent/BTK/process_docking_weight1_custom_product_contain_oxygen_bond_distance_aromatic_linkinvent_7_9_3/rearranged_h_0131.sdf

> <i_m_source_file_index>
24

> <r_mmod_Potential_Energy-OPLS-2005>
409.323211669922

> <r_mmod_Stretch_Energy-OPLS-2005>
78.4543685913086

> <r_mmod_Bend_Energy-OPLS-2005>
472.444610595703

> <r_mmod_Torsional_Energy-OPLS-2005>
211.966842651367

> <r_mmod_Improper_Torsional_Energy-OPLS-2005>
2.59761500358582

> <r_mmod_Van_der_Waal_Energy-OPLS-2005>
142.99040222168

> <r_mmod_Electrostatic_Energy-OPLS-2005>
-353.880462646484

> <r_mmod_Solvation_Energy-OPLS-2005>
-188.807312011719

> <b_mmod_Minimization_Converged-OPLS-2005>
0

> <r_mmod_RMS_Derivative-OPLS-2005>
5.5258584022522

$$$$
24
                    3D
 Structure written by MMmdl.
158166  0  0  1  0            999 V2000
  -30.7266  -14.4593   20.5346 C   0  0  0  0  0  0
  -30.4085  -12.2800   19.4520 C   0  0  0  0  0  0
  -29.5021  -12.4781   18.2211 C   0  0  0  0  0  0
  -28.0188  -12.3528   18.6221 C   0  0  0  0  0  0
  -27.6570  -13.2095   19.8648 C   0  0  2  0  0  0
  -28.6916  -13.0297   20.9983 C   0  0  0  0  0  0
  -25.2582  -13.8177   20.5669 C   0  0  0  0  0  0
  -24.1823  -13.0446   20.9143 C   0  0  0  0  0  0
  -24.6374  -11.6918   20.8708 C   0  0  0  0  0  0
  -23.9037  -10.4298   21.0397 C   0  0  0  0  0  0
  -24.3597   -9.4221   21.9182 C   0  0  0  0  0  0
  -23.6273   -8.2256   22.0759 C   0  0  0  0  0  0
  -22.4258   -8.0280   21.3549 C   0  0  0  0  0  0
  -21.9893   -9.0251   20.4655 C   0  0  0  0  0  0
  -22.7212  -10.2131   20.3055 C   0  0  0  0  0  0
  -21.6859   -6.0733   22.5286 C   0  0  0  0  0  0
  -21.4010   -6.5636   23.8219 C   0  0  0  0  0  0
  -21.3664   -5.6785   24.9179 C   0  0  0  0  0  0
  -21.6040   -4.3045   24.7234 C   0  0  0  0  0  0
  -21.8816   -3.8142   23.4355 C   0  0  0  0  0  0
  -21.9186   -4.6956   22.3408 C   0  0  0  0  0  0
  -22.7854  -13.5258   21.1825 C   0  0  0  0  0  0
  -22.1658   -4.2142   21.0985 F   0  0  0  0  0  0
  -21.5633   -3.4538   25.7752 F   0  0  0  0  0  0
  -30.0299  -13.2940   20.4502 N   0  0  0  0  0  0
  -26.2993  -12.9342   20.3293 N   0  0  0  0  0  0
  -25.9293  -11.6499   20.5710 N   0  0  0  0  0  0
  -22.0481  -12.8264   22.0393 N   0  0  0  0  0  0
  -25.4332  -15.1897   20.4150 N   0  0  0  0  0  0
  -31.8605  -14.5767   20.0630 O   0  0  0  0  0  0
  -21.6637   -6.8873   21.4246 O   0  0  0  0  0  0
  -22.3543  -14.5562   20.6668 O   0  0  0  0  0  0
  -24.6142  -31.8705   23.2119 C   0  0  0  0  0  0
  -25.9040  -32.4833   23.8413 C   0  0  1  0  0  0
  -27.2298  -27.4501   20.0978 C   0  0  0  0  0  0
  -25.5891  -33.8636   24.2346 N   0  0  0  0  0  0
  -23.4004  -30.4935   21.5536 C   0  0  2  0  0  0
  -24.8473  -28.9635   20.1144 C   0  0  0  0  0  0
  -22.7409  -29.4670   22.5020 C   0  0  0  0  0  0
  -18.0269  -28.1381   22.8507 C   0  0  0  0  0  0
  -24.1446  -36.7353   23.2632 C   0  0  0  0  0  0
  -25.9285  -30.8389   21.3664 C   0  0  0  0  0  0
  -26.0069  -29.4768   20.7101 C   0  0  0  0  0  0
  -27.2044  -28.7280   20.6981 C   0  0  0  0  0  0
  -26.0590  -26.9489   19.4917 C   0  0  0  0  0  0
  -24.8672  -27.6975   19.5025 C   0  0  0  0  0  0
  -23.6071  -29.8267   20.1667 C   0  0  0  0  0  0
  -25.4068  -36.3138   24.0336 C   0  0  1  0  0  0
  -20.5862  -28.3656   23.1338 C   0  0  2  0  0  0
  -20.6759  -26.9392   22.5418 C   0  0  0  0  0  0
  -19.5724  -26.6389   21.5218 C   0  0  0  0  0  0
  -18.1906  -26.7929   22.1637 C   0  0  0  0  0  0
  -19.1518  -28.8837   23.2910 C   0  0  0  0  0  0
  -18.9455  -30.1448   23.8909 C   0  0  0  0  0  0
  -17.6456  -30.6586   24.0573 C   0  0  0  0  0  0
  -25.9000  -34.9495   23.5139 C   0  0  0  0  0  0
  -16.5344  -29.9088   23.6333 C   0  0  0  0  0  0
  -16.7259  -28.6505   23.0358 C   0  0  0  0  0  0
  -26.4483  -31.6606   25.0722 C   0  0  0  0  0  0
  -25.3720  -31.3624   26.1427 C   0  0  0  0  0  0
  -27.0423  -30.3090   24.6111 C   0  0  0  0  0  0
  -27.6010  -32.4377   25.7508 C   0  0  0  0  0  0
  -27.5563  -37.1810   24.8449 C   0  0  0  0  0  0
  -21.4142  -29.3019   22.3744 N   0  0  0  0  0  0
  -26.4263  -37.3829   23.9422 N   0  0  0  0  0  0
  -24.6658  -31.0812   22.1026 N   0  0  0  0  0  0
  -23.4184  -28.8233   23.3069 O   0  0  0  0  0  0
  -28.3737  -26.6896   20.1051 O   0  0  0  0  0  0
  -26.5557  -34.8959   22.4696 O   0  0  0  0  0  0
  -23.5340  -32.1489   23.7504 O   0  0  0  0  0  0
  -29.0828  -18.9418   19.5807 C   0  0  0  0  0  0
  -28.6954  -20.2689   19.8586 C   0  0  0  0  0  0
  -29.4906  -18.5630   21.9425 C   0  0  0  0  0  0
  -29.5036  -18.0822   20.6159 C   0  0  0  0  0  0
  -28.7227  -20.7732   21.1772 C   0  0  0  0  0  0
  -29.1277  -19.9016   22.2269 C   0  0  0  0  0  0
  -29.9810  -16.7293   20.2774 C   0  0  0  0  0  0
  -30.0269  -15.6266   21.0617 C   0  0  0  0  0  0
  -28.3196  -22.1883   21.4081 C   0  0  0  0  0  0
  -29.2024  -20.3788   23.6694 C   0  0  0  0  0  0
  -29.4245  -23.2438   21.4589 C   0  0  0  0  0  0
  -29.2667  -24.4304   20.4696 C   0  0  0  0  0  0
  -28.2767  -25.5198   20.9269 C   0  0  0  0  0  0
  -27.1080  -22.5134   21.5611 N   0  0  0  0  0  0
  -31.4591  -12.3372   19.1641 H   0  0  0  0  0  0
  -30.2751  -11.2806   19.8720 H   0  0  0  0  0  0
  -29.7439  -11.7392   17.4550 H   0  0  0  0  0  0
  -29.6906  -13.4556   17.7753 H   0  0  0  0  0  0
  -27.8243  -11.3003   18.8294 H   0  0  0  0  0  0
  -27.3753  -12.6168   17.7830 H   0  0  0  0  0  0
  -27.6928  -14.2502   19.5418 H   0  0  0  0  0  0
  -28.6558  -12.0143   21.3949 H   0  0  0  0  0  0
  -28.4515  -13.6814   21.8392 H   0  0  0  0  0  0
  -25.2752   -9.5702   22.4747 H   0  0  0  0  0  0
  -23.9993   -7.4655   22.7482 H   0  0  0  0  0  0
  -21.0831   -8.8754   19.8971 H   0  0  0  0  0  0
  -22.3667  -10.9657   19.6157 H   0  0  0  0  0  0
  -21.2003   -7.6145   23.9723 H   0  0  0  0  0  0
  -21.1491   -6.0518   25.9082 H   0  0  0  0  0  0
  -22.0589   -2.7609   23.2856 H   0  0  0  0  0  0
  -22.4068  -11.9925   22.4794 H   0  0  0  0  0  0
  -21.1109  -13.1328   22.2599 H   0  0  0  0  0  0
  -24.6758  -15.8515   20.5442 H   0  0  0  0  0  0
  -26.3027  -15.6320   20.1438 H   0  0  0  0  0  0
  -26.7099  -32.5588   23.1167 H   0  0  0  0  0  0
  -25.0046  -33.9786   25.0499 H   0  0  0  0  0  0
  -22.6879  -31.3097   21.4169 H   0  0  0  0  0  0
  -23.3704  -35.9688   23.3304 H   0  0  0  0  0  0
  -24.3517  -36.8981   22.2040 H   0  0  0  0  0  0
  -23.7197  -37.6555   23.6664 H   0  0  0  0  0  0
  -26.0461  -31.6096   20.6040 H   0  0  0  0  0  0
  -26.8124  -30.8846   21.9913 H   0  0  0  0  0  0
  -28.1008  -29.1170   21.1615 H   0  0  0  0  0  0
  -26.0665  -25.9757   19.0215 H   0  0  0  0  0  0
  -23.9754  -27.2948   19.0409 H   0  0  0  0  0  0
  -23.7124  -30.6034   19.4082 H   0  0  0  0  0  0
  -22.7319  -29.2431   19.8726 H   0  0  0  0  0  0
  -25.1233  -36.2020   25.0826 H   0  0  0  0  0  0
  -20.9952  -28.3214   24.1465 H   0  0  0  0  0  0
  -20.5678  -26.2259   23.3605 H   0  0  0  0  0  0
  -21.6637  -26.7451   22.1202 H   0  0  0  0  0  0
  -19.6870  -25.6307   21.1229 H   0  0  0  0  0  0
  -19.6657  -27.3228   20.6771 H   0  0  0  0  0  0
  -17.4180  -26.6699   21.4025 H   0  0  0  0  0  0
  -18.0283  -26.0055   22.9019 H   0  0  0  0  0  0
  -19.7921  -30.7254   24.2299 H   0  0  0  0  0  0
  -17.5007  -31.6273   24.5169 H   0  0  0  0  0  0
  -15.5342  -30.2996   23.7657 H   0  0  0  0  0  0
  -15.8659  -28.0825   22.7087 H   0  0  0  0  0  0
  -24.6053  -30.6783   25.7750 H   0  0  0  0  0  0
  -24.8685  -32.2712   26.4755 H   0  0  0  0  0  0
  -25.8066  -30.8941   27.0269 H   0  0  0  0  0  0
  -26.3029  -29.6755   24.1186 H   0  0  0  0  0  0
  -27.4306  -29.7397   25.4572 H   0  0  0  0  0  0
  -27.8778  -30.4473   23.9240 H   0  0  0  0  0  0
  -27.2533  -33.3513   26.2330 H   0  0  0  0  0  0
  -28.3660  -32.7257   25.0288 H   0  0  0  0  0  0
  -28.0910  -31.8430   26.5218 H   0  0  0  0  0  0
  -28.2578  -38.0110   24.7541 H   0  0  0  0  0  0
  -28.1049  -36.2653   24.6209 H   0  0  0  0  0  0
  -27.2285  -37.1398   25.8846 H   0  0  0  0  0  0
  -20.9316  -29.8722   21.6945 H   0  0  0  0  0  0
  -26.0155  -38.2904   24.1447 H   0  0  0  0  0  0
  -29.0702  -18.5935   18.5558 H   0  0  0  0  0  0
  -28.3865  -20.9119   19.0452 H   0  0  0  0  0  0
  -29.8096  -17.9141   22.7458 H   0  0  0  0  0  0
  -30.3954  -16.6514   19.2795 H   0  0  0  0  0  0
  -29.6092  -15.6186   22.0571 H   0  0  0  0  0  0
  -29.5235  -19.5794   24.3382 H   0  0  0  0  0  0
  -28.2298  -20.7276   24.0154 H   0  0  0  0  0  0
  -29.9201  -21.1945   23.7700 H   0  0  0  0  0  0
  -30.3733  -22.7481   21.2484 H   0  0  0  0  0  0
  -29.5090  -23.6173   22.4797 H   0  0  0  0  0  0
  -28.9902  -24.0632   19.4801 H   0  0  0  0  0  0
  -30.2437  -24.9004   20.3517 H   0  0  0  0  0  0
  -28.4921  -25.8166   21.9551 H   0  0  0  0  0  0
  -27.2677  -25.1081   20.9325 H   0  0  0  0  0  0
  -26.4992  -21.7045   21.5012 H   0  0  0  0  0  0
  1 25  1  0  0  0
  1 30  2  0  0  0
  1 78  1  0  0  0
  2  3  1  0  0  0
  2 25  1  0  0  0
  2 85  1  0  0  0
  2 86  1  0  0  0
  3  4  1  0  0  0
  3 87  1  0  0  0
  3 88  1  0  0  0
  4  5  1  0  0  0
  4 89  1  0  0  0
  4 90  1  0  0  0
  5  6  1  0  0  0
  5 26  1  0  0  0
  5 91  1  0  0  0
  6 25  1  0  0  0
  6 92  1  0  0  0
  6 93  1  0  0  0
  7  8  2  0  0  0
  7 26  1  0  0  0
  7 29  1  0  0  0
  8  9  1  0  0  0
  8 22  1  0  0  0
  9 10  1  0  0  0
  9 27  2  0  0  0
 10 11  2  0  0  0
 10 15  1  0  0  0
 11 12  1  0  0  0
 11 94  1  0  0  0
 12 13  2  0  0  0
 12 95  1  0  0  0
 13 14  1  0  0  0
 13 31  1  0  0  0
 14 15  2  0  0  0
 14 96  1  0  0  0
 15 97  1  0  0  0
 16 17  2  0  0  0
 16 21  1  0  0  0
 16 31  1  0  0  0
 17 18  1  0  0  0
 17 98  1  0  0  0
 18 19  2  0  0  0
 18 99  1  0  0  0
 19 20  1  0  0  0
 19 24  1  0  0  0
 20 21  2  0  0  0
 20100  1  0  0  0
 21 23  1  0  0  0
 22 28  1  0  0  0
 22 32  2  0  0  0
 26 27  1  0  0  0
 28101  1  0  0  0
 28102  1  0  0  0
 29103  1  0  0  0
 29104  1  0  0  0
 33 34  1  0  0  0
 33 66  1  0  0  0
 33 70  2  0  0  0
 34 36  1  0  0  0
 34 59  1  0  0  0
 34105  1  0  0  0
 35 44  2  0  0  0
 35 45  1  0  0  0
 35 68  1  0  0  0
 36 56  1  0  0  0
 36106  1  0  0  0
 37 39  1  0  0  0
 37 47  1  0  0  0
 37 66  1  0  0  0
 37107  1  0  0  0
 38 43  2  0  0  0
 38 46  1  0  0  0
 38 47  1  0  0  0
 39 64  1  0  0  0
 39 67  2  0  0  0
 40 52  1  0  0  0
 40 53  2  0  0  0
 40 58  1  0  0  0
 41108  1  0  0  0
 41109  1  0  0  0
 41110  1  0  0  0
 41 48  1  0  0  0
 42 43  1  0  0  0
 42 66  1  0  0  0
 42111  1  0  0  0
 42112  1  0  0  0
 43 44  1  0  0  0
 44113  1  0  0  0
 45 46  2  0  0  0
 45114  1  0  0  0
 46115  1  0  0  0
 47116  1  0  0  0
 47117  1  0  0  0
 48 56  1  0  0  0
 48 65  1  0  0  0
 48118  1  0  0  0
 49 50  1  0  0  0
 49 53  1  0  0  0
 49 64  1  0  0  0
 49119  1  0  0  0
 50 51  1  0  0  0
 50120  1  0  0  0
 50121  1  0  0  0
 51 52  1  0  0  0
 51122  1  0  0  0
 51123  1  0  0  0
 52124  1  0  0  0
 52125  1  0  0  0
 53 54  1  0  0  0
 54 55  2  0  0  0
 54126  1  0  0  0
 55 57  1  0  0  0
 55127  1  0  0  0
 56 69  2  0  0  0
 57 58  2  0  0  0
 57128  1  0  0  0
 58129  1  0  0  0
 59 60  1  0  0  0
 59 61  1  0  0  0
 59 62  1  0  0  0
 60130  1  0  0  0
 60131  1  0  0  0
 60132  1  0  0  0
 61133  1  0  0  0
 61134  1  0  0  0
 61135  1  0  0  0
 62136  1  0  0  0
 62137  1  0  0  0
 62138  1  0  0  0
 63 65  1  0  0  0
 63139  1  0  0  0
 63140  1  0  0  0
 63141  1  0  0  0
 64142  1  0  0  0
 65143  1  0  0  0
 68 83  1  0  0  0
 71 72  2  0  0  0
 71 74  1  0  0  0
 71144  1  0  0  0
 72 75  1  0  0  0
 72145  1  0  0  0
 73 74  2  0  0  0
 73 76  1  0  0  0
 73146  1  0  0  0
 74 77  1  0  0  0
 75 76  2  0  0  0
 75 79  1  0  0  0
 76 80  1  0  0  0
 77 78  2  0  0  0
 77147  1  0  0  0
 78148  1  0  0  0
 79 81  1  0  0  0
 79 84  2  0  0  0
 80149  1  0  0  0
 80150  1  0  0  0
 80151  1  0  0  0
 81 82  1  0  0  0
 81152  1  0  0  0
 81153  1  0  0  0
 82 83  1  0  0  0
 82154  1  0  0  0
 82155  1  0  0  0
 83156  1  0  0  0
 83157  1  0  0  0
 84158  1  0  0  0
M  ISO  4   1 100  68 101  78 100  83 101
M  END
> <chiral flag>
0

> <version>
0

> <s_m_source_file>
/data/baiqing/PycharmProjects/Reinvent-master-3.2/result/LINK_invent/BTK/process_docking_weight1_custom_product_contain_oxygen_bond_distance_aromatic_linkinvent_7_9_3/rearranged_h_0131.sdf

> <i_m_source_file_index>
25

> <r_mmod_Potential_Energy-OPLS-2005>
-10.1705150604248

> <r_mmod_Stretch_Energy-OPLS-2005>
35.2442932128906

> <r_mmod_Bend_Energy-OPLS-2005>
93.1321563720703

> <r_mmod_Torsional_Energy-OPLS-2005>
239.448135375977

> <r_mmod_Improper_Torsional_Energy-OPLS-2005>
4.05815887451172

> <r_mmod_Van_der_Waal_Energy-OPLS-2005>
151.188217163086

> <r_mmod_Electrostatic_Energy-OPLS-2005>
-352.803009033203

> <r_mmod_Solvation_Energy-OPLS-2005>
-194.990875244141

> <b_mmod_Minimization_Converged-OPLS-2005>
0

> <r_mmod_RMS_Derivative-OPLS-2005>
2.33868479728699

$$$$
25
                    3D
 Structure written by MMmdl.
160168  0  0  1  0            999 V2000
  -30.7654  -14.4381   20.5454 C   0  0  0  0  0  0
  -30.3981  -12.2758   19.4427 C   0  0  0  0  0  0
  -29.4967  -12.4956   18.2131 C   0  0  0  0  0  0
  -28.0166  -12.3614   18.6173 C   0  0  0  0  0  0
  -27.6548  -13.2158   19.8627 C   0  0  2  0  0  0
  -28.6949  -13.0496   20.9944 C   0  0  0  0  0  0
  -25.2569  -13.8181   20.5674 C   0  0  0  0  0  0
  -24.1827  -13.0456   20.9174 C   0  0  0  0  0  0
  -24.6377  -11.6916   20.8707 C   0  0  0  0  0  0
  -23.9040  -10.4291   21.0378 C   0  0  0  0  0  0
  -24.3594   -9.4220   21.9170 C   0  0  0  0  0  0
  -23.6283   -8.2249   22.0753 C   0  0  0  0  0  0
  -22.4266   -8.0273   21.3552 C   0  0  0  0  0  0
  -21.9891   -9.0232   20.4650 C   0  0  0  0  0  0
  -22.7211  -10.2112   20.3040 C   0  0  0  0  0  0
  -21.6855   -6.0726   22.5282 C   0  0  0  0  0  0
  -21.4009   -6.5640   23.8217 C   0  0  0  0  0  0
  -21.3661   -5.6786   24.9176 C   0  0  0  0  0  0
  -21.6037   -4.3049   24.7218 C   0  0  0  0  0  0
  -21.8817   -3.8139   23.4347 C   0  0  0  0  0  0
  -21.9196   -4.6954   22.3403 C   0  0  0  0  0  0
  -22.7856  -13.5261   21.1842 C   0  0  0  0  0  0
  -22.1668   -4.2145   21.0981 F   0  0  0  0  0  0
  -21.5632   -3.4531   25.7733 F   0  0  0  0  0  0
  -30.0307  -13.2981   20.4365 N   0  0  0  0  0  0
  -26.2995  -12.9356   20.3307 N   0  0  0  0  0  0
  -25.9304  -11.6513   20.5724 N   0  0  0  0  0  0
  -22.0476  -12.8263   22.0389 N   0  0  0  0  0  0
  -25.4305  -15.1888   20.4084 N   0  0  0  0  0  0
  -31.9265  -14.4928   20.1357 O   0  0  0  0  0  0
  -21.6647   -6.8862   21.4248 O   0  0  0  0  0  0
  -22.3551  -14.5577   20.6703 O   0  0  0  0  0  0
  -24.6126  -31.8706   23.2127 C   0  0  0  0  0  0
  -25.9037  -32.4825   23.8425 C   0  0  1  0  0  0
  -27.2334  -27.4597   20.1000 C   0  0  0  0  0  0
  -25.5918  -33.8620   24.2354 N   0  0  0  0  0  0
  -23.3972  -30.4943   21.5541 C   0  0  2  0  0  0
  -24.8433  -28.9618   20.1161 C   0  0  0  0  0  0
  -22.7386  -29.4673   22.5023 C   0  0  0  0  0  0
  -18.0254  -28.1379   22.8491 C   0  0  0  0  0  0
  -24.1474  -36.7315   23.2636 C   0  0  0  0  0  0
  -25.9233  -30.8431   21.3613 C   0  0  0  0  0  0
  -26.0014  -29.4808   20.7087 C   0  0  0  0  0  0
  -27.2007  -28.7376   20.6960 C   0  0  0  0  0  0
  -26.0596  -26.9512   19.4970 C   0  0  0  0  0  0
  -24.8663  -27.6955   19.5073 C   0  0  0  0  0  0
  -23.6025  -29.8228   20.1684 C   0  0  0  0  0  0
  -25.4096  -36.3111   24.0340 C   0  0  1  0  0  0
  -20.5844  -28.3650   23.1336 C   0  0  2  0  0  0
  -20.6745  -26.9397   22.5417 C   0  0  0  0  0  0
  -19.5729  -26.6380   21.5210 C   0  0  0  0  0  0
  -18.1905  -26.7928   22.1619 C   0  0  0  0  0  0
  -19.1507  -28.8828   23.2909 C   0  0  0  0  0  0
  -18.9436  -30.1443   23.8908 C   0  0  0  0  0  0
  -17.6438  -30.6591   24.0550 C   0  0  0  0  0  0
  -25.9032  -34.9475   23.5140 C   0  0  0  0  0  0
  -16.5327  -29.9079   23.6335 C   0  0  0  0  0  0
  -16.7246  -28.6499   23.0353 C   0  0  0  0  0  0
  -26.4477  -31.6584   25.0739 C   0  0  0  0  0  0
  -25.3755  -31.3706   26.1504 C   0  0  0  0  0  0
  -27.0265  -30.3010   24.6098 C   0  0  0  0  0  0
  -27.6082  -32.4273   25.7487 C   0  0  0  0  0  0
  -27.5579  -37.1801   24.8452 C   0  0  0  0  0  0
  -21.4116  -29.3028   22.3753 N   0  0  0  0  0  0
  -26.4280  -37.3801   23.9422 N   0  0  0  0  0  0
  -24.6625  -31.0828   22.1011 N   0  0  0  0  0  0
  -23.4169  -28.8231   23.3063 O   0  0  0  0  0  0
  -28.4056  -26.7424   20.1230 O   0  0  0  0  0  0
  -26.5574  -34.8918   22.4683 O   0  0  0  0  0  0
  -23.5325  -32.1460   23.7536 O   0  0  0  0  0  0
  -31.0340  -18.9118   22.4726 C   0  0  0  0  0  0
  -30.9579  -20.3165   22.4148 C   0  0  0  0  0  0
  -29.7358  -18.7617   20.4234 C   0  0  0  0  0  0
  -30.4710  -18.1275   21.4476 C   0  0  0  0  0  0
  -30.3384  -20.9591   21.3214 C   0  0  0  0  0  0
  -29.6881  -20.1725   20.3321 C   0  0  0  0  0  0
  -30.8218  -16.7043   21.3486 C   0  0  0  0  0  0
  -30.0707  -15.6726   20.9025 C   0  0  0  0  0  0
  -29.4085  -24.7535   21.1122 C   0  0  0  0  0  0
  -29.9640  -20.9188   17.9144 C   0  0  0  0  0  0
  -30.5004  -22.4698   21.1759 C   0  0  0  0  0  0
  -29.0137  -20.7915   19.1128 C   0  0  0  0  0  0
  -29.2698  -23.3005   21.5758 C   0  0  0  0  0  0
  -28.2512  -25.3305   20.2902 C   0  0  0  0  0  0
  -30.4158  -25.4164   21.3834 O   0  0  0  0  0  0
  -31.4506  -12.3100   19.1563 H   0  0  0  0  0  0
  -30.2405  -11.2773   19.8542 H   0  0  0  0  0  0
  -29.7412  -11.7760   17.4305 H   0  0  0  0  0  0
  -29.6788  -13.4848   17.7888 H   0  0  0  0  0  0
  -27.8257  -11.3073   18.8218 H   0  0  0  0  0  0
  -27.3721  -12.6265   17.7786 H   0  0  0  0  0  0
  -27.6841  -14.2553   19.5372 H   0  0  0  0  0  0
  -28.6549  -12.0425   21.4100 H   0  0  0  0  0  0
  -28.4737  -13.7219   21.8246 H   0  0  0  0  0  0
  -25.2729   -9.5723   22.4758 H   0  0  0  0  0  0
  -24.0010   -7.4638   22.7465 H   0  0  0  0  0  0
  -21.0828   -8.8711   19.8950 H   0  0  0  0  0  0
  -22.3649  -10.9632   19.6140 H   0  0  0  0  0  0
  -21.1997   -7.6149   23.9717 H   0  0  0  0  0  0
  -21.1498   -6.0519   25.9081 H   0  0  0  0  0  0
  -22.0600   -2.7601   23.2827 H   0  0  0  0  0  0
  -22.4077  -11.9927   22.4789 H   0  0  0  0  0  0
  -21.1087  -13.1296   22.2551 H   0  0  0  0  0  0
  -24.6665  -15.8467   20.5145 H   0  0  0  0  0  0
  -26.2900  -15.6272   20.1005 H   0  0  0  0  0  0
  -26.7112  -32.5545   23.1200 H   0  0  0  0  0  0
  -25.0069  -33.9785   25.0496 H   0  0  0  0  0  0
  -22.6853  -31.3103   21.4172 H   0  0  0  0  0  0
  -23.3746  -35.9633   23.3261 H   0  0  0  0  0  0
  -24.3581  -36.8969   22.2057 H   0  0  0  0  0  0
  -23.7193  -37.6499   23.6665 H   0  0  0  0  0  0
  -26.0308  -31.6091   20.5912 H   0  0  0  0  0  0
  -26.8126  -30.8967   21.9779 H   0  0  0  0  0  0
  -28.0939  -29.1337   21.1597 H   0  0  0  0  0  0
  -26.0575  -25.9859   19.0101 H   0  0  0  0  0  0
  -23.9772  -27.2903   19.0437 H   0  0  0  0  0  0
  -23.7022  -30.5957   19.4063 H   0  0  0  0  0  0
  -22.7283  -29.2376   19.8803 H   0  0  0  0  0  0
  -25.1273  -36.1975   25.0834 H   0  0  0  0  0  0
  -20.9936  -28.3197   24.1463 H   0  0  0  0  0  0
  -20.5655  -26.2264   23.3594 H   0  0  0  0  0  0
  -21.6617  -26.7450   22.1193 H   0  0  0  0  0  0
  -19.6875  -25.6293   21.1236 H   0  0  0  0  0  0
  -19.6681  -27.3191   20.6749 H   0  0  0  0  0  0
  -17.4191  -26.6692   21.4001 H   0  0  0  0  0  0
  -18.0288  -26.0065   22.8999 H   0  0  0  0  0  0
  -19.7915  -30.7238   24.2288 H   0  0  0  0  0  0
  -17.5003  -31.6284   24.5122 H   0  0  0  0  0  0
  -15.5322  -30.2974   23.7677 H   0  0  0  0  0  0
  -15.8649  -28.0817   22.7064 H   0  0  0  0  0  0
  -24.5846  -30.7168   25.7823 H   0  0  0  0  0  0
  -24.9060  -32.2879   26.5075 H   0  0  0  0  0  0
  -25.8104  -30.8741   27.0188 H   0  0  0  0  0  0
  -26.2777  -29.6786   24.1188 H   0  0  0  0  0  0
  -27.4051  -29.7250   25.4554 H   0  0  0  0  0  0
  -27.8624  -30.4301   23.9214 H   0  0  0  0  0  0
  -27.2751  -33.3585   26.2084 H   0  0  0  0  0  0
  -28.3901  -32.6799   25.0309 H   0  0  0  0  0  0
  -28.0735  -31.8364   26.5391 H   0  0  0  0  0  0
  -28.2577  -38.0120   24.7553 H   0  0  0  0  0  0
  -28.1104  -36.2663   24.6211 H   0  0  0  0  0  0
  -27.2322  -37.1359   25.8860 H   0  0  0  0  0  0
  -20.9274  -29.8761   21.6985 H   0  0  0  0  0  0
  -26.0170  -38.2877   24.1452 H   0  0  0  0  0  0
  -31.6011  -18.4442   23.2657 H   0  0  0  0  0  0
  -31.4597  -20.8957   23.1782 H   0  0  0  0  0  0
  -29.3098  -18.1680   19.6264 H   0  0  0  0  0  0
  -31.8660  -16.5166   21.5671 H   0  0  0  0  0  0
  -29.0130  -15.7933   20.7246 H   0  0  0  0  0  0
  -29.4527  -21.3623   17.0591 H   0  0  0  0  0  0
  -30.3428  -19.9449   17.6039 H   0  0  0  0  0  0
  -30.8230  -21.5490   18.1442 H   0  0  0  0  0  0
  -30.7940  -22.6912   20.1497 H   0  0  0  0  0  0
  -31.3491  -22.7932   21.7810 H   0  0  0  0  0  0
  -28.5936  -21.7673   19.3469 H   0  0  0  0  0  0
  -28.1606  -20.1719   18.8319 H   0  0  0  0  0  0
  -28.3649  -22.8901   21.1337 H   0  0  0  0  0  0
  -29.1241  -23.2758   22.6555 H   0  0  0  0  0  0
  -27.3263  -25.0952   20.8200 H   0  0  0  0  0  0
  -28.2125  -24.8411   19.3162 H   0  0  0  0  0  0
  1 25  1  0  0  0
  1 30  2  0  0  0
  1 78  1  0  0  0
  2  3  1  0  0  0
  2 25  1  0  0  0
  2 86  1  0  0  0
  2 87  1  0  0  0
  3  4  1  0  0  0
  3 88  1  0  0  0
  3 89  1  0  0  0
  4  5  1  0  0  0
  4 90  1  0  0  0
  4 91  1  0  0  0
  5  6  1  0  0  0
  5 26  1  0  0  0
  5 92  1  0  0  0
  6 25  1  0  0  0
  6 93  1  0  0  0
  6 94  1  0  0  0
  7  8  2  0  0  0
  7 26  1  0  0  0
  7 29  1  0  0  0
  8  9  1  0  0  0
  8 22  1  0  0  0
  9 10  1  0  0  0
  9 27  2  0  0  0
 10 11  2  0  0  0
 10 15  1  0  0  0
 11 12  1  0  0  0
 11 95  1  0  0  0
 12 13  2  0  0  0
 12 96  1  0  0  0
 13 14  1  0  0  0
 13 31  1  0  0  0
 14 15  2  0  0  0
 14 97  1  0  0  0
 15 98  1  0  0  0
 16 17  2  0  0  0
 16 21  1  0  0  0
 16 31  1  0  0  0
 17 18  1  0  0  0
 17 99  1  0  0  0
 18 19  2  0  0  0
 18100  1  0  0  0
 19 20  1  0  0  0
 19 24  1  0  0  0
 20 21  2  0  0  0
 20101  1  0  0  0
 21 23  1  0  0  0
 22 28  1  0  0  0
 22 32  2  0  0  0
 26 27  1  0  0  0
 28102  1  0  0  0
 28103  1  0  0  0
 29104  1  0  0  0
 29105  1  0  0  0
 33 34  1  0  0  0
 33 66  1  0  0  0
 33 70  2  0  0  0
 34 36  1  0  0  0
 34 59  1  0  0  0
 34106  1  0  0  0
 35 44  2  0  0  0
 35 45  1  0  0  0
 35 68  1  0  0  0
 36 56  1  0  0  0
 36107  1  0  0  0
 37 39  1  0  0  0
 37 47  1  0  0  0
 37 66  1  0  0  0
 37108  1  0  0  0
 38 43  2  0  0  0
 38 46  1  0  0  0
 38 47  1  0  0  0
 39 64  1  0  0  0
 39 67  2  0  0  0
 40 52  1  0  0  0
 40 53  2  0  0  0
 40 58  1  0  0  0
 41109  1  0  0  0
 41110  1  0  0  0
 41111  1  0  0  0
 41 48  1  0  0  0
 42 43  1  0  0  0
 42 66  1  0  0  0
 42112  1  0  0  0
 42113  1  0  0  0
 43 44  1  0  0  0
 44114  1  0  0  0
 45 46  2  0  0  0
 45115  1  0  0  0
 46116  1  0  0  0
 47117  1  0  0  0
 47118  1  0  0  0
 48 56  1  0  0  0
 48 65  1  0  0  0
 48119  1  0  0  0
 49 50  1  0  0  0
 49 53  1  0  0  0
 49 64  1  0  0  0
 49120  1  0  0  0
 50 51  1  0  0  0
 50121  1  0  0  0
 50122  1  0  0  0
 51 52  1  0  0  0
 51123  1  0  0  0
 51124  1  0  0  0
 52125  1  0  0  0
 52126  1  0  0  0
 53 54  1  0  0  0
 54 55  2  0  0  0
 54127  1  0  0  0
 55 57  1  0  0  0
 55128  1  0  0  0
 56 69  2  0  0  0
 57 58  2  0  0  0
 57129  1  0  0  0
 58130  1  0  0  0
 59 60  1  0  0  0
 59 61  1  0  0  0
 59 62  1  0  0  0
 60131  1  0  0  0
 60132  1  0  0  0
 60133  1  0  0  0
 61134  1  0  0  0
 61135  1  0  0  0
 61136  1  0  0  0
 62137  1  0  0  0
 62138  1  0  0  0
 62139  1  0  0  0
 63 65  1  0  0  0
 63140  1  0  0  0
 63141  1  0  0  0
 63142  1  0  0  0
 64143  1  0  0  0
 65144  1  0  0  0
 68 84  1  0  0  0
 71 72  2  0  0  0
 71 74  1  0  0  0
 71145  1  0  0  0
 72 75  1  0  0  0
 72146  1  0  0  0
 73 74  2  0  0  0
 73 76  1  0  0  0
 73147  1  0  0  0
 74 77  1  0  0  0
 75 76  2  0  0  0
 75 81  1  0  0  0
 76 82  1  0  0  0
 77 78  2  0  0  0
 77148  1  0  0  0
 78149  1  0  0  0
 79 83  1  0  0  0
 79 84  1  0  0  0
 79 85  2  0  0  0
 80 82  1  0  0  0
 80150  1  0  0  0
 80151  1  0  0  0
 80152  1  0  0  0
 81 83  1  0  0  0
 81153  1  0  0  0
 81154  1  0  0  0
 82155  1  0  0  0
 82156  1  0  0  0
 83157  1  0  0  0
 83158  1  0  0  0
 84159  1  0  0  0
 84160  1  0  0  0
M  ISO  4   1 100  68 101  78 100  84 101
M  END
> <chiral flag>
0

> <version>
0

> <s_m_source_file>
/data/baiqing/PycharmProjects/Reinvent-master-3.2/result/LINK_invent/BTK/process_docking_weight1_custom_product_contain_oxygen_bond_distance_aromatic_linkinvent_7_9_3/rearranged_h_0131.sdf

> <i_m_source_file_index>
26

> <r_mmod_Potential_Energy-OPLS-2005>
-15.0651741027832

> <r_mmod_Stretch_Energy-OPLS-2005>
33.4079093933105

> <r_mmod_Bend_Energy-OPLS-2005>
95.2177124023438

> <r_mmod_Torsional_Energy-OPLS-2005>
222.969131469727

> <r_mmod_Improper_Torsional_Energy-OPLS-2005>
10.4865369796753

> <r_mmod_Van_der_Waal_Energy-OPLS-2005>
156.795913696289

> <r_mmod_Electrostatic_Energy-OPLS-2005>
-339.628143310547

> <r_mmod_Solvation_Energy-OPLS-2005>
-212.304473876953

> <b_mmod_Minimization_Converged-OPLS-2005>
0

> <r_mmod_RMS_Derivative-OPLS-2005>
2.11936926841736

$$$$
26
                    3D
 Structure written by MMmdl.
154162  0  0  1  0            999 V2000
  -30.7774  -14.4376   20.5682 C   0  0  0  0  0  0
  -30.3951  -12.2833   19.4441 C   0  0  0  0  0  0
  -29.4857  -12.4938   18.2192 C   0  0  0  0  0  0
  -28.0049  -12.3760   18.6225 C   0  0  0  0  0  0
  -27.6593  -13.2191   19.8796 C   0  0  2  0  0  0
  -28.7009  -13.0259   21.0062 C   0  0  0  0  0  0
  -25.2565  -13.8206   20.5739 C   0  0  0  0  0  0
  -24.1827  -13.0459   20.9198 C   0  0  0  0  0  0
  -24.6375  -11.6924   20.8730 C   0  0  0  0  0  0
  -23.9049  -10.4300   21.0381 C   0  0  0  0  0  0
  -24.3593   -9.4217   21.9168 C   0  0  0  0  0  0
  -23.6275   -8.2247   22.0730 C   0  0  0  0  0  0
  -22.4262   -8.0259   21.3519 C   0  0  0  0  0  0
  -21.9892   -9.0235   20.4642 C   0  0  0  0  0  0
  -22.7206  -10.2128   20.3048 C   0  0  0  0  0  0
  -21.6859   -6.0735   22.5265 C   0  0  0  0  0  0
  -21.4020   -6.5630   23.8204 C   0  0  0  0  0  0
  -21.3683   -5.6782   24.9166 C   0  0  0  0  0  0
  -21.6042   -4.3045   24.7219 C   0  0  0  0  0  0
  -21.8824   -3.8155   23.4333 C   0  0  0  0  0  0
  -21.9204   -4.6973   22.3386 C   0  0  0  0  0  0
  -22.7856  -13.5248   21.1862 C   0  0  0  0  0  0
  -22.1664   -4.2166   21.0968 F   0  0  0  0  0  0
  -21.5627   -3.4513   25.7726 F   0  0  0  0  0  0
  -30.0354  -13.3000   20.4514 N   0  0  0  0  0  0
  -26.3005  -12.9396   20.3417 N   0  0  0  0  0  0
  -25.9310  -11.6529   20.5797 N   0  0  0  0  0  0
  -22.0499  -12.8234   22.0431 N   0  0  0  0  0  0
  -25.4282  -15.1926   20.4198 N   0  0  0  0  0  0
  -31.8995  -14.5026   20.0548 O   0  0  0  0  0  0
  -21.6624   -6.8862   21.4220 O   0  0  0  0  0  0
  -22.3521  -14.5546   20.6720 O   0  0  0  0  0  0
  -24.6139  -31.8694   23.2136 C   0  0  0  0  0  0
  -25.9038  -32.4835   23.8429 C   0  0  1  0  0  0
  -27.2263  -27.4451   20.1148 C   0  0  0  0  0  0
  -25.5911  -33.8636   24.2364 N   0  0  0  0  0  0
  -23.4012  -30.4940   21.5522 C   0  0  2  0  0  0
  -24.8494  -28.9726   20.1081 C   0  0  0  0  0  0
  -22.7416  -29.4647   22.4980 C   0  0  0  0  0  0
  -18.0274  -28.1357   22.8477 C   0  0  0  0  0  0
  -24.1483  -36.7311   23.2613 C   0  0  0  0  0  0
  -25.9292  -30.8433   21.3649 C   0  0  0  0  0  0
  -26.0085  -29.4819   20.7075 C   0  0  0  0  0  0
  -27.2032  -28.7287   20.7023 C   0  0  0  0  0  0
  -26.0552  -26.9578   19.4874 C   0  0  0  0  0  0
  -24.8699  -27.7120   19.4880 C   0  0  0  0  0  0
  -23.6092  -29.8332   20.1639 C   0  0  0  0  0  0
  -25.4084  -36.3115   24.0344 C   0  0  1  0  0  0
  -20.5868  -28.3636   23.1310 C   0  0  2  0  0  0
  -20.6765  -26.9369   22.5402 C   0  0  0  0  0  0
  -19.5744  -26.6368   21.5186 C   0  0  0  0  0  0
  -18.1921  -26.7900   22.1606 C   0  0  0  0  0  0
  -19.1527  -28.8810   23.2892 C   0  0  0  0  0  0
  -18.9449  -30.1415   23.8902 C   0  0  0  0  0  0
  -17.6453  -30.6564   24.0542 C   0  0  0  0  0  0
  -25.9025  -34.9486   23.5148 C   0  0  0  0  0  0
  -16.5340  -29.9060   23.6328 C   0  0  0  0  0  0
  -16.7260  -28.6480   23.0341 C   0  0  0  0  0  0
  -26.4495  -31.6608   25.0747 C   0  0  0  0  0  0
  -25.3780  -31.3676   26.1507 C   0  0  0  0  0  0
  -27.0331  -30.3069   24.6088 C   0  0  0  0  0  0
  -27.6083  -32.4326   25.7494 C   0  0  0  0  0  0
  -27.5621  -37.1733   24.8402 C   0  0  0  0  0  0
  -21.4142  -29.3021   22.3740 N   0  0  0  0  0  0
  -26.4243  -37.3832   23.9484 N   0  0  0  0  0  0
  -24.6657  -31.0822   22.1016 N   0  0  0  0  0  0
  -23.4206  -28.8169   23.2994 O   0  0  0  0  0  0
  -28.3663  -26.6779   20.1978 O   0  0  0  0  0  0
  -26.5585  -34.8938   22.4707 O   0  0  0  0  0  0
  -23.5344  -32.1425   23.7549 O   0  0  0  0  0  0
  -29.3594  -18.4885   22.2708 C   0  0  0  0  0  0
  -31.3427  -19.2066   21.0614 C   0  0  0  0  0  0
  -29.1053  -19.8339   22.6306 C   0  0  0  0  0  0
  -31.0906  -20.5430   21.4147 C   0  0  0  0  0  0
  -30.4787  -18.1669   21.4678 C   0  0  0  0  0  0
  -29.9601  -20.8701   22.1864 C   0  0  0  0  0  0
  -30.8057  -16.8104   20.9936 C   0  0  0  0  0  0
  -30.1847  -15.6210   21.2002 C   0  0  0  0  0  0
  -29.1795  -24.6110   21.2918 C   0  0  0  0  0  0
  -29.6816  -22.3402   22.4796 C   0  0  0  0  0  0
  -29.2428  -23.0818   21.1958 C   0  0  0  0  0  0
  -28.1028  -25.2837   20.4315 C   0  0  0  0  0  0
  -29.9508  -25.2567   22.0105 O   0  0  0  0  0  0
  -31.4418  -12.3248   19.1361 H   0  0  0  0  0  0
  -30.2555  -11.2820   19.8545 H   0  0  0  0  0  0
  -29.7247  -11.7620   17.4465 H   0  0  0  0  0  0
  -29.6696  -13.4777   17.7850 H   0  0  0  0  0  0
  -27.7968  -11.3241   18.8157 H   0  0  0  0  0  0
  -27.3614  -12.6649   17.7908 H   0  0  0  0  0  0
  -27.7051  -14.2646   19.5728 H   0  0  0  0  0  0
  -28.6701  -12.0033   21.3831 H   0  0  0  0  0  0
  -28.4644  -13.6470   21.8684 H   0  0  0  0  0  0
  -25.2723   -9.5700   22.4767 H   0  0  0  0  0  0
  -24.0011   -7.4644   22.7427 H   0  0  0  0  0  0
  -21.0836   -8.8703   19.8953 H   0  0  0  0  0  0
  -22.3602  -10.9643   19.6172 H   0  0  0  0  0  0
  -21.1975   -7.6126   23.9699 H   0  0  0  0  0  0
  -21.1518   -6.0506   25.9067 H   0  0  0  0  0  0
  -22.0595   -2.7610   23.2835 H   0  0  0  0  0  0
  -22.4103  -11.9876   22.4788 H   0  0  0  0  0  0
  -21.1101  -13.1263   22.2632 H   0  0  0  0  0  0
  -24.6623  -15.8477   20.5274 H   0  0  0  0  0  0
  -26.2869  -15.6347   20.1193 H   0  0  0  0  0  0
  -26.7107  -32.5563   23.1193 H   0  0  0  0  0  0
  -25.0124  -33.9809   25.0554 H   0  0  0  0  0  0
  -22.6883  -31.3096   21.4187 H   0  0  0  0  0  0
  -23.3766  -35.9617   23.3222 H   0  0  0  0  0  0
  -24.3614  -36.8971   22.2040 H   0  0  0  0  0  0
  -23.7197  -37.6489   23.6649 H   0  0  0  0  0  0
  -26.0463  -31.6139   20.6012 H   0  0  0  0  0  0
  -26.8159  -30.8918   21.9858 H   0  0  0  0  0  0
  -28.0949  -29.1096   21.1812 H   0  0  0  0  0  0
  -26.0453  -25.9893   19.0067 H   0  0  0  0  0  0
  -23.9825  -27.3195   19.0126 H   0  0  0  0  0  0
  -23.7140  -30.6113   19.4073 H   0  0  0  0  0  0
  -22.7352  -29.2502   19.8678 H   0  0  0  0  0  0
  -25.1217  -36.1956   25.0824 H   0  0  0  0  0  0
  -20.9948  -28.3183   24.1429 H   0  0  0  0  0  0
  -20.5643  -26.2222   23.3566 H   0  0  0  0  0  0
  -21.6642  -26.7404   22.1208 H   0  0  0  0  0  0
  -19.6906  -25.6281   21.1200 H   0  0  0  0  0  0
  -19.6686  -27.3185   20.6717 H   0  0  0  0  0  0
  -17.4180  -26.6627   21.4023 H   0  0  0  0  0  0
  -18.0351  -26.0045   22.9005 H   0  0  0  0  0  0
  -19.7916  -30.7230   24.2283 H   0  0  0  0  0  0
  -17.5000  -31.6253   24.5134 H   0  0  0  0  0  0
  -15.5337  -30.2954   23.7647 H   0  0  0  0  0  0
  -15.8664  -28.0787   22.7067 H   0  0  0  0  0  0
  -24.5965  -30.7006   25.7853 H   0  0  0  0  0  0
  -24.8953  -32.2803   26.5008 H   0  0  0  0  0  0
  -25.8168  -30.8830   27.0233 H   0  0  0  0  0  0
  -26.2858  -29.6819   24.1187 H   0  0  0  0  0  0
  -27.4173  -29.7322   25.4522 H   0  0  0  0  0  0
  -27.8668  -30.4417   23.9193 H   0  0  0  0  0  0
  -27.2702  -33.3572   26.2189 H   0  0  0  0  0  0
  -28.3825  -32.6976   25.0279 H   0  0  0  0  0  0
  -28.0848  -31.8394   26.5309 H   0  0  0  0  0  0
  -28.2406  -38.0258   24.7837 H   0  0  0  0  0  0
  -28.1352  -36.2841   24.5719 H   0  0  0  0  0  0
  -27.2426  -37.0765   25.8794 H   0  0  0  0  0  0
  -20.9285  -29.8762   21.6996 H   0  0  0  0  0  0
  -26.0122  -38.2852   24.1716 H   0  0  0  0  0  0
  -28.6853  -17.7128   22.6031 H   0  0  0  0  0  0
  -32.2108  -18.9924   20.4519 H   0  0  0  0  0  0
  -28.2364  -20.0681   23.2309 H   0  0  0  0  0  0
  -31.7598  -21.3215   21.0742 H   0  0  0  0  0  0
  -31.6895  -16.8096   20.3687 H   0  0  0  0  0  0
  -29.2967  -15.5730   21.8067 H   0  0  0  0  0  0
  -30.5846  -22.7909   22.8950 H   0  0  0  0  0  0
  -28.9150  -22.4287   23.2510 H   0  0  0  0  0  0
  -29.9383  -22.8564   20.3873 H   0  0  0  0  0  0
  -28.2682  -22.7116   20.8767 H   0  0  0  0  0  0
  -27.1652  -25.1623   20.9765 H   0  0  0  0  0  0
  -28.0022  -24.7537   19.4842 H   0  0  0  0  0  0
  1 25  1  0  0  0
  1 30  2  0  0  0
  1 78  1  0  0  0
  2  3  1  0  0  0
  2 25  1  0  0  0
  2 84  1  0  0  0
  2 85  1  0  0  0
  3  4  1  0  0  0
  3 86  1  0  0  0
  3 87  1  0  0  0
  4  5  1  0  0  0
  4 88  1  0  0  0
  4 89  1  0  0  0
  5  6  1  0  0  0
  5 26  1  0  0  0
  5 90  1  0  0  0
  6 25  1  0  0  0
  6 91  1  0  0  0
  6 92  1  0  0  0
  7  8  2  0  0  0
  7 26  1  0  0  0
  7 29  1  0  0  0
  8  9  1  0  0  0
  8 22  1  0  0  0
  9 10  1  0  0  0
  9 27  2  0  0  0
 10 11  2  0  0  0
 10 15  1  0  0  0
 11 12  1  0  0  0
 11 93  1  0  0  0
 12 13  2  0  0  0
 12 94  1  0  0  0
 13 14  1  0  0  0
 13 31  1  0  0  0
 14 15  2  0  0  0
 14 95  1  0  0  0
 15 96  1  0  0  0
 16 17  2  0  0  0
 16 21  1  0  0  0
 16 31  1  0  0  0
 17 18  1  0  0  0
 17 97  1  0  0  0
 18 19  2  0  0  0
 18 98  1  0  0  0
 19 20  1  0  0  0
 19 24  1  0  0  0
 20 21  2  0  0  0
 20 99  1  0  0  0
 21 23  1  0  0  0
 22 28  1  0  0  0
 22 32  2  0  0  0
 26 27  1  0  0  0
 28100  1  0  0  0
 28101  1  0  0  0
 29102  1  0  0  0
 29103  1  0  0  0
 33 34  1  0  0  0
 33 66  1  0  0  0
 33 70  2  0  0  0
 34 36  1  0  0  0
 34 59  1  0  0  0
 34104  1  0  0  0
 35 44  2  0  0  0
 35 45  1  0  0  0
 35 68  1  0  0  0
 36 56  1  0  0  0
 36105  1  0  0  0
 37 39  1  0  0  0
 37 47  1  0  0  0
 37 66  1  0  0  0
 37106  1  0  0  0
 38 43  2  0  0  0
 38 46  1  0  0  0
 38 47  1  0  0  0
 39 64  1  0  0  0
 39 67  2  0  0  0
 40 52  1  0  0  0
 40 53  2  0  0  0
 40 58  1  0  0  0
 41107  1  0  0  0
 41108  1  0  0  0
 41109  1  0  0  0
 41 48  1  0  0  0
 42 43  1  0  0  0
 42 66  1  0  0  0
 42110  1  0  0  0
 42111  1  0  0  0
 43 44  1  0  0  0
 44112  1  0  0  0
 45 46  2  0  0  0
 45113  1  0  0  0
 46114  1  0  0  0
 47115  1  0  0  0
 47116  1  0  0  0
 48 56  1  0  0  0
 48 65  1  0  0  0
 48117  1  0  0  0
 49 50  1  0  0  0
 49 53  1  0  0  0
 49 64  1  0  0  0
 49118  1  0  0  0
 50 51  1  0  0  0
 50119  1  0  0  0
 50120  1  0  0  0
 51 52  1  0  0  0
 51121  1  0  0  0
 51122  1  0  0  0
 52123  1  0  0  0
 52124  1  0  0  0
 53 54  1  0  0  0
 54 55  2  0  0  0
 54125  1  0  0  0
 55 57  1  0  0  0
 55126  1  0  0  0
 56 69  2  0  0  0
 57 58  2  0  0  0
 57127  1  0  0  0
 58128  1  0  0  0
 59 60  1  0  0  0
 59 61  1  0  0  0
 59 62  1  0  0  0
 60129  1  0  0  0
 60130  1  0  0  0
 60131  1  0  0  0
 61132  1  0  0  0
 61133  1  0  0  0
 61134  1  0  0  0
 62135  1  0  0  0
 62136  1  0  0  0
 62137  1  0  0  0
 63 65  1  0  0  0
 63138  1  0  0  0
 63139  1  0  0  0
 63140  1  0  0  0
 64141  1  0  0  0
 65142  1  0  0  0
 68 82  1  0  0  0
 71 73  2  0  0  0
 71 75  1  0  0  0
 71143  1  0  0  0
 72 74  1  0  0  0
 72 75  2  0  0  0
 72144  1  0  0  0
 73 76  1  0  0  0
 73145  1  0  0  0
 74 76  2  0  0  0
 74146  1  0  0  0
 75 77  1  0  0  0
 76 80  1  0  0  0
 77 78  2  0  0  0
 77147  1  0  0  0
 78148  1  0  0  0
 79 81  1  0  0  0
 79 82  1  0  0  0
 79 83  2  0  0  0
 80 81  1  0  0  0
 80149  1  0  0  0
 80150  1  0  0  0
 81151  1  0  0  0
 81152  1  0  0  0
 82153  1  0  0  0
 82154  1  0  0  0
M  ISO  4   1 100  68 101  78 100  82 101
M  END
> <chiral flag>
0

> <version>
0

> <s_m_source_file>
/data/baiqing/PycharmProjects/Reinvent-master-3.2/result/LINK_invent/BTK/process_docking_weight1_custom_product_contain_oxygen_bond_distance_aromatic_linkinvent_7_9_3/rearranged_h_0131.sdf

> <i_m_source_file_index>
27

> <r_mmod_Potential_Energy-OPLS-2005>
-33.3215370178223

> <r_mmod_Stretch_Energy-OPLS-2005>
35.4354095458984

> <r_mmod_Bend_Energy-OPLS-2005>
104.666915893555

> <r_mmod_Torsional_Energy-OPLS-2005>
182.476760864258

> <r_mmod_Improper_Torsional_Energy-OPLS-2005>
2.61797785758972

> <r_mmod_Van_der_Waal_Energy-OPLS-2005>
165.396759033203

> <r_mmod_Electrostatic_Energy-OPLS-2005>
-330.596618652344

> <r_mmod_Solvation_Energy-OPLS-2005>
-211.991546630859

> <b_mmod_Minimization_Converged-OPLS-2005>
0

> <r_mmod_RMS_Derivative-OPLS-2005>
3.39333081245422

$$$$
27
                    3D
 Structure written by MMmdl.
154162  0  0  1  0            999 V2000
  -30.7092  -14.4496   20.5944 C   0  0  0  0  0  0
  -30.4174  -12.3037   19.4142 C   0  0  0  0  0  0
  -29.4905  -12.5286   18.2006 C   0  0  0  0  0  0
  -28.0087  -12.3925   18.6064 C   0  0  0  0  0  0
  -27.6619  -13.2075   19.8814 C   0  0  2  0  0  0
  -28.7022  -12.9457   20.9916 C   0  0  0  0  0  0
  -25.2567  -13.8165   20.5704 C   0  0  0  0  0  0
  -24.1815  -13.0437   20.9190 C   0  0  0  0  0  0
  -24.6374  -11.6907   20.8748 C   0  0  0  0  0  0
  -23.9043  -10.4291   21.0406 C   0  0  0  0  0  0
  -24.3609   -9.4208   21.9179 C   0  0  0  0  0  0
  -23.6303   -8.2234   22.0749 C   0  0  0  0  0  0
  -22.4275   -8.0270   21.3551 C   0  0  0  0  0  0
  -21.9901   -9.0237   20.4649 C   0  0  0  0  0  0
  -22.7217  -10.2127   20.3053 C   0  0  0  0  0  0
  -21.6851   -6.0737   22.5290 C   0  0  0  0  0  0
  -21.4005   -6.5644   23.8224 C   0  0  0  0  0  0
  -21.3659   -5.6800   24.9188 C   0  0  0  0  0  0
  -21.6047   -4.3062   24.7238 C   0  0  0  0  0  0
  -21.8815   -3.8151   23.4361 C   0  0  0  0  0  0
  -21.9188   -4.6964   22.3414 C   0  0  0  0  0  0
  -22.7836  -13.5232   21.1862 C   0  0  0  0  0  0
  -22.1659   -4.2149   21.0996 F   0  0  0  0  0  0
  -21.5633   -3.4544   25.7749 F   0  0  0  0  0  0
  -30.0348  -13.2718   20.4567 N   0  0  0  0  0  0
  -26.3016  -12.9341   20.3399 N   0  0  0  0  0  0
  -25.9298  -11.6497   20.5772 N   0  0  0  0  0  0
  -22.0471  -12.8240   22.0430 N   0  0  0  0  0  0
  -25.4275  -15.1882   20.4133 N   0  0  0  0  0  0
  -31.8134  -14.6264   20.0697 O   0  0  0  0  0  0
  -21.6644   -6.8868   21.4247 O   0  0  0  0  0  0
  -22.3528  -14.5548   20.6723 O   0  0  0  0  0  0
  -24.6140  -31.8683   23.2102 C   0  0  0  0  0  0
  -25.9031  -32.4829   23.8405 C   0  0  1  0  0  0
  -27.2385  -27.4513   20.1027 C   0  0  0  0  0  0
  -25.5894  -33.8629   24.2336 N   0  0  0  0  0  0
  -23.4023  -30.4906   21.5501 C   0  0  2  0  0  0
  -24.8520  -28.9589   20.1131 C   0  0  0  0  0  0
  -22.7412  -29.4656   22.4993 C   0  0  0  0  0  0
  -18.0268  -28.1379   22.8494 C   0  0  0  0  0  0
  -24.1480  -36.7319   23.2630 C   0  0  0  0  0  0
  -25.9290  -30.8414   21.3592 C   0  0  0  0  0  0
  -26.0104  -29.4767   20.7081 C   0  0  0  0  0  0
  -27.2104  -28.7313   20.6967 C   0  0  0  0  0  0
  -26.0684  -26.9423   19.5016 C   0  0  0  0  0  0
  -24.8760  -27.6911   19.5040 C   0  0  0  0  0  0
  -23.6107  -29.8209   20.1645 C   0  0  0  0  0  0
  -25.4095  -36.3115   24.0337 C   0  0  1  0  0  0
  -20.5861  -28.3665   23.1322 C   0  0  2  0  0  0
  -20.6757  -26.9399   22.5421 C   0  0  0  0  0  0
  -19.5735  -26.6384   21.5218 C   0  0  0  0  0  0
  -18.1915  -26.7926   22.1628 C   0  0  0  0  0  0
  -19.1520  -28.8837   23.2907 C   0  0  0  0  0  0
  -18.9447  -30.1447   23.8913 C   0  0  0  0  0  0
  -17.6447  -30.6581   24.0566 C   0  0  0  0  0  0
  -25.9031  -34.9480   23.5134 C   0  0  0  0  0  0
  -16.5339  -29.9084   23.6327 C   0  0  0  0  0  0
  -16.7257  -28.6505   23.0343 C   0  0  0  0  0  0
  -26.4464  -31.6600   25.0725 C   0  0  0  0  0  0
  -25.3743  -31.3693   26.1484 C   0  0  0  0  0  0
  -27.0284  -30.3043   24.6080 C   0  0  0  0  0  0
  -27.6052  -32.4312   25.7478 C   0  0  0  0  0  0
  -27.5598  -37.1782   24.8440 C   0  0  0  0  0  0
  -21.4138  -29.3033   22.3732 N   0  0  0  0  0  0
  -26.4270  -37.3816   23.9444 N   0  0  0  0  0  0
  -24.6669  -31.0804   22.0991 N   0  0  0  0  0  0
  -23.4191  -28.8202   23.3030 O   0  0  0  0  0  0
  -28.3841  -26.6939   20.1113 O   0  0  0  0  0  0
  -26.5597  -34.8931   22.4697 O   0  0  0  0  0  0
  -23.5332  -32.1425   23.7508 O   0  0  0  0  0  0
  -28.3976  -19.1810   23.3091 C   0  0  0  0  0  0
  -28.9140  -17.9942   22.7541 C   0  0  0  0  0  0
  -28.6063  -20.4185   22.6712 C   0  0  0  0  0  0
  -29.8452  -19.2817   20.9135 C   0  0  0  0  0  0
  -29.6536  -18.0314   21.5512 C   0  0  0  0  0  0
  -29.3322  -20.4816   21.4608 C   0  0  0  0  0  0
  -30.2257  -16.8134   20.9363 C   0  0  0  0  0  0
  -30.0174  -15.5268   21.3045 C   0  0  0  0  0  0
  -29.0439  -24.3454   20.4977 C   0  0  0  0  0  0
  -29.5881  -21.8066   20.7329 C   0  0  0  0  0  0
  -28.8260  -23.0398   21.2825 C   0  0  0  0  0  0
  -28.3045  -25.5870   21.0237 C   0  0  0  0  0  0
  -29.7776  -24.3946   19.5042 O   0  0  0  0  0  0
  -31.4620  -12.3952   19.1124 H   0  0  0  0  0  0
  -30.3139  -11.2851   19.7902 H   0  0  0  0  0  0
  -29.7285  -11.8201   17.4065 H   0  0  0  0  0  0
  -29.6650  -13.5221   17.7839 H   0  0  0  0  0  0
  -27.8059  -11.3353   18.7757 H   0  0  0  0  0  0
  -27.3622  -12.6973   17.7823 H   0  0  0  0  0  0
  -27.7171  -14.2632   19.6166 H   0  0  0  0  0  0
  -28.6818  -11.8920   21.2749 H   0  0  0  0  0  0
  -28.4467  -13.4781   21.9051 H   0  0  0  0  0  0
  -25.2749   -9.5702   22.4763 H   0  0  0  0  0  0
  -24.0025   -7.4620   22.7455 H   0  0  0  0  0  0
  -21.0832   -8.8738   19.8957 H   0  0  0  0  0  0
  -22.3652  -10.9665   19.6173 H   0  0  0  0  0  0
  -21.1994   -7.6150   23.9735 H   0  0  0  0  0  0
  -21.1488   -6.0529   25.9094 H   0  0  0  0  0  0
  -22.0595   -2.7613   23.2864 H   0  0  0  0  0  0
  -22.4088  -11.9927   22.4871 H   0  0  0  0  0  0
  -21.1075  -13.1255   22.2608 H   0  0  0  0  0  0
  -24.6652  -15.8462   20.5325 H   0  0  0  0  0  0
  -26.2968  -15.6317   20.1413 H   0  0  0  0  0  0
  -26.7112  -32.5550   23.1186 H   0  0  0  0  0  0
  -25.0049  -33.9794   25.0482 H   0  0  0  0  0  0
  -22.6911  -31.3074   21.4098 H   0  0  0  0  0  0
  -23.3763  -35.9627   23.3235 H   0  0  0  0  0  0
  -24.3605  -36.8994   22.2061 H   0  0  0  0  0  0
  -23.7190  -37.6485   23.6685 H   0  0  0  0  0  0
  -26.0358  -31.6084   20.5911 H   0  0  0  0  0  0
  -26.8184  -30.8986   21.9747 H   0  0  0  0  0  0
  -28.1062  -29.1283   21.1550 H   0  0  0  0  0  0
  -26.0806  -25.9670   19.0361 H   0  0  0  0  0  0
  -23.9876  -27.2880   19.0374 H   0  0  0  0  0  0
  -23.7143  -30.5945   19.4025 H   0  0  0  0  0  0
  -22.7370  -29.2359   19.8709 H   0  0  0  0  0  0
  -25.1256  -36.1971   25.0826 H   0  0  0  0  0  0
  -20.9955  -28.3224   24.1443 H   0  0  0  0  0  0
  -20.5660  -26.2273   23.3611 H   0  0  0  0  0  0
  -21.6627  -26.7444   22.1211 H   0  0  0  0  0  0
  -19.6892  -25.6298   21.1244 H   0  0  0  0  0  0
  -19.6673  -27.3204   20.6759 H   0  0  0  0  0  0
  -17.4186  -26.6684   21.4027 H   0  0  0  0  0  0
  -18.0305  -26.0062   22.9019 H   0  0  0  0  0  0
  -19.7916  -30.7264   24.2291 H   0  0  0  0  0  0
  -17.4994  -31.6267   24.5157 H   0  0  0  0  0  0
  -15.5339  -30.2992   23.7635 H   0  0  0  0  0  0
  -15.8657  -28.0834   22.7044 H   0  0  0  0  0  0
  -24.5902  -30.7059   25.7817 H   0  0  0  0  0  0
  -24.8951  -32.2844   26.4974 H   0  0  0  0  0  0
  -25.8105  -30.8827   27.0217 H   0  0  0  0  0  0
  -26.2815  -29.6816   24.1141 H   0  0  0  0  0  0
  -27.4066  -29.7267   25.4526 H   0  0  0  0  0  0
  -27.8648  -30.4368   23.9212 H   0  0  0  0  0  0
  -27.2680  -33.3601   26.2092 H   0  0  0  0  0  0
  -28.3835  -32.6894   25.0282 H   0  0  0  0  0  0
  -28.0750  -31.8413   26.5359 H   0  0  0  0  0  0
  -28.2519  -38.0175   24.7644 H   0  0  0  0  0  0
  -28.1191  -36.2724   24.6056 H   0  0  0  0  0  0
  -27.2356  -37.1160   25.8840 H   0  0  0  0  0  0
  -20.9301  -29.8768   21.6964 H   0  0  0  0  0  0
  -26.0155  -38.2872   24.1540 H   0  0  0  0  0  0
  -27.8418  -19.1409   24.2358 H   0  0  0  0  0  0
  -28.7449  -17.0636   23.2757 H   0  0  0  0  0  0
  -28.1990  -21.3086   23.1302 H   0  0  0  0  0  0
  -30.4046  -19.3251   19.9886 H   0  0  0  0  0  0
  -30.8924  -17.0016   20.1050 H   0  0  0  0  0  0
  -29.3593  -15.3118   22.1279 H   0  0  0  0  0  0
  -29.3335  -21.6648   19.6816 H   0  0  0  0  0  0
  -30.6612  -22.0008   20.7620 H   0  0  0  0  0  0
  -27.7557  -22.8352   21.2835 H   0  0  0  0  0  0
  -29.1138  -23.2243   22.3178 H   0  0  0  0  0  0
  -28.7501  -25.8806   21.9743 H   0  0  0  0  0  0
  -27.2708  -25.3081   21.2315 H   0  0  0  0  0  0
  1 25  1  0  0  0
  1 30  2  0  0  0
  1 78  1  0  0  0
  2  3  1  0  0  0
  2 25  1  0  0  0
  2 84  1  0  0  0
  2 85  1  0  0  0
  3  4  1  0  0  0
  3 86  1  0  0  0
  3 87  1  0  0  0
  4  5  1  0  0  0
  4 88  1  0  0  0
  4 89  1  0  0  0
  5  6  1  0  0  0
  5 26  1  0  0  0
  5 90  1  0  0  0
  6 25  1  0  0  0
  6 91  1  0  0  0
  6 92  1  0  0  0
  7  8  2  0  0  0
  7 26  1  0  0  0
  7 29  1  0  0  0
  8  9  1  0  0  0
  8 22  1  0  0  0
  9 10  1  0  0  0
  9 27  2  0  0  0
 10 11  2  0  0  0
 10 15  1  0  0  0
 11 12  1  0  0  0
 11 93  1  0  0  0
 12 13  2  0  0  0
 12 94  1  0  0  0
 13 14  1  0  0  0
 13 31  1  0  0  0
 14 15  2  0  0  0
 14 95  1  0  0  0
 15 96  1  0  0  0
 16 17  2  0  0  0
 16 21  1  0  0  0
 16 31  1  0  0  0
 17 18  1  0  0  0
 17 97  1  0  0  0
 18 19  2  0  0  0
 18 98  1  0  0  0
 19 20  1  0  0  0
 19 24  1  0  0  0
 20 21  2  0  0  0
 20 99  1  0  0  0
 21 23  1  0  0  0
 22 28  1  0  0  0
 22 32  2  0  0  0
 26 27  1  0  0  0
 28100  1  0  0  0
 28101  1  0  0  0
 29102  1  0  0  0
 29103  1  0  0  0
 33 34  1  0  0  0
 33 66  1  0  0  0
 33 70  2  0  0  0
 34 36  1  0  0  0
 34 59  1  0  0  0
 34104  1  0  0  0
 35 44  2  0  0  0
 35 45  1  0  0  0
 35 68  1  0  0  0
 36 56  1  0  0  0
 36105  1  0  0  0
 37 39  1  0  0  0
 37 47  1  0  0  0
 37 66  1  0  0  0
 37106  1  0  0  0
 38 43  2  0  0  0
 38 46  1  0  0  0
 38 47  1  0  0  0
 39 64  1  0  0  0
 39 67  2  0  0  0
 40 52  1  0  0  0
 40 53  2  0  0  0
 40 58  1  0  0  0
 41107  1  0  0  0
 41108  1  0  0  0
 41109  1  0  0  0
 41 48  1  0  0  0
 42 43  1  0  0  0
 42 66  1  0  0  0
 42110  1  0  0  0
 42111  1  0  0  0
 43 44  1  0  0  0
 44112  1  0  0  0
 45 46  2  0  0  0
 45113  1  0  0  0
 46114  1  0  0  0
 47115  1  0  0  0
 47116  1  0  0  0
 48 56  1  0  0  0
 48 65  1  0  0  0
 48117  1  0  0  0
 49 50  1  0  0  0
 49 53  1  0  0  0
 49 64  1  0  0  0
 49118  1  0  0  0
 50 51  1  0  0  0
 50119  1  0  0  0
 50120  1  0  0  0
 51 52  1  0  0  0
 51121  1  0  0  0
 51122  1  0  0  0
 52123  1  0  0  0
 52124  1  0  0  0
 53 54  1  0  0  0
 54 55  2  0  0  0
 54125  1  0  0  0
 55 57  1  0  0  0
 55126  1  0  0  0
 56 69  2  0  0  0
 57 58  2  0  0  0
 57127  1  0  0  0
 58128  1  0  0  0
 59 60  1  0  0  0
 59 61  1  0  0  0
 59 62  1  0  0  0
 60129  1  0  0  0
 60130  1  0  0  0
 60131  1  0  0  0
 61132  1  0  0  0
 61133  1  0  0  0
 61134  1  0  0  0
 62135  1  0  0  0
 62136  1  0  0  0
 62137  1  0  0  0
 63 65  1  0  0  0
 63138  1  0  0  0
 63139  1  0  0  0
 63140  1  0  0  0
 64141  1  0  0  0
 65142  1  0  0  0
 68 82  1  0  0  0
 71 72  2  0  0  0
 71 73  1  0  0  0
 71143  1  0  0  0
 72 75  1  0  0  0
 72144  1  0  0  0
 73 76  2  0  0  0
 73145  1  0  0  0
 74 75  2  0  0  0
 74 76  1  0  0  0
 74146  1  0  0  0
 75 77  1  0  0  0
 76 80  1  0  0  0
 77 78  2  0  0  0
 77147  1  0  0  0
 78148  1  0  0  0
 79 81  1  0  0  0
 79 82  1  0  0  0
 79 83  2  0  0  0
 80 81  1  0  0  0
 80149  1  0  0  0
 80150  1  0  0  0
 81151  1  0  0  0
 81152  1  0  0  0
 82153  1  0  0  0
 82154  1  0  0  0
M  ISO  4   1 100  68 101  78 100  82 101
M  END
> <chiral flag>
0

> <version>
0

> <s_m_source_file>
/data/baiqing/PycharmProjects/Reinvent-master-3.2/result/LINK_invent/BTK/process_docking_weight1_custom_product_contain_oxygen_bond_distance_aromatic_linkinvent_7_9_3/rearranged_h_0131.sdf

> <i_m_source_file_index>
28

> <r_mmod_Potential_Energy-OPLS-2005>
-42.3476715087891

> <r_mmod_Stretch_Energy-OPLS-2005>
36.3030433654785

> <r_mmod_Bend_Energy-OPLS-2005>
91.243049621582

> <r_mmod_Torsional_Energy-OPLS-2005>
199.183517456055

> <r_mmod_Improper_Torsional_Energy-OPLS-2005>
2.53581047058105

> <r_mmod_Van_der_Waal_Energy-OPLS-2005>
156.734222412109

> <r_mmod_Electrostatic_Energy-OPLS-2005>
-327.857116699219

> <r_mmod_Solvation_Energy-OPLS-2005>
-210.790023803711

> <b_mmod_Minimization_Converged-OPLS-2005>
0

> <r_mmod_RMS_Derivative-OPLS-2005>
1.45438706874847

$$$$
28
                    3D
 Structure written by MMmdl.
159167  0  0  1  0            999 V2000
  -30.6207  -14.7486   20.4403 C   0  0  0  0  0  0
  -30.4262  -12.4511   19.4879 C   0  0  0  0  0  0
  -29.5129  -12.5089   18.2437 C   0  0  0  0  0  0
  -28.0377  -12.3355   18.6516 C   0  0  0  0  0  0
  -27.6410  -13.2372   19.8513 C   0  0  2  0  0  0
  -28.6826  -13.1831   20.9907 C   0  0  0  0  0  0
  -25.2500  -13.8212   20.5699 C   0  0  0  0  0  0
  -24.1795  -13.0449   20.9207 C   0  0  0  0  0  0
  -24.6392  -11.6927   20.8742 C   0  0  0  0  0  0
  -23.9069  -10.4299   21.0401 C   0  0  0  0  0  0
  -24.3620   -9.4212   21.9180 C   0  0  0  0  0  0
  -23.6292   -8.2251   22.0754 C   0  0  0  0  0  0
  -22.4274   -8.0289   21.3545 C   0  0  0  0  0  0
  -21.9907   -9.0262   20.4648 C   0  0  0  0  0  0
  -22.7239  -10.2138   20.3055 C   0  0  0  0  0  0
  -21.6857   -6.0735   22.5276 C   0  0  0  0  0  0
  -21.4020   -6.5637   23.8209 C   0  0  0  0  0  0
  -21.3660   -5.6791   24.9171 C   0  0  0  0  0  0
  -21.6043   -4.3054   24.7222 C   0  0  0  0  0  0
  -21.8819   -3.8145   23.4343 C   0  0  0  0  0  0
  -21.9194   -4.6962   22.3399 C   0  0  0  0  0  0
  -22.7815  -13.5229   21.1865 C   0  0  0  0  0  0
  -22.1661   -4.2146   21.0976 F   0  0  0  0  0  0
  -21.5625   -3.4537   25.7735 F   0  0  0  0  0  0
  -29.9871  -13.5246   20.4118 N   0  0  0  0  0  0
  -26.2930  -12.9430   20.3279 N   0  0  0  0  0  0
  -25.9325  -11.6565   20.5751 N   0  0  0  0  0  0
  -22.0461  -12.8221   22.0424 N   0  0  0  0  0  0
  -25.4185  -15.1939   20.4130 N   0  0  0  0  0  0
  -31.8150  -14.8068   20.1337 O   0  0  0  0  0  0
  -21.6645   -6.8882   21.4240 O   0  0  0  0  0  0
  -22.3494  -14.5527   20.6705 O   0  0  0  0  0  0
  -24.6330  -31.8549   23.1991 C   0  0  0  0  0  0
  -25.9150  -32.4750   23.8336 C   0  0  1  0  0  0
  -27.2112  -27.2466   20.1274 C   0  0  0  0  0  0
  -25.5941  -33.8554   24.2254 N   0  0  0  0  0  0
  -23.4301  -30.4794   21.5433 C   0  0  2  0  0  0
  -24.8761  -28.9313   20.1074 C   0  0  0  0  0  0
  -22.7513  -29.4598   22.4903 C   0  0  0  0  0  0
  -18.0295  -28.1387   22.8481 C   0  0  0  0  0  0
  -24.1491  -36.7287   23.2639 C   0  0  0  0  0  0
  -25.9792  -30.7620   21.3846 C   0  0  0  0  0  0
  -26.0498  -29.3860   20.7220 C   0  0  0  0  0  0
  -27.2206  -28.5565   20.7222 C   0  0  0  0  0  0
  -26.0148  -26.8751   19.4692 C   0  0  0  0  0  0
  -24.8653  -27.6851   19.4687 C   0  0  0  0  0  0
  -23.6487  -29.8203   20.1575 C   0  0  0  0  0  0
  -25.4117  -36.3067   24.0322 C   0  0  1  0  0  0
  -20.5901  -28.3702   23.1259 C   0  0  2  0  0  0
  -20.6783  -26.9415   22.5405 C   0  0  0  0  0  0
  -19.5757  -26.6377   21.5211 C   0  0  0  0  0  0
  -18.1939  -26.7926   22.1625 C   0  0  0  0  0  0
  -19.1549  -28.8861   23.2865 C   0  0  0  0  0  0
  -18.9468  -30.1461   23.8884 C   0  0  0  0  0  0
  -17.6466  -30.6585   24.0561 C   0  0  0  0  0  0
  -25.9059  -34.9436   23.5091 C   0  0  0  0  0  0
  -16.5358  -29.9081   23.6331 C   0  0  0  0  0  0
  -16.7282  -28.6500   23.0351 C   0  0  0  0  0  0
  -26.4503  -31.6583   25.0738 C   0  0  0  0  0  0
  -25.3713  -31.3756   26.1453 C   0  0  0  0  0  0
  -27.0351  -30.2987   24.6260 C   0  0  0  0  0  0
  -27.6049  -32.4333   25.7511 C   0  0  0  0  0  0
  -27.5580  -37.1798   24.8460 C   0  0  0  0  0  0
  -21.4218  -29.3046   22.3645 N   0  0  0  0  0  0
  -26.4292  -37.3765   23.9403 N   0  0  0  0  0  0
  -24.6997  -31.0501   22.0980 N   0  0  0  0  0  0
  -23.4207  -28.8130   23.2999 O   0  0  0  0  0  0
  -28.2798  -26.3148   20.2065 O   0  0  0  0  0  0
  -26.5632  -34.8913   22.4661 O   0  0  0  0  0  0
  -23.5476  -32.1380   23.7276 O   0  0  0  0  0  0
  -30.9319  -17.4791   19.0113 C   0  0  0  0  0  0
  -29.5521  -18.5342   20.6900 C   0  0  0  0  0  0
  -31.2428  -18.7500   18.4851 C   0  0  0  0  0  0
  -30.7246  -19.9444   19.0623 C   0  0  0  0  0  0
  -30.1189  -17.3029   20.1496 C   0  0  0  0  0  0
  -29.8176  -19.8737   20.1626 C   0  0  0  0  0  0
  -28.9318  -23.6860   20.4443 C   0  0  0  0  0  0
  -32.1942  -18.7887   17.2957 C   0  0  0  0  0  0
  -32.4465  -21.7800   19.4003 C   0  0  0  0  0  0
  -31.2614  -21.2898   18.5597 C   0  0  0  0  0  0
  -27.9515  -24.8588   19.9562 C   0  0  0  0  0  0
  -28.5674  -22.1464   20.1293 C   0  0  0  0  0  0
  -29.8750  -15.9107   20.6424 N   0  0  0  0  0  0
  -29.9654  -23.9641   21.0626 O   0  0  0  0  0  0
  -29.3654  -21.0699   20.8038 O   0  0  0  0  0  0
  -31.4709  -12.5572   19.1912 H   0  0  0  0  0  0
  -30.3546  -11.4776   19.9752 H   0  0  0  0  0  0
  -29.7969  -11.7359   17.5282 H   0  0  0  0  0  0
  -29.6449  -13.4640   17.7332 H   0  0  0  0  0  0
  -27.8909  -11.2873   18.9132 H   0  0  0  0  0  0
  -27.3850  -12.5305   17.8000 H   0  0  0  0  0  0
  -27.6332  -14.2573   19.4664 H   0  0  0  0  0  0
  -28.7131  -12.1914   21.4443 H   0  0  0  0  0  0
  -28.4168  -13.8772   21.7894 H   0  0  0  0  0  0
  -25.2761   -9.5688   22.4755 H   0  0  0  0  0  0
  -23.9997   -7.4642   22.7473 H   0  0  0  0  0  0
  -21.0836   -8.8781   19.8955 H   0  0  0  0  0  0
  -22.3694  -10.9677   19.6165 H   0  0  0  0  0  0
  -21.2018   -7.6146   23.9712 H   0  0  0  0  0  0
  -21.1482   -6.0521   25.9073 H   0  0  0  0  0  0
  -22.0597   -2.7607   23.2846 H   0  0  0  0  0  0
  -22.4084  -11.9894   22.4824 H   0  0  0  0  0  0
  -21.1079  -13.1249   22.2632 H   0  0  0  0  0  0
  -24.6496  -15.8461   20.5224 H   0  0  0  0  0  0
  -26.2652  -15.6348   20.0763 H   0  0  0  0  0  0
  -26.7218  -32.5388   23.1077 H   0  0  0  0  0  0
  -25.0077  -33.9689   25.0392 H   0  0  0  0  0  0
  -22.7274  -31.3028   21.4001 H   0  0  0  0  0  0
  -23.3747  -35.9626   23.3303 H   0  0  0  0  0  0
  -24.3582  -36.8911   22.2054 H   0  0  0  0  0  0
  -23.7254  -37.6492   23.6666 H   0  0  0  0  0  0
  -26.1268  -31.5246   20.6188 H   0  0  0  0  0  0
  -26.8535  -30.8044   22.0225 H   0  0  0  0  0  0
  -28.1148  -28.8956   21.2260 H   0  0  0  0  0  0
  -25.9242  -25.9290   18.9575 H   0  0  0  0  0  0
  -23.9697  -27.3353   18.9735 H   0  0  0  0  0  0
  -23.7762  -30.6006   19.4061 H   0  0  0  0  0  0
  -22.7658  -29.2576   19.8485 H   0  0  0  0  0  0
  -25.1300  -36.1913   25.0814 H   0  0  0  0  0  0
  -20.9993  -28.3283   24.1380 H   0  0  0  0  0  0
  -20.5681  -26.2312   23.3613 H   0  0  0  0  0  0
  -21.6652  -26.7434   22.1201 H   0  0  0  0  0  0
  -19.6919  -25.6282   21.1253 H   0  0  0  0  0  0
  -19.6692  -27.3176   20.6731 H   0  0  0  0  0  0
  -17.4205  -26.6666   21.4032 H   0  0  0  0  0  0
  -18.0343  -26.0071   22.9025 H   0  0  0  0  0  0
  -19.7943  -30.7282   24.2245 H   0  0  0  0  0  0
  -17.5019  -31.6262   24.5165 H   0  0  0  0  0  0
  -15.5359  -30.2979   23.7656 H   0  0  0  0  0  0
  -15.8683  -28.0812   22.7074 H   0  0  0  0  0  0
  -24.5877  -30.7119   25.7782 H   0  0  0  0  0  0
  -24.8920  -32.2939   26.4857 H   0  0  0  0  0  0
  -25.8013  -30.8941   27.0245 H   0  0  0  0  0  0
  -26.2948  -29.6734   24.1257 H   0  0  0  0  0  0
  -27.3976  -29.7257   25.4804 H   0  0  0  0  0  0
  -27.8853  -30.4239   23.9551 H   0  0  0  0  0  0
  -27.2643  -33.3631   26.2081 H   0  0  0  0  0  0
  -28.3860  -32.6903   25.0343 H   0  0  0  0  0  0
  -28.0721  -31.8472   26.5436 H   0  0  0  0  0  0
  -28.2592  -38.0099   24.7506 H   0  0  0  0  0  0
  -28.1083  -36.2631   24.6286 H   0  0  0  0  0  0
  -27.2301  -37.1446   25.8864 H   0  0  0  0  0  0
  -20.9402  -29.8783   21.6863 H   0  0  0  0  0  0
  -26.0171  -38.2840   24.1398 H   0  0  0  0  0  0
  -31.3563  -16.6158   18.5192 H   0  0  0  0  0  0
  -28.9118  -18.4584   21.5572 H   0  0  0  0  0  0
  -32.5477  -17.7933   17.0255 H   0  0  0  0  0  0
  -33.0752  -19.3902   17.5197 H   0  0  0  0  0  0
  -31.6994  -19.2047   16.4176 H   0  0  0  0  0  0
  -32.8233  -22.7310   19.0234 H   0  0  0  0  0  0
  -33.2694  -21.0651   19.3807 H   0  0  0  0  0  0
  -32.1561  -21.9274   20.4411 H   0  0  0  0  0  0
  -30.5013  -22.0583   18.5386 H   0  0  0  0  0  0
  -31.5640  -21.2292   17.5158 H   0  0  0  0  0  0
  -26.9932  -24.6411   20.4286 H   0  0  0  0  0  0
  -27.8062  -24.7240   18.8842 H   0  0  0  0  0  0
  -28.5281  -21.9892   19.0526 H   0  0  0  0  0  0
  -27.5379  -22.0080   20.4597 H   0  0  0  0  0  0
  -28.9709  -15.7564   21.0643 H   0  0  0  0  0  0
  1 25  1  0  0  0
  1 30  2  0  0  0
  1 83  1  0  0  0
  2  3  1  0  0  0
  2 25  1  0  0  0
  2 86  1  0  0  0
  2 87  1  0  0  0
  3  4  1  0  0  0
  3 88  1  0  0  0
  3 89  1  0  0  0
  4  5  1  0  0  0
  4 90  1  0  0  0
  4 91  1  0  0  0
  5  6  1  0  0  0
  5 26  1  0  0  0
  5 92  1  0  0  0
  6 25  1  0  0  0
  6 93  1  0  0  0
  6 94  1  0  0  0
  7  8  2  0  0  0
  7 26  1  0  0  0
  7 29  1  0  0  0
  8  9  1  0  0  0
  8 22  1  0  0  0
  9 10  1  0  0  0
  9 27  2  0  0  0
 10 11  2  0  0  0
 10 15  1  0  0  0
 11 12  1  0  0  0
 11 95  1  0  0  0
 12 13  2  0  0  0
 12 96  1  0  0  0
 13 14  1  0  0  0
 13 31  1  0  0  0
 14 15  2  0  0  0
 14 97  1  0  0  0
 15 98  1  0  0  0
 16 17  2  0  0  0
 16 21  1  0  0  0
 16 31  1  0  0  0
 17 18  1  0  0  0
 17 99  1  0  0  0
 18 19  2  0  0  0
 18100  1  0  0  0
 19 20  1  0  0  0
 19 24  1  0  0  0
 20 21  2  0  0  0
 20101  1  0  0  0
 21 23  1  0  0  0
 22 28  1  0  0  0
 22 32  2  0  0  0
 26 27  1  0  0  0
 28102  1  0  0  0
 28103  1  0  0  0
 29104  1  0  0  0
 29105  1  0  0  0
 33 34  1  0  0  0
 33 66  1  0  0  0
 33 70  2  0  0  0
 34 36  1  0  0  0
 34 59  1  0  0  0
 34106  1  0  0  0
 35 44  2  0  0  0
 35 45  1  0  0  0
 35 68  1  0  0  0
 36 56  1  0  0  0
 36107  1  0  0  0
 37 39  1  0  0  0
 37 47  1  0  0  0
 37 66  1  0  0  0
 37108  1  0  0  0
 38 43  2  0  0  0
 38 46  1  0  0  0
 38 47  1  0  0  0
 39 64  1  0  0  0
 39 67  2  0  0  0
 40 52  1  0  0  0
 40 53  2  0  0  0
 40 58  1  0  0  0
 41109  1  0  0  0
 41110  1  0  0  0
 41111  1  0  0  0
 41 48  1  0  0  0
 42 43  1  0  0  0
 42 66  1  0  0  0
 42112  1  0  0  0
 42113  1  0  0  0
 43 44  1  0  0  0
 44114  1  0  0  0
 45 46  2  0  0  0
 45115  1  0  0  0
 46116  1  0  0  0
 47117  1  0  0  0
 47118  1  0  0  0
 48 56  1  0  0  0
 48 65  1  0  0  0
 48119  1  0  0  0
 49 50  1  0  0  0
 49 53  1  0  0  0
 49 64  1  0  0  0
 49120  1  0  0  0
 50 51  1  0  0  0
 50121  1  0  0  0
 50122  1  0  0  0
 51 52  1  0  0  0
 51123  1  0  0  0
 51124  1  0  0  0
 52125  1  0  0  0
 52126  1  0  0  0
 53 54  1  0  0  0
 54 55  2  0  0  0
 54127  1  0  0  0
 55 57  1  0  0  0
 55128  1  0  0  0
 56 69  2  0  0  0
 57 58  2  0  0  0
 57129  1  0  0  0
 58130  1  0  0  0
 59 60  1  0  0  0
 59 61  1  0  0  0
 59 62  1  0  0  0
 60131  1  0  0  0
 60132  1  0  0  0
 60133  1  0  0  0
 61134  1  0  0  0
 61135  1  0  0  0
 61136  1  0  0  0
 62137  1  0  0  0
 62138  1  0  0  0
 62139  1  0  0  0
 63 65  1  0  0  0
 63140  1  0  0  0
 63141  1  0  0  0
 63142  1  0  0  0
 64143  1  0  0  0
 65144  1  0  0  0
 68 81  1  0  0  0
 71 73  2  0  0  0
 71 75  1  0  0  0
 71145  1  0  0  0
 72 75  2  0  0  0
 72 76  1  0  0  0
 72146  1  0  0  0
 73 74  1  0  0  0
 73 78  1  0  0  0
 74 76  2  0  0  0
 74 80  1  0  0  0
 75 83  1  0  0  0
 76 85  1  0  0  0
 77 81  1  0  0  0
 77 82  1  0  0  0
 77 84  2  0  0  0
 78147  1  0  0  0
 78148  1  0  0  0
 78149  1  0  0  0
 79 80  1  0  0  0
 79150  1  0  0  0
 79151  1  0  0  0
 79152  1  0  0  0
 80153  1  0  0  0
 80154  1  0  0  0
 81155  1  0  0  0
 81156  1  0  0  0
 82 85  1  0  0  0
 82157  1  0  0  0
 82158  1  0  0  0
 83159  1  0  0  0
M  ISO  4   1 100  68 101  81 101  83 100
M  END
> <chiral flag>
0

> <version>
0

> <s_m_source_file>
/data/baiqing/PycharmProjects/Reinvent-master-3.2/result/LINK_invent/BTK/process_docking_weight1_custom_product_contain_oxygen_bond_distance_aromatic_linkinvent_7_9_3/rearranged_h_0131.sdf

> <i_m_source_file_index>
29

> <r_mmod_Potential_Energy-OPLS-2005>
247.068954467773

> <r_mmod_Stretch_Energy-OPLS-2005>
138.050018310547

> <r_mmod_Bend_Energy-OPLS-2005>
170.537231445312

> <r_mmod_Torsional_Energy-OPLS-2005>
248.700073242188

> <r_mmod_Improper_Torsional_Energy-OPLS-2005>
5.30030870437622

> <r_mmod_Van_der_Waal_Energy-OPLS-2005>
149.907638549805

> <r_mmod_Electrostatic_Energy-OPLS-2005>
-319.364288330078

> <r_mmod_Solvation_Energy-OPLS-2005>
-240.311508178711

> <b_mmod_Minimization_Converged-OPLS-2005>
0

> <r_mmod_RMS_Derivative-OPLS-2005>
0.71385931968689

$$$$
29
                    3D
 Structure written by MMmdl.
166174  0  0  1  0            999 V2000
  -30.7313  -14.4156   20.6130 C   0  0  0  0  0  0
  -30.4104  -12.2859   19.4054 C   0  0  0  0  0  0
  -29.4842  -12.5299   18.1982 C   0  0  0  0  0  0
  -28.0051  -12.3868   18.6102 C   0  0  0  0  0  0
  -27.6633  -13.2061   19.8810 C   0  0  2  0  0  0
  -28.7057  -12.9509   20.9912 C   0  0  0  0  0  0
  -25.2585  -13.8141   20.5698 C   0  0  0  0  0  0
  -24.1837  -13.0418   20.9177 C   0  0  0  0  0  0
  -24.6415  -11.6893   20.8749 C   0  0  0  0  0  0
  -23.9081  -10.4285   21.0434 C   0  0  0  0  0  0
  -24.3622   -9.4187   21.9199 C   0  0  0  0  0  0
  -23.6279   -8.2245   22.0767 C   0  0  0  0  0  0
  -22.4265   -8.0295   21.3562 C   0  0  0  0  0  0
  -21.9915   -9.0251   20.4659 C   0  0  0  0  0  0
  -22.7260  -10.2120   20.3073 C   0  0  0  0  0  0
  -21.6848   -6.0745   22.5277 C   0  0  0  0  0  0
  -21.4009   -6.5648   23.8210 C   0  0  0  0  0  0
  -21.3659   -5.6801   24.9168 C   0  0  0  0  0  0
  -21.6047   -4.3064   24.7232 C   0  0  0  0  0  0
  -21.8810   -3.8165   23.4351 C   0  0  0  0  0  0
  -21.9187   -4.6976   22.3401 C   0  0  0  0  0  0
  -22.7849  -13.5204   21.1835 C   0  0  0  0  0  0
  -22.1661   -4.2165   21.0982 F   0  0  0  0  0  0
  -21.5630   -3.4548   25.7746 F   0  0  0  0  0  0
  -30.0405  -13.2543   20.4499 N   0  0  0  0  0  0
  -26.3037  -12.9319   20.3403 N   0  0  0  0  0  0
  -25.9334  -11.6475   20.5780 N   0  0  0  0  0  0
  -22.0509  -12.8180   22.0401 N   0  0  0  0  0  0
  -25.4295  -15.1867   20.4114 N   0  0  0  0  0  0
  -31.8164  -14.6109   20.0571 O   0  0  0  0  0  0
  -21.6631   -6.8893   21.4241 O   0  0  0  0  0  0
  -22.3514  -14.5520   20.6724 O   0  0  0  0  0  0
  -24.6133  -31.8705   23.2134 C   0  0  0  0  0  0
  -25.9039  -32.4831   23.8414 C   0  0  1  0  0  0
  -27.2361  -27.4614   20.0668 C   0  0  0  0  0  0
  -25.5911  -33.8627   24.2357 N   0  0  0  0  0  0
  -23.3989  -30.4954   21.5530 C   0  0  2  0  0  0
  -24.8429  -28.9652   20.1167 C   0  0  0  0  0  0
  -22.7399  -29.4673   22.4997 C   0  0  0  0  0  0
  -18.0277  -28.1375   22.8489 C   0  0  0  0  0  0
  -24.1486  -36.7311   23.2639 C   0  0  0  0  0  0
  -25.9267  -30.8407   21.3641 C   0  0  0  0  0  0
  -26.0032  -29.4759   20.7127 C   0  0  0  0  0  0
  -27.1995  -28.7253   20.6965 C   0  0  0  0  0  0
  -26.0465  -26.9478   19.5012 C   0  0  0  0  0  0
  -24.8573  -27.6964   19.5151 C   0  0  0  0  0  0
  -23.6059  -29.8311   20.1661 C   0  0  0  0  0  0
  -25.4110  -36.3117   24.0342 C   0  0  1  0  0  0
  -20.5863  -28.3662   23.1312 C   0  0  2  0  0  0
  -20.6764  -26.9399   22.5410 C   0  0  0  0  0  0
  -19.5746  -26.6384   21.5207 C   0  0  0  0  0  0
  -18.1918  -26.7936   22.1603 C   0  0  0  0  0  0
  -19.1522  -28.8841   23.2896 C   0  0  0  0  0  0
  -18.9455  -30.1448   23.8899 C   0  0  0  0  0  0
  -17.6448  -30.6580   24.0572 C   0  0  0  0  0  0
  -25.9043  -34.9481   23.5151 C   0  0  0  0  0  0
  -16.5344  -29.9078   23.6322 C   0  0  0  0  0  0
  -16.7264  -28.6503   23.0342 C   0  0  0  0  0  0
  -26.4465  -31.6590   25.0728 C   0  0  0  0  0  0
  -25.3730  -31.3657   26.1463 C   0  0  0  0  0  0
  -27.0312  -30.3056   24.6062 C   0  0  0  0  0  0
  -27.6043  -32.4294   25.7497 C   0  0  0  0  0  0
  -27.5589  -37.1812   24.8472 C   0  0  0  0  0  0
  -21.4136  -29.3035   22.3730 N   0  0  0  0  0  0
  -26.4295  -37.3801   23.9416 N   0  0  0  0  0  0
  -24.6644  -31.0820   22.1029 N   0  0  0  0  0  0
  -23.4190  -28.8214   23.3031 O   0  0  0  0  0  0
  -28.4197  -26.7553   20.0421 O   0  0  0  0  0  0
  -26.5582  -34.8924   22.4696 O   0  0  0  0  0  0
  -23.5321  -32.1438   23.7537 O   0  0  0  0  0  0
  -27.1793  -19.9290   19.0838 C   0  0  0  0  0  0
  -27.7000  -18.8512   19.8198 C   0  0  0  0  0  0
  -29.6045  -20.2160   20.4497 C   0  0  0  0  0  0
  -29.0900  -21.3176   19.7187 C   0  0  0  0  0  0
  -27.8680  -21.1580   18.9987 C   0  0  0  0  0  0
  -28.9365  -18.9733   20.4874 C   0  0  0  0  0  0
  -29.9613  -22.5284   19.6467 C   0  0  0  0  0  0
  -27.4178  -23.2726   15.7465 C   0  0  0  0  0  0
  -27.2877  -22.2117   18.0564 C   0  0  0  0  0  0
  -29.3775  -23.8983   20.0251 C   0  0  0  0  0  0
  -30.1677  -15.5856   21.4391 C   0  0  0  0  0  0
  -28.0047  -22.2267   16.6986 C   0  0  0  0  0  0
  -29.8171  -25.0196   19.0549 C   0  0  0  0  0  0
  -29.4889  -16.6494   20.5474 C   0  0  0  0  0  0
  -28.7499  -26.0929   18.8205 C   0  0  0  0  0  0
  -31.1580  -22.4539   19.3531 O   0  0  0  0  0  0
  -29.5139  -17.9321   21.1840 O   0  0  0  0  0  0
  -31.4562  -12.3626   19.1054 H   0  0  0  0  0  0
  -30.2852  -11.2674   19.7774 H   0  0  0  0  0  0
  -29.7150  -11.8355   17.3892 H   0  0  0  0  0  0
  -29.6594  -13.5280   17.7957 H   0  0  0  0  0  0
  -27.8096  -11.3289   18.7877 H   0  0  0  0  0  0
  -27.3558  -12.6874   17.7894 H   0  0  0  0  0  0
  -27.7162  -14.2585   19.6051 H   0  0  0  0  0  0
  -28.6731  -11.9025   21.2926 H   0  0  0  0  0  0
  -28.4625  -13.5041   21.8939 H   0  0  0  0  0  0
  -25.2778   -9.5637   22.4747 H   0  0  0  0  0  0
  -23.9984   -7.4632   22.7478 H   0  0  0  0  0  0
  -21.0862   -8.8785   19.8933 H   0  0  0  0  0  0
  -22.3767  -10.9650   19.6175 H   0  0  0  0  0  0
  -21.1995   -7.6152   23.9724 H   0  0  0  0  0  0
  -21.1482   -6.0538   25.9072 H   0  0  0  0  0  0
  -22.0590   -2.7629   23.2865 H   0  0  0  0  0  0
  -22.4172  -11.9836   22.4747 H   0  0  0  0  0  0
  -21.1138  -13.1204   22.2672 H   0  0  0  0  0  0
  -24.6585  -15.8381   20.5073 H   0  0  0  0  0  0
  -26.2769  -15.6205   20.0720 H   0  0  0  0  0  0
  -26.7116  -32.5562   23.1185 H   0  0  0  0  0  0
  -25.0109  -33.9792   25.0530 H   0  0  0  0  0  0
  -22.6871  -31.3117   21.4173 H   0  0  0  0  0  0
  -23.3750  -35.9641   23.3310 H   0  0  0  0  0  0
  -24.3580  -36.8910   22.2052 H   0  0  0  0  0  0
  -23.7229  -37.6513   23.6644 H   0  0  0  0  0  0
  -26.0363  -31.6061   20.5947 H   0  0  0  0  0  0
  -26.8175  -30.8950   21.9786 H   0  0  0  0  0  0
  -28.0980  -29.1232   21.1476 H   0  0  0  0  0  0
  -26.0091  -25.9631   19.0598 H   0  0  0  0  0  0
  -23.9615  -27.2899   19.0661 H   0  0  0  0  0  0
  -23.7139  -30.6072   19.4075 H   0  0  0  0  0  0
  -22.7291  -29.2514   19.8696 H   0  0  0  0  0  0
  -25.1282  -36.1994   25.0831 H   0  0  0  0  0  0
  -20.9952  -28.3232   24.1435 H   0  0  0  0  0  0
  -20.5670  -26.2274   23.3598 H   0  0  0  0  0  0
  -21.6638  -26.7445   22.1215 H   0  0  0  0  0  0
  -19.6907  -25.6299   21.1236 H   0  0  0  0  0  0
  -19.6689  -27.3196   20.6742 H   0  0  0  0  0  0
  -17.4201  -26.6704   21.3991 H   0  0  0  0  0  0
  -18.0291  -26.0063   22.8978 H   0  0  0  0  0  0
  -19.7925  -30.7273   24.2261 H   0  0  0  0  0  0
  -17.5003  -31.6255   24.5177 H   0  0  0  0  0  0
  -15.5348  -30.2979   23.7646 H   0  0  0  0  0  0
  -15.8671  -28.0835   22.7032 H   0  0  0  0  0  0
  -24.5939  -30.6965   25.7793 H   0  0  0  0  0  0
  -24.8865  -32.2789   26.4901 H   0  0  0  0  0  0
  -25.8082  -30.8841   27.0230 H   0  0  0  0  0  0
  -26.2857  -29.6815   24.1119 H   0  0  0  0  0  0
  -27.4131  -29.7274   25.4489 H   0  0  0  0  0  0
  -27.8663  -30.4423   23.9186 H   0  0  0  0  0  0
  -27.2666  -33.3549   26.2170 H   0  0  0  0  0  0
  -28.3806  -32.6921   25.0305 H   0  0  0  0  0  0
  -28.0772  -31.8364   26.5335 H   0  0  0  0  0  0
  -28.2610  -38.0104   24.7521 H   0  0  0  0  0  0
  -28.1074  -36.2637   24.6298 H   0  0  0  0  0  0
  -27.2304  -37.1472   25.8870 H   0  0  0  0  0  0
  -20.9299  -29.8762   21.6954 H   0  0  0  0  0  0
  -26.0193  -38.2879   24.1404 H   0  0  0  0  0  0
  -26.2489  -19.7849   18.5477 H   0  0  0  0  0  0
  -27.1322  -17.9340   19.8504 H   0  0  0  0  0  0
  -30.5497  -20.3144   20.9648 H   0  0  0  0  0  0
  -27.8471  -23.1743   14.7473 H   0  0  0  0  0  0
  -27.6216  -24.2845   16.1008 H   0  0  0  0  0  0
  -26.3373  -23.1541   15.6591 H   0  0  0  0  0  0
  -27.2810  -23.2060   18.4929 H   0  0  0  0  0  0
  -26.2317  -21.9909   17.8897 H   0  0  0  0  0  0
  -29.7091  -24.1451   21.0329 H   0  0  0  0  0  0
  -28.2941  -23.8406   20.0984 H   0  0  0  0  0  0
  -29.5136  -15.2766   22.2503 H   0  0  0  0  0  0
  -31.0293  -16.0420   21.9263 H   0  0  0  0  0  0
  -29.0693  -22.4185   16.8308 H   0  0  0  0  0  0
  -27.9277  -21.2396   16.2418 H   0  0  0  0  0  0
  -30.0687  -24.5987   18.0793 H   0  0  0  0  0  0
  -30.7357  -25.4789   19.4227 H   0  0  0  0  0  0
  -28.4702  -16.3288   20.3393 H   0  0  0  0  0  0
  -29.9985  -16.7331   19.5852 H   0  0  0  0  0  0
  -27.9073  -25.6194   18.3204 H   0  0  0  0  0  0
  -29.1358  -26.8374   18.1222 H   0  0  0  0  0  0
  1 25  1  0  0  0
  1 30  2  0  0  0
  1 81  1  0  0  0
  2  3  1  0  0  0
  2 25  1  0  0  0
  2 88  1  0  0  0
  2 89  1  0  0  0
  3  4  1  0  0  0
  3 90  1  0  0  0
  3 91  1  0  0  0
  4  5  1  0  0  0
  4 92  1  0  0  0
  4 93  1  0  0  0
  5  6  1  0  0  0
  5 26  1  0  0  0
  5 94  1  0  0  0
  6 25  1  0  0  0
  6 95  1  0  0  0
  6 96  1  0  0  0
  7  8  2  0  0  0
  7 26  1  0  0  0
  7 29  1  0  0  0
  8  9  1  0  0  0
  8 22  1  0  0  0
  9 10  1  0  0  0
  9 27  2  0  0  0
 10 11  2  0  0  0
 10 15  1  0  0  0
 11 12  1  0  0  0
 11 97  1  0  0  0
 12 13  2  0  0  0
 12 98  1  0  0  0
 13 14  1  0  0  0
 13 31  1  0  0  0
 14 15  2  0  0  0
 14 99  1  0  0  0
 15100  1  0  0  0
 16 17  2  0  0  0
 16 21  1  0  0  0
 16 31  1  0  0  0
 17 18  1  0  0  0
 17101  1  0  0  0
 18 19  2  0  0  0
 18102  1  0  0  0
 19 20  1  0  0  0
 19 24  1  0  0  0
 20 21  2  0  0  0
 20103  1  0  0  0
 21 23  1  0  0  0
 22 28  1  0  0  0
 22 32  2  0  0  0
 26 27  1  0  0  0
 28104  1  0  0  0
 28105  1  0  0  0
 29106  1  0  0  0
 29107  1  0  0  0
 33 34  1  0  0  0
 33 66  1  0  0  0
 33 70  2  0  0  0
 34 36  1  0  0  0
 34 59  1  0  0  0
 34108  1  0  0  0
 35 44  2  0  0  0
 35 45  1  0  0  0
 35 68  1  0  0  0
 36 56  1  0  0  0
 36109  1  0  0  0
 37 39  1  0  0  0
 37 47  1  0  0  0
 37 66  1  0  0  0
 37110  1  0  0  0
 38 43  2  0  0  0
 38 46  1  0  0  0
 38 47  1  0  0  0
 39 64  1  0  0  0
 39 67  2  0  0  0
 40 52  1  0  0  0
 40 53  2  0  0  0
 40 58  1  0  0  0
 41111  1  0  0  0
 41112  1  0  0  0
 41113  1  0  0  0
 41 48  1  0  0  0
 42 43  1  0  0  0
 42 66  1  0  0  0
 42114  1  0  0  0
 42115  1  0  0  0
 43 44  1  0  0  0
 44116  1  0  0  0
 45 46  2  0  0  0
 45117  1  0  0  0
 46118  1  0  0  0
 47119  1  0  0  0
 47120  1  0  0  0
 48 56  1  0  0  0
 48 65  1  0  0  0
 48121  1  0  0  0
 49 50  1  0  0  0
 49 53  1  0  0  0
 49 64  1  0  0  0
 49122  1  0  0  0
 50 51  1  0  0  0
 50123  1  0  0  0
 50124  1  0  0  0
 51 52  1  0  0  0
 51125  1  0  0  0
 51126  1  0  0  0
 52127  1  0  0  0
 52128  1  0  0  0
 53 54  1  0  0  0
 54 55  2  0  0  0
 54129  1  0  0  0
 55 57  1  0  0  0
 55130  1  0  0  0
 56 69  2  0  0  0
 57 58  2  0  0  0
 57131  1  0  0  0
 58132  1  0  0  0
 59 60  1  0  0  0
 59 61  1  0  0  0
 59 62  1  0  0  0
 60133  1  0  0  0
 60134  1  0  0  0
 60135  1  0  0  0
 61136  1  0  0  0
 61137  1  0  0  0
 61138  1  0  0  0
 62139  1  0  0  0
 62140  1  0  0  0
 62141  1  0  0  0
 63 65  1  0  0  0
 63142  1  0  0  0
 63143  1  0  0  0
 63144  1  0  0  0
 64145  1  0  0  0
 65146  1  0  0  0
 68 85  1  0  0  0
 71 72  2  0  0  0
 71 75  1  0  0  0
 71147  1  0  0  0
 72 76  1  0  0  0
 72148  1  0  0  0
 73 74  1  0  0  0
 73 76  2  0  0  0
 73149  1  0  0  0
 74 75  2  0  0  0
 74 77  1  0  0  0
 75 79  1  0  0  0
 76 87  1  0  0  0
 77 80  1  0  0  0
 77 86  2  0  0  0
 78 82  1  0  0  0
 78150  1  0  0  0
 78151  1  0  0  0
 78152  1  0  0  0
 79 82  1  0  0  0
 79153  1  0  0  0
 79154  1  0  0  0
 80 83  1  0  0  0
 80155  1  0  0  0
 80156  1  0  0  0
 81 84  1  0  0  0
 81157  1  0  0  0
 81158  1  0  0  0
 82159  1  0  0  0
 82160  1  0  0  0
 83 85  1  0  0  0
 83161  1  0  0  0
 83162  1  0  0  0
 84 87  1  0  0  0
 84163  1  0  0  0
 84164  1  0  0  0
 85165  1  0  0  0
 85166  1  0  0  0
M  ISO  4   1 100  68 101  81 100  85 101
M  END
> <chiral flag>
0

> <version>
0

> <s_m_source_file>
/data/baiqing/PycharmProjects/Reinvent-master-3.2/result/LINK_invent/BTK/process_docking_weight1_custom_product_contain_oxygen_bond_distance_aromatic_linkinvent_7_9_3/rearranged_h_0131.sdf

> <i_m_source_file_index>
30

> <r_mmod_Potential_Energy-OPLS-2005>
-7.65342712402344

> <r_mmod_Stretch_Energy-OPLS-2005>
35.9097557067871

> <r_mmod_Bend_Energy-OPLS-2005>
103.219078063965

> <r_mmod_Torsional_Energy-OPLS-2005>
245.76545715332

> <r_mmod_Improper_Torsional_Energy-OPLS-2005>
3.22017955780029

> <r_mmod_Van_der_Waal_Energy-OPLS-2005>
151.432098388672

> <r_mmod_Electrostatic_Energy-OPLS-2005>
-348.540130615234

> <r_mmod_Solvation_Energy-OPLS-2005>
-207.009613037109

> <b_mmod_Minimization_Converged-OPLS-2005>
0

> <r_mmod_RMS_Derivative-OPLS-2005>
3.02265167236328

$$$$
30
                    3D
 Structure written by MMmdl.
160169  0  0  1  0            999 V2000
  -30.6612  -14.5372   20.4935 C   0  0  0  0  0  0
  -30.4180  -12.3269   19.4346 C   0  0  0  0  0  0
  -29.4917  -12.4979   18.2127 C   0  0  0  0  0  0
  -28.0142  -12.3451   18.6276 C   0  0  0  0  0  0
  -27.6482  -13.1949   19.8734 C   0  0  2  0  0  0
  -28.6984  -13.0434   20.9992 C   0  0  0  0  0  0
  -25.2572  -13.8117   20.5746 C   0  0  0  0  0  0
  -24.1810  -13.0414   20.9211 C   0  0  0  0  0  0
  -24.6342  -11.6877   20.8755 C   0  0  0  0  0  0
  -23.9001  -10.4287   21.0423 C   0  0  0  0  0  0
  -24.3569   -9.4203   21.9192 C   0  0  0  0  0  0
  -23.6248   -8.2235   22.0743 C   0  0  0  0  0  0
  -22.4238   -8.0263   21.3527 C   0  0  0  0  0  0
  -21.9880   -9.0243   20.4630 C   0  0  0  0  0  0
  -22.7197  -10.2127   20.3050 C   0  0  0  0  0  0
  -21.6847   -6.0721   22.5264 C   0  0  0  0  0  0
  -21.4018   -6.5610   23.8203 C   0  0  0  0  0  0
  -21.3659   -5.6759   24.9162 C   0  0  0  0  0  0
  -21.6047   -4.3024   24.7211 C   0  0  0  0  0  0
  -21.8817   -3.8127   23.4328 C   0  0  0  0  0  0
  -21.9191   -4.6956   22.3387 C   0  0  0  0  0  0
  -22.7855  -13.5239   21.1850 C   0  0  0  0  0  0
  -22.1666   -4.2146   21.0965 F   0  0  0  0  0  0
  -21.5637   -3.4503   25.7725 F   0  0  0  0  0  0
  -30.0177  -13.3396   20.4211 N   0  0  0  0  0  0
  -26.2964  -12.9239   20.3417 N   0  0  0  0  0  0
  -25.9266  -11.6421   20.5819 N   0  0  0  0  0  0
  -22.0490  -12.8223   22.0396 N   0  0  0  0  0  0
  -25.4329  -15.1839   20.4222 N   0  0  0  0  0  0
  -31.8574  -14.6652   20.2128 O   0  0  0  0  0  0
  -21.6609   -6.8858   21.4217 O   0  0  0  0  0  0
  -22.3568  -14.5578   20.6729 O   0  0  0  0  0  0
  -24.6170  -31.8674   23.2137 C   0  0  0  0  0  0
  -25.9056  -32.4825   23.8436 C   0  0  1  0  0  0
  -27.2148  -27.3963   20.0957 C   0  0  0  0  0  0
  -25.5907  -33.8629   24.2350 N   0  0  0  0  0  0
  -23.4037  -30.4960   21.5574 C   0  0  2  0  0  0
  -24.8458  -28.9703   20.1118 C   0  0  0  0  0  0
  -22.7403  -29.4667   22.5005 C   0  0  0  0  0  0
  -18.0262  -28.1361   22.8492 C   0  0  0  0  0  0
  -24.1490  -36.7318   23.2637 C   0  0  0  0  0  0
  -25.9412  -30.8196   21.3769 C   0  0  0  0  0  0
  -26.0111  -29.4554   20.7177 C   0  0  0  0  0  0
  -27.1970  -28.6758   20.7095 C   0  0  0  0  0  0
  -26.0298  -26.9570   19.4536 C   0  0  0  0  0  0
  -24.8540  -27.7219   19.4750 C   0  0  0  0  0  0
  -23.6097  -29.8391   20.1691 C   0  0  0  0  0  0
  -25.4111  -36.3113   24.0327 C   0  0  1  0  0  0
  -20.5850  -28.3675   23.1310 C   0  0  2  0  0  0
  -20.6757  -26.9406   22.5416 C   0  0  0  0  0  0
  -19.5739  -26.6372   21.5207 C   0  0  0  0  0  0
  -18.1913  -26.7914   22.1606 C   0  0  0  0  0  0
  -19.1519  -28.8829   23.2886 C   0  0  0  0  0  0
  -18.9440  -30.1436   23.8909 C   0  0  0  0  0  0
  -17.6447  -30.6579   24.0546 C   0  0  0  0  0  0
  -25.9048  -34.9474   23.5138 C   0  0  0  0  0  0
  -16.5343  -29.9076   23.6328 C   0  0  0  0  0  0
  -16.7260  -28.6491   23.0366 C   0  0  0  0  0  0
  -26.4484  -31.6610   25.0767 C   0  0  0  0  0  0
  -25.3743  -31.3679   26.1494 C   0  0  0  0  0  0
  -27.0342  -30.3056   24.6171 C   0  0  0  0  0  0
  -27.6044  -32.4361   25.7523 C   0  0  0  0  0  0
  -27.5596  -37.1803   24.8452 C   0  0  0  0  0  0
  -21.4132  -29.3034   22.3712 N   0  0  0  0  0  0
  -26.4298  -37.3798   23.9406 N   0  0  0  0  0  0
  -24.6728  -31.0745   22.1065 N   0  0  0  0  0  0
  -23.4162  -28.8191   23.3041 O   0  0  0  0  0  0
  -28.3537  -26.5993   20.1526 O   0  0  0  0  0  0
  -26.5588  -34.8906   22.4688 O   0  0  0  0  0  0
  -23.5349  -32.1469   23.7501 O   0  0  0  0  0  0
  -29.7384  -19.3541   21.2647 C   0  0  0  0  0  0
  -29.3013  -20.1171   18.9827 C   0  0  0  0  0  0
  -29.7451  -18.0202   20.7805 C   0  0  0  0  0  0
  -29.5394  -17.7529   19.4434 C   0  0  0  0  0  0
  -29.3174  -18.7837   18.5132 C   0  0  0  0  0  0
  -29.5111  -20.4329   20.3584 C   0  0  0  0  0  0
  -29.1023  -24.2041   20.5071 C   0  0  0  0  0  0
  -29.9482  -16.7075   21.5232 C   0  0  0  0  0  0
  -29.5750  -16.2702   19.1961 C   0  0  0  0  0  0
  -27.5961  -18.5448   16.6743 C   0  0  0  0  0  0
  -29.0830  -18.4949   17.0390 C   0  0  0  0  0  0
  -28.1901  -25.2066   19.7684 C   0  0  0  0  0  0
  -29.1467  -22.7825   19.8985 C   0  0  0  0  0  0
  -29.8438  -15.6235   20.5055 N   0  0  0  0  0  0
  -29.7361  -24.5115   21.5252 O   0  0  0  0  0  0
  -29.4995  -21.7414   20.8366 O   0  0  0  0  0  0
  -31.4630  -12.4257   19.1386 H   0  0  0  0  0  0
  -30.3186  -11.3257   19.8577 H   0  0  0  0  0  0
  -29.7469  -11.7685   17.4436 H   0  0  0  0  0  0
  -29.6463  -13.4800   17.7606 H   0  0  0  0  0  0
  -27.8346  -11.2899   18.8325 H   0  0  0  0  0  0
  -27.3634  -12.6047   17.7936 H   0  0  0  0  0  0
  -27.6543  -14.2290   19.5497 H   0  0  0  0  0  0
  -28.6866  -12.0319   21.4100 H   0  0  0  0  0  0
  -28.4719  -13.7128   21.8341 H   0  0  0  0  0  0
  -25.2716   -9.5681   22.4756 H   0  0  0  0  0  0
  -23.9972   -7.4615   22.7447 H   0  0  0  0  0  0
  -21.0830   -8.8739   19.8922 H   0  0  0  0  0  0
  -22.3652  -10.9658   19.6146 H   0  0  0  0  0  0
  -21.2007   -7.6104   23.9727 H   0  0  0  0  0  0
  -21.1494   -6.0474   25.9075 H   0  0  0  0  0  0
  -22.0598   -2.7586   23.2831 H   0  0  0  0  0  0
  -22.4094  -11.9859   22.4747 H   0  0  0  0  0  0
  -21.1114  -13.1241   22.2630 H   0  0  0  0  0  0
  -24.6770  -15.8442   20.5649 H   0  0  0  0  0  0
  -26.3001  -15.6245   20.1435 H   0  0  0  0  0  0
  -26.7125  -32.5522   23.1196 H   0  0  0  0  0  0
  -25.0095  -33.9817   25.0520 H   0  0  0  0  0  0
  -22.6930  -31.3142   21.4266 H   0  0  0  0  0  0
  -23.3758  -35.9645   23.3276 H   0  0  0  0  0  0
  -24.3594  -36.8969   22.2059 H   0  0  0  0  0  0
  -23.7238  -37.6498   23.6695 H   0  0  0  0  0  0
  -26.0640  -31.5878   20.6121 H   0  0  0  0  0  0
  -26.8232  -30.8663   22.0037 H   0  0  0  0  0  0
  -28.0902  -29.0419   21.1954 H   0  0  0  0  0  0
  -25.9694  -26.0206   18.9208 H   0  0  0  0  0  0
  -23.9611  -27.3530   18.9888 H   0  0  0  0  0  0
  -23.7110  -30.6205   19.4154 H   0  0  0  0  0  0
  -22.7332  -29.2603   19.8742 H   0  0  0  0  0  0
  -25.1287  -36.1989   25.0815 H   0  0  0  0  0  0
  -20.9941  -28.3250   24.1433 H   0  0  0  0  0  0
  -20.5686  -26.2267   23.3592 H   0  0  0  0  0  0
  -21.6627  -26.7452   22.1210 H   0  0  0  0  0  0
  -19.6904  -25.6285   21.1233 H   0  0  0  0  0  0
  -19.6686  -27.3170   20.6726 H   0  0  0  0  0  0
  -17.4186  -26.6677   21.3989 H   0  0  0  0  0  0
  -18.0298  -26.0038   22.8984 H   0  0  0  0  0  0
  -19.7914  -30.7234   24.2295 H   0  0  0  0  0  0
  -17.5006  -31.6269   24.5136 H   0  0  0  0  0  0
  -15.5346  -30.2983   23.7656 H   0  0  0  0  0  0
  -15.8650  -28.0807   22.7113 H   0  0  0  0  0  0
  -24.5953  -30.6988   25.7820 H   0  0  0  0  0  0
  -24.8872  -32.2798   26.4956 H   0  0  0  0  0  0
  -25.8086  -30.8852   27.0259 H   0  0  0  0  0  0
  -26.2905  -29.6784   24.1234 H   0  0  0  0  0  0
  -27.4116  -29.7324   25.4657 H   0  0  0  0  0  0
  -27.8742  -30.4379   23.9344 H   0  0  0  0  0  0
  -27.2680  -33.3691   26.2061 H   0  0  0  0  0  0
  -28.3859  -32.6882   25.0345 H   0  0  0  0  0  0
  -28.0706  -31.8517   26.5467 H   0  0  0  0  0  0
  -28.2570  -38.0149   24.7573 H   0  0  0  0  0  0
  -28.1153  -36.2676   24.6220 H   0  0  0  0  0  0
  -27.2309  -37.1374   25.8853 H   0  0  0  0  0  0
  -20.9291  -29.8786   21.6961 H   0  0  0  0  0  0
  -26.0186  -38.2871   24.1433 H   0  0  0  0  0  0
  -29.8931  -19.5555   22.3159 H   0  0  0  0  0  0
  -29.1247  -20.8879   18.2483 H   0  0  0  0  0  0
  -29.1721  -16.5810   22.2797 H   0  0  0  0  0  0
  -30.9191  -16.7016   22.0236 H   0  0  0  0  0  0
  -30.3409  -16.0397   18.4517 H   0  0  0  0  0  0
  -28.6151  -15.9646   18.7836 H   0  0  0  0  0  0
  -27.4540  -18.3346   15.6149 H   0  0  0  0  0  0
  -27.1698  -19.5289   16.8743 H   0  0  0  0  0  0
  -27.0232  -17.8104   17.2432 H   0  0  0  0  0  0
  -29.4981  -17.5229   16.7703 H   0  0  0  0  0  0
  -29.6340  -19.2248   16.4430 H   0  0  0  0  0  0
  -27.1905  -24.8452   20.0053 H   0  0  0  0  0  0
  -28.3318  -25.1065   18.6922 H   0  0  0  0  0  0
  -29.8642  -22.8017   19.0784 H   0  0  0  0  0  0
  -28.1650  -22.5647   19.4740 H   0  0  0  0  0  0
  1 25  1  0  0  0
  1 30  2  0  0  0
  1 84  1  0  0  0
  2  3  1  0  0  0
  2 25  1  0  0  0
  2 87  1  0  0  0
  2 88  1  0  0  0
  3  4  1  0  0  0
  3 89  1  0  0  0
  3 90  1  0  0  0
  4  5  1  0  0  0
  4 91  1  0  0  0
  4 92  1  0  0  0
  5  6  1  0  0  0
  5 26  1  0  0  0
  5 93  1  0  0  0
  6 25  1  0  0  0
  6 94  1  0  0  0
  6 95  1  0  0  0
  7  8  2  0  0  0
  7 26  1  0  0  0
  7 29  1  0  0  0
  8  9  1  0  0  0
  8 22  1  0  0  0
  9 10  1  0  0  0
  9 27  2  0  0  0
 10 11  2  0  0  0
 10 15  1  0  0  0
 11 12  1  0  0  0
 11 96  1  0  0  0
 12 13  2  0  0  0
 12 97  1  0  0  0
 13 14  1  0  0  0
 13 31  1  0  0  0
 14 15  2  0  0  0
 14 98  1  0  0  0
 15 99  1  0  0  0
 16 17  2  0  0  0
 16 21  1  0  0  0
 16 31  1  0  0  0
 17 18  1  0  0  0
 17100  1  0  0  0
 18 19  2  0  0  0
 18101  1  0  0  0
 19 20  1  0  0  0
 19 24  1  0  0  0
 20 21  2  0  0  0
 20102  1  0  0  0
 21 23  1  0  0  0
 22 28  1  0  0  0
 22 32  2  0  0  0
 26 27  1  0  0  0
 28103  1  0  0  0
 28104  1  0  0  0
 29105  1  0  0  0
 29106  1  0  0  0
 33 34  1  0  0  0
 33 66  1  0  0  0
 33 70  2  0  0  0
 34 36  1  0  0  0
 34 59  1  0  0  0
 34107  1  0  0  0
 35 44  2  0  0  0
 35 45  1  0  0  0
 35 68  1  0  0  0
 36 56  1  0  0  0
 36108  1  0  0  0
 37 39  1  0  0  0
 37 47  1  0  0  0
 37 66  1  0  0  0
 37109  1  0  0  0
 38 43  2  0  0  0
 38 46  1  0  0  0
 38 47  1  0  0  0
 39 64  1  0  0  0
 39 67  2  0  0  0
 40 52  1  0  0  0
 40 53  2  0  0  0
 40 58  1  0  0  0
 41110  1  0  0  0
 41111  1  0  0  0
 41112  1  0  0  0
 41 48  1  0  0  0
 42 43  1  0  0  0
 42 66  1  0  0  0
 42113  1  0  0  0
 42114  1  0  0  0
 43 44  1  0  0  0
 44115  1  0  0  0
 45 46  2  0  0  0
 45116  1  0  0  0
 46117  1  0  0  0
 47118  1  0  0  0
 47119  1  0  0  0
 48 56  1  0  0  0
 48 65  1  0  0  0
 48120  1  0  0  0
 49 50  1  0  0  0
 49 53  1  0  0  0
 49 64  1  0  0  0
 49121  1  0  0  0
 50 51  1  0  0  0
 50122  1  0  0  0
 50123  1  0  0  0
 51 52  1  0  0  0
 51124  1  0  0  0
 51125  1  0  0  0
 52126  1  0  0  0
 52127  1  0  0  0
 53 54  1  0  0  0
 54 55  2  0  0  0
 54128  1  0  0  0
 55 57  1  0  0  0
 55129  1  0  0  0
 56 69  2  0  0  0
 57 58  2  0  0  0
 57130  1  0  0  0
 58131  1  0  0  0
 59 60  1  0  0  0
 59 61  1  0  0  0
 59 62  1  0  0  0
 60132  1  0  0  0
 60133  1  0  0  0
 60134  1  0  0  0
 61135  1  0  0  0
 61136  1  0  0  0
 61137  1  0  0  0
 62138  1  0  0  0
 62139  1  0  0  0
 62140  1  0  0  0
 63 65  1  0  0  0
 63141  1  0  0  0
 63142  1  0  0  0
 63143  1  0  0  0
 64144  1  0  0  0
 65145  1  0  0  0
 68 82  1  0  0  0
 71 73  2  0  0  0
 71 76  1  0  0  0
 71146  1  0  0  0
 72 75  1  0  0  0
 72 76  2  0  0  0
 72147  1  0  0  0
 73 74  1  0  0  0
 73 78  1  0  0  0
 74 75  2  0  0  0
 74 79  1  0  0  0
 75 81  1  0  0  0
 76 86  1  0  0  0
 77 82  1  0  0  0
 77 83  1  0  0  0
 77 85  2  0  0  0
 78 84  1  0  0  0
 78148  1  0  0  0
 78149  1  0  0  0
 79 84  1  0  0  0
 79150  1  0  0  0
 79151  1  0  0  0
 80 81  1  0  0  0
 80152  1  0  0  0
 80153  1  0  0  0
 80154  1  0  0  0
 81155  1  0  0  0
 81156  1  0  0  0
 82157  1  0  0  0
 82158  1  0  0  0
 83 86  1  0  0  0
 83159  1  0  0  0
 83160  1  0  0  0
M  ISO  4   1 100  68 101  82 101  84 100
M  END
> <chiral flag>
0

> <version>
0

> <s_m_source_file>
/data/baiqing/PycharmProjects/Reinvent-master-3.2/result/LINK_invent/BTK/process_docking_weight1_custom_product_contain_oxygen_bond_distance_aromatic_linkinvent_7_9_3/rearranged_h_0131.sdf

> <i_m_source_file_index>
31

> <r_mmod_Potential_Energy-OPLS-2005>
131.848770141602

> <r_mmod_Stretch_Energy-OPLS-2005>
49.1753768920898

> <r_mmod_Bend_Energy-OPLS-2005>
148.365737915039

> <r_mmod_Torsional_Energy-OPLS-2005>
268.388305664062

> <r_mmod_Improper_Torsional_Energy-OPLS-2005>
14.3226385116577

> <r_mmod_Van_der_Waal_Energy-OPLS-2005>
152.190643310547

> <r_mmod_Electrostatic_Energy-OPLS-2005>
-292.942291259766

> <r_mmod_Solvation_Energy-OPLS-2005>
-235.705505371094

> <b_mmod_Minimization_Converged-OPLS-2005>
0

> <r_mmod_RMS_Derivative-OPLS-2005>
3.00623941421509

$$$$
31
                    3D
 Structure written by MMmdl.
158166  0  0  1  0            999 V2000
  -30.7194  -14.5155   20.6153 C   0  0  0  0  0  0
  -30.4251  -12.3528   19.4395 C   0  0  0  0  0  0
  -29.5013  -12.5307   18.2168 C   0  0  0  0  0  0
  -28.0236  -12.3646   18.6201 C   0  0  0  0  0  0
  -27.6575  -13.2088   19.8685 C   0  0  2  0  0  0
  -28.6935  -13.0086   20.9971 C   0  0  0  0  0  0
  -25.2501  -13.8121   20.5578 C   0  0  0  0  0  0
  -24.1806  -13.0407   20.9200 C   0  0  0  0  0  0
  -24.6382  -11.6885   20.8758 C   0  0  0  0  0  0
  -23.9061  -10.4276   21.0422 C   0  0  0  0  0  0
  -24.3615   -9.4188   21.9197 C   0  0  0  0  0  0
  -23.6289   -8.2226   22.0757 C   0  0  0  0  0  0
  -22.4270   -8.0275   21.3549 C   0  0  0  0  0  0
  -21.9905   -9.0248   20.4655 C   0  0  0  0  0  0
  -22.7236  -10.2126   20.3068 C   0  0  0  0  0  0
  -21.6836   -6.0734   22.5284 C   0  0  0  0  0  0
  -21.4002   -6.5634   23.8221 C   0  0  0  0  0  0
  -21.3664   -5.6791   24.9185 C   0  0  0  0  0  0
  -21.6050   -4.3055   24.7231 C   0  0  0  0  0  0
  -21.8815   -3.8145   23.4350 C   0  0  0  0  0  0
  -21.9188   -4.6964   22.3409 C   0  0  0  0  0  0
  -22.7827  -13.5213   21.1878 C   0  0  0  0  0  0
  -22.1657   -4.2148   21.0988 F   0  0  0  0  0  0
  -21.5641   -3.4538   25.7747 F   0  0  0  0  0  0
  -30.0303  -13.3374   20.4665 N   0  0  0  0  0  0
  -26.2981  -12.9330   20.3288 N   0  0  0  0  0  0
  -25.9301  -11.6489   20.5733 N   0  0  0  0  0  0
  -22.0460  -12.8241   22.0455 N   0  0  0  0  0  0
  -25.4035  -15.1820   20.3739 N   0  0  0  0  0  0
  -31.7723  -14.7424   20.0101 O   0  0  0  0  0  0
  -21.6626   -6.8879   21.4244 O   0  0  0  0  0  0
  -22.3532  -14.5532   20.6727 O   0  0  0  0  0  0
  -24.6201  -31.8648   23.2054 C   0  0  0  0  0  0
  -25.9080  -32.4798   23.8367 C   0  0  1  0  0  0
  -27.2386  -27.3879   20.0940 C   0  0  0  0  0  0
  -25.5923  -33.8597   24.2292 N   0  0  0  0  0  0
  -23.4098  -30.4888   21.5476 C   0  0  2  0  0  0
  -24.8571  -28.9519   20.1133 C   0  0  0  0  0  0
  -22.7432  -29.4659   22.4970 C   0  0  0  0  0  0
  -18.0275  -28.1387   22.8496 C   0  0  0  0  0  0
  -24.1490  -36.7298   23.2634 C   0  0  0  0  0  0
  -25.9452  -30.8169   21.3665 C   0  0  0  0  0  0
  -26.0225  -29.4496   20.7084 C   0  0  0  0  0  0
  -27.2152  -28.6782   20.6906 C   0  0  0  0  0  0
  -26.0447  -26.9212   19.4933 C   0  0  0  0  0  0
  -24.8657  -27.6883   19.5027 C   0  0  0  0  0  0
  -23.6209  -29.8224   20.1626 C   0  0  0  0  0  0
  -25.4114  -36.3092   24.0329 C   0  0  1  0  0  0
  -20.5873  -28.3684   23.1307 C   0  0  2  0  0  0
  -20.6775  -26.9420   22.5416 C   0  0  0  0  0  0
  -19.5747  -26.6399   21.5222 C   0  0  0  0  0  0
  -18.1924  -26.7933   22.1635 C   0  0  0  0  0  0
  -19.1527  -28.8853   23.2896 C   0  0  0  0  0  0
  -18.9459  -30.1458   23.8904 C   0  0  0  0  0  0
  -17.6465  -30.6593   24.0574 C   0  0  0  0  0  0
  -25.9047  -34.9462   23.5104 C   0  0  0  0  0  0
  -16.5352  -29.9102   23.6331 C   0  0  0  0  0  0
  -16.7266  -28.6519   23.0351 C   0  0  0  0  0  0
  -26.4489  -31.6583   25.0708 C   0  0  0  0  0  0
  -25.3738  -31.3740   26.1452 C   0  0  0  0  0  0
  -27.0317  -30.3005   24.6129 C   0  0  0  0  0  0
  -27.6038  -32.4321   25.7485 C   0  0  0  0  0  0
  -27.5582  -37.1800   24.8462 C   0  0  0  0  0  0
  -21.4155  -29.3046   22.3704 N   0  0  0  0  0  0
  -26.4288  -37.3788   23.9412 N   0  0  0  0  0  0
  -24.6765  -31.0725   22.0971 N   0  0  0  0  0  0
  -23.4183  -28.8208   23.3036 O   0  0  0  0  0  0
  -28.3965  -26.6102   20.1134 O   0  0  0  0  0  0
  -26.5614  -34.8928   22.4668 O   0  0  0  0  0  0
  -23.5379  -32.1425   23.7424 O   0  0  0  0  0  0
  -27.8471  -18.2774   20.3358 C   0  0  0  0  0  0
  -28.6554  -19.4231   20.2444 C   0  0  0  0  0  0
  -28.3981  -17.0507   20.7422 C   0  0  0  0  0  0
  -30.0299  -19.3678   20.5554 C   0  0  0  0  0  0
  -29.7629  -16.9224   21.0668 C   0  0  0  0  0  0
  -30.5814  -18.1029   20.9801 C   0  0  0  0  0  0
  -30.8704  -20.6097   20.4492 C   0  0  0  0  0  0
  -30.6094  -21.9389   20.2768 C   0  0  0  0  0  0
  -30.1851  -15.5710   21.6068 C   0  0  0  0  0  0
  -32.0573  -18.0278   21.3689 C   0  0  0  0  0  0
  -29.3074  -22.7475   20.1444 C   0  0  0  0  0  0
  -29.5157  -24.3074   20.2239 C   0  0  0  0  0  0
  -28.2453  -25.1719   19.9436 C   0  0  0  0  0  0
  -30.0909  -15.3388   22.8503 N   0  0  0  0  0  0
  -31.4691  -12.4581   19.1393 H   0  0  0  0  0  0
  -30.3401  -11.3410   19.8396 H   0  0  0  0  0  0
  -29.7622  -11.8104   17.4415 H   0  0  0  0  0  0
  -29.6544  -13.5195   17.7799 H   0  0  0  0  0  0
  -27.8501  -11.3070   18.8229 H   0  0  0  0  0  0
  -27.3725  -12.6240   17.7845 H   0  0  0  0  0  0
  -27.6963  -14.2525   19.5601 H   0  0  0  0  0  0
  -28.6813  -11.9722   21.3397 H   0  0  0  0  0  0
  -28.4068  -13.5971   21.8662 H   0  0  0  0  0  0
  -25.2754   -9.5662   22.4779 H   0  0  0  0  0  0
  -24.0000   -7.4602   22.7455 H   0  0  0  0  0  0
  -21.0844   -8.8761   19.8944 H   0  0  0  0  0  0
  -22.3696  -10.9669   19.6179 H   0  0  0  0  0  0
  -21.1978   -7.6135   23.9733 H   0  0  0  0  0  0
  -21.1498   -6.0510   25.9092 H   0  0  0  0  0  0
  -22.0592   -2.7606   23.2847 H   0  0  0  0  0  0
  -22.4060  -11.9910   22.4881 H   0  0  0  0  0  0
  -21.1074  -13.1270   22.2648 H   0  0  0  0  0  0
  -24.6002  -15.7998   20.4159 H   0  0  0  0  0  0
  -26.1931  -15.5952   19.8960 H   0  0  0  0  0  0
  -26.7150  -32.5491   23.1122 H   0  0  0  0  0  0
  -25.0089  -33.9755   25.0450 H   0  0  0  0  0  0
  -22.7007  -31.3067   21.4066 H   0  0  0  0  0  0
  -23.3745  -35.9636   23.3304 H   0  0  0  0  0  0
  -24.3584  -36.8903   22.2046 H   0  0  0  0  0  0
  -23.7261  -37.6509   23.6647 H   0  0  0  0  0  0
  -26.0699  -31.5846   20.6017 H   0  0  0  0  0  0
  -26.8272  -30.8632   21.9938 H   0  0  0  0  0  0
  -28.1121  -29.0625   21.1556 H   0  0  0  0  0  0
  -25.9933  -25.9575   19.0097 H   0  0  0  0  0  0
  -23.9704  -27.2977   19.0395 H   0  0  0  0  0  0
  -23.7317  -30.5969   19.4023 H   0  0  0  0  0  0
  -22.7438  -29.2446   19.8653 H   0  0  0  0  0  0
  -25.1298  -36.1933   25.0822 H   0  0  0  0  0  0
  -20.9965  -28.3251   24.1429 H   0  0  0  0  0  0
  -20.5701  -26.2292   23.3605 H   0  0  0  0  0  0
  -21.6641  -26.7481   22.1193 H   0  0  0  0  0  0
  -19.6909  -25.6318   21.1229 H   0  0  0  0  0  0
  -19.6669  -27.3226   20.6762 H   0  0  0  0  0  0
  -17.4197  -26.6681   21.4030 H   0  0  0  0  0  0
  -18.0318  -26.0078   22.9031 H   0  0  0  0  0  0
  -19.7937  -30.7269   24.2269 H   0  0  0  0  0  0
  -17.5026  -31.6268   24.5182 H   0  0  0  0  0  0
  -15.5356  -30.3013   23.7655 H   0  0  0  0  0  0
  -15.8663  -28.0845   22.7066 H   0  0  0  0  0  0
  -24.5891  -30.7112   25.7802 H   0  0  0  0  0  0
  -24.8970  -32.2924   26.4876 H   0  0  0  0  0  0
  -25.8080  -30.8921   27.0217 H   0  0  0  0  0  0
  -26.2881  -29.6774   24.1145 H   0  0  0  0  0  0
  -27.4015  -29.7245   25.4622 H   0  0  0  0  0  0
  -27.8748  -30.4294   23.9340 H   0  0  0  0  0  0
  -27.2615  -33.3600   26.2085 H   0  0  0  0  0  0
  -28.3837  -32.6920   25.0313 H   0  0  0  0  0  0
  -28.0714  -31.8437   26.5391 H   0  0  0  0  0  0
  -28.2591  -38.0107   24.7528 H   0  0  0  0  0  0
  -28.1087  -36.2640   24.6256 H   0  0  0  0  0  0
  -27.2301  -37.1405   25.8865 H   0  0  0  0  0  0
  -20.9326  -29.8758   21.6910 H   0  0  0  0  0  0
  -26.0162  -38.2853   24.1430 H   0  0  0  0  0  0
  -26.7916  -18.3426   20.1125 H   0  0  0  0  0  0
  -28.1957  -20.3453   19.9249 H   0  0  0  0  0  0
  -27.7501  -16.1960   20.8514 H   0  0  0  0  0  0
  -31.9312  -20.4136   20.4904 H   0  0  0  0  0  0
  -31.4903  -22.5632   20.2120 H   0  0  0  0  0  0
  -32.3364  -17.0948   21.8561 H   0  0  0  0  0  0
  -32.6851  -18.1289   20.4839 H   0  0  0  0  0  0
  -32.3130  -18.8282   22.0645 H   0  0  0  0  0  0
  -28.6094  -22.4264   20.9181 H   0  0  0  0  0  0
  -28.8553  -22.4955   19.1837 H   0  0  0  0  0  0
  -30.2864  -24.5991   19.5091 H   0  0  0  0  0  0
  -29.9112  -24.5676   21.2062 H   0  0  0  0  0  0
  -27.4513  -24.8243   20.6061 H   0  0  0  0  0  0
  -27.9281  -24.9672   18.9206 H   0  0  0  0  0  0
  -29.7242  -16.1541   23.3278 H   0  0  0  0  0  0
  1 25  1  0  0  0
  1 30  2  0  0  0
  1 79  1  0  0  0
  2  3  1  0  0  0
  2 25  1  0  0  0
  2 85  1  0  0  0
  2 86  1  0  0  0
  3  4  1  0  0  0
  3 87  1  0  0  0
  3 88  1  0  0  0
  4  5  1  0  0  0
  4 89  1  0  0  0
  4 90  1  0  0  0
  5  6  1  0  0  0
  5 26  1  0  0  0
  5 91  1  0  0  0
  6 25  1  0  0  0
  6 92  1  0  0  0
  6 93  1  0  0  0
  7  8  2  0  0  0
  7 26  1  0  0  0
  7 29  1  0  0  0
  8  9  1  0  0  0
  8 22  1  0  0  0
  9 10  1  0  0  0
  9 27  2  0  0  0
 10 11  2  0  0  0
 10 15  1  0  0  0
 11 12  1  0  0  0
 11 94  1  0  0  0
 12 13  2  0  0  0
 12 95  1  0  0  0
 13 14  1  0  0  0
 13 31  1  0  0  0
 14 15  2  0  0  0
 14 96  1  0  0  0
 15 97  1  0  0  0
 16 17  2  0  0  0
 16 21  1  0  0  0
 16 31  1  0  0  0
 17 18  1  0  0  0
 17 98  1  0  0  0
 18 19  2  0  0  0
 18 99  1  0  0  0
 19 20  1  0  0  0
 19 24  1  0  0  0
 20 21  2  0  0  0
 20100  1  0  0  0
 21 23  1  0  0  0
 22 28  1  0  0  0
 22 32  2  0  0  0
 26 27  1  0  0  0
 28101  1  0  0  0
 28102  1  0  0  0
 29103  1  0  0  0
 29104  1  0  0  0
 33 34  1  0  0  0
 33 66  1  0  0  0
 33 70  2  0  0  0
 34 36  1  0  0  0
 34 59  1  0  0  0
 34105  1  0  0  0
 35 44  2  0  0  0
 35 45  1  0  0  0
 35 68  1  0  0  0
 36 56  1  0  0  0
 36106  1  0  0  0
 37 39  1  0  0  0
 37 47  1  0  0  0
 37 66  1  0  0  0
 37107  1  0  0  0
 38 43  2  0  0  0
 38 46  1  0  0  0
 38 47  1  0  0  0
 39 64  1  0  0  0
 39 67  2  0  0  0
 40 52  1  0  0  0
 40 53  2  0  0  0
 40 58  1  0  0  0
 41108  1  0  0  0
 41109  1  0  0  0
 41110  1  0  0  0
 41 48  1  0  0  0
 42 43  1  0  0  0
 42 66  1  0  0  0
 42111  1  0  0  0
 42112  1  0  0  0
 43 44  1  0  0  0
 44113  1  0  0  0
 45 46  2  0  0  0
 45114  1  0  0  0
 46115  1  0  0  0
 47116  1  0  0  0
 47117  1  0  0  0
 48 56  1  0  0  0
 48 65  1  0  0  0
 48118  1  0  0  0
 49 50  1  0  0  0
 49 53  1  0  0  0
 49 64  1  0  0  0
 49119  1  0  0  0
 50 51  1  0  0  0
 50120  1  0  0  0
 50121  1  0  0  0
 51 52  1  0  0  0
 51122  1  0  0  0
 51123  1  0  0  0
 52124  1  0  0  0
 52125  1  0  0  0
 53 54  1  0  0  0
 54 55  2  0  0  0
 54126  1  0  0  0
 55 57  1  0  0  0
 55127  1  0  0  0
 56 69  2  0  0  0
 57 58  2  0  0  0
 57128  1  0  0  0
 58129  1  0  0  0
 59 60  1  0  0  0
 59 61  1  0  0  0
 59 62  1  0  0  0
 60130  1  0  0  0
 60131  1  0  0  0
 60132  1  0  0  0
 61133  1  0  0  0
 61134  1  0  0  0
 61135  1  0  0  0
 62136  1  0  0  0
 62137  1  0  0  0
 62138  1  0  0  0
 63 65  1  0  0  0
 63139  1  0  0  0
 63140  1  0  0  0
 63141  1  0  0  0
 64142  1  0  0  0
 65143  1  0  0  0
 68 83  1  0  0  0
 71 72  2  0  0  0
 71 73  1  0  0  0
 71144  1  0  0  0
 72 74  1  0  0  0
 72145  1  0  0  0
 73 75  2  0  0  0
 73146  1  0  0  0
 74 76  2  0  0  0
 74 77  1  0  0  0
 75 76  1  0  0  0
 75 79  1  0  0  0
 76 80  1  0  0  0
 77 78  2  0  0  0
 77147  1  0  0  0
 78 81  1  0  0  0
 78148  1  0  0  0
 79 84  2  0  0  0
 80149  1  0  0  0
 80150  1  0  0  0
 80151  1  0  0  0
 81 82  1  0  0  0
 81152  1  0  0  0
 81153  1  0  0  0
 82 83  1  0  0  0
 82154  1  0  0  0
 82155  1  0  0  0
 83156  1  0  0  0
 83157  1  0  0  0
 84158  1  0  0  0
M  ISO  4   1 100  68 101  79 100  83 101
M  END
> <chiral flag>
0

> <version>
0

> <s_m_source_file>
/data/baiqing/PycharmProjects/Reinvent-master-3.2/result/LINK_invent/BTK/process_docking_weight1_custom_product_contain_oxygen_bond_distance_aromatic_linkinvent_7_9_3/rearranged_h_0131.sdf

> <i_m_source_file_index>
32

> <r_mmod_Potential_Energy-OPLS-2005>
194.208587646484

> <r_mmod_Stretch_Energy-OPLS-2005>
60.8233528137207

> <r_mmod_Bend_Energy-OPLS-2005>
130.32536315918

> <r_mmod_Torsional_Energy-OPLS-2005>
228.352844238281

> <r_mmod_Improper_Torsional_Energy-OPLS-2005>
3.63429117202759

> <r_mmod_Van_der_Waal_Energy-OPLS-2005>
151.332794189453

> <r_mmod_Electrostatic_Energy-OPLS-2005>
-210.387832641602

> <r_mmod_Solvation_Energy-OPLS-2005>
-189.595169067383

> <b_mmod_Minimization_Converged-OPLS-2005>
0

> <r_mmod_RMS_Derivative-OPLS-2005>
1.74392247200012

$$$$
32
                    3D
 Structure written by MMmdl.
151159  0  0  1  0            999 V2000
  -30.6833  -14.5438   20.6339 C   0  0  0  0  0  0
  -30.4397  -12.3783   19.4167 C   0  0  0  0  0  0
  -29.4990  -12.5449   18.2042 C   0  0  0  0  0  0
  -28.0217  -12.3811   18.6141 C   0  0  0  0  0  0
  -27.6643  -13.2098   19.8754 C   0  0  2  0  0  0
  -28.7072  -12.9820   20.9901 C   0  0  0  0  0  0
  -25.2601  -13.8151   20.5669 C   0  0  0  0  0  0
  -24.1847  -13.0435   20.9146 C   0  0  0  0  0  0
  -24.6404  -11.6899   20.8714 C   0  0  0  0  0  0
  -23.9064  -10.4293   21.0393 C   0  0  0  0  0  0
  -24.3618   -9.4213   21.9179 C   0  0  0  0  0  0
  -23.6293   -8.2250   22.0757 C   0  0  0  0  0  0
  -22.4275   -8.0283   21.3548 C   0  0  0  0  0  0
  -21.9906   -9.0253   20.4649 C   0  0  0  0  0  0
  -22.7231  -10.2133   20.3049 C   0  0  0  0  0  0
  -21.6855   -6.0736   22.5281 C   0  0  0  0  0  0
  -21.4014   -6.5640   23.8211 C   0  0  0  0  0  0
  -21.3659   -5.6793   24.9174 C   0  0  0  0  0  0
  -21.6042   -4.3056   24.7225 C   0  0  0  0  0  0
  -21.8818   -3.8148   23.4348 C   0  0  0  0  0  0
  -21.9192   -4.6965   22.3403 C   0  0  0  0  0  0
  -22.7871  -13.5237   21.1816 C   0  0  0  0  0  0
  -22.1658   -4.2149   21.0981 F   0  0  0  0  0  0
  -21.5633   -3.4539   25.7741 F   0  0  0  0  0  0
  -30.0348  -13.3470   20.4546 N   0  0  0  0  0  0
  -26.3044  -12.9328   20.3355 N   0  0  0  0  0  0
  -25.9338  -11.6486   20.5749 N   0  0  0  0  0  0
  -22.0512  -12.8243   22.0382 N   0  0  0  0  0  0
  -25.4335  -15.1873   20.4109 N   0  0  0  0  0  0
  -31.7265  -14.8047   20.0270 O   0  0  0  0  0  0
  -21.6642   -6.8882   21.4243 O   0  0  0  0  0  0
  -22.3558  -14.5546   20.6662 O   0  0  0  0  0  0
  -24.6231  -31.8632   23.2071 C   0  0  0  0  0  0
  -25.9098  -32.4798   23.8382 C   0  0  1  0  0  0
  -27.2279  -27.3603   20.1002 C   0  0  0  0  0  0
  -25.5939  -33.8599   24.2316 N   0  0  0  0  0  0
  -23.4142  -30.4891   21.5488 C   0  0  2  0  0  0
  -24.8596  -28.9520   20.1125 C   0  0  0  0  0  0
  -22.7458  -29.4636   22.4955 C   0  0  0  0  0  0
  -18.0288  -28.1382   22.8495 C   0  0  0  0  0  0
  -24.1489  -36.7293   23.2638 C   0  0  0  0  0  0
  -25.9528  -30.8071   21.3719 C   0  0  0  0  0  0
  -26.0274  -29.4383   20.7124 C   0  0  0  0  0  0
  -27.2141  -28.6529   20.6993 C   0  0  0  0  0  0
  -26.0323  -26.9171   19.4829 C   0  0  0  0  0  0
  -24.8610  -27.6940   19.4934 C   0  0  0  0  0  0
  -23.6264  -29.8271   20.1628 C   0  0  0  0  0  0
  -25.4111  -36.3088   24.0332 C   0  0  1  0  0  0
  -20.5887  -28.3681   23.1301 C   0  0  2  0  0  0
  -20.6780  -26.9408   22.5420 C   0  0  0  0  0  0
  -19.5750  -26.6385   21.5227 C   0  0  0  0  0  0
  -18.1927  -26.7927   22.1633 C   0  0  0  0  0  0
  -19.1539  -28.8846   23.2895 C   0  0  0  0  0  0
  -18.9464  -30.1454   23.8901 C   0  0  0  0  0  0
  -17.6464  -30.6584   24.0566 C   0  0  0  0  0  0
  -25.9048  -34.9460   23.5116 C   0  0  0  0  0  0
  -16.5355  -29.9085   23.6334 C   0  0  0  0  0  0
  -16.7276  -28.6507   23.0345 C   0  0  0  0  0  0
  -26.4498  -31.6593   25.0735 C   0  0  0  0  0  0
  -25.3743  -31.3727   26.1475 C   0  0  0  0  0  0
  -27.0340  -30.3023   24.6159 C   0  0  0  0  0  0
  -27.6059  -32.4326   25.7504 C   0  0  0  0  0  0
  -27.5573  -37.1801   24.8465 C   0  0  0  0  0  0
  -21.4177  -29.3039   22.3696 N   0  0  0  0  0  0
  -26.4287  -37.3782   23.9409 N   0  0  0  0  0  0
  -24.6819  -31.0684   22.1001 N   0  0  0  0  0  0
  -23.4196  -28.8159   23.3008 O   0  0  0  0  0  0
  -28.3623  -26.5439   20.1355 O   0  0  0  0  0  0
  -26.5597  -34.8915   22.4671 O   0  0  0  0  0  0
  -23.5407  -32.1416   23.7427 O   0  0  0  0  0  0
  -29.8095  -19.3290   21.2118 C   0  0  0  0  0  0
  -30.5693  -18.0662   19.5292 C   0  0  0  0  0  0
  -30.0924  -17.9777   20.8050 C   0  0  0  0  0  0
  -30.1600  -20.1691   20.1780 C   0  0  0  0  0  0
  -29.8933  -16.7851   21.6908 C   0  0  0  0  0  0
  -30.0988  -15.4317   21.6548 C   0  0  0  0  0  0
  -29.3350  -24.1689   20.2690 C   0  0  0  0  0  0
  -30.2826  -21.6895   19.9872 C   0  0  0  0  0  0
  -29.0762  -22.6255   20.3600 C   0  0  0  0  0  0
  -28.1354  -25.1075   19.9320 C   0  0  0  0  0  0
  -30.4635  -24.6312   20.4672 O   0  0  0  0  0  0
  -30.6222  -19.3876   19.1444 O   0  0  0  0  0  0
  -31.4775  -12.5126   19.1066 H   0  0  0  0  0  0
  -30.3798  -11.3627   19.8105 H   0  0  0  0  0  0
  -29.7551  -11.8260   17.4247 H   0  0  0  0  0  0
  -29.6445  -13.5346   17.7677 H   0  0  0  0  0  0
  -27.8372  -11.3222   18.7989 H   0  0  0  0  0  0
  -27.3700  -12.6619   17.7857 H   0  0  0  0  0  0
  -27.7101  -14.2617   19.5918 H   0  0  0  0  0  0
  -28.7111  -11.9332   21.2898 H   0  0  0  0  0  0
  -28.4171  -13.5265   21.8863 H   0  0  0  0  0  0
  -25.2768   -9.5692   22.4747 H   0  0  0  0  0  0
  -24.0003   -7.4645   22.7481 H   0  0  0  0  0  0
  -21.0834   -8.8762   19.8964 H   0  0  0  0  0  0
  -22.3680  -10.9666   19.6156 H   0  0  0  0  0  0
  -21.2005   -7.6149   23.9711 H   0  0  0  0  0  0
  -21.1483   -6.0528   25.9073 H   0  0  0  0  0  0
  -22.0600   -2.7612   23.2846 H   0  0  0  0  0  0
  -22.4131  -11.9908   22.4773 H   0  0  0  0  0  0
  -21.1134  -13.1282   22.2596 H   0  0  0  0  0  0
  -24.6743  -15.8490   20.5299 H   0  0  0  0  0  0
  -26.3018  -15.6261   20.1305 H   0  0  0  0  0  0
  -26.7164  -32.5487   23.1131 H   0  0  0  0  0  0
  -25.0125  -33.9774   25.0484 H   0  0  0  0  0  0
  -22.7062  -31.3085   21.4083 H   0  0  0  0  0  0
  -23.3749  -35.9628   23.3305 H   0  0  0  0  0  0
  -24.3582  -36.8902   22.2052 H   0  0  0  0  0  0
  -23.7247  -37.6499   23.6653 H   0  0  0  0  0  0
  -26.0802  -31.5729   20.6057 H   0  0  0  0  0  0
  -26.8357  -30.8538   21.9979 H   0  0  0  0  0  0
  -28.1110  -29.0240   21.1752 H   0  0  0  0  0  0
  -25.9687  -25.9601   18.9865 H   0  0  0  0  0  0
  -23.9637  -27.3144   19.0241 H   0  0  0  0  0  0
  -23.7417  -30.6045   19.4065 H   0  0  0  0  0  0
  -22.7486  -29.2528   19.8619 H   0  0  0  0  0  0
  -25.1290  -36.1939   25.0824 H   0  0  0  0  0  0
  -20.9993  -28.3253   24.1418 H   0  0  0  0  0  0
  -20.5700  -26.2291   23.3617 H   0  0  0  0  0  0
  -21.6645  -26.7448   22.1196 H   0  0  0  0  0  0
  -19.6907  -25.6303   21.1239 H   0  0  0  0  0  0
  -19.6676  -27.3217   20.6772 H   0  0  0  0  0  0
  -17.4204  -26.6695   21.4023 H   0  0  0  0  0  0
  -18.0298  -26.0069   22.9024 H   0  0  0  0  0  0
  -19.7939  -30.7276   24.2260 H   0  0  0  0  0  0
  -17.5018  -31.6263   24.5169 H   0  0  0  0  0  0
  -15.5355  -30.2982   23.7666 H   0  0  0  0  0  0
  -15.8677  -28.0836   22.7040 H   0  0  0  0  0  0
  -24.5923  -30.7062   25.7819 H   0  0  0  0  0  0
  -24.8930  -32.2895   26.4896 H   0  0  0  0  0  0
  -25.8092  -30.8921   27.0247 H   0  0  0  0  0  0
  -26.2909  -29.6776   24.1190 H   0  0  0  0  0  0
  -27.4063  -29.7277   25.4650 H   0  0  0  0  0  0
  -27.8762  -30.4322   23.9356 H   0  0  0  0  0  0
  -27.2667  -33.3628   26.2075 H   0  0  0  0  0  0
  -28.3874  -32.6883   25.0335 H   0  0  0  0  0  0
  -28.0712  -31.8448   26.5428 H   0  0  0  0  0  0
  -28.2594  -38.0096   24.7515 H   0  0  0  0  0  0
  -28.1064  -36.2631   24.6281 H   0  0  0  0  0  0
  -27.2295  -37.1436   25.8869 H   0  0  0  0  0  0
  -20.9350  -29.8771   21.6918 H   0  0  0  0  0  0
  -26.0163  -38.2850   24.1428 H   0  0  0  0  0  0
  -29.4377  -19.6562   22.1734 H   0  0  0  0  0  0
  -30.9174  -17.3475   18.7996 H   0  0  0  0  0  0
  -29.4503  -17.0916   22.6284 H   0  0  0  0  0  0
  -29.8064  -14.9343   22.5669 H   0  0  0  0  0  0
  -30.5427  -21.8863   18.9465 H   0  0  0  0  0  0
  -31.1523  -22.0187   20.5573 H   0  0  0  0  0  0
  -28.7686  -22.4143   21.3835 H   0  0  0  0  0  0
  -28.2203  -22.3876   19.7285 H   0  0  0  0  0  0
  -27.2883  -24.7831   20.5371 H   0  0  0  0  0  0
  -27.8770  -24.9301   18.8879 H   0  0  0  0  0  0
  1 25  1  0  0  0
  1 30  2  0  0  0
  1 76  1  0  0  0
  2  3  1  0  0  0
  2 25  1  0  0  0
  2 83  1  0  0  0
  2 84  1  0  0  0
  3  4  1  0  0  0
  3 85  1  0  0  0
  3 86  1  0  0  0
  4  5  1  0  0  0
  4 87  1  0  0  0
  4 88  1  0  0  0
  5  6  1  0  0  0
  5 26  1  0  0  0
  5 89  1  0  0  0
  6 25  1  0  0  0
  6 90  1  0  0  0
  6 91  1  0  0  0
  7  8  2  0  0  0
  7 26  1  0  0  0
  7 29  1  0  0  0
  8  9  1  0  0  0
  8 22  1  0  0  0
  9 10  1  0  0  0
  9 27  2  0  0  0
 10 11  2  0  0  0
 10 15  1  0  0  0
 11 12  1  0  0  0
 11 92  1  0  0  0
 12 13  2  0  0  0
 12 93  1  0  0  0
 13 14  1  0  0  0
 13 31  1  0  0  0
 14 15  2  0  0  0
 14 94  1  0  0  0
 15 95  1  0  0  0
 16 17  2  0  0  0
 16 21  1  0  0  0
 16 31  1  0  0  0
 17 18  1  0  0  0
 17 96  1  0  0  0
 18 19  2  0  0  0
 18 97  1  0  0  0
 19 20  1  0  0  0
 19 24  1  0  0  0
 20 21  2  0  0  0
 20 98  1  0  0  0
 21 23  1  0  0  0
 22 28  1  0  0  0
 22 32  2  0  0  0
 26 27  1  0  0  0
 28 99  1  0  0  0
 28100  1  0  0  0
 29101  1  0  0  0
 29102  1  0  0  0
 33 34  1  0  0  0
 33 66  1  0  0  0
 33 70  2  0  0  0
 34 36  1  0  0  0
 34 59  1  0  0  0
 34103  1  0  0  0
 35 44  2  0  0  0
 35 45  1  0  0  0
 35 68  1  0  0  0
 36 56  1  0  0  0
 36104  1  0  0  0
 37 39  1  0  0  0
 37 47  1  0  0  0
 37 66  1  0  0  0
 37105  1  0  0  0
 38 43  2  0  0  0
 38 46  1  0  0  0
 38 47  1  0  0  0
 39 64  1  0  0  0
 39 67  2  0  0  0
 40 52  1  0  0  0
 40 53  2  0  0  0
 40 58  1  0  0  0
 41106  1  0  0  0
 41107  1  0  0  0
 41108  1  0  0  0
 41 48  1  0  0  0
 42 43  1  0  0  0
 42 66  1  0  0  0
 42109  1  0  0  0
 42110  1  0  0  0
 43 44  1  0  0  0
 44111  1  0  0  0
 45 46  2  0  0  0
 45112  1  0  0  0
 46113  1  0  0  0
 47114  1  0  0  0
 47115  1  0  0  0
 48 56  1  0  0  0
 48 65  1  0  0  0
 48116  1  0  0  0
 49 50  1  0  0  0
 49 53  1  0  0  0
 49 64  1  0  0  0
 49117  1  0  0  0
 50 51  1  0  0  0
 50118  1  0  0  0
 50119  1  0  0  0
 51 52  1  0  0  0
 51120  1  0  0  0
 51121  1  0  0  0
 52122  1  0  0  0
 52123  1  0  0  0
 53 54  1  0  0  0
 54 55  2  0  0  0
 54124  1  0  0  0
 55 57  1  0  0  0
 55125  1  0  0  0
 56 69  2  0  0  0
 57 58  2  0  0  0
 57126  1  0  0  0
 58127  1  0  0  0
 59 60  1  0  0  0
 59 61  1  0  0  0
 59 62  1  0  0  0
 60128  1  0  0  0
 60129  1  0  0  0
 60130  1  0  0  0
 61131  1  0  0  0
 61132  1  0  0  0
 61133  1  0  0  0
 62134  1  0  0  0
 62135  1  0  0  0
 62136  1  0  0  0
 63 65  1  0  0  0
 63137  1  0  0  0
 63138  1  0  0  0
 63139  1  0  0  0
 64140  1  0  0  0
 65141  1  0  0  0
 68 80  1  0  0  0
 71 73  1  0  0  0
 71 74  2  0  0  0
 71142  1  0  0  0
 72 73  2  0  0  0
 72 82  1  0  0  0
 72143  1  0  0  0
 73 75  1  0  0  0
 74 78  1  0  0  0
 74 82  1  0  0  0
 75 76  2  0  0  0
 75144  1  0  0  0
 76145  1  0  0  0
 77 79  1  0  0  0
 77 80  1  0  0  0
 77 81  2  0  0  0
 78 79  1  0  0  0
 78146  1  0  0  0
 78147  1  0  0  0
 79148  1  0  0  0
 79149  1  0  0  0
 80150  1  0  0  0
 80151  1  0  0  0
M  ISO  4   1 100  68 101  76 100  80 101
M  END
> <chiral flag>
0

> <version>
0

> <s_m_source_file>
/data/baiqing/PycharmProjects/Reinvent-master-3.2/result/LINK_invent/BTK/process_docking_weight1_custom_product_contain_oxygen_bond_distance_aromatic_linkinvent_7_9_3/rearranged_h_0131.sdf

> <i_m_source_file_index>
33

> <r_mmod_Potential_Energy-OPLS-2005>
4.31805229187012

> <r_mmod_Stretch_Energy-OPLS-2005>
57.3085327148438

> <r_mmod_Bend_Energy-OPLS-2005>
152.866714477539

> <r_mmod_Torsional_Energy-OPLS-2005>
183.353439331055

> <r_mmod_Improper_Torsional_Energy-OPLS-2005>
2.72320628166199

> <r_mmod_Van_der_Waal_Energy-OPLS-2005>
128.092422485352

> <r_mmod_Electrostatic_Energy-OPLS-2005>
-327.748382568359

> <r_mmod_Solvation_Energy-OPLS-2005>
-219.635437011719

> <b_mmod_Minimization_Converged-OPLS-2005>
0

> <r_mmod_RMS_Derivative-OPLS-2005>
1.09340000152588

$$$$
33
                    3D
 Structure written by MMmdl.
158167  0  0  1  0            999 V2000
  -30.6748  -14.5305   20.5507 C   0  0  0  0  0  0
  -30.4315  -12.3436   19.4240 C   0  0  0  0  0  0
  -29.4978  -12.5170   18.2053 C   0  0  0  0  0  0
  -28.0173  -12.3758   18.6139 C   0  0  0  0  0  0
  -27.6621  -13.2079   19.8746 C   0  0  2  0  0  0
  -28.7066  -12.9837   20.9899 C   0  0  0  0  0  0
  -25.2616  -13.8151   20.5704 C   0  0  0  0  0  0
  -24.1853  -13.0438   20.9177 C   0  0  0  0  0  0
  -24.6384  -11.6896   20.8692 C   0  0  0  0  0  0
  -23.9023  -10.4292   21.0357 C   0  0  0  0  0  0
  -24.3570   -9.4226   21.9150 C   0  0  0  0  0  0
  -23.6277   -8.2248   22.0730 C   0  0  0  0  0  0
  -22.4261   -8.0261   21.3532 C   0  0  0  0  0  0
  -21.9869   -9.0226   20.4642 C   0  0  0  0  0  0
  -22.7170  -10.2123   20.3045 C   0  0  0  0  0  0
  -21.6865   -6.0710   22.5264 C   0  0  0  0  0  0
  -21.4016   -6.5614   23.8193 C   0  0  0  0  0  0
  -21.3670   -5.6772   24.9161 C   0  0  0  0  0  0
  -21.6053   -4.3036   24.7218 C   0  0  0  0  0  0
  -21.8820   -3.8125   23.4340 C   0  0  0  0  0  0
  -21.9198   -4.6938   22.3393 C   0  0  0  0  0  0
  -22.7886  -13.5258   21.1849 C   0  0  0  0  0  0
  -22.1677   -4.2117   21.0974 F   0  0  0  0  0  0
  -21.5632   -3.4524   25.7734 F   0  0  0  0  0  0
  -30.0289  -13.3299   20.4457 N   0  0  0  0  0  0
  -26.3034  -12.9312   20.3363 N   0  0  0  0  0  0
  -25.9318  -11.6466   20.5718 N   0  0  0  0  0  0
  -22.0523  -12.8275   22.0414 N   0  0  0  0  0  0
  -25.4418  -15.1865   20.4155 N   0  0  0  0  0  0
  -31.8169  -14.6753   20.1019 O   0  0  0  0  0  0
  -21.6645   -6.8848   21.4229 O   0  0  0  0  0  0
  -22.3580  -14.5564   20.6700 O   0  0  0  0  0  0
  -24.6163  -31.8660   23.2106 C   0  0  0  0  0  0
  -25.9052  -32.4809   23.8411 C   0  0  1  0  0  0
  -27.2337  -27.4025   20.1235 C   0  0  0  0  0  0
  -25.5901  -33.8614   24.2326 N   0  0  0  0  0  0
  -23.4086  -30.4879   21.5501 C   0  0  2  0  0  0
  -24.8602  -28.9504   20.1167 C   0  0  0  0  0  0
  -22.7428  -29.4631   22.4972 C   0  0  0  0  0  0
  -18.0268  -28.1376   22.8474 C   0  0  0  0  0  0
  -24.1496  -36.7338   23.2633 C   0  0  0  0  0  0
  -25.9412  -30.8203   21.3745 C   0  0  0  0  0  0
  -26.0198  -29.4532   20.7207 C   0  0  0  0  0  0
  -27.2136  -28.6884   20.7195 C   0  0  0  0  0  0
  -26.0606  -26.9214   19.5078 C   0  0  0  0  0  0
  -24.8759  -27.6846   19.5042 C   0  0  0  0  0  0
  -23.6229  -29.8220   20.1648 C   0  0  0  0  0  0
  -25.4112  -36.3114   24.0329 C   0  0  1  0  0  0
  -20.5863  -28.3667   23.1310 C   0  0  2  0  0  0
  -20.6768  -26.9398   22.5429 C   0  0  0  0  0  0
  -19.5758  -26.6364   21.5221 C   0  0  0  0  0  0
  -18.1926  -26.7916   22.1613 C   0  0  0  0  0  0
  -19.1517  -28.8833   23.2892 C   0  0  0  0  0  0
  -18.9442  -30.1435   23.8909 C   0  0  0  0  0  0
  -17.6448  -30.6585   24.0551 C   0  0  0  0  0  0
  -25.9042  -34.9471   23.5130 C   0  0  0  0  0  0
  -16.5340  -29.9086   23.6313 C   0  0  0  0  0  0
  -16.7257  -28.6501   23.0333 C   0  0  0  0  0  0
  -26.4453  -31.6595   25.0760 C   0  0  0  0  0  0
  -25.3696  -31.3746   26.1500 C   0  0  0  0  0  0
  -27.0262  -30.3006   24.6205 C   0  0  0  0  0  0
  -27.6045  -32.4290   25.7524 C   0  0  0  0  0  0
  -27.5602  -37.1819   24.8437 C   0  0  0  0  0  0
  -21.4151  -29.3034   22.3722 N   0  0  0  0  0  0
  -26.4297  -37.3803   23.9408 N   0  0  0  0  0  0
  -24.6729  -31.0734   22.1029 N   0  0  0  0  0  0
  -23.4182  -28.8167   23.3027 O   0  0  0  0  0  0
  -28.3575  -26.5976   20.1443 O   0  0  0  0  0  0
  -26.5610  -34.8917   22.4695 O   0  0  0  0  0  0
  -23.5346  -32.1423   23.7478 O   0  0  0  0  0  0
  -28.3528  -19.9356   21.8856 C   0  0  0  0  0  0
  -28.5635  -18.5234   21.9740 C   0  0  0  0  0  0
  -29.2275  -20.3960   20.9387 C   0  0  0  0  0  0
  -29.5624  -18.1984   21.0954 C   0  0  0  0  0  0
  -30.6101  -22.0153   19.8493 C   0  0  0  0  0  0
  -29.4627  -21.7819   20.5193 C   0  0  0  0  0  0
  -28.5757  -22.9511   20.7955 C   0  0  0  0  0  0
  -29.0679  -24.2312   20.7439 C   0  0  0  0  0  0
  -30.1964  -16.9522   20.7199 C   0  0  0  0  0  0
  -29.8933  -15.6726   21.0662 C   0  0  0  0  0  0
  -31.0923  -23.3963   19.4577 C   0  0  0  0  0  0
  -30.5255  -24.4803   20.3889 C   0  0  0  0  0  0
  -27.0975  -22.7277   21.0809 C   0  0  0  0  0  0
  -28.2911  -25.5223   21.1152 C   0  0  0  0  0  0
  -29.9785  -19.3458   20.4562 O   0  0  0  0  0  0
  -31.4710  -12.4594   19.1117 H   0  0  0  0  0  0
  -30.3567  -11.3306   19.8209 H   0  0  0  0  0  0
  -29.7442  -11.7826   17.4373 H   0  0  0  0  0  0
  -29.6596  -13.4970   17.7514 H   0  0  0  0  0  0
  -27.8250  -11.3195   18.8018 H   0  0  0  0  0  0
  -27.3680  -12.6609   17.7843 H   0  0  0  0  0  0
  -27.7067  -14.2570   19.5838 H   0  0  0  0  0  0
  -28.7048  -11.9373   21.2987 H   0  0  0  0  0  0
  -28.4587  -13.5352   21.8950 H   0  0  0  0  0  0
  -25.2703   -9.5731   22.4724 H   0  0  0  0  0  0
  -24.0005   -7.4640   22.7433 H   0  0  0  0  0  0
  -21.0797   -8.8717   19.8957 H   0  0  0  0  0  0
  -22.3582  -10.9651   19.6165 H   0  0  0  0  0  0
  -21.2008   -7.6121   23.9690 H   0  0  0  0  0  0
  -21.1505   -6.0502   25.9063 H   0  0  0  0  0  0
  -22.0598   -2.7589   23.2838 H   0  0  0  0  0  0
  -22.4141  -11.9950   22.4830 H   0  0  0  0  0  0
  -21.1149  -13.1334   22.2616 H   0  0  0  0  0  0
  -24.6838  -15.8513   20.5213 H   0  0  0  0  0  0
  -26.3103  -15.6178   20.1216 H   0  0  0  0  0  0
  -26.7129  -32.5513   23.1177 H   0  0  0  0  0  0
  -25.0026  -33.9777   25.0453 H   0  0  0  0  0  0
  -22.6980  -31.3051   21.4111 H   0  0  0  0  0  0
  -23.3750  -35.9680   23.3259 H   0  0  0  0  0  0
  -24.3605  -36.8993   22.2061 H   0  0  0  0  0  0
  -23.7256  -37.6534   23.6673 H   0  0  0  0  0  0
  -26.0671  -31.5859   20.6071 H   0  0  0  0  0  0
  -26.8226  -30.8666   22.0028 H   0  0  0  0  0  0
  -28.1074  -29.0665   21.1962 H   0  0  0  0  0  0
  -26.0605  -25.9446   19.0446 H   0  0  0  0  0  0
  -23.9853  -27.2919   19.0331 H   0  0  0  0  0  0
  -23.7392  -30.5988   19.4088 H   0  0  0  0  0  0
  -22.7460  -29.2464   19.8640 H   0  0  0  0  0  0
  -25.1285  -36.1980   25.0821 H   0  0  0  0  0  0
  -20.9937  -28.3246   24.1441 H   0  0  0  0  0  0
  -20.5667  -26.2282   23.3629 H   0  0  0  0  0  0
  -21.6644  -26.7445   22.1244 H   0  0  0  0  0  0
  -19.6929  -25.6265   21.1280 H   0  0  0  0  0  0
  -19.6717  -27.3143   20.6732 H   0  0  0  0  0  0
  -17.4214  -26.6642   21.4004 H   0  0  0  0  0  0
  -18.0325  -26.0061   22.9009 H   0  0  0  0  0  0
  -19.7923  -30.7225   24.2311 H   0  0  0  0  0  0
  -17.5010  -31.6269   24.5147 H   0  0  0  0  0  0
  -15.5341  -30.2989   23.7640 H   0  0  0  0  0  0
  -15.8656  -28.0826   22.7041 H   0  0  0  0  0  0
  -24.5833  -30.7139   25.7822 H   0  0  0  0  0  0
  -24.8916  -32.2922   26.4951 H   0  0  0  0  0  0
  -25.8002  -30.8887   27.0268 H   0  0  0  0  0  0
  -26.2825  -29.6807   24.1185 H   0  0  0  0  0  0
  -27.3876  -29.7222   25.4721 H   0  0  0  0  0  0
  -27.8731  -30.4251   23.9454 H   0  0  0  0  0  0
  -27.2675  -33.3554   26.2192 H   0  0  0  0  0  0
  -28.3819  -32.6918   25.0335 H   0  0  0  0  0  0
  -28.0764  -31.8361   26.5375 H   0  0  0  0  0  0
  -28.2571  -38.0164   24.7547 H   0  0  0  0  0  0
  -28.1143  -36.2702   24.6159 H   0  0  0  0  0  0
  -27.2343  -37.1349   25.8842 H   0  0  0  0  0  0
  -20.9320  -29.8746   21.6928 H   0  0  0  0  0  0
  -26.0180  -38.2877   24.1419 H   0  0  0  0  0  0
  -27.6603  -20.5223   22.4713 H   0  0  0  0  0  0
  -28.0532  -17.8267   22.6245 H   0  0  0  0  0  0
  -31.2745  -21.2008   19.5918 H   0  0  0  0  0  0
  -31.0414  -17.0942   20.0594 H   0  0  0  0  0  0
  -29.0587  -15.5202   21.7302 H   0  0  0  0  0  0
  -30.7955  -23.5829   18.4249 H   0  0  0  0  0  0
  -32.1823  -23.4179   19.4908 H   0  0  0  0  0  0
  -31.0899  -24.5049   21.3228 H   0  0  0  0  0  0
  -30.6506  -25.4600   19.9264 H   0  0  0  0  0  0
  -26.7663  -21.7501   20.7338 H   0  0  0  0  0  0
  -26.4774  -23.4454   20.5447 H   0  0  0  0  0  0
  -26.8952  -22.8138   22.1492 H   0  0  0  0  0  0
  -28.7510  -25.9056   22.0266 H   0  0  0  0  0  0
  -27.2621  -25.3039   21.3966 H   0  0  0  0  0  0
  1 25  1  0  0  0
  1 30  2  0  0  0
  1 80  1  0  0  0
  2  3  1  0  0  0
  2 25  1  0  0  0
  2 86  1  0  0  0
  2 87  1  0  0  0
  3  4  1  0  0  0
  3 88  1  0  0  0
  3 89  1  0  0  0
  4  5  1  0  0  0
  4 90  1  0  0  0
  4 91  1  0  0  0
  5  6  1  0  0  0
  5 26  1  0  0  0
  5 92  1  0  0  0
  6 25  1  0  0  0
  6 93  1  0  0  0
  6 94  1  0  0  0
  7  8  2  0  0  0
  7 26  1  0  0  0
  7 29  1  0  0  0
  8  9  1  0  0  0
  8 22  1  0  0  0
  9 10  1  0  0  0
  9 27  2  0  0  0
 10 11  2  0  0  0
 10 15  1  0  0  0
 11 12  1  0  0  0
 11 95  1  0  0  0
 12 13  2  0  0  0
 12 96  1  0  0  0
 13 14  1  0  0  0
 13 31  1  0  0  0
 14 15  2  0  0  0
 14 97  1  0  0  0
 15 98  1  0  0  0
 16 17  2  0  0  0
 16 21  1  0  0  0
 16 31  1  0  0  0
 17 18  1  0  0  0
 17 99  1  0  0  0
 18 19  2  0  0  0
 18100  1  0  0  0
 19 20  1  0  0  0
 19 24  1  0  0  0
 20 21  2  0  0  0
 20101  1  0  0  0
 21 23  1  0  0  0
 22 28  1  0  0  0
 22 32  2  0  0  0
 26 27  1  0  0  0
 28102  1  0  0  0
 28103  1  0  0  0
 29104  1  0  0  0
 29105  1  0  0  0
 33 34  1  0  0  0
 33 66  1  0  0  0
 33 70  2  0  0  0
 34 36  1  0  0  0
 34 59  1  0  0  0
 34106  1  0  0  0
 35 44  2  0  0  0
 35 45  1  0  0  0
 35 68  1  0  0  0
 36 56  1  0  0  0
 36107  1  0  0  0
 37 39  1  0  0  0
 37 47  1  0  0  0
 37 66  1  0  0  0
 37108  1  0  0  0
 38 43  2  0  0  0
 38 46  1  0  0  0
 38 47  1  0  0  0
 39 64  1  0  0  0
 39 67  2  0  0  0
 40 52  1  0  0  0
 40 53  2  0  0  0
 40 58  1  0  0  0
 41109  1  0  0  0
 41110  1  0  0  0
 41111  1  0  0  0
 41 48  1  0  0  0
 42 43  1  0  0  0
 42 66  1  0  0  0
 42112  1  0  0  0
 42113  1  0  0  0
 43 44  1  0  0  0
 44114  1  0  0  0
 45 46  2  0  0  0
 45115  1  0  0  0
 46116  1  0  0  0
 47117  1  0  0  0
 47118  1  0  0  0
 48 56  1  0  0  0
 48 65  1  0  0  0
 48119  1  0  0  0
 49 50  1  0  0  0
 49 53  1  0  0  0
 49 64  1  0  0  0
 49120  1  0  0  0
 50 51  1  0  0  0
 50121  1  0  0  0
 50122  1  0  0  0
 51 52  1  0  0  0
 51123  1  0  0  0
 51124  1  0  0  0
 52125  1  0  0  0
 52126  1  0  0  0
 53 54  1  0  0  0
 54 55  2  0  0  0
 54127  1  0  0  0
 55 57  1  0  0  0
 55128  1  0  0  0
 56 69  2  0  0  0
 57 58  2  0  0  0
 57129  1  0  0  0
 58130  1  0  0  0
 59 60  1  0  0  0
 59 61  1  0  0  0
 59 62  1  0  0  0
 60131  1  0  0  0
 60132  1  0  0  0
 60133  1  0  0  0
 61134  1  0  0  0
 61135  1  0  0  0
 61136  1  0  0  0
 62137  1  0  0  0
 62138  1  0  0  0
 62139  1  0  0  0
 63 65  1  0  0  0
 63140  1  0  0  0
 63141  1  0  0  0
 63142  1  0  0  0
 64143  1  0  0  0
 65144  1  0  0  0
 68 84  1  0  0  0
 71 72  1  0  0  0
 71 73  2  0  0  0
 71145  1  0  0  0
 72 74  2  0  0  0
 72146  1  0  0  0
 73 76  1  0  0  0
 73 85  1  0  0  0
 74 79  1  0  0  0
 74 85  1  0  0  0
 75 76  2  0  0  0
 75 81  1  0  0  0
 75147  1  0  0  0
 76 77  1  0  0  0
 77 78  2  0  0  0
 77 83  1  0  0  0
 78 82  1  0  0  0
 78 84  1  0  0  0
 79 80  2  0  0  0
 79148  1  0  0  0
 80149  1  0  0  0
 81 82  1  0  0  0
 81150  1  0  0  0
 81151  1  0  0  0
 82152  1  0  0  0
 82153  1  0  0  0
 83154  1  0  0  0
 83155  1  0  0  0
 83156  1  0  0  0
 84157  1  0  0  0
 84158  1  0  0  0
M  ISO  4   1 100  68 101  80 100  84 101
M  END
> <chiral flag>
0

> <version>
0

> <s_m_source_file>
/data/baiqing/PycharmProjects/Reinvent-master-3.2/result/LINK_invent/BTK/process_docking_weight1_custom_product_contain_oxygen_bond_distance_aromatic_linkinvent_7_9_3/rearranged_h_0131.sdf

> <i_m_source_file_index>
34

> <r_mmod_Potential_Energy-OPLS-2005>
37.4319229125977

> <r_mmod_Stretch_Energy-OPLS-2005>
50.7670822143555

> <r_mmod_Bend_Energy-OPLS-2005>
116.169158935547

> <r_mmod_Torsional_Energy-OPLS-2005>
217.700012207031

> <r_mmod_Improper_Torsional_Energy-OPLS-2005>
3.67800641059875

> <r_mmod_Van_der_Waal_Energy-OPLS-2005>
148.792663574219

> <r_mmod_Electrostatic_Energy-OPLS-2005>
-330.143493652344

> <r_mmod_Solvation_Energy-OPLS-2005>
-190.201583862305

> <b_mmod_Minimization_Converged-OPLS-2005>
0

> <r_mmod_RMS_Derivative-OPLS-2005>
2.33180904388428

$$$$
34
                    3D
 Structure written by MMmdl.
168176  0  0  1  0            999 V2000
  -30.7219  -14.4915   20.3612 C   0  0  0  0  0  0
  -30.3966  -12.2746   19.4255 C   0  0  0  0  0  0
  -29.4697  -12.4429   18.2013 C   0  0  0  0  0  0
  -27.9981  -12.3220   18.6278 C   0  0  0  0  0  0
  -27.6438  -13.2154   19.8469 C   0  0  2  0  0  0
  -28.7034  -13.1074   20.9700 C   0  0  0  0  0  0
  -25.2522  -13.8189   20.5699 C   0  0  0  0  0  0
  -24.1798  -13.0450   20.9205 C   0  0  0  0  0  0
  -24.6374  -11.6924   20.8774 C   0  0  0  0  0  0
  -23.9042  -10.4307   21.0422 C   0  0  0  0  0  0
  -24.3589   -9.4216   21.9194 C   0  0  0  0  0  0
  -23.6267   -8.2250   22.0767 C   0  0  0  0  0  0
  -22.4262   -8.0279   21.3547 C   0  0  0  0  0  0
  -21.9889   -9.0252   20.4655 C   0  0  0  0  0  0
  -22.7214  -10.2137   20.3067 C   0  0  0  0  0  0
  -21.6863   -6.0709   22.5271 C   0  0  0  0  0  0
  -21.4022   -6.5618   23.8195 C   0  0  0  0  0  0
  -21.3671   -5.6783   24.9164 C   0  0  0  0  0  0
  -21.6048   -4.3042   24.7230 C   0  0  0  0  0  0
  -21.8821   -3.8121   23.4356 C   0  0  0  0  0  0
  -21.9198   -4.6934   22.3402 C   0  0  0  0  0  0
  -22.7815  -13.5230   21.1862 C   0  0  0  0  0  0
  -22.1663   -4.2109   21.0981 F   0  0  0  0  0  0
  -21.5637   -3.4538   25.7746 F   0  0  0  0  0  0
  -30.0302  -13.3260   20.3788 N   0  0  0  0  0  0
  -26.2951  -12.9376   20.3330 N   0  0  0  0  0  0
  -25.9298  -11.6533   20.5804 N   0  0  0  0  0  0
  -22.0461  -12.8225   22.0424 N   0  0  0  0  0  0
  -25.4198  -15.1911   20.4093 N   0  0  0  0  0  0
  -31.9477  -14.5454   20.3825 O   0  0  0  0  0  0
  -21.6655   -6.8856   21.4233 O   0  0  0  0  0  0
  -22.3495  -14.5531   20.6707 O   0  0  0  0  0  0
  -24.6119  -31.8683   23.2100 C   0  0  0  0  0  0
  -25.9011  -32.4830   23.8408 C   0  0  1  0  0  0
  -27.2421  -27.4535   20.0859 C   0  0  0  0  0  0
  -25.5865  -33.8629   24.2333 N   0  0  0  0  0  0
  -23.4012  -30.4889   21.5513 C   0  0  2  0  0  0
  -24.8480  -28.9563   20.1129 C   0  0  0  0  0  0
  -22.7405  -29.4642   22.5021 C   0  0  0  0  0  0
  -18.0267  -28.1373   22.8500 C   0  0  0  0  0  0
  -24.1482  -36.7324   23.2644 C   0  0  0  0  0  0
  -25.9270  -30.8340   21.3647 C   0  0  0  0  0  0
  -26.0024  -29.4675   20.7174 C   0  0  0  0  0  0
  -27.1967  -28.7160   20.7146 C   0  0  0  0  0  0
  -26.0689  -26.9486   19.4777 C   0  0  0  0  0  0
  -24.8742  -27.6947   19.4924 C   0  0  0  0  0  0
  -23.6074  -29.8184   20.1659 C   0  0  0  0  0  0
  -25.4103  -36.3128   24.0345 C   0  0  1  0  0  0
  -20.5857  -28.3643   23.1335 C   0  0  2  0  0  0
  -20.6752  -26.9388   22.5419 C   0  0  0  0  0  0
  -19.5729  -26.6383   21.5212 C   0  0  0  0  0  0
  -18.1910  -26.7918   22.1631 C   0  0  0  0  0  0
  -19.1519  -28.8828   23.2911 C   0  0  0  0  0  0
  -18.9444  -30.1438   23.8917 C   0  0  0  0  0  0
  -17.6447  -30.6580   24.0566 C   0  0  0  0  0  0
  -25.9025  -34.9484   23.5144 C   0  0  0  0  0  0
  -16.5338  -29.9085   23.6327 C   0  0  0  0  0  0
  -16.7255  -28.6500   23.0350 C   0  0  0  0  0  0
  -26.4442  -31.6602   25.0726 C   0  0  0  0  0  0
  -25.3717  -31.3675   26.1479 C   0  0  0  0  0  0
  -27.0274  -30.3061   24.6064 C   0  0  0  0  0  0
  -27.6029  -32.4315   25.7474 C   0  0  0  0  0  0
  -27.5585  -37.1816   24.8468 C   0  0  0  0  0  0
  -21.4138  -29.3018   22.3751 N   0  0  0  0  0  0
  -26.4299  -37.3802   23.9411 N   0  0  0  0  0  0
  -24.6650  -31.0790   22.1009 N   0  0  0  0  0  0
  -23.4176  -28.8199   23.3069 O   0  0  0  0  0  0
  -28.4248  -26.7490   20.1037 O   0  0  0  0  0  0
  -26.5604  -34.8928   22.4716 O   0  0  0  0  0  0
  -23.5311  -32.1444   23.7485 O   0  0  0  0  0  0
  -31.6320  -17.5550   17.1285 C   0  0  0  0  0  0
  -29.6941  -17.8302   19.1060 C   0  0  0  0  0  0
  -30.8845  -18.7381   17.1836 C   0  0  0  0  0  0
  -31.3808  -16.4713   17.9831 C   0  0  0  0  0  0
  -29.8961  -18.9015   18.1905 C   0  0  0  0  0  0
  -30.4062  -16.6019   19.0253 C   0  0  0  0  0  0
  -28.3384  -23.8183   17.7726 C   0  0  0  0  0  0
  -28.7521  -22.5913   17.3740 C   0  0  0  0  0  0
  -28.5401  -24.5063   19.0567 C   0  0  0  0  0  0
  -31.1485  -19.7332   16.0716 C   0  0  0  0  0  0
  -32.1672  -15.2141   17.6338 C   0  0  0  0  0  0
  -29.6109  -22.7558   15.0017 C   0  0  0  0  0  0
  -28.9359  -20.1109   18.2371 C   0  0  0  0  0  0
  -28.4845  -22.2440   15.9117 C   0  0  0  0  0  0
  -29.5354  -21.5543   18.2112 C   0  0  0  0  0  0
  -28.7702  -26.0240   18.9229 C   0  0  0  0  0  0
  -30.0061  -15.5494   19.9312 N   0  0  0  0  0  0
  -28.5194  -23.9550   20.1622 O   0  0  0  0  0  0
  -31.4454  -12.3326   19.1289 H   0  0  0  0  0  0
  -30.2595  -11.2927   19.8814 H   0  0  0  0  0  0
  -29.7021  -11.6965   17.4404 H   0  0  0  0  0  0
  -29.6146  -13.4125   17.7265 H   0  0  0  0  0  0
  -27.8143  -11.2754   18.8720 H   0  0  0  0  0  0
  -27.3440  -12.5563   17.7873 H   0  0  0  0  0  0
  -27.6489  -14.2407   19.4768 H   0  0  0  0  0  0
  -28.6687  -12.1270   21.4465 H   0  0  0  0  0  0
  -28.5091  -13.8425   21.7526 H   0  0  0  0  0  0
  -25.2733   -9.5695   22.4768 H   0  0  0  0  0  0
  -23.9978   -7.4649   22.7492 H   0  0  0  0  0  0
  -21.0822   -8.8758   19.8956 H   0  0  0  0  0  0
  -22.3661  -10.9665   19.6175 H   0  0  0  0  0  0
  -21.2016   -7.6129   23.9674 H   0  0  0  0  0  0
  -21.1492   -6.0530   25.9061 H   0  0  0  0  0  0
  -22.0590   -2.7580   23.2875 H   0  0  0  0  0  0
  -22.4072  -11.9887   22.4805 H   0  0  0  0  0  0
  -21.1084  -13.1244   22.2641 H   0  0  0  0  0  0
  -24.6482  -15.8412   20.5158 H   0  0  0  0  0  0
  -26.2651  -15.6343   20.0752 H   0  0  0  0  0  0
  -26.7084  -32.5548   23.1178 H   0  0  0  0  0  0
  -24.9990  -33.9793   25.0460 H   0  0  0  0  0  0
  -22.6897  -31.3047   21.4114 H   0  0  0  0  0  0
  -23.3740  -35.9665   23.3320 H   0  0  0  0  0  0
  -24.3578  -36.8919   22.2059 H   0  0  0  0  0  0
  -23.7226  -37.6531   23.6641 H   0  0  0  0  0  0
  -26.0371  -31.5949   20.5908 H   0  0  0  0  0  0
  -26.8174  -30.8918   21.9792 H   0  0  0  0  0  0
  -28.0907  -29.1068   21.1818 H   0  0  0  0  0  0
  -26.0619  -25.9800   19.0000 H   0  0  0  0  0  0
  -23.9874  -27.2954   19.0202 H   0  0  0  0  0  0
  -23.7070  -30.5904   19.4023 H   0  0  0  0  0  0
  -22.7342  -29.2307   19.8785 H   0  0  0  0  0  0
  -25.1275  -36.2019   25.0839 H   0  0  0  0  0  0
  -20.9940  -28.3195   24.1456 H   0  0  0  0  0  0
  -20.5652  -26.2251   23.3597 H   0  0  0  0  0  0
  -21.6621  -26.7431   22.1212 H   0  0  0  0  0  0
  -19.6886  -25.6299   21.1226 H   0  0  0  0  0  0
  -19.6666  -27.3210   20.6753 H   0  0  0  0  0  0
  -17.4178  -26.6672   21.4034 H   0  0  0  0  0  0
  -18.0309  -26.0057   22.9025 H   0  0  0  0  0  0
  -19.7918  -30.7249   24.2297 H   0  0  0  0  0  0
  -17.4997  -31.6263   24.5161 H   0  0  0  0  0  0
  -15.5336  -30.2992   23.7621 H   0  0  0  0  0  0
  -15.8659  -28.0817   22.7056 H   0  0  0  0  0  0
  -24.5885  -30.7031   25.7800 H   0  0  0  0  0  0
  -24.8906  -32.2814   26.4981 H   0  0  0  0  0  0
  -25.8080  -30.8800   27.0208 H   0  0  0  0  0  0
  -26.2808  -29.6830   24.1123 H   0  0  0  0  0  0
  -27.4077  -29.7279   25.4494 H   0  0  0  0  0  0
  -27.8626  -30.4409   23.9187 H   0  0  0  0  0  0
  -27.2662  -33.3600   26.2099 H   0  0  0  0  0  0
  -28.3803  -32.6899   25.0269 H   0  0  0  0  0  0
  -28.0742  -31.8412   26.5344 H   0  0  0  0  0  0
  -28.2611  -38.0105   24.7514 H   0  0  0  0  0  0
  -28.1070  -36.2636   24.6300 H   0  0  0  0  0  0
  -27.2303  -37.1478   25.8870 H   0  0  0  0  0  0
  -20.9300  -29.8743   21.6977 H   0  0  0  0  0  0
  -26.0201  -38.2891   24.1387 H   0  0  0  0  0  0
  -32.3739  -17.4443   16.3494 H   0  0  0  0  0  0
  -28.9282  -17.9363   19.8616 H   0  0  0  0  0  0
  -27.8156  -24.4213   17.0458 H   0  0  0  0  0  0
  -31.6490  -19.2519   15.2305 H   0  0  0  0  0  0
  -31.8012  -20.5392   16.4051 H   0  0  0  0  0  0
  -30.2183  -20.1310   15.6819 H   0  0  0  0  0  0
  -33.0874  -15.1654   18.2154 H   0  0  0  0  0  0
  -32.4524  -15.2122   16.5807 H   0  0  0  0  0  0
  -31.5964  -14.3052   17.7833 H   0  0  0  0  0  0
  -29.4467  -22.4489   13.9680 H   0  0  0  0  0  0
  -30.5862  -22.3818   15.3114 H   0  0  0  0  0  0
  -29.6659  -23.8442   15.0168 H   0  0  0  0  0  0
  -28.3114  -20.0337   19.1285 H   0  0  0  0  0  0
  -28.2350  -19.9554   17.4206 H   0  0  0  0  0  0
  -27.5513  -22.7144   15.5974 H   0  0  0  0  0  0
  -28.3108  -21.1851   15.7475 H   0  0  0  0  0  0
  -29.6709  -21.8903   19.2379 H   0  0  0  0  0  0
  -30.5420  -21.5545   17.8073 H   0  0  0  0  0  0
  -28.2436  -26.4187   18.0516 H   0  0  0  0  0  0
  -29.8305  -26.1881   18.7291 H   0  0  0  0  0  0
  -29.0152  -15.4811   20.1024 H   0  0  0  0  0  0
  1 25  1  0  0  0
  1 30  2  0  0  0
  1 87  1  0  0  0
  2  3  1  0  0  0
  2 25  1  0  0  0
  2 89  1  0  0  0
  2 90  1  0  0  0
  3  4  1  0  0  0
  3 91  1  0  0  0
  3 92  1  0  0  0
  4  5  1  0  0  0
  4 93  1  0  0  0
  4 94  1  0  0  0
  5  6  1  0  0  0
  5 26  1  0  0  0
  5 95  1  0  0  0
  6 25  1  0  0  0
  6 96  1  0  0  0
  6 97  1  0  0  0
  7  8  2  0  0  0
  7 26  1  0  0  0
  7 29  1  0  0  0
  8  9  1  0  0  0
  8 22  1  0  0  0
  9 10  1  0  0  0
  9 27  2  0  0  0
 10 11  2  0  0  0
 10 15  1  0  0  0
 11 12  1  0  0  0
 11 98  1  0  0  0
 12 13  2  0  0  0
 12 99  1  0  0  0
 13 14  1  0  0  0
 13 31  1  0  0  0
 14 15  2  0  0  0
 14100  1  0  0  0
 15101  1  0  0  0
 16 17  2  0  0  0
 16 21  1  0  0  0
 16 31  1  0  0  0
 17 18  1  0  0  0
 17102  1  0  0  0
 18 19  2  0  0  0
 18103  1  0  0  0
 19 20  1  0  0  0
 19 24  1  0  0  0
 20 21  2  0  0  0
 20104  1  0  0  0
 21 23  1  0  0  0
 22 28  1  0  0  0
 22 32  2  0  0  0
 26 27  1  0  0  0
 28105  1  0  0  0
 28106  1  0  0  0
 29107  1  0  0  0
 29108  1  0  0  0
 33 34  1  0  0  0
 33 66  1  0  0  0
 33 70  2  0  0  0
 34 36  1  0  0  0
 34 59  1  0  0  0
 34109  1  0  0  0
 35 44  2  0  0  0
 35 45  1  0  0  0
 35 68  1  0  0  0
 36 56  1  0  0  0
 36110  1  0  0  0
 37 39  1  0  0  0
 37 47  1  0  0  0
 37 66  1  0  0  0
 37111  1  0  0  0
 38 43  2  0  0  0
 38 46  1  0  0  0
 38 47  1  0  0  0
 39 64  1  0  0  0
 39 67  2  0  0  0
 40 52  1  0  0  0
 40 53  2  0  0  0
 40 58  1  0  0  0
 41112  1  0  0  0
 41113  1  0  0  0
 41114  1  0  0  0
 41 48  1  0  0  0
 42 43  1  0  0  0
 42 66  1  0  0  0
 42115  1  0  0  0
 42116  1  0  0  0
 43 44  1  0  0  0
 44117  1  0  0  0
 45 46  2  0  0  0
 45118  1  0  0  0
 46119  1  0  0  0
 47120  1  0  0  0
 47121  1  0  0  0
 48 56  1  0  0  0
 48 65  1  0  0  0
 48122  1  0  0  0
 49 50  1  0  0  0
 49 53  1  0  0  0
 49 64  1  0  0  0
 49123  1  0  0  0
 50 51  1  0  0  0
 50124  1  0  0  0
 50125  1  0  0  0
 51 52  1  0  0  0
 51126  1  0  0  0
 51127  1  0  0  0
 52128  1  0  0  0
 52129  1  0  0  0
 53 54  1  0  0  0
 54 55  2  0  0  0
 54130  1  0  0  0
 55 57  1  0  0  0
 55131  1  0  0  0
 56 69  2  0  0  0
 57 58  2  0  0  0
 57132  1  0  0  0
 58133  1  0  0  0
 59 60  1  0  0  0
 59 61  1  0  0  0
 59 62  1  0  0  0
 60134  1  0  0  0
 60135  1  0  0  0
 60136  1  0  0  0
 61137  1  0  0  0
 61138  1  0  0  0
 61139  1  0  0  0
 62140  1  0  0  0
 62141  1  0  0  0
 62142  1  0  0  0
 63 65  1  0  0  0
 63143  1  0  0  0
 63144  1  0  0  0
 63145  1  0  0  0
 64146  1  0  0  0
 65147  1  0  0  0
 68 86  1  0  0  0
 71 73  2  0  0  0
 71 74  1  0  0  0
 71148  1  0  0  0
 72 75  2  0  0  0
 72 76  1  0  0  0
 72149  1  0  0  0
 73 75  1  0  0  0
 73 80  1  0  0  0
 74 76  2  0  0  0
 74 81  1  0  0  0
 75 83  1  0  0  0
 76 87  1  0  0  0
 77 78  2  0  0  0
 77 79  1  0  0  0
 77150  1  0  0  0
 78 84  1  0  0  0
 78 85  1  0  0  0
 79 86  1  0  0  0
 79 88  2  0  0  0
 80151  1  0  0  0
 80152  1  0  0  0
 80153  1  0  0  0
 81154  1  0  0  0
 81155  1  0  0  0
 81156  1  0  0  0
 82 84  1  0  0  0
 82157  1  0  0  0
 82158  1  0  0  0
 82159  1  0  0  0
 83 85  1  0  0  0
 83160  1  0  0  0
 83161  1  0  0  0
 84162  1  0  0  0
 84163  1  0  0  0
 85164  1  0  0  0
 85165  1  0  0  0
 86166  1  0  0  0
 86167  1  0  0  0
 87168  1  0  0  0
M  ISO  4   1 100  68 101  86 101  87 100
M  END
> <chiral flag>
0

> <version>
0

> <s_m_source_file>
/data/baiqing/PycharmProjects/Reinvent-master-3.2/result/LINK_invent/BTK/process_docking_weight1_custom_product_contain_oxygen_bond_distance_aromatic_linkinvent_7_9_3/rearranged_h_0131.sdf

> <i_m_source_file_index>
35

> <r_mmod_Potential_Energy-OPLS-2005>
92.3637542724609

> <r_mmod_Stretch_Energy-OPLS-2005>
43.0526390075684

> <r_mmod_Bend_Energy-OPLS-2005>
138.478073120117

> <r_mmod_Torsional_Energy-OPLS-2005>
280.683654785156

> <r_mmod_Improper_Torsional_Energy-OPLS-2005>
12.9982652664185

> <r_mmod_Van_der_Waal_Energy-OPLS-2005>
166.348266601562

> <r_mmod_Electrostatic_Energy-OPLS-2005>
-364.418670654297

> <r_mmod_Solvation_Energy-OPLS-2005>
-224.883514404297

> <b_mmod_Minimization_Converged-OPLS-2005>
0

> <r_mmod_RMS_Derivative-OPLS-2005>
1.99338865280151

$$$$
35
                    3D
 Structure written by MMmdl.
166174  0  0  1  0            999 V2000
  -30.7204  -14.4290   20.5780 C   0  0  0  0  0  0
  -30.4203  -12.2840   19.4082 C   0  0  0  0  0  0
  -29.4899  -12.4923   18.1962 C   0  0  0  0  0  0
  -28.0103  -12.3626   18.6098 C   0  0  0  0  0  0
  -27.6624  -13.1927   19.8733 C   0  0  2  0  0  0
  -28.7057  -12.9660   20.9906 C   0  0  0  0  0  0
  -25.2569  -13.8100   20.5647 C   0  0  0  0  0  0
  -24.1831  -13.0394   20.9179 C   0  0  0  0  0  0
  -24.6383  -11.6864   20.8740 C   0  0  0  0  0  0
  -23.9045  -10.4267   21.0402 C   0  0  0  0  0  0
  -24.3598   -9.4187   21.9179 C   0  0  0  0  0  0
  -23.6280   -8.2225   22.0751 C   0  0  0  0  0  0
  -22.4266   -8.0269   21.3536 C   0  0  0  0  0  0
  -21.9894   -9.0239   20.4640 C   0  0  0  0  0  0
  -22.7221  -10.2114   20.3046 C   0  0  0  0  0  0
  -21.6854   -6.0728   22.5276 C   0  0  0  0  0  0
  -21.4011   -6.5629   23.8208 C   0  0  0  0  0  0
  -21.3652   -5.6786   24.9176 C   0  0  0  0  0  0
  -21.6040   -4.3049   24.7225 C   0  0  0  0  0  0
  -21.8824   -3.8141   23.4348 C   0  0  0  0  0  0
  -21.9190   -4.6957   22.3403 C   0  0  0  0  0  0
  -22.7858  -13.5209   21.1838 C   0  0  0  0  0  0
  -22.1665   -4.2136   21.0982 F   0  0  0  0  0  0
  -21.5620   -3.4533   25.7740 F   0  0  0  0  0  0
  -30.0399  -13.2616   20.4372 N   0  0  0  0  0  0
  -26.3016  -12.9263   20.3351 N   0  0  0  0  0  0
  -25.9305  -11.6438   20.5771 N   0  0  0  0  0  0
  -22.0492  -12.8214   22.0401 N   0  0  0  0  0  0
  -25.4205  -15.1806   20.4001 N   0  0  0  0  0  0
  -31.8443  -14.6165   20.1027 O   0  0  0  0  0  0
  -21.6631   -6.8866   21.4239 O   0  0  0  0  0  0
  -22.3555  -14.5522   20.6689 O   0  0  0  0  0  0
  -24.6101  -31.8708   23.2122 C   0  0  0  0  0  0
  -25.9010  -32.4837   23.8416 C   0  0  1  0  0  0
  -27.2476  -27.4743   20.0755 C   0  0  0  0  0  0
  -25.5879  -33.8635   24.2353 N   0  0  0  0  0  0
  -23.3975  -30.4920   21.5528 C   0  0  2  0  0  0
  -24.8472  -28.9588   20.1172 C   0  0  0  0  0  0
  -22.7385  -29.4665   22.5021 C   0  0  0  0  0  0
  -18.0251  -28.1365   22.8492 C   0  0  0  0  0  0
  -24.1486  -36.7321   23.2642 C   0  0  0  0  0  0
  -25.9229  -30.8413   21.3653 C   0  0  0  0  0  0
  -26.0016  -29.4760   20.7182 C   0  0  0  0  0  0
  -27.2005  -28.7319   20.7111 C   0  0  0  0  0  0
  -26.0750  -26.9558   19.4840 C   0  0  0  0  0  0
  -24.8753  -27.6927   19.5051 C   0  0  0  0  0  0
  -23.6062  -29.8202   20.1679 C   0  0  0  0  0  0
  -25.4102  -36.3124   24.0348 C   0  0  1  0  0  0
  -20.5841  -28.3646   23.1343 C   0  0  2  0  0  0
  -20.6736  -26.9390   22.5427 C   0  0  0  0  0  0
  -19.5719  -26.6381   21.5214 C   0  0  0  0  0  0
  -18.1897  -26.7914   22.1625 C   0  0  0  0  0  0
  -19.1498  -28.8822   23.2910 C   0  0  0  0  0  0
  -18.9430  -30.1433   23.8911 C   0  0  0  0  0  0
  -17.6436  -30.6583   24.0555 C   0  0  0  0  0  0
  -25.9027  -34.9489   23.5151 C   0  0  0  0  0  0
  -16.5326  -29.9082   23.6325 C   0  0  0  0  0  0
  -16.7242  -28.6497   23.0349 C   0  0  0  0  0  0
  -26.4450  -31.6601   25.0732 C   0  0  0  0  0  0
  -25.3741  -31.3705   26.1503 C   0  0  0  0  0  0
  -27.0257  -30.3042   24.6087 C   0  0  0  0  0  0
  -27.6058  -32.4298   25.7472 C   0  0  0  0  0  0
  -27.5587  -37.1805   24.8463 C   0  0  0  0  0  0
  -21.4115  -29.3024   22.3768 N   0  0  0  0  0  0
  -26.4294  -37.3806   23.9416 N   0  0  0  0  0  0
  -24.6612  -31.0825   22.1018 N   0  0  0  0  0  0
  -23.4172  -28.8217   23.3055 O   0  0  0  0  0  0
  -28.4268  -26.7701   20.0689 O   0  0  0  0  0  0
  -26.5594  -34.8936   22.4715 O   0  0  0  0  0  0
  -23.5301  -32.1451   23.7526 O   0  0  0  0  0  0
  -31.7657  -18.7068   21.6094 C   0  0  0  0  0  0
  -31.4618  -17.3339   21.7072 C   0  0  0  0  0  0
  -29.8274  -19.0321   20.1853 C   0  0  0  0  0  0
  -30.9493  -19.5712   20.8511 C   0  0  0  0  0  0
  -29.5093  -17.6628   20.2785 C   0  0  0  0  0  0
  -30.3370  -16.8005   21.0400 C   0  0  0  0  0  0
  -31.3083  -20.9939   20.7190 C   0  0  0  0  0  0
  -30.8863  -21.8024   19.7288 C   0  0  0  0  0  0
  -27.4524  -16.2465   17.2687 C   0  0  0  0  0  0
  -28.2968  -17.1601   19.5137 C   0  0  0  0  0  0
  -31.2113  -23.2750   19.5923 C   0  0  0  0  0  0
  -28.6705  -16.6295   18.1191 C   0  0  0  0  0  0
  -29.9301  -24.1143   19.4564 C   0  0  0  0  0  0
  -30.1878  -25.5444   18.9581 C   0  0  0  0  0  0
  -28.8928  -26.3541   18.7895 C   0  0  0  0  0  0
  -30.0289  -15.4204   21.1608 N   0  0  0  0  0  0
  -31.4645  -12.3774   19.1038 H   0  0  0  0  0  0
  -30.3168  -11.2710   19.7999 H   0  0  0  0  0  0
  -29.7200  -11.7641   17.4172 H   0  0  0  0  0  0
  -29.6679  -13.4740   17.7554 H   0  0  0  0  0  0
  -27.8110  -11.3066   18.7953 H   0  0  0  0  0  0
  -27.3621  -12.6517   17.7813 H   0  0  0  0  0  0
  -27.7110  -14.2367   19.5792 H   0  0  0  0  0  0
  -28.6769  -11.9293   21.3289 H   0  0  0  0  0  0
  -28.4697  -13.5636   21.8719 H   0  0  0  0  0  0
  -25.2746   -9.5669   22.4747 H   0  0  0  0  0  0
  -23.9986   -7.4617   22.7476 H   0  0  0  0  0  0
  -21.0818   -8.8756   19.8955 H   0  0  0  0  0  0
  -22.3680  -10.9646   19.6148 H   0  0  0  0  0  0
  -21.2011   -7.6136   23.9709 H   0  0  0  0  0  0
  -21.1465   -6.0513   25.9072 H   0  0  0  0  0  0
  -22.0605   -2.7603   23.2850 H   0  0  0  0  0  0
  -22.4093  -11.9862   22.4773 H   0  0  0  0  0  0
  -21.1121  -13.1270   22.2626 H   0  0  0  0  0  0
  -24.6400  -15.8224   20.4826 H   0  0  0  0  0  0
  -26.2499  -15.6113   20.0174 H   0  0  0  0  0  0
  -26.7083  -32.5572   23.1191 H   0  0  0  0  0  0
  -25.0017  -33.9795   25.0486 H   0  0  0  0  0  0
  -22.6839  -31.3069   21.4129 H   0  0  0  0  0  0
  -23.3760  -35.9644   23.3292 H   0  0  0  0  0  0
  -24.3587  -36.8940   22.2059 H   0  0  0  0  0  0
  -23.7228  -37.6522   23.6650 H   0  0  0  0  0  0
  -26.0316  -31.6048   20.5936 H   0  0  0  0  0  0
  -26.8125  -30.8980   21.9811 H   0  0  0  0  0  0
  -28.0931  -29.1279   21.1751 H   0  0  0  0  0  0
  -26.0786  -25.9816   19.0149 H   0  0  0  0  0  0
  -23.9857  -27.2838   19.0452 H   0  0  0  0  0  0
  -23.7069  -30.5921   19.4036 H   0  0  0  0  0  0
  -22.7335  -29.2316   19.8782 H   0  0  0  0  0  0
  -25.1277  -36.2000   25.0841 H   0  0  0  0  0  0
  -20.9912  -28.3193   24.1473 H   0  0  0  0  0  0
  -20.5636  -26.2254   23.3603 H   0  0  0  0  0  0
  -21.6607  -26.7435   22.1226 H   0  0  0  0  0  0
  -19.6879  -25.6297   21.1233 H   0  0  0  0  0  0
  -19.6672  -27.3199   20.6751 H   0  0  0  0  0  0
  -17.4177  -26.6669   21.4017 H   0  0  0  0  0  0
  -18.0295  -26.0052   22.9018 H   0  0  0  0  0  0
  -19.7908  -30.7227   24.2301 H   0  0  0  0  0  0
  -17.5002  -31.6270   24.5147 H   0  0  0  0  0  0
  -15.5327  -30.2985   23.7658 H   0  0  0  0  0  0
  -15.8640  -28.0828   22.7056 H   0  0  0  0  0  0
  -24.5862  -30.7110   25.7837 H   0  0  0  0  0  0
  -24.8987  -32.2863   26.5029 H   0  0  0  0  0  0
  -25.8104  -30.8801   27.0219 H   0  0  0  0  0  0
  -26.2768  -29.6826   24.1160 H   0  0  0  0  0  0
  -27.4042  -29.7260   25.4530 H   0  0  0  0  0  0
  -27.8611  -30.4347   23.9203 H   0  0  0  0  0  0
  -27.2709  -33.3606   26.2064 H   0  0  0  0  0  0
  -28.3850  -32.6838   25.0272 H   0  0  0  0  0  0
  -28.0745  -31.8404   26.5367 H   0  0  0  0  0  0
  -28.2601  -38.0106   24.7523 H   0  0  0  0  0  0
  -28.1075  -36.2636   24.6256 H   0  0  0  0  0  0
  -27.2311  -37.1433   25.8868 H   0  0  0  0  0  0
  -20.9274  -29.8774   21.7014 H   0  0  0  0  0  0
  -26.0191  -38.2894   24.1404 H   0  0  0  0  0  0
  -32.6393  -19.0920   22.1165 H   0  0  0  0  0  0
  -32.1036  -16.6909   22.2930 H   0  0  0  0  0  0
  -29.1857  -19.6686   19.5943 H   0  0  0  0  0  0
  -31.9408  -21.4038   21.4942 H   0  0  0  0  0  0
  -30.2659  -21.4065   18.9378 H   0  0  0  0  0  0
  -27.7649  -15.8661   16.2959 H   0  0  0  0  0  0
  -26.8090  -17.1090   17.0909 H   0  0  0  0  0  0
  -26.8500  -15.4741   17.7458 H   0  0  0  0  0  0
  -27.5759  -17.9736   19.4162 H   0  0  0  0  0  0
  -27.7952  -16.4004   20.1060 H   0  0  0  0  0  0
  -31.8301  -23.3903   18.7013 H   0  0  0  0  0  0
  -31.8095  -23.6179   20.4384 H   0  0  0  0  0  0
  -29.2406  -17.3904   17.5836 H   0  0  0  0  0  0
  -29.3339  -15.7708   18.2174 H   0  0  0  0  0  0
  -29.4049  -24.1394   20.4123 H   0  0  0  0  0  0
  -29.2535  -23.6273   18.7523 H   0  0  0  0  0  0
  -30.6890  -25.4910   17.9904 H   0  0  0  0  0  0
  -30.8721  -26.0683   19.6273 H   0  0  0  0  0  0
  -28.1555  -25.7587   18.2500 H   0  0  0  0  0  0
  -29.0920  -27.2402   18.1854 H   0  0  0  0  0  0
  -29.0888  -15.1824   21.4366 H   0  0  0  0  0  0
  1 25  1  0  0  0
  1 30  2  0  0  0
  1 86  1  0  0  0
  2  3  1  0  0  0
  2 25  1  0  0  0
  2 87  1  0  0  0
  2 88  1  0  0  0
  3  4  1  0  0  0
  3 89  1  0  0  0
  3 90  1  0  0  0
  4  5  1  0  0  0
  4 91  1  0  0  0
  4 92  1  0  0  0
  5  6  1  0  0  0
  5 26  1  0  0  0
  5 93  1  0  0  0
  6 25  1  0  0  0
  6 94  1  0  0  0
  6 95  1  0  0  0
  7  8  2  0  0  0
  7 26  1  0  0  0
  7 29  1  0  0  0
  8  9  1  0  0  0
  8 22  1  0  0  0
  9 10  1  0  0  0
  9 27  2  0  0  0
 10 11  2  0  0  0
 10 15  1  0  0  0
 11 12  1  0  0  0
 11 96  1  0  0  0
 12 13  2  0  0  0
 12 97  1  0  0  0
 13 14  1  0  0  0
 13 31  1  0  0  0
 14 15  2  0  0  0
 14 98  1  0  0  0
 15 99  1  0  0  0
 16 17  2  0  0  0
 16 21  1  0  0  0
 16 31  1  0  0  0
 17 18  1  0  0  0
 17100  1  0  0  0
 18 19  2  0  0  0
 18101  1  0  0  0
 19 20  1  0  0  0
 19 24  1  0  0  0
 20 21  2  0  0  0
 20102  1  0  0  0
 21 23  1  0  0  0
 22 28  1  0  0  0
 22 32  2  0  0  0
 26 27  1  0  0  0
 28103  1  0  0  0
 28104  1  0  0  0
 29105  1  0  0  0
 29106  1  0  0  0
 33 34  1  0  0  0
 33 66  1  0  0  0
 33 70  2  0  0  0
 34 36  1  0  0  0
 34 59  1  0  0  0
 34107  1  0  0  0
 35 44  2  0  0  0
 35 45  1  0  0  0
 35 68  1  0  0  0
 36 56  1  0  0  0
 36108  1  0  0  0
 37 39  1  0  0  0
 37 47  1  0  0  0
 37 66  1  0  0  0
 37109  1  0  0  0
 38 43  2  0  0  0
 38 46  1  0  0  0
 38 47  1  0  0  0
 39 64  1  0  0  0
 39 67  2  0  0  0
 40 52  1  0  0  0
 40 53  2  0  0  0
 40 58  1  0  0  0
 41110  1  0  0  0
 41111  1  0  0  0
 41112  1  0  0  0
 41 48  1  0  0  0
 42 43  1  0  0  0
 42 66  1  0  0  0
 42113  1  0  0  0
 42114  1  0  0  0
 43 44  1  0  0  0
 44115  1  0  0  0
 45 46  2  0  0  0
 45116  1  0  0  0
 46117  1  0  0  0
 47118  1  0  0  0
 47119  1  0  0  0
 48 56  1  0  0  0
 48 65  1  0  0  0
 48120  1  0  0  0
 49 50  1  0  0  0
 49 53  1  0  0  0
 49 64  1  0  0  0
 49121  1  0  0  0
 50 51  1  0  0  0
 50122  1  0  0  0
 50123  1  0  0  0
 51 52  1  0  0  0
 51124  1  0  0  0
 51125  1  0  0  0
 52126  1  0  0  0
 52127  1  0  0  0
 53 54  1  0  0  0
 54 55  2  0  0  0
 54128  1  0  0  0
 55 57  1  0  0  0
 55129  1  0  0  0
 56 69  2  0  0  0
 57 58  2  0  0  0
 57130  1  0  0  0
 58131  1  0  0  0
 59 60  1  0  0  0
 59 61  1  0  0  0
 59 62  1  0  0  0
 60132  1  0  0  0
 60133  1  0  0  0
 60134  1  0  0  0
 61135  1  0  0  0
 61136  1  0  0  0
 61137  1  0  0  0
 62138  1  0  0  0
 62139  1  0  0  0
 62140  1  0  0  0
 63 65  1  0  0  0
 63141  1  0  0  0
 63142  1  0  0  0
 63143  1  0  0  0
 64144  1  0  0  0
 65145  1  0  0  0
 68 85  1  0  0  0
 71 72  2  0  0  0
 71 74  1  0  0  0
 71146  1  0  0  0
 72 76  1  0  0  0
 72147  1  0  0  0
 73 74  2  0  0  0
 73 75  1  0  0  0
 73148  1  0  0  0
 74 77  1  0  0  0
 75 76  2  0  0  0
 75 80  1  0  0  0
 76 86  1  0  0  0
 77 78  2  0  0  0
 77149  1  0  0  0
 78 81  1  0  0  0
 78150  1  0  0  0
 79 82  1  0  0  0
 79151  1  0  0  0
 79152  1  0  0  0
 79153  1  0  0  0
 80 82  1  0  0  0
 80154  1  0  0  0
 80155  1  0  0  0
 81 83  1  0  0  0
 81156  1  0  0  0
 81157  1  0  0  0
 82158  1  0  0  0
 82159  1  0  0  0
 83 84  1  0  0  0
 83160  1  0  0  0
 83161  1  0  0  0
 84 85  1  0  0  0
 84162  1  0  0  0
 84163  1  0  0  0
 85164  1  0  0  0
 85165  1  0  0  0
 86166  1  0  0  0
M  ISO  4   1 100  68 101  85 101  86 100
M  END
> <chiral flag>
0

> <version>
0

> <s_m_source_file>
/data/baiqing/PycharmProjects/Reinvent-master-3.2/result/LINK_invent/BTK/process_docking_weight1_custom_product_contain_oxygen_bond_distance_aromatic_linkinvent_7_9_3/rearranged_h_0131.sdf

> <i_m_source_file_index>
36

> <r_mmod_Potential_Energy-OPLS-2005>
-44.3486328125

> <r_mmod_Stretch_Energy-OPLS-2005>
31.5000095367432

> <r_mmod_Bend_Energy-OPLS-2005>
85.1749038696289

> <r_mmod_Torsional_Energy-OPLS-2005>
247.385650634766

> <r_mmod_Improper_Torsional_Energy-OPLS-2005>
4.46457386016846

> <r_mmod_Van_der_Waal_Energy-OPLS-2005>
141.223083496094

> <r_mmod_Electrostatic_Energy-OPLS-2005>
-367.320495605469

> <r_mmod_Solvation_Energy-OPLS-2005>
-196.428192138672

> <b_mmod_Minimization_Converged-OPLS-2005>
0

> <r_mmod_RMS_Derivative-OPLS-2005>
1.32222962379456

$$$$
36
                    3D
 Structure written by MMmdl.
158166  0  0  1  0            999 V2000
  -30.6951  -14.7238   20.5727 C   0  0  0  0  0  0
  -30.4254  -12.4696   19.4988 C   0  0  0  0  0  0
  -29.5128  -12.5395   18.2556 C   0  0  0  0  0  0
  -28.0416  -12.3508   18.6632 C   0  0  0  0  0  0
  -27.6505  -13.2403   19.8716 C   0  0  2  0  0  0
  -28.6926  -13.1543   21.0132 C   0  0  0  0  0  0
  -25.2474  -13.8207   20.5613 C   0  0  0  0  0  0
  -24.1798  -13.0443   20.9174 C   0  0  0  0  0  0
  -24.6421  -11.6928   20.8767 C   0  0  0  0  0  0
  -23.9093  -10.4297   21.0422 C   0  0  0  0  0  0
  -24.3625   -9.4207   21.9200 C   0  0  0  0  0  0
  -23.6287   -8.2246   22.0768 C   0  0  0  0  0  0
  -22.4278   -8.0291   21.3551 C   0  0  0  0  0  0
  -21.9928   -9.0267   20.4649 C   0  0  0  0  0  0
  -22.7267  -10.2140   20.3063 C   0  0  0  0  0  0
  -21.6849   -6.0739   22.5274 C   0  0  0  0  0  0
  -21.4017   -6.5642   23.8206 C   0  0  0  0  0  0
  -21.3657   -5.6793   24.9168 C   0  0  0  0  0  0
  -21.6042   -4.3057   24.7222 C   0  0  0  0  0  0
  -21.8817   -3.8147   23.4341 C   0  0  0  0  0  0
  -21.9189   -4.6966   22.3397 C   0  0  0  0  0  0
  -22.7813  -13.5211   21.1835 C   0  0  0  0  0  0
  -22.1656   -4.2150   21.0976 F   0  0  0  0  0  0
  -21.5629   -3.4542   25.7732 F   0  0  0  0  0  0
  -30.0048  -13.5233   20.4654 N   0  0  0  0  0  0
  -26.2972  -12.9457   20.3371 N   0  0  0  0  0  0
  -25.9369  -11.6587   20.5828 N   0  0  0  0  0  0
  -22.0461  -12.8214   22.0400 N   0  0  0  0  0  0
  -25.4064  -15.1916   20.3875 N   0  0  0  0  0  0
  -31.7588  -14.8487   19.9563 O   0  0  0  0  0  0
  -21.6640   -6.8889   21.4240 O   0  0  0  0  0  0
  -22.3479  -14.5504   20.6676 O   0  0  0  0  0  0
  -24.6357  -31.8531   23.1990 C   0  0  0  0  0  0
  -25.9170  -32.4736   23.8346 C   0  0  1  0  0  0
  -27.2214  -27.2406   20.1379 C   0  0  0  0  0  0
  -25.5955  -33.8536   24.2267 N   0  0  0  0  0  0
  -23.4337  -30.4779   21.5436 C   0  0  2  0  0  0
  -24.8819  -28.9255   20.1118 C   0  0  0  0  0  0
  -22.7521  -29.4597   22.4906 C   0  0  0  0  0  0
  -18.0295  -28.1397   22.8478 C   0  0  0  0  0  0
  -24.1479  -36.7271   23.2643 C   0  0  0  0  0  0
  -25.9819  -30.7607   21.3823 C   0  0  0  0  0  0
  -26.0557  -29.3823   20.7241 C   0  0  0  0  0  0
  -27.2292  -28.5553   20.7242 C   0  0  0  0  0  0
  -26.0225  -26.8653   19.4851 C   0  0  0  0  0  0
  -24.8720  -27.6760   19.4794 C   0  0  0  0  0  0
  -23.6538  -29.8140   20.1600 C   0  0  0  0  0  0
  -25.4105  -36.3054   24.0327 C   0  0  1  0  0  0
  -20.5900  -28.3716   23.1253 C   0  0  2  0  0  0
  -20.6791  -26.9437   22.5391 C   0  0  0  0  0  0
  -19.5754  -26.6400   21.5208 C   0  0  0  0  0  0
  -18.1937  -26.7941   22.1612 C   0  0  0  0  0  0
  -19.1552  -28.8878   23.2854 C   0  0  0  0  0  0
  -18.9470  -30.1474   23.8871 C   0  0  0  0  0  0
  -17.6474  -30.6601   24.0561 C   0  0  0  0  0  0
  -25.9057  -34.9425   23.5098 C   0  0  0  0  0  0
  -16.5356  -29.9093   23.6349 C   0  0  0  0  0  0
  -16.7285  -28.6512   23.0362 C   0  0  0  0  0  0
  -26.4540  -31.6570   25.0734 C   0  0  0  0  0  0
  -25.3750  -31.3678   26.1443 C   0  0  0  0  0  0
  -27.0432  -30.2994   24.6242 C   0  0  0  0  0  0
  -27.6079  -32.4337   25.7508 C   0  0  0  0  0  0
  -27.5576  -37.1776   24.8463 C   0  0  0  0  0  0
  -21.4226  -29.3054   22.3641 N   0  0  0  0  0  0
  -26.4270  -37.3766   23.9431 N   0  0  0  0  0  0
  -24.7034  -31.0481   22.0985 N   0  0  0  0  0  0
  -23.4201  -28.8136   23.3019 O   0  0  0  0  0  0
  -28.2939  -26.3095   20.2074 O   0  0  0  0  0  0
  -26.5625  -34.8907   22.4662 O   0  0  0  0  0  0
  -23.5494  -32.1379   23.7260 O   0  0  0  0  0  0
  -27.2958  -18.2758   21.9181 C   0  0  0  0  0  0
  -27.7190  -19.4927   21.3672 C   0  0  0  0  0  0
  -29.8496  -18.4515   20.8701 C   0  0  0  0  0  0
  -29.4317  -17.1472   21.4029 C   0  0  0  0  0  0
  -28.1530  -17.1624   22.0497 C   0  0  0  0  0  0
  -29.0363  -19.6726   20.8985 C   0  0  0  0  0  0
  -26.8250  -15.8132   25.3933 C   0  0  0  0  0  0
  -27.1723  -16.5923   24.3568 C   0  0  0  0  0  0
  -30.3539  -15.8901   21.6167 C   0  0  0  0  0  0
  -29.0212  -23.6759   20.3944 C   0  0  0  0  0  0
  -27.6697  -16.0681   23.0167 C   0  0  0  0  0  0
  -28.5270  -22.1699   20.6823 C   0  0  0  0  0  0
  -27.9219  -24.8386   20.2158 C   0  0  0  0  0  0
  -30.9549  -15.8303   22.7330 N   0  0  0  0  0  0
  -30.2277  -23.9345   20.3117 O   0  0  0  0  0  0
  -29.4628  -20.9945   20.5257 O   0  0  0  0  0  0
  -31.4701  -12.5635   19.1992 H   0  0  0  0  0  0
  -30.3547  -11.4860   19.9667 H   0  0  0  0  0  0
  -29.8020  -11.7778   17.5308 H   0  0  0  0  0  0
  -29.6406  -13.5021   17.7591 H   0  0  0  0  0  0
  -27.9044  -11.2995   18.9217 H   0  0  0  0  0  0
  -27.3825  -12.5451   17.8159 H   0  0  0  0  0  0
  -27.6536  -14.2688   19.5091 H   0  0  0  0  0  0
  -28.7229  -12.1478   21.4328 H   0  0  0  0  0  0
  -28.4099  -13.8023   21.8316 H   0  0  0  0  0  0
  -25.2761   -9.5681   22.4791 H   0  0  0  0  0  0
  -23.9985   -7.4648   22.7507 H   0  0  0  0  0  0
  -21.0855   -8.8798   19.8956 H   0  0  0  0  0  0
  -22.3731  -10.9683   19.6173 H   0  0  0  0  0  0
  -21.2018   -7.6151   23.9709 H   0  0  0  0  0  0
  -21.1478   -6.0525   25.9070 H   0  0  0  0  0  0
  -22.0600   -2.7610   23.2837 H   0  0  0  0  0  0
  -22.4065  -11.9865   22.4785 H   0  0  0  0  0  0
  -21.1082  -13.1255   22.2600 H   0  0  0  0  0  0
  -24.6401  -15.8434   20.5108 H   0  0  0  0  0  0
  -26.2671  -15.6441   20.1081 H   0  0  0  0  0  0
  -26.7232  -32.5388   23.1085 H   0  0  0  0  0  0
  -25.0112  -33.9660   25.0422 H   0  0  0  0  0  0
  -22.7312  -31.3010   21.3977 H   0  0  0  0  0  0
  -23.3747  -35.9594   23.3281 H   0  0  0  0  0  0
  -24.3572  -36.8933   22.2064 H   0  0  0  0  0  0
  -23.7227  -37.6457   23.6694 H   0  0  0  0  0  0
  -26.1224  -31.5178   20.6097 H   0  0  0  0  0  0
  -26.8581  -30.8113   22.0172 H   0  0  0  0  0  0
  -28.1243  -28.9008   21.2233 H   0  0  0  0  0  0
  -25.9337  -25.9185   18.9761 H   0  0  0  0  0  0
  -23.9760  -27.3233   18.9878 H   0  0  0  0  0  0
  -23.7799  -30.5918   19.4066 H   0  0  0  0  0  0
  -22.7707  -29.2504   19.8538 H   0  0  0  0  0  0
  -25.1275  -36.1892   25.0820 H   0  0  0  0  0  0
  -20.9969  -28.3306   24.1385 H   0  0  0  0  0  0
  -20.5727  -26.2324   23.3595 H   0  0  0  0  0  0
  -21.6653  -26.7480   22.1175 H   0  0  0  0  0  0
  -19.6922  -25.6311   21.1255 H   0  0  0  0  0  0
  -19.6698  -27.3187   20.6720 H   0  0  0  0  0  0
  -17.4211  -26.6690   21.4009 H   0  0  0  0  0  0
  -18.0320  -26.0078   22.9005 H   0  0  0  0  0  0
  -19.7946  -30.7290   24.2231 H   0  0  0  0  0  0
  -17.5033  -31.6277   24.5169 H   0  0  0  0  0  0
  -15.5354  -30.2985   23.7708 H   0  0  0  0  0  0
  -15.8678  -28.0838   22.7084 H   0  0  0  0  0  0
  -24.5947  -30.7019   25.7755 H   0  0  0  0  0  0
  -24.8905  -32.2811   26.4890 H   0  0  0  0  0  0
  -25.8063  -30.8843   27.0213 H   0  0  0  0  0  0
  -26.3041  -29.6674   24.1299 H   0  0  0  0  0  0
  -27.4176  -29.7322   25.4776 H   0  0  0  0  0  0
  -27.8881  -30.4304   23.9473 H   0  0  0  0  0  0
  -27.2720  -33.3702   26.1976 H   0  0  0  0  0  0
  -28.3930  -32.6797   25.0341 H   0  0  0  0  0  0
  -28.0693  -31.8525   26.5502 H   0  0  0  0  0  0
  -28.2544  -38.0127   24.7592 H   0  0  0  0  0  0
  -28.1134  -36.2658   24.6196 H   0  0  0  0  0  0
  -27.2302  -37.1307   25.8868 H   0  0  0  0  0  0
  -20.9433  -29.8772   21.6830 H   0  0  0  0  0  0
  -26.0140  -38.2830   24.1477 H   0  0  0  0  0  0
  -26.3027  -18.2404   22.3453 H   0  0  0  0  0  0
  -27.0060  -20.3021   21.3891 H   0  0  0  0  0  0
  -30.8617  -18.5318   20.4996 H   0  0  0  0  0  0
  -26.4774  -16.2464   26.3214 H   0  0  0  0  0  0
  -26.8825  -14.7361   25.3371 H   0  0  0  0  0  0
  -27.0957  -17.6639   24.4771 H   0  0  0  0  0  0
  -28.4441  -15.3569   23.2842 H   0  0  0  0  0  0
  -26.8712  -15.4955   22.5506 H   0  0  0  0  0  0
  -27.6572  -21.9947   20.0501 H   0  0  0  0  0  0
  -28.1672  -22.1717   21.7119 H   0  0  0  0  0  0
  -27.1710  -24.6894   20.9930 H   0  0  0  0  0  0
  -27.4405  -24.5960   19.2701 H   0  0  0  0  0  0
  -30.7051  -16.6192   23.3172 H   0  0  0  0  0  0
  1 25  1  0  0  0
  1 30  2  0  0  0
  1 79  1  0  0  0
  2  3  1  0  0  0
  2 25  1  0  0  0
  2 87  1  0  0  0
  2 88  1  0  0  0
  3  4  1  0  0  0
  3 89  1  0  0  0
  3 90  1  0  0  0
  4  5  1  0  0  0
  4 91  1  0  0  0
  4 92  1  0  0  0
  5  6  1  0  0  0
  5 26  1  0  0  0
  5 93  1  0  0  0
  6 25  1  0  0  0
  6 94  1  0  0  0
  6 95  1  0  0  0
  7  8  2  0  0  0
  7 26  1  0  0  0
  7 29  1  0  0  0
  8  9  1  0  0  0
  8 22  1  0  0  0
  9 10  1  0  0  0
  9 27  2  0  0  0
 10 11  2  0  0  0
 10 15  1  0  0  0
 11 12  1  0  0  0
 11 96  1  0  0  0
 12 13  2  0  0  0
 12 97  1  0  0  0
 13 14  1  0  0  0
 13 31  1  0  0  0
 14 15  2  0  0  0
 14 98  1  0  0  0
 15 99  1  0  0  0
 16 17  2  0  0  0
 16 21  1  0  0  0
 16 31  1  0  0  0
 17 18  1  0  0  0
 17100  1  0  0  0
 18 19  2  0  0  0
 18101  1  0  0  0
 19 20  1  0  0  0
 19 24  1  0  0  0
 20 21  2  0  0  0
 20102  1  0  0  0
 21 23  1  0  0  0
 22 28  1  0  0  0
 22 32  2  0  0  0
 26 27  1  0  0  0
 28103  1  0  0  0
 28104  1  0  0  0
 29105  1  0  0  0
 29106  1  0  0  0
 33 34  1  0  0  0
 33 66  1  0  0  0
 33 70  2  0  0  0
 34 36  1  0  0  0
 34 59  1  0  0  0
 34107  1  0  0  0
 35 44  2  0  0  0
 35 45  1  0  0  0
 35 68  1  0  0  0
 36 56  1  0  0  0
 36108  1  0  0  0
 37 39  1  0  0  0
 37 47  1  0  0  0
 37 66  1  0  0  0
 37109  1  0  0  0
 38 43  2  0  0  0
 38 46  1  0  0  0
 38 47  1  0  0  0
 39 64  1  0  0  0
 39 67  2  0  0  0
 40 52  1  0  0  0
 40 53  2  0  0  0
 40 58  1  0  0  0
 41110  1  0  0  0
 41111  1  0  0  0
 41112  1  0  0  0
 41 48  1  0  0  0
 42 43  1  0  0  0
 42 66  1  0  0  0
 42113  1  0  0  0
 42114  1  0  0  0
 43 44  1  0  0  0
 44115  1  0  0  0
 45 46  2  0  0  0
 45116  1  0  0  0
 46117  1  0  0  0
 47118  1  0  0  0
 47119  1  0  0  0
 48 56  1  0  0  0
 48 65  1  0  0  0
 48120  1  0  0  0
 49 50  1  0  0  0
 49 53  1  0  0  0
 49 64  1  0  0  0
 49121  1  0  0  0
 50 51  1  0  0  0
 50122  1  0  0  0
 50123  1  0  0  0
 51 52  1  0  0  0
 51124  1  0  0  0
 51125  1  0  0  0
 52126  1  0  0  0
 52127  1  0  0  0
 53 54  1  0  0  0
 54 55  2  0  0  0
 54128  1  0  0  0
 55 57  1  0  0  0
 55129  1  0  0  0
 56 69  2  0  0  0
 57 58  2  0  0  0
 57130  1  0  0  0
 58131  1  0  0  0
 59 60  1  0  0  0
 59 61  1  0  0  0
 59 62  1  0  0  0
 60132  1  0  0  0
 60133  1  0  0  0
 60134  1  0  0  0
 61135  1  0  0  0
 61136  1  0  0  0
 61137  1  0  0  0
 62138  1  0  0  0
 62139  1  0  0  0
 62140  1  0  0  0
 63 65  1  0  0  0
 63141  1  0  0  0
 63142  1  0  0  0
 63143  1  0  0  0
 64144  1  0  0  0
 65145  1  0  0  0
 68 83  1  0  0  0
 71 72  2  0  0  0
 71 75  1  0  0  0
 71146  1  0  0  0
 72 76  1  0  0  0
 72147  1  0  0  0
 73 74  1  0  0  0
 73 76  2  0  0  0
 73148  1  0  0  0
 74 75  2  0  0  0
 74 79  1  0  0  0
 75 81  1  0  0  0
 76 86  1  0  0  0
 77 78  2  0  0  0
 77149  1  0  0  0
 77150  1  0  0  0
 78 81  1  0  0  0
 78151  1  0  0  0
 79 84  2  0  0  0
 80 82  1  0  0  0
 80 83  1  0  0  0
 80 85  2  0  0  0
 81152  1  0  0  0
 81153  1  0  0  0
 82 86  1  0  0  0
 82154  1  0  0  0
 82155  1  0  0  0
 83156  1  0  0  0
 83157  1  0  0  0
 84158  1  0  0  0
M  ISO  4   1 100  68 101  79 100  83 101
M  END
> <chiral flag>
0

> <version>
0

> <s_m_source_file>
/data/baiqing/PycharmProjects/Reinvent-master-3.2/result/LINK_invent/BTK/process_docking_weight1_custom_product_contain_oxygen_bond_distance_aromatic_linkinvent_7_9_3/rearranged_h_0131.sdf

> <i_m_source_file_index>
37

> <r_mmod_Potential_Energy-OPLS-2005>
463.781860351562

> <r_mmod_Stretch_Energy-OPLS-2005>
161.548110961914

> <r_mmod_Bend_Energy-OPLS-2005>
218.339736938477

> <r_mmod_Torsional_Energy-OPLS-2005>
252.961227416992

> <r_mmod_Improper_Torsional_Energy-OPLS-2005>
7.59749984741211

> <r_mmod_Van_der_Waal_Energy-OPLS-2005>
146.859527587891

> <r_mmod_Electrostatic_Energy-OPLS-2005>
-174.445053100586

> <r_mmod_Solvation_Energy-OPLS-2005>
-237.446395874023

> <b_mmod_Minimization_Converged-OPLS-2005>
0

> <r_mmod_RMS_Derivative-OPLS-2005>
1.84206593036652

$$$$
37
                    3D
 Structure written by MMmdl.
155163  0  0  1  0            999 V2000
  -30.5973  -14.5744   20.5404 C   0  0  0  0  0  0
  -30.4362  -12.3498   19.4505 C   0  0  0  0  0  0
  -29.5024  -12.4927   18.2257 C   0  0  0  0  0  0
  -28.0256  -12.3338   18.6392 C   0  0  0  0  0  0
  -27.6572  -13.1962   19.8749 C   0  0  2  0  0  0
  -28.6935  -12.9909   21.0038 C   0  0  0  0  0  0
  -25.2541  -13.8137   20.5575 C   0  0  0  0  0  0
  -24.1814  -13.0418   20.9169 C   0  0  0  0  0  0
  -24.6362  -11.6876   20.8764 C   0  0  0  0  0  0
  -23.9035  -10.4279   21.0437 C   0  0  0  0  0  0
  -24.3594   -9.4196   21.9211 C   0  0  0  0  0  0
  -23.6276   -8.2223   22.0758 C   0  0  0  0  0  0
  -22.4268   -8.0269   21.3546 C   0  0  0  0  0  0
  -21.9899   -9.0236   20.4647 C   0  0  0  0  0  0
  -22.7204  -10.2133   20.3071 C   0  0  0  0  0  0
  -21.6820   -6.0725   22.5270 C   0  0  0  0  0  0
  -21.3986   -6.5626   23.8206 C   0  0  0  0  0  0
  -21.3686   -5.6783   24.9183 C   0  0  0  0  0  0
  -21.6039   -4.3037   24.7226 C   0  0  0  0  0  0
  -21.8816   -3.8135   23.4348 C   0  0  0  0  0  0
  -21.9189   -4.6959   22.3407 C   0  0  0  0  0  0
  -22.7861  -13.5229   21.1848 C   0  0  0  0  0  0
  -22.1650   -4.2145   21.0983 F   0  0  0  0  0  0
  -21.5660   -3.4534   25.7751 F   0  0  0  0  0  0
  -30.0173  -13.3407   20.4604 N   0  0  0  0  0  0
  -26.2982  -12.9269   20.3335 N   0  0  0  0  0  0
  -25.9279  -11.6461   20.5798 N   0  0  0  0  0  0
  -22.0498  -12.8235   22.0426 N   0  0  0  0  0  0
  -25.4208  -15.1830   20.3729 N   0  0  0  0  0  0
  -31.7276  -14.7946   20.0845 O   0  0  0  0  0  0
  -21.6607   -6.8887   21.4244 O   0  0  0  0  0  0
  -22.3563  -14.5558   20.6738 O   0  0  0  0  0  0
  -24.6274  -31.8613   23.2021 C   0  0  0  0  0  0
  -25.9158  -32.4743   23.8364 C   0  0  1  0  0  0
  -27.2045  -27.3186   20.1252 C   0  0  0  0  0  0
  -25.6036  -33.8541   24.2303 N   0  0  0  0  0  0
  -23.4254  -30.4835   21.5431 C   0  0  2  0  0  0
  -24.8687  -28.9488   20.1014 C   0  0  0  0  0  0
  -22.7524  -29.4587   22.4885 C   0  0  0  0  0  0
  -18.0296  -28.1374   22.8424 C   0  0  0  0  0  0
  -24.1506  -36.7262   23.2643 C   0  0  0  0  0  0
  -25.9644  -30.7908   21.3784 C   0  0  0  0  0  0
  -26.0398  -29.4220   20.7120 C   0  0  0  0  0  0
  -27.2200  -28.6240   20.6998 C   0  0  0  0  0  0
  -26.0218  -26.9025   19.4759 C   0  0  0  0  0  0
  -24.8636  -27.6967   19.4660 C   0  0  0  0  0  0
  -23.6416  -29.8355   20.1502 C   0  0  0  0  0  0
  -25.4121  -36.3040   24.0347 C   0  0  1  0  0  0
  -20.5911  -28.3676   23.1236 C   0  0  2  0  0  0
  -20.6786  -26.9402   22.5368 C   0  0  0  0  0  0
  -19.5765  -26.6373   21.5149 C   0  0  0  0  0  0
  -18.1932  -26.7903   22.1573 C   0  0  0  0  0  0
  -19.1577  -28.8841   23.2787 C   0  0  0  0  0  0
  -18.9483  -30.1400   23.8848 C   0  0  0  0  0  0
  -17.6491  -30.6581   24.0520 C   0  0  0  0  0  0
  -25.9067  -34.9417   23.5104 C   0  0  0  0  0  0
  -16.5366  -29.9062   23.6313 C   0  0  0  0  0  0
  -16.7273  -28.6490   23.0310 C   0  0  0  0  0  0
  -26.4562  -31.6556   25.0744 C   0  0  0  0  0  0
  -25.3810  -31.3710   26.1483 C   0  0  0  0  0  0
  -27.0398  -30.2974   24.6192 C   0  0  0  0  0  0
  -27.6110  -32.4336   25.7511 C   0  0  0  0  0  0
  -27.5582  -37.1776   24.8474 C   0  0  0  0  0  0
  -21.4232  -29.3027   22.3643 N   0  0  0  0  0  0
  -26.4293  -37.3752   23.9405 N   0  0  0  0  0  0
  -24.6903  -31.0629   22.0979 N   0  0  0  0  0  0
  -23.4228  -28.8085   23.2963 O   0  0  0  0  0  0
  -28.2800  -26.4303   20.1920 O   0  0  0  0  0  0
  -26.5577  -34.8900   22.4631 O   0  0  0  0  0  0
  -23.5442  -32.1420   23.7354 O   0  0  0  0  0  0
  -28.6770  -19.1995   21.2616 C   0  0  0  0  0  0
  -30.0422  -17.5134   19.4865 C   0  0  0  0  0  0
  -28.9354  -17.8422   21.6096 C   0  0  0  0  0  0
  -29.0886  -19.7559   20.0327 C   0  0  0  0  0  0
  -29.6369  -16.9603   20.7317 C   0  0  0  0  0  0
  -29.7706  -18.8717   19.1470 C   0  0  0  0  0  0
  -28.7669  -23.8815   20.0828 C   0  0  0  0  0  0
  -28.4193  -17.3943   22.9636 C   0  0  0  0  0  0
  -28.7172  -21.2222   19.6076 C   0  0  0  0  0  0
  -28.6610  -22.4124   20.6658 C   0  0  0  0  0  0
  -27.9538  -25.0755   20.7112 C   0  0  0  0  0  0
  -29.8139  -15.5523   21.0738 N   0  0  0  0  0  0
  -29.5194  -24.1033   19.1277 O   0  0  0  0  0  0
  -30.1445  -19.3148   17.9202 F   0  0  0  0  0  0
  -31.4792  -12.4772   19.1532 H   0  0  0  0  0  0
  -30.3687  -11.3414   19.8646 H   0  0  0  0  0  0
  -29.7561  -11.7475   17.4704 H   0  0  0  0  0  0
  -29.6478  -13.4661   17.7561 H   0  0  0  0  0  0
  -27.8649  -11.2799   18.8723 H   0  0  0  0  0  0
  -27.3649  -12.5607   17.8016 H   0  0  0  0  0  0
  -27.6938  -14.2389   19.5599 H   0  0  0  0  0  0
  -28.6895  -11.9512   21.3345 H   0  0  0  0  0  0
  -28.4332  -13.5734   21.8878 H   0  0  0  0  0  0
  -25.2743   -9.5640   22.4784 H   0  0  0  0  0  0
  -23.9980   -7.4607   22.7449 H   0  0  0  0  0  0
  -21.0846   -8.8748   19.8932 H   0  0  0  0  0  0
  -22.3666  -10.9682   19.6182 H   0  0  0  0  0  0
  -21.1936   -7.6124   23.9719 H   0  0  0  0  0  0
  -21.1522   -6.0511   25.9095 H   0  0  0  0  0  0
  -22.0578   -2.7595   23.2836 H   0  0  0  0  0  0
  -22.4057  -11.9897   22.4801 H   0  0  0  0  0  0
  -21.1139  -13.1333   22.2682 H   0  0  0  0  0  0
  -24.6215  -15.8078   20.3665 H   0  0  0  0  0  0
  -26.2377  -15.5947   19.9375 H   0  0  0  0  0  0
  -26.7228  -32.5415   23.1103 H   0  0  0  0  0  0
  -25.0277  -33.9678   25.0518 H   0  0  0  0  0  0
  -22.7139  -31.2981   21.4009 H   0  0  0  0  0  0
  -23.3758  -35.9603   23.3293 H   0  0  0  0  0  0
  -24.3612  -36.8891   22.2063 H   0  0  0  0  0  0
  -23.7256  -37.6476   23.6661 H   0  0  0  0  0  0
  -26.1174  -31.5644   20.6231 H   0  0  0  0  0  0
  -26.8392  -30.8183   22.0159 H   0  0  0  0  0  0
  -28.1209  -28.9767   21.1824 H   0  0  0  0  0  0
  -25.9846  -25.9474   18.9762 H   0  0  0  0  0  0
  -23.9748  -27.3328   18.9635 H   0  0  0  0  0  0
  -23.7731  -30.6252   19.4048 H   0  0  0  0  0  0
  -22.7617  -29.2726   19.8338 H   0  0  0  0  0  0
  -25.1267  -36.1892   25.0844 H   0  0  0  0  0  0
  -20.9944  -28.3255   24.1369 H   0  0  0  0  0  0
  -20.5679  -26.2294   23.3554 H   0  0  0  0  0  0
  -21.6640  -26.7420   22.1167 H   0  0  0  0  0  0
  -19.6944  -25.6279   21.1181 H   0  0  0  0  0  0
  -19.6731  -27.3186   20.6667 H   0  0  0  0  0  0
  -17.4186  -26.6617   21.3959 H   0  0  0  0  0  0
  -18.0342  -26.0040   22.8988 H   0  0  0  0  0  0
  -19.7979  -30.7181   24.2267 H   0  0  0  0  0  0
  -17.5066  -31.6267   24.5133 H   0  0  0  0  0  0
  -15.5369  -30.2943   23.7698 H   0  0  0  0  0  0
  -15.8656  -28.0803   22.7039 H   0  0  0  0  0  0
  -24.5951  -30.7087   25.7855 H   0  0  0  0  0  0
  -24.9028  -32.2887   26.4939 H   0  0  0  0  0  0
  -25.8145  -30.8893   27.0232 H   0  0  0  0  0  0
  -26.2957  -29.6693   24.1274 H   0  0  0  0  0  0
  -27.4187  -29.7268   25.4671 H   0  0  0  0  0  0
  -27.8811  -30.4272   23.9349 H   0  0  0  0  0  0
  -27.2708  -33.3657   26.2021 H   0  0  0  0  0  0
  -28.3949  -32.6862   25.0360 H   0  0  0  0  0  0
  -28.0735  -31.8497   26.5476 H   0  0  0  0  0  0
  -28.2549  -38.0112   24.7497 H   0  0  0  0  0  0
  -28.1103  -36.2616   24.6290 H   0  0  0  0  0  0
  -27.2280  -37.1431   25.8877 H   0  0  0  0  0  0
  -20.9428  -29.8854   21.6936 H   0  0  0  0  0  0
  -26.0148  -38.2816   24.1427 H   0  0  0  0  0  0
  -28.1160  -19.8145   21.9457 H   0  0  0  0  0  0
  -30.5327  -16.8886   18.7541 H   0  0  0  0  0  0
  -29.0275  -17.8582   23.7392 H   0  0  0  0  0  0
  -28.4362  -16.3172   23.1106 H   0  0  0  0  0  0
  -27.3908  -17.7337   23.0946 H   0  0  0  0  0  0
  -27.7123  -21.1336   19.1839 H   0  0  0  0  0  0
  -29.3600  -21.5037   18.7693 H   0  0  0  0  0  0
  -27.7412  -22.3322   21.2533 H   0  0  0  0  0  0
  -29.4840  -22.2920   21.3785 H   0  0  0  0  0  0
  -28.1263  -25.0780   21.7866 H   0  0  0  0  0  0
  -26.8956  -24.8403   20.6037 H   0  0  0  0  0  0
  -29.0778  -15.1762   21.6540 H   0  0  0  0  0  0
  1 25  1  0  0  0
  1 30  2  0  0  0
  1 82  1  0  0  0
  2  3  1  0  0  0
  2 25  1  0  0  0
  2 85  1  0  0  0
  2 86  1  0  0  0
  3  4  1  0  0  0
  3 87  1  0  0  0
  3 88  1  0  0  0
  4  5  1  0  0  0
  4 89  1  0  0  0
  4 90  1  0  0  0
  5  6  1  0  0  0
  5 26  1  0  0  0
  5 91  1  0  0  0
  6 25  1  0  0  0
  6 92  1  0  0  0
  6 93  1  0  0  0
  7  8  2  0  0  0
  7 26  1  0  0  0
  7 29  1  0  0  0
  8  9  1  0  0  0
  8 22  1  0  0  0
  9 10  1  0  0  0
  9 27  2  0  0  0
 10 11  2  0  0  0
 10 15  1  0  0  0
 11 12  1  0  0  0
 11 94  1  0  0  0
 12 13  2  0  0  0
 12 95  1  0  0  0
 13 14  1  0  0  0
 13 31  1  0  0  0
 14 15  2  0  0  0
 14 96  1  0  0  0
 15 97  1  0  0  0
 16 17  2  0  0  0
 16 21  1  0  0  0
 16 31  1  0  0  0
 17 18  1  0  0  0
 17 98  1  0  0  0
 18 19  2  0  0  0
 18 99  1  0  0  0
 19 20  1  0  0  0
 19 24  1  0  0  0
 20 21  2  0  0  0
 20100  1  0  0  0
 21 23  1  0  0  0
 22 28  1  0  0  0
 22 32  2  0  0  0
 26 27  1  0  0  0
 28101  1  0  0  0
 28102  1  0  0  0
 29103  1  0  0  0
 29104  1  0  0  0
 33 34  1  0  0  0
 33 66  1  0  0  0
 33 70  2  0  0  0
 34 36  1  0  0  0
 34 59  1  0  0  0
 34105  1  0  0  0
 35 44  2  0  0  0
 35 45  1  0  0  0
 35 68  1  0  0  0
 36 56  1  0  0  0
 36106  1  0  0  0
 37 39  1  0  0  0
 37 47  1  0  0  0
 37 66  1  0  0  0
 37107  1  0  0  0
 38 43  2  0  0  0
 38 46  1  0  0  0
 38 47  1  0  0  0
 39 64  1  0  0  0
 39 67  2  0  0  0
 40 52  1  0  0  0
 40 53  2  0  0  0
 40 58  1  0  0  0
 41108  1  0  0  0
 41109  1  0  0  0
 41110  1  0  0  0
 41 48  1  0  0  0
 42 43  1  0  0  0
 42 66  1  0  0  0
 42111  1  0  0  0
 42112  1  0  0  0
 43 44  1  0  0  0
 44113  1  0  0  0
 45 46  2  0  0  0
 45114  1  0  0  0
 46115  1  0  0  0
 47116  1  0  0  0
 47117  1  0  0  0
 48 56  1  0  0  0
 48 65  1  0  0  0
 48118  1  0  0  0
 49 50  1  0  0  0
 49 53  1  0  0  0
 49 64  1  0  0  0
 49119  1  0  0  0
 50 51  1  0  0  0
 50120  1  0  0  0
 50121  1  0  0  0
 51 52  1  0  0  0
 51122  1  0  0  0
 51123  1  0  0  0
 52124  1  0  0  0
 52125  1  0  0  0
 53 54  1  0  0  0
 54 55  2  0  0  0
 54126  1  0  0  0
 55 57  1  0  0  0
 55127  1  0  0  0
 56 69  2  0  0  0
 57 58  2  0  0  0
 57128  1  0  0  0
 58129  1  0  0  0
 59 60  1  0  0  0
 59 61  1  0  0  0
 59 62  1  0  0  0
 60130  1  0  0  0
 60131  1  0  0  0
 60132  1  0  0  0
 61133  1  0  0  0
 61134  1  0  0  0
 61135  1  0  0  0
 62136  1  0  0  0
 62137  1  0  0  0
 62138  1  0  0  0
 63 65  1  0  0  0
 63139  1  0  0  0
 63140  1  0  0  0
 63141  1  0  0  0
 64142  1  0  0  0
 65143  1  0  0  0
 68 81  1  0  0  0
 71 73  2  0  0  0
 71 74  1  0  0  0
 71144  1  0  0  0
 72 75  2  0  0  0
 72 76  1  0  0  0
 72145  1  0  0  0
 73 75  1  0  0  0
 73 78  1  0  0  0
 74 76  2  0  0  0
 74 79  1  0  0  0
 75 82  1  0  0  0
 76 84  1  0  0  0
 77 80  1  0  0  0
 77 81  1  0  0  0
 77 83  2  0  0  0
 78146  1  0  0  0
 78147  1  0  0  0
 78148  1  0  0  0
 79 80  1  0  0  0
 79149  1  0  0  0
 79150  1  0  0  0
 80151  1  0  0  0
 80152  1  0  0  0
 81153  1  0  0  0
 81154  1  0  0  0
 82155  1  0  0  0
M  ISO  4   1 100  68 101  81 101  82 100
M  END
> <chiral flag>
0

> <version>
0

> <s_m_source_file>
/data/baiqing/PycharmProjects/Reinvent-master-3.2/result/LINK_invent/BTK/process_docking_weight1_custom_product_contain_oxygen_bond_distance_aromatic_linkinvent_7_9_3/rearranged_h_0131.sdf

> <i_m_source_file_index>
38

> <r_mmod_Potential_Energy-OPLS-2005>
45.4980735778809

> <r_mmod_Stretch_Energy-OPLS-2005>
74.8894958496094

> <r_mmod_Bend_Energy-OPLS-2005>
125.540061950684

> <r_mmod_Torsional_Energy-OPLS-2005>
243.248519897461

> <r_mmod_Improper_Torsional_Energy-OPLS-2005>
5.14054203033447

> <r_mmod_Van_der_Waal_Energy-OPLS-2005>
141.646911621094

> <r_mmod_Electrostatic_Energy-OPLS-2005>
-365.364379882812

> <r_mmod_Solvation_Energy-OPLS-2005>
-225.053253173828

> <b_mmod_Minimization_Converged-OPLS-2005>
0

> <r_mmod_RMS_Derivative-OPLS-2005>
6.83449745178223

$$$$
38
                    3D
 Structure written by MMmdl.
165173  0  0  1  0            999 V2000
  -30.6763  -14.5484   20.3782 C   0  0  0  0  0  0
  -30.4279  -12.2801   19.4667 C   0  0  0  0  0  0
  -29.5036  -12.3175   18.2287 C   0  0  0  0  0  0
  -28.0080  -12.2977   18.6249 C   0  0  0  0  0  0
  -27.6392  -13.1893   19.8450 C   0  0  2  0  0  0
  -28.6976  -13.1077   20.9652 C   0  0  0  0  0  0
  -25.2551  -13.8109   20.5709 C   0  0  0  0  0  0
  -24.1790  -13.0412   20.9210 C   0  0  0  0  0  0
  -24.6329  -11.6874   20.8787 C   0  0  0  0  0  0
  -23.9013  -10.4265   21.0430 C   0  0  0  0  0  0
  -24.3590   -9.4175   21.9186 C   0  0  0  0  0  0
  -23.6273   -8.2208   22.0739 C   0  0  0  0  0  0
  -22.4256   -8.0253   21.3530 C   0  0  0  0  0  0
  -21.9892   -9.0229   20.4636 C   0  0  0  0  0  0
  -22.7207  -10.2114   20.3050 C   0  0  0  0  0  0
  -21.6845   -6.0722   22.5275 C   0  0  0  0  0  0
  -21.4009   -6.5630   23.8206 C   0  0  0  0  0  0
  -21.3657   -5.6784   24.9167 C   0  0  0  0  0  0
  -21.6034   -4.3044   24.7219 C   0  0  0  0  0  0
  -21.8829   -3.8140   23.4339 C   0  0  0  0  0  0
  -21.9191   -4.6955   22.3396 C   0  0  0  0  0  0
  -22.7825  -13.5232   21.1874 C   0  0  0  0  0  0
  -22.1667   -4.2145   21.0972 F   0  0  0  0  0  0
  -21.5624   -3.4528   25.7730 F   0  0  0  0  0  0
  -30.0214  -13.3538   20.3819 N   0  0  0  0  0  0
  -26.2937  -12.9218   20.3354 N   0  0  0  0  0  0
  -25.9248  -11.6420   20.5871 N   0  0  0  0  0  0
  -22.0477  -12.8202   22.0422 N   0  0  0  0  0  0
  -25.4302  -15.1830   20.4122 N   0  0  0  0  0  0
  -31.8939  -14.6361   20.2141 O   0  0  0  0  0  0
  -21.6619   -6.8856   21.4229 O   0  0  0  0  0  0
  -22.3521  -14.5548   20.6734 O   0  0  0  0  0  0
  -24.6133  -31.8696   23.2095 C   0  0  0  0  0  0
  -25.9009  -32.4834   23.8407 C   0  0  1  0  0  0
  -27.2248  -27.4447   20.0924 C   0  0  0  0  0  0
  -25.5882  -33.8631   24.2321 N   0  0  0  0  0  0
  -23.3975  -30.4953   21.5512 C   0  0  2  0  0  0
  -24.8419  -28.9631   20.1132 C   0  0  0  0  0  0
  -22.7398  -29.4659   22.4998 C   0  0  0  0  0  0
  -18.0292  -28.1368   22.8497 C   0  0  0  0  0  0
  -24.1494  -36.7349   23.2641 C   0  0  0  0  0  0
  -25.9262  -30.8408   21.3583 C   0  0  0  0  0  0
  -26.0034  -29.4784   20.7010 C   0  0  0  0  0  0
  -27.2019  -28.7289   20.6801 C   0  0  0  0  0  0
  -26.0469  -26.9416   19.5004 C   0  0  0  0  0  0
  -24.8578  -27.6947   19.5079 C   0  0  0  0  0  0
  -23.6027  -29.8301   20.1655 C   0  0  0  0  0  0
  -25.4111  -36.3119   24.0336 C   0  0  1  0  0  0
  -20.5886  -28.3630   23.1337 C   0  0  2  0  0  0
  -20.6778  -26.9388   22.5380 C   0  0  0  0  0  0
  -19.5748  -26.6456   21.5166 C   0  0  0  0  0  0
  -18.1970  -26.7899   22.1675 C   0  0  0  0  0  0
  -19.1556  -28.8826   23.2912 C   0  0  0  0  0  0
  -18.9484  -30.1422   23.8923 C   0  0  0  0  0  0
  -17.6509  -30.6574   24.0584 C   0  0  0  0  0  0
  -25.9036  -34.9478   23.5135 C   0  0  0  0  0  0
  -16.5391  -29.9103   23.6335 C   0  0  0  0  0  0
  -16.7291  -28.6517   23.0352 C   0  0  0  0  0  0
  -26.4444  -31.6596   25.0726 C   0  0  0  0  0  0
  -25.3722  -31.3687   26.1480 C   0  0  0  0  0  0
  -27.0251  -30.3032   24.6086 C   0  0  0  0  0  0
  -27.6020  -32.4322   25.7492 C   0  0  0  0  0  0
  -27.5586  -37.1831   24.8465 C   0  0  0  0  0  0
  -21.4134  -29.3011   22.3748 N   0  0  0  0  0  0
  -26.4302  -37.3799   23.9397 N   0  0  0  0  0  0
  -24.6639  -31.0825   22.0983 N   0  0  0  0  0  0
  -23.4202  -28.8231   23.3045 O   0  0  0  0  0  0
  -28.3845  -26.7014   20.1120 O   0  0  0  0  0  0
  -26.5622  -34.8946   22.4718 O   0  0  0  0  0  0
  -23.5333  -32.1439   23.7512 O   0  0  0  0  0  0
  -29.2451  -15.8479   18.7923 C   0  0  0  0  0  0
  -28.3192  -18.0270   19.2255 C   0  0  0  0  0  0
  -29.8649  -15.8005   20.0615 C   0  0  0  0  0  0
  -28.4260  -16.9090   18.3959 C   0  0  0  0  0  0
  -29.0776  -18.1245   20.4115 C   0  0  0  0  0  0
  -29.8137  -16.9812   20.8746 C   0  0  0  0  0  0
  -28.8533  -22.0535   20.6620 C   0  0  0  0  0  0
  -27.6707  -16.8488   17.0829 C   0  0  0  0  0  0
  -31.9755  -17.5486   22.1025 C   0  0  0  0  0  0
  -29.0405  -19.4929   21.1117 C   0  0  0  0  0  0
  -30.5394  -17.0186   22.2180 C   0  0  0  0  0  0
  -29.3037  -20.6816   20.1394 C   0  0  0  0  0  0
  -27.9172  -22.8883   19.7709 C   0  0  0  0  0  0
  -28.4113  -24.3190   19.4378 C   0  0  0  0  0  0
  -28.2495  -25.3489   20.5765 C   0  0  0  0  0  0
  -29.2276  -22.4686   21.7611 O   0  0  0  0  0  0
  -31.4731  -12.3656   19.1626 H   0  0  0  0  0  0
  -30.3415  -11.3194   19.9759 H   0  0  0  0  0  0
  -29.7053  -11.4362   17.6187 H   0  0  0  0  0  0
  -29.7472  -13.1441   17.5695 H   0  0  0  0  0  0
  -27.7674  -11.2590   18.8548 H   0  0  0  0  0  0
  -27.3891  -12.5605   17.7667 H   0  0  0  0  0  0
  -27.6031  -14.2032   19.4782 H   0  0  0  0  0  0
  -28.6809  -12.1284   21.4439 H   0  0  0  0  0  0
  -28.4810  -13.8369   21.7479 H   0  0  0  0  0  0
  -25.2737   -9.5635   22.4763 H   0  0  0  0  0  0
  -23.9987   -7.4580   22.7431 H   0  0  0  0  0  0
  -21.0837   -8.8729   19.8933 H   0  0  0  0  0  0
  -22.3664  -10.9649   19.6158 H   0  0  0  0  0  0
  -21.2003   -7.6139   23.9710 H   0  0  0  0  0  0
  -21.1475   -6.0508   25.9073 H   0  0  0  0  0  0
  -22.0618   -2.7602   23.2831 H   0  0  0  0  0  0
  -22.4146  -11.9873   22.4798 H   0  0  0  0  0  0
  -21.1090  -13.1181   22.2658 H   0  0  0  0  0  0
  -24.6726  -15.8453   20.5330 H   0  0  0  0  0  0
  -26.2977  -15.6225   20.1272 H   0  0  0  0  0  0
  -26.7079  -32.5558   23.1171 H   0  0  0  0  0  0
  -24.9925  -33.9792   25.0386 H   0  0  0  0  0  0
  -22.6852  -31.3133   21.4192 H   0  0  0  0  0  0
  -23.3742  -35.9703   23.3327 H   0  0  0  0  0  0
  -24.3574  -36.8958   22.2056 H   0  0  0  0  0  0
  -23.7268  -37.6575   23.6641 H   0  0  0  0  0  0
  -26.0397  -31.6112   20.5943 H   0  0  0  0  0  0
  -26.8118  -30.8910   21.9801 H   0  0  0  0  0  0
  -28.1015  -29.1248   21.1303 H   0  0  0  0  0  0
  -26.0405  -25.9696   19.0296 H   0  0  0  0  0  0
  -23.9640  -27.2978   19.0473 H   0  0  0  0  0  0
  -23.7086  -30.6118   19.4125 H   0  0  0  0  0  0
  -22.7248  -29.2526   19.8679 H   0  0  0  0  0  0
  -25.1288  -36.2000   25.0831 H   0  0  0  0  0  0
  -20.9978  -28.3194   24.1448 H   0  0  0  0  0  0
  -20.5692  -26.2214   23.3537 H   0  0  0  0  0  0
  -21.6623  -26.7459   22.1132 H   0  0  0  0  0  0
  -19.6926  -25.6437   21.1040 H   0  0  0  0  0  0
  -19.6630  -27.3383   20.6790 H   0  0  0  0  0  0
  -17.4164  -26.6535   21.4194 H   0  0  0  0  0  0
  -18.0556  -26.0070   22.9142 H   0  0  0  0  0  0
  -19.7978  -30.7229   24.2291 H   0  0  0  0  0  0
  -17.5089  -31.6252   24.5207 H   0  0  0  0  0  0
  -15.5391  -30.3014   23.7652 H   0  0  0  0  0  0
  -15.8686  -28.0839   22.7066 H   0  0  0  0  0  0
  -24.5880  -30.7053   25.7815 H   0  0  0  0  0  0
  -24.8933  -32.2839   26.4985 H   0  0  0  0  0  0
  -25.8096  -30.8813   27.0198 H   0  0  0  0  0  0
  -26.2752  -29.6819   24.1169 H   0  0  0  0  0  0
  -27.4032  -29.7255   25.4532 H   0  0  0  0  0  0
  -27.8599  -30.4355   23.9187 H   0  0  0  0  0  0
  -27.2605  -33.3591   26.2116 H   0  0  0  0  0  0
  -28.3787  -32.6947   25.0289 H   0  0  0  0  0  0
  -28.0715  -31.8412   26.5370 H   0  0  0  0  0  0
  -28.2625  -38.0111   24.7483 H   0  0  0  0  0  0
  -28.1055  -36.2646   24.6301 H   0  0  0  0  0  0
  -27.2305  -37.1489   25.8869 H   0  0  0  0  0  0
  -20.9276  -29.8725   21.6996 H   0  0  0  0  0  0
  -26.0217  -38.2898   24.1352 H   0  0  0  0  0  0
  -29.3521  -15.0271   18.1122 H   0  0  0  0  0  0
  -27.6793  -18.8380   18.9085 H   0  0  0  0  0  0
  -28.1336  -16.1439   16.3905 H   0  0  0  0  0  0
  -27.6442  -17.8275   16.6016 H   0  0  0  0  0  0
  -26.6428  -16.5274   17.2561 H   0  0  0  0  0  0
  -32.4662  -17.5575   23.0761 H   0  0  0  0  0  0
  -31.9971  -18.5644   21.7074 H   0  0  0  0  0  0
  -32.5758  -16.9260   21.4407 H   0  0  0  0  0  0
  -29.7688  -19.5544   21.9161 H   0  0  0  0  0  0
  -28.0612  -19.5993   21.5798 H   0  0  0  0  0  0
  -30.5515  -16.0249   22.6646 H   0  0  0  0  0  0
  -29.9733  -17.6201   22.9299 H   0  0  0  0  0  0
  -30.3626  -20.7281   19.8879 H   0  0  0  0  0  0
  -28.7909  -20.5341   19.1923 H   0  0  0  0  0  0
  -26.9388  -22.9396   20.2494 H   0  0  0  0  0  0
  -27.7566  -22.3502   18.8367 H   0  0  0  0  0  0
  -27.8510  -24.6679   18.5723 H   0  0  0  0  0  0
  -29.4514  -24.2894   19.1112 H   0  0  0  0  0  0
  -29.0201  -25.1845   21.3305 H   0  0  0  0  0  0
  -27.2988  -25.1916   21.0911 H   0  0  0  0  0  0
  1 25  1  0  0  0
  1 30  2  0  0  0
  1 73  1  0  0  0
  2  3  1  0  0  0
  2 25  1  0  0  0
  2 87  1  0  0  0
  2 88  1  0  0  0
  3  4  1  0  0  0
  3 89  1  0  0  0
  3 90  1  0  0  0
  4  5  1  0  0  0
  4 91  1  0  0  0
  4 92  1  0  0  0
  5  6  1  0  0  0
  5 26  1  0  0  0
  5 93  1  0  0  0
  6 25  1  0  0  0
  6 94  1  0  0  0
  6 95  1  0  0  0
  7  8  2  0  0  0
  7 26  1  0  0  0
  7 29  1  0  0  0
  8  9  1  0  0  0
  8 22  1  0  0  0
  9 10  1  0  0  0
  9 27  2  0  0  0
 10 11  2  0  0  0
 10 15  1  0  0  0
 11 12  1  0  0  0
 11 96  1  0  0  0
 12 13  2  0  0  0
 12 97  1  0  0  0
 13 14  1  0  0  0
 13 31  1  0  0  0
 14 15  2  0  0  0
 14 98  1  0  0  0
 15 99  1  0  0  0
 16 17  2  0  0  0
 16 21  1  0  0  0
 16 31  1  0  0  0
 17 18  1  0  0  0
 17100  1  0  0  0
 18 19  2  0  0  0
 18101  1  0  0  0
 19 20  1  0  0  0
 19 24  1  0  0  0
 20 21  2  0  0  0
 20102  1  0  0  0
 21 23  1  0  0  0
 22 28  1  0  0  0
 22 32  2  0  0  0
 26 27  1  0  0  0
 28103  1  0  0  0
 28104  1  0  0  0
 29105  1  0  0  0
 29106  1  0  0  0
 33 34  1  0  0  0
 33 66  1  0  0  0
 33 70  2  0  0  0
 34 36  1  0  0  0
 34 59  1  0  0  0
 34107  1  0  0  0
 35 44  2  0  0  0
 35 45  1  0  0  0
 35 68  1  0  0  0
 36 56  1  0  0  0
 36108  1  0  0  0
 37 39  1  0  0  0
 37 47  1  0  0  0
 37 66  1  0  0  0
 37109  1  0  0  0
 38 43  2  0  0  0
 38 46  1  0  0  0
 38 47  1  0  0  0
 39 64  1  0  0  0
 39 67  2  0  0  0
 40 52  1  0  0  0
 40 53  2  0  0  0
 40 58  1  0  0  0
 41110  1  0  0  0
 41111  1  0  0  0
 41112  1  0  0  0
 41 48  1  0  0  0
 42 43  1  0  0  0
 42 66  1  0  0  0
 42113  1  0  0  0
 42114  1  0  0  0
 43 44  1  0  0  0
 44115  1  0  0  0
 45 46  2  0  0  0
 45116  1  0  0  0
 46117  1  0  0  0
 47118  1  0  0  0
 47119  1  0  0  0
 48 56  1  0  0  0
 48 65  1  0  0  0
 48120  1  0  0  0
 49 50  1  0  0  0
 49 53  1  0  0  0
 49 64  1  0  0  0
 49121  1  0  0  0
 50 51  1  0  0  0
 50122  1  0  0  0
 50123  1  0  0  0
 51 52  1  0  0  0
 51124  1  0  0  0
 51125  1  0  0  0
 52126  1  0  0  0
 52127  1  0  0  0
 53 54  1  0  0  0
 54 55  2  0  0  0
 54128  1  0  0  0
 55 57  1  0  0  0
 55129  1  0  0  0
 56 69  2  0  0  0
 57 58  2  0  0  0
 57130  1  0  0  0
 58131  1  0  0  0
 59 60  1  0  0  0
 59 61  1  0  0  0
 59 62  1  0  0  0
 60132  1  0  0  0
 60133  1  0  0  0
 60134  1  0  0  0
 61135  1  0  0  0
 61136  1  0  0  0
 61137  1  0  0  0
 62138  1  0  0  0
 62139  1  0  0  0
 62140  1  0  0  0
 63 65  1  0  0  0
 63141  1  0  0  0
 63142  1  0  0  0
 63143  1  0  0  0
 64144  1  0  0  0
 65145  1  0  0  0
 68 85  1  0  0  0
 71 73  2  0  0  0
 71 74  1  0  0  0
 71146  1  0  0  0
 72 74  2  0  0  0
 72 75  1  0  0  0
 72147  1  0  0  0
 73 76  1  0  0  0
 74 78  1  0  0  0
 75 76  2  0  0  0
 75 80  1  0  0  0
 76 81  1  0  0  0
 77 82  1  0  0  0
 77 83  1  0  0  0
 77 86  2  0  0  0
 78148  1  0  0  0
 78149  1  0  0  0
 78150  1  0  0  0
 79 81  1  0  0  0
 79151  1  0  0  0
 79152  1  0  0  0
 79153  1  0  0  0
 80 82  1  0  0  0
 80154  1  0  0  0
 80155  1  0  0  0
 81156  1  0  0  0
 81157  1  0  0  0
 82158  1  0  0  0
 82159  1  0  0  0
 83 84  1  0  0  0
 83160  1  0  0  0
 83161  1  0  0  0
 84 85  1  0  0  0
 84162  1  0  0  0
 84163  1  0  0  0
 85164  1  0  0  0
 85165  1  0  0  0
M  ISO  4   1 100  68 101  73 100  85 101
M  END
> <chiral flag>
0

> <version>
0

> <s_m_source_file>
/data/baiqing/PycharmProjects/Reinvent-master-3.2/result/LINK_invent/BTK/process_docking_weight1_custom_product_contain_oxygen_bond_distance_aromatic_linkinvent_7_9_3/rearranged_h_0131.sdf

> <i_m_source_file_index>
39

> <r_mmod_Potential_Energy-OPLS-2005>
54.4709663391113

> <r_mmod_Stretch_Energy-OPLS-2005>
41.5244598388672

> <r_mmod_Bend_Energy-OPLS-2005>
99.410758972168

> <r_mmod_Torsional_Energy-OPLS-2005>
250.875839233398

> <r_mmod_Improper_Torsional_Energy-OPLS-2005>
13.8427677154541

> <r_mmod_Van_der_Waal_Energy-OPLS-2005>
151.408782958984

> <r_mmod_Electrostatic_Energy-OPLS-2005>
-346.538391113281

> <r_mmod_Solvation_Energy-OPLS-2005>
-192.785583496094

> <b_mmod_Minimization_Converged-OPLS-2005>
0

> <r_mmod_RMS_Derivative-OPLS-2005>
3.03282761573792

$$$$
39
                    3D
 Structure written by MMmdl.
155163  0  0  1  0            999 V2000
  -30.6215  -14.6760   20.5060 C   0  0  0  0  0  0
  -30.4393  -12.4172   19.4626 C   0  0  0  0  0  0
  -29.5116  -12.5201   18.2311 C   0  0  0  0  0  0
  -28.0342  -12.3511   18.6395 C   0  0  0  0  0  0
  -27.6497  -13.2218   19.8658 C   0  0  2  0  0  0
  -28.6968  -13.0935   20.9972 C   0  0  0  0  0  0
  -25.2414  -13.8024   20.5569 C   0  0  0  0  0  0
  -24.1763  -13.0313   20.9234 C   0  0  0  0  0  0
  -24.6401  -11.6828   20.8799 C   0  0  0  0  0  0
  -23.9074  -10.4231   21.0434 C   0  0  0  0  0  0
  -24.3620   -9.4153   21.9208 C   0  0  0  0  0  0
  -23.6286   -8.2200   22.0763 C   0  0  0  0  0  0
  -22.4269   -8.0253   21.3547 C   0  0  0  0  0  0
  -21.9912   -9.0226   20.4649 C   0  0  0  0  0  0
  -22.7251  -10.2096   20.3066 C   0  0  0  0  0  0
  -21.6842   -6.0721   22.5282 C   0  0  0  0  0  0
  -21.4006   -6.5627   23.8214 C   0  0  0  0  0  0
  -21.3657   -5.6783   24.9179 C   0  0  0  0  0  0
  -21.6046   -4.3046   24.7228 C   0  0  0  0  0  0
  -21.8821   -3.8135   23.4349 C   0  0  0  0  0  0
  -21.9191   -4.6953   22.3406 C   0  0  0  0  0  0
  -22.7791  -13.5129   21.1879 C   0  0  0  0  0  0
  -22.1656   -4.2144   21.0983 F   0  0  0  0  0  0
  -21.5641   -3.4528   25.7738 F   0  0  0  0  0  0
  -30.0099  -13.4468   20.4329 N   0  0  0  0  0  0
  -26.2955  -12.9314   20.3325 N   0  0  0  0  0  0
  -25.9345  -11.6466   20.5830 N   0  0  0  0  0  0
  -22.0426  -12.8166   22.0457 N   0  0  0  0  0  0
  -25.3800  -15.1670   20.3660 N   0  0  0  0  0  0
  -31.7864  -14.8252   20.1262 O   0  0  0  0  0  0
  -21.6619   -6.8859   21.4243 O   0  0  0  0  0  0
  -22.3505  -14.5445   20.6715 O   0  0  0  0  0  0
  -24.6269  -31.8602   23.2012 C   0  0  0  0  0  0
  -25.9111  -32.4782   23.8347 C   0  0  1  0  0  0
  -27.2275  -27.3169   20.1130 C   0  0  0  0  0  0
  -25.5917  -33.8583   24.2268 N   0  0  0  0  0  0
  -23.4197  -30.4838   21.5462 C   0  0  2  0  0  0
  -24.8662  -28.9398   20.1118 C   0  0  0  0  0  0
  -22.7478  -29.4623   22.4947 C   0  0  0  0  0  0
  -18.0281  -28.1382   22.8484 C   0  0  0  0  0  0
  -24.1485  -36.7304   23.2636 C   0  0  0  0  0  0
  -25.9614  -30.7914   21.3704 C   0  0  0  0  0  0
  -26.0369  -29.4182   20.7131 C   0  0  0  0  0  0
  -27.2203  -28.6200   20.7022 C   0  0  0  0  0  0
  -26.0287  -26.8934   19.4894 C   0  0  0  0  0  0
  -24.8642  -27.6823   19.4921 C   0  0  0  0  0  0
  -23.6334  -29.8187   20.1623 C   0  0  0  0  0  0
  -25.4111  -36.3090   24.0322 C   0  0  1  0  0  0
  -20.5883  -28.3688   23.1283 C   0  0  2  0  0  0
  -20.6773  -26.9410   22.5413 C   0  0  0  0  0  0
  -19.5747  -26.6381   21.5216 C   0  0  0  0  0  0
  -18.1925  -26.7919   22.1628 C   0  0  0  0  0  0
  -19.1537  -28.8852   23.2875 C   0  0  0  0  0  0
  -18.9461  -30.1453   23.8892 C   0  0  0  0  0  0
  -17.6463  -30.6588   24.0563 C   0  0  0  0  0  0
  -25.9054  -34.9457   23.5102 C   0  0  0  0  0  0
  -16.5352  -29.9090   23.6321 C   0  0  0  0  0  0
  -16.7268  -28.6504   23.0345 C   0  0  0  0  0  0
  -26.4482  -31.6582   25.0716 C   0  0  0  0  0  0
  -25.3702  -31.3736   26.1436 C   0  0  0  0  0  0
  -27.0303  -30.2994   24.6159 C   0  0  0  0  0  0
  -27.6041  -32.4306   25.7498 C   0  0  0  0  0  0
  -27.5574  -37.1809   24.8458 C   0  0  0  0  0  0
  -21.4191  -29.3043   22.3687 N   0  0  0  0  0  0
  -26.4288  -37.3784   23.9404 N   0  0  0  0  0  0
  -24.6885  -31.0612   22.0966 N   0  0  0  0  0  0
  -23.4198  -28.8164   23.3027 O   0  0  0  0  0  0
  -28.3467  -26.4645   20.1628 O   0  0  0  0  0  0
  -26.5637  -34.8923   22.4677 O   0  0  0  0  0  0
  -23.5432  -32.1409   23.7338 O   0  0  0  0  0  0
  -31.1481  -17.9167   20.5619 C   0  0  0  0  0  0
  -31.1800  -19.3452   20.4713 C   0  0  0  0  0  0
  -28.8040  -19.4488   20.7220 C   0  0  0  0  0  0
  -28.7641  -18.0242   20.8282 C   0  0  0  0  0  0
  -29.9325  -17.2019   20.7376 C   0  0  0  0  0  0
  -30.0141  -20.1578   20.5404 C   0  0  0  0  0  0
  -30.5229  -24.4613   20.5520 C   0  0  0  0  0  0
  -29.2767  -24.0058   20.3390 C   0  0  0  0  0  0
  -27.3997  -17.4022   21.0024 C   0  0  0  0  0  0
  -28.1066  -25.0035   20.0333 C   0  0  0  0  0  0
  -28.9612  -22.4610   20.3868 C   0  0  0  0  0  0
  -29.8142  -15.7350   20.8542 N   0  0  0  0  0  0
  -30.1255  -21.5640   20.4365 O   0  0  0  0  0  0
  -31.4812  -12.5433   19.1620 H   0  0  0  0  0  0
  -30.3751  -11.4238   19.9088 H   0  0  0  0  0  0
  -29.7841  -11.7675   17.4897 H   0  0  0  0  0  0
  -29.6491  -13.4898   17.7495 H   0  0  0  0  0  0
  -27.8763  -11.2978   18.8726 H   0  0  0  0  0  0
  -27.3804  -12.5779   17.7968 H   0  0  0  0  0  0
  -27.6595  -14.2568   19.5244 H   0  0  0  0  0  0
  -28.7186  -12.0741   21.3861 H   0  0  0  0  0  0
  -28.4371  -13.7294   21.8451 H   0  0  0  0  0  0
  -25.2762   -9.5630   22.4791 H   0  0  0  0  0  0
  -23.9987   -7.4583   22.7478 H   0  0  0  0  0  0
  -21.0841   -8.8743   19.8955 H   0  0  0  0  0  0
  -22.3713  -10.9636   19.6177 H   0  0  0  0  0  0
  -21.1987   -7.6134   23.9715 H   0  0  0  0  0  0
  -21.1483   -6.0515   25.9083 H   0  0  0  0  0  0
  -22.0607   -2.7598   23.2849 H   0  0  0  0  0  0
  -22.4020  -11.9826   22.4863 H   0  0  0  0  0  0
  -21.1047  -13.1221   22.2640 H   0  0  0  0  0  0
  -24.5743  -15.7814   20.4086 H   0  0  0  0  0  0
  -26.1735  -15.5843   19.9015 H   0  0  0  0  0  0
  -26.7182  -32.5445   23.1102 H   0  0  0  0  0  0
  -25.0022  -33.9731   25.0381 H   0  0  0  0  0  0
  -22.7122  -31.3034   21.4039 H   0  0  0  0  0  0
  -23.3742  -35.9645   23.3306 H   0  0  0  0  0  0
  -24.3572  -36.8925   22.2050 H   0  0  0  0  0  0
  -23.7245  -37.6508   23.6659 H   0  0  0  0  0  0
  -26.0873  -31.5530   20.5999 H   0  0  0  0  0  0
  -26.8437  -30.8455   21.9958 H   0  0  0  0  0  0
  -28.1172  -28.9862   21.1810 H   0  0  0  0  0  0
  -25.9555  -25.9362   18.9965 H   0  0  0  0  0  0
  -23.9666  -27.3107   19.0165 H   0  0  0  0  0  0
  -23.7482  -30.5943   19.4044 H   0  0  0  0  0  0
  -22.7537  -29.2464   19.8634 H   0  0  0  0  0  0
  -25.1291  -36.1947   25.0814 H   0  0  0  0  0  0
  -20.9965  -28.3266   24.1410 H   0  0  0  0  0  0
  -20.5679  -26.2302   23.3618 H   0  0  0  0  0  0
  -21.6641  -26.7446   22.1205 H   0  0  0  0  0  0
  -19.6915  -25.6292   21.1246 H   0  0  0  0  0  0
  -19.6681  -27.3190   20.6745 H   0  0  0  0  0  0
  -17.4197  -26.6655   21.4031 H   0  0  0  0  0  0
  -18.0332  -26.0066   22.9032 H   0  0  0  0  0  0
  -19.7944  -30.7264   24.2256 H   0  0  0  0  0  0
  -17.5023  -31.6266   24.5171 H   0  0  0  0  0  0
  -15.5353  -30.2998   23.7642 H   0  0  0  0  0  0
  -15.8664  -28.0825   22.7060 H   0  0  0  0  0  0
  -24.5867  -30.7099   25.7759 H   0  0  0  0  0  0
  -24.8905  -32.2915   26.4845 H   0  0  0  0  0  0
  -25.8010  -30.8914   27.0220 H   0  0  0  0  0  0
  -26.2872  -29.6772   24.1158 H   0  0  0  0  0  0
  -27.3966  -29.7220   25.4656 H   0  0  0  0  0  0
  -27.8757  -30.4261   23.9394 H   0  0  0  0  0  0
  -27.2639  -33.3598   26.2084 H   0  0  0  0  0  0
  -28.3857  -32.6883   25.0338 H   0  0  0  0  0  0
  -28.0698  -31.8423   26.5416 H   0  0  0  0  0  0
  -28.2596  -38.0102   24.7504 H   0  0  0  0  0  0
  -28.1070  -36.2636   24.6290 H   0  0  0  0  0  0
  -27.2294  -37.1460   25.8862 H   0  0  0  0  0  0
  -20.9374  -29.8775   21.6901 H   0  0  0  0  0  0
  -26.0171  -38.2860   24.1411 H   0  0  0  0  0  0
  -32.0834  -17.3800   20.5028 H   0  0  0  0  0  0
  -32.1379  -19.8282   20.3415 H   0  0  0  0  0  0
  -27.8755  -19.9974   20.7843 H   0  0  0  0  0  0
  -30.7476  -25.5182   20.5195 H   0  0  0  0  0  0
  -31.3399  -23.7862   20.7622 H   0  0  0  0  0  0
  -26.6891  -18.1081   21.4338 H   0  0  0  0  0  0
  -27.4242  -16.5288   21.6538 H   0  0  0  0  0  0
  -27.0327  -17.1201   20.0174 H   0  0  0  0  0  0
  -27.2798  -24.7282   20.6904 H   0  0  0  0  0  0
  -27.7897  -24.7876   19.0126 H   0  0  0  0  0  0
  -28.3724  -22.2069   19.5052 H   0  0  0  0  0  0
  -28.3257  -22.2767   21.2537 H   0  0  0  0  0  0
  -28.8975  -15.4222   21.1333 H   0  0  0  0  0  0
  1 25  1  0  0  0
  1 30  2  0  0  0
  1 82  1  0  0  0
  2  3  1  0  0  0
  2 25  1  0  0  0
  2 84  1  0  0  0
  2 85  1  0  0  0
  3  4  1  0  0  0
  3 86  1  0  0  0
  3 87  1  0  0  0
  4  5  1  0  0  0
  4 88  1  0  0  0
  4 89  1  0  0  0
  5  6  1  0  0  0
  5 26  1  0  0  0
  5 90  1  0  0  0
  6 25  1  0  0  0
  6 91  1  0  0  0
  6 92  1  0  0  0
  7  8  2  0  0  0
  7 26  1  0  0  0
  7 29  1  0  0  0
  8  9  1  0  0  0
  8 22  1  0  0  0
  9 10  1  0  0  0
  9 27  2  0  0  0
 10 11  2  0  0  0
 10 15  1  0  0  0
 11 12  1  0  0  0
 11 93  1  0  0  0
 12 13  2  0  0  0
 12 94  1  0  0  0
 13 14  1  0  0  0
 13 31  1  0  0  0
 14 15  2  0  0  0
 14 95  1  0  0  0
 15 96  1  0  0  0
 16 17  2  0  0  0
 16 21  1  0  0  0
 16 31  1  0  0  0
 17 18  1  0  0  0
 17 97  1  0  0  0
 18 19  2  0  0  0
 18 98  1  0  0  0
 19 20  1  0  0  0
 19 24  1  0  0  0
 20 21  2  0  0  0
 20 99  1  0  0  0
 21 23  1  0  0  0
 22 28  1  0  0  0
 22 32  2  0  0  0
 26 27  1  0  0  0
 28100  1  0  0  0
 28101  1  0  0  0
 29102  1  0  0  0
 29103  1  0  0  0
 33 34  1  0  0  0
 33 66  1  0  0  0
 33 70  2  0  0  0
 34 36  1  0  0  0
 34 59  1  0  0  0
 34104  1  0  0  0
 35 44  2  0  0  0
 35 45  1  0  0  0
 35 68  1  0  0  0
 36 56  1  0  0  0
 36105  1  0  0  0
 37 39  1  0  0  0
 37 47  1  0  0  0
 37 66  1  0  0  0
 37106  1  0  0  0
 38 43  2  0  0  0
 38 46  1  0  0  0
 38 47  1  0  0  0
 39 64  1  0  0  0
 39 67  2  0  0  0
 40 52  1  0  0  0
 40 53  2  0  0  0
 40 58  1  0  0  0
 41107  1  0  0  0
 41108  1  0  0  0
 41109  1  0  0  0
 41 48  1  0  0  0
 42 43  1  0  0  0
 42 66  1  0  0  0
 42110  1  0  0  0
 42111  1  0  0  0
 43 44  1  0  0  0
 44112  1  0  0  0
 45 46  2  0  0  0
 45113  1  0  0  0
 46114  1  0  0  0
 47115  1  0  0  0
 47116  1  0  0  0
 48 56  1  0  0  0
 48 65  1  0  0  0
 48117  1  0  0  0
 49 50  1  0  0  0
 49 53  1  0  0  0
 49 64  1  0  0  0
 49118  1  0  0  0
 50 51  1  0  0  0
 50119  1  0  0  0
 50120  1  0  0  0
 51 52  1  0  0  0
 51121  1  0  0  0
 51122  1  0  0  0
 52123  1  0  0  0
 52124  1  0  0  0
 53 54  1  0  0  0
 54 55  2  0  0  0
 54125  1  0  0  0
 55 57  1  0  0  0
 55126  1  0  0  0
 56 69  2  0  0  0
 57 58  2  0  0  0
 57127  1  0  0  0
 58128  1  0  0  0
 59 60  1  0  0  0
 59 61  1  0  0  0
 59 62  1  0  0  0
 60129  1  0  0  0
 60130  1  0  0  0
 60131  1  0  0  0
 61132  1  0  0  0
 61133  1  0  0  0
 61134  1  0  0  0
 62135  1  0  0  0
 62136  1  0  0  0
 62137  1  0  0  0
 63 65  1  0  0  0
 63138  1  0  0  0
 63139  1  0  0  0
 63140  1  0  0  0
 64141  1  0  0  0
 65142  1  0  0  0
 68 80  1  0  0  0
 71 72  2  0  0  0
 71 75  1  0  0  0
 71143  1  0  0  0
 72 76  1  0  0  0
 72144  1  0  0  0
 73 74  1  0  0  0
 73 76  2  0  0  0
 73145  1  0  0  0
 74 75  2  0  0  0
 74 79  1  0  0  0
 75 82  1  0  0  0
 76 83  1  0  0  0
 77 78  2  0  0  0
 77146  1  0  0  0
 77147  1  0  0  0
 78 80  1  0  0  0
 78 81  1  0  0  0
 79148  1  0  0  0
 79149  1  0  0  0
 79150  1  0  0  0
 80151  1  0  0  0
 80152  1  0  0  0
 81 83  1  0  0  0
 81153  1  0  0  0
 81154  1  0  0  0
 82155  1  0  0  0
M  ISO  4   1 100  68 101  80 101  82 100
M  END
> <chiral flag>
0

> <version>
0

> <s_m_source_file>
/data/baiqing/PycharmProjects/Reinvent-master-3.2/result/LINK_invent/BTK/process_docking_weight1_custom_product_contain_oxygen_bond_distance_aromatic_linkinvent_7_9_3/rearranged_h_0131.sdf

> <i_m_source_file_index>
40

> <r_mmod_Potential_Energy-OPLS-2005>
47.4228439331055

> <r_mmod_Stretch_Energy-OPLS-2005>
86.262321472168

> <r_mmod_Bend_Energy-OPLS-2005>
143.470443725586

> <r_mmod_Torsional_Energy-OPLS-2005>
205.765701293945

> <r_mmod_Improper_Torsional_Energy-OPLS-2005>
5.10115242004395

> <r_mmod_Van_der_Waal_Energy-OPLS-2005>
149.548156738281

> <r_mmod_Electrostatic_Energy-OPLS-2005>
-389.603912353516

> <r_mmod_Solvation_Energy-OPLS-2005>
-208.320877075195

> <b_mmod_Minimization_Converged-OPLS-2005>
0

> <r_mmod_RMS_Derivative-OPLS-2005>
1.29210996627808

$$$$
40
                    3D
 Structure written by MMmdl.
157166  0  0  1  0            999 V2000
  -30.6144  -14.6744   20.5052 C   0  0  0  0  0  0
  -30.4449  -12.4171   19.4579 C   0  0  0  0  0  0
  -29.5136  -12.5152   18.2282 C   0  0  0  0  0  0
  -28.0373  -12.3438   18.6383 C   0  0  0  0  0  0
  -27.6541  -13.2184   19.8606 C   0  0  2  0  0  0
  -28.6985  -13.0854   20.9924 C   0  0  0  0  0  0
  -25.2568  -13.8172   20.5684 C   0  0  0  0  0  0
  -24.1832  -13.0438   20.9189 C   0  0  0  0  0  0
  -24.6392  -11.6908   20.8727 C   0  0  0  0  0  0
  -23.9055  -10.4293   21.0396 C   0  0  0  0  0  0
  -24.3608   -9.4209   21.9173 C   0  0  0  0  0  0
  -23.6282   -8.2247   22.0750 C   0  0  0  0  0  0
  -22.4260   -8.0283   21.3553 C   0  0  0  0  0  0
  -21.9896   -9.0254   20.4650 C   0  0  0  0  0  0
  -22.7230  -10.2131   20.3050 C   0  0  0  0  0  0
  -21.6857   -6.0729   22.5269 C   0  0  0  0  0  0
  -21.4017   -6.5629   23.8203 C   0  0  0  0  0  0
  -21.3663   -5.6784   24.9166 C   0  0  0  0  0  0
  -21.6044   -4.3049   24.7218 C   0  0  0  0  0  0
  -21.8823   -3.8141   23.4340 C   0  0  0  0  0  0
  -21.9197   -4.6957   22.3396 C   0  0  0  0  0  0
  -22.7851  -13.5238   21.1837 C   0  0  0  0  0  0
  -22.1665   -4.2141   21.0974 F   0  0  0  0  0  0
  -21.5624   -3.4536   25.7736 F   0  0  0  0  0  0
  -30.0132  -13.4405   20.4326 N   0  0  0  0  0  0
  -26.2995  -12.9354   20.3296 N   0  0  0  0  0  0
  -25.9323  -11.6510   20.5727 N   0  0  0  0  0  0
  -22.0481  -12.8253   22.0402 N   0  0  0  0  0  0
  -25.4274  -15.1895   20.4089 N   0  0  0  0  0  0
  -31.7733  -14.8384   20.1114 O   0  0  0  0  0  0
  -21.6636   -6.8874   21.4233 O   0  0  0  0  0  0
  -22.3539  -14.5537   20.6669 O   0  0  0  0  0  0
  -24.6255  -31.8584   23.2025 C   0  0  0  0  0  0
  -25.9099  -32.4770   23.8357 C   0  0  1  0  0  0
  -27.2233  -27.3034   20.1175 C   0  0  0  0  0  0
  -25.5906  -33.8574   24.2272 N   0  0  0  0  0  0
  -23.4205  -30.4823   21.5448 C   0  0  2  0  0  0
  -24.8687  -28.9402   20.1090 C   0  0  0  0  0  0
  -22.7473  -29.4606   22.4929 C   0  0  0  0  0  0
  -18.0288  -28.1382   22.8479 C   0  0  0  0  0  0
  -24.1483  -36.7287   23.2636 C   0  0  0  0  0  0
  -25.9638  -30.7840   21.3785 C   0  0  0  0  0  0
  -26.0387  -29.4114   20.7179 C   0  0  0  0  0  0
  -27.2174  -28.6041   20.7142 C   0  0  0  0  0  0
  -26.0307  -26.8978   19.4713 C   0  0  0  0  0  0
  -24.8679  -27.6892   19.4766 C   0  0  0  0  0  0
  -23.6360  -29.8194   20.1599 C   0  0  0  0  0  0
  -25.4105  -36.3076   24.0325 C   0  0  1  0  0  0
  -20.5884  -28.3683   23.1279 C   0  0  2  0  0  0
  -20.6769  -26.9407   22.5412 C   0  0  0  0  0  0
  -19.5754  -26.6390   21.5201 C   0  0  0  0  0  0
  -18.1932  -26.7928   22.1614 C   0  0  0  0  0  0
  -19.1540  -28.8854   23.2872 C   0  0  0  0  0  0
  -18.9464  -30.1453   23.8901 C   0  0  0  0  0  0
  -17.6465  -30.6580   24.0565 C   0  0  0  0  0  0
  -25.9047  -34.9449   23.5101 C   0  0  0  0  0  0
  -16.5356  -29.9076   23.6335 C   0  0  0  0  0  0
  -16.7275  -28.6493   23.0352 C   0  0  0  0  0  0
  -26.4491  -31.6588   25.0735 C   0  0  0  0  0  0
  -25.3729  -31.3722   26.1468 C   0  0  0  0  0  0
  -27.0323  -30.3001   24.6209 C   0  0  0  0  0  0
  -27.6051  -32.4333   25.7497 C   0  0  0  0  0  0
  -27.5580  -37.1780   24.8452 C   0  0  0  0  0  0
  -21.4186  -29.3024   22.3661 N   0  0  0  0  0  0
  -26.4275  -37.3781   23.9422 N   0  0  0  0  0  0
  -24.6886  -31.0585   22.0980 N   0  0  0  0  0  0
  -23.4195  -28.8157   23.3016 O   0  0  0  0  0  0
  -28.3314  -26.4323   20.1863 O   0  0  0  0  0  0
  -26.5630  -34.8918   22.4678 O   0  0  0  0  0  0
  -23.5416  -32.1398   23.7332 O   0  0  0  0  0  0
  -28.6984  -19.3723   21.1246 C   0  0  0  0  0  0
  -28.7410  -17.9464   21.1936 C   0  0  0  0  0  0
  -30.9571  -17.9456   20.2813 C   0  0  0  0  0  0
  -29.7871  -20.1410   20.6383 C   0  0  0  0  0  0
  -30.9250  -19.3807   20.2175 C   0  0  0  0  0  0
  -29.8665  -17.1817   20.7789 C   0  0  0  0  0  0
  -28.7180  -22.6621   21.3254 C   0  0  0  0  0  0
  -29.5594  -22.6813   19.4471 C   0  0  0  0  0  0
  -29.7780  -21.7286   20.6613 C   0  0  2  0  0  0
  -29.1337  -23.8568   20.3953 C   0  0  1  0  0  0
  -32.1648  -20.1020   19.7165 C   0  0  0  0  0  0
  -28.1026  -24.9819   19.9395 C   0  0  0  0  0  0
  -29.8022  -15.7137   20.8935 N   0  0  0  0  0  0
  -31.4841  -12.5520   19.1533 H   0  0  0  0  0  0
  -30.3914  -11.4228   19.9042 H   0  0  0  0  0  0
  -29.7874  -11.7635   17.4874 H   0  0  0  0  0  0
  -29.6490  -13.4839   17.7432 H   0  0  0  0  0  0
  -27.8809  -11.2910   18.8779 H   0  0  0  0  0  0
  -27.3835  -12.5661   17.7935 H   0  0  0  0  0  0
  -27.6696  -14.2512   19.5111 H   0  0  0  0  0  0
  -28.7171  -12.0647   21.3775 H   0  0  0  0  0  0
  -28.4340  -13.7165   21.8423 H   0  0  0  0  0  0
  -25.2752   -9.5691   22.4748 H   0  0  0  0  0  0
  -23.9997   -7.4643   22.7473 H   0  0  0  0  0  0
  -21.0829   -8.8775   19.8959 H   0  0  0  0  0  0
  -22.3683  -10.9668   19.6157 H   0  0  0  0  0  0
  -21.2008   -7.6137   23.9704 H   0  0  0  0  0  0
  -21.1480   -6.0514   25.9074 H   0  0  0  0  0  0
  -22.0602   -2.7602   23.2845 H   0  0  0  0  0  0
  -22.4075  -11.9926   22.4826 H   0  0  0  0  0  0
  -21.1095  -13.1287   22.2571 H   0  0  0  0  0  0
  -24.6541  -15.8394   20.5042 H   0  0  0  0  0  0
  -26.2627  -15.6250   20.0407 H   0  0  0  0  0  0
  -26.7151  -32.5438   23.1089 H   0  0  0  0  0  0
  -25.0023  -33.9719   25.0394 H   0  0  0  0  0  0
  -22.7135  -31.3018   21.4007 H   0  0  0  0  0  0
  -23.3758  -35.9601   23.3275 H   0  0  0  0  0  0
  -24.3587  -36.8942   22.2057 H   0  0  0  0  0  0
  -23.7227  -37.6471   23.6689 H   0  0  0  0  0  0
  -26.1001  -31.5487   20.6124 H   0  0  0  0  0  0
  -26.8408  -30.8303   22.0124 H   0  0  0  0  0  0
  -28.1122  -28.9581   21.2064 H   0  0  0  0  0  0
  -25.9593  -25.9481   18.9632 H   0  0  0  0  0  0
  -23.9730  -27.3256   18.9905 H   0  0  0  0  0  0
  -23.7491  -30.5949   19.4006 H   0  0  0  0  0  0
  -22.7564  -29.2452   19.8636 H   0  0  0  0  0  0
  -25.1280  -36.1909   25.0812 H   0  0  0  0  0  0
  -20.9980  -28.3264   24.1396 H   0  0  0  0  0  0
  -20.5648  -26.2294   23.3608 H   0  0  0  0  0  0
  -21.6641  -26.7419   22.1224 H   0  0  0  0  0  0
  -19.6912  -25.6303   21.1234 H   0  0  0  0  0  0
  -19.6694  -27.3194   20.6725 H   0  0  0  0  0  0
  -17.4197  -26.6677   21.4019 H   0  0  0  0  0  0
  -18.0328  -26.0070   22.9009 H   0  0  0  0  0  0
  -19.7940  -30.7260   24.2285 H   0  0  0  0  0  0
  -17.5018  -31.6268   24.5159 H   0  0  0  0  0  0
  -15.5356  -30.2971   23.7667 H   0  0  0  0  0  0
  -15.8670  -28.0807   22.7077 H   0  0  0  0  0  0
  -24.5895  -30.7074   25.7804 H   0  0  0  0  0  0
  -24.8927  -32.2885   26.4912 H   0  0  0  0  0  0
  -25.8064  -30.8895   27.0237 H   0  0  0  0  0  0
  -26.2886  -29.6756   24.1244 H   0  0  0  0  0  0
  -27.4000  -29.7258   25.4724 H   0  0  0  0  0  0
  -27.8777  -30.4258   23.9440 H   0  0  0  0  0  0
  -27.2658  -33.3630   26.2074 H   0  0  0  0  0  0
  -28.3853  -32.6907   25.0322 H   0  0  0  0  0  0
  -28.0731  -31.8472   26.5415 H   0  0  0  0  0  0
  -28.2556  -38.0115   24.7555 H   0  0  0  0  0  0
  -28.1119  -36.2658   24.6195 H   0  0  0  0  0  0
  -27.2322  -37.1323   25.8856 H   0  0  0  0  0  0
  -20.9361  -29.8730   21.6858 H   0  0  0  0  0  0
  -26.0153  -38.2838   24.1484 H   0  0  0  0  0  0
  -27.8118  -19.8791   21.4800 H   0  0  0  0  0  0
  -27.8732  -17.4350   21.5877 H   0  0  0  0  0  0
  -31.8482  -17.4308   19.9496 H   0  0  0  0  0  0
  -28.8719  -22.8332   22.3912 H   0  0  0  0  0  0
  -27.6940  -22.3331   21.1373 H   0  0  0  0  0  0
  -28.7427  -22.3504   18.8023 H   0  0  0  0  0  0
  -30.4555  -22.8728   18.8561 H   0  0  0  0  0  0
  -30.7378  -21.9925   21.1107 H   0  0  0  0  0  0
  -30.0380  -24.3191   20.7949 H   0  0  0  0  0  0
  -32.8680  -19.4155   19.2441 H   0  0  0  0  0  0
  -32.6797  -20.5849   20.5469 H   0  0  0  0  0  0
  -31.9075  -20.8655   18.9835 H   0  0  0  0  0  0
  -27.1474  -24.7159   20.3936 H   0  0  0  0  0  0
  -27.9533  -24.8788   18.8638 H   0  0  0  0  0  0
  -28.9157  -15.3740   21.2323 H   0  0  0  0  0  0
  1 25  1  0  0  0
  1 30  2  0  0  0
  1 83  1  0  0  0
  2  3  1  0  0  0
  2 25  1  0  0  0
  2 84  1  0  0  0
  2 85  1  0  0  0
  3  4  1  0  0  0
  3 86  1  0  0  0
  3 87  1  0  0  0
  4  5  1  0  0  0
  4 88  1  0  0  0
  4 89  1  0  0  0
  5  6  1  0  0  0
  5 26  1  0  0  0
  5 90  1  0  0  0
  6 25  1  0  0  0
  6 91  1  0  0  0
  6 92  1  0  0  0
  7  8  2  0  0  0
  7 26  1  0  0  0
  7 29  1  0  0  0
  8  9  1  0  0  0
  8 22  1  0  0  0
  9 10  1  0  0  0
  9 27  2  0  0  0
 10 11  2  0  0  0
 10 15  1  0  0  0
 11 12  1  0  0  0
 11 93  1  0  0  0
 12 13  2  0  0  0
 12 94  1  0  0  0
 13 14  1  0  0  0
 13 31  1  0  0  0
 14 15  2  0  0  0
 14 95  1  0  0  0
 15 96  1  0  0  0
 16 17  2  0  0  0
 16 21  1  0  0  0
 16 31  1  0  0  0
 17 18  1  0  0  0
 17 97  1  0  0  0
 18 19  2  0  0  0
 18 98  1  0  0  0
 19 20  1  0  0  0
 19 24  1  0  0  0
 20 21  2  0  0  0
 20 99  1  0  0  0
 21 23  1  0  0  0
 22 28  1  0  0  0
 22 32  2  0  0  0
 26 27  1  0  0  0
 28100  1  0  0  0
 28101  1  0  0  0
 29102  1  0  0  0
 29103  1  0  0  0
 33 34  1  0  0  0
 33 66  1  0  0  0
 33 70  2  0  0  0
 34 36  1  0  0  0
 34 59  1  0  0  0
 34104  1  0  0  0
 35 44  2  0  0  0
 35 45  1  0  0  0
 35 68  1  0  0  0
 36 56  1  0  0  0
 36105  1  0  0  0
 37 39  1  0  0  0
 37 47  1  0  0  0
 37 66  1  0  0  0
 37106  1  0  0  0
 38 43  2  0  0  0
 38 46  1  0  0  0
 38 47  1  0  0  0
 39 64  1  0  0  0
 39 67  2  0  0  0
 40 52  1  0  0  0
 40 53  2  0  0  0
 40 58  1  0  0  0
 41107  1  0  0  0
 41108  1  0  0  0
 41109  1  0  0  0
 41 48  1  0  0  0
 42 43  1  0  0  0
 42 66  1  0  0  0
 42110  1  0  0  0
 42111  1  0  0  0
 43 44  1  0  0  0
 44112  1  0  0  0
 45 46  2  0  0  0
 45113  1  0  0  0
 46114  1  0  0  0
 47115  1  0  0  0
 47116  1  0  0  0
 48 56  1  0  0  0
 48 65  1  0  0  0
 48117  1  0  0  0
 49 50  1  0  0  0
 49 53  1  0  0  0
 49 64  1  0  0  0
 49118  1  0  0  0
 50 51  1  0  0  0
 50119  1  0  0  0
 50120  1  0  0  0
 51 52  1  0  0  0
 51121  1  0  0  0
 51122  1  0  0  0
 52123  1  0  0  0
 52124  1  0  0  0
 53 54  1  0  0  0
 54 55  2  0  0  0
 54125  1  0  0  0
 55 57  1  0  0  0
 55126  1  0  0  0
 56 69  2  0  0  0
 57 58  2  0  0  0
 57127  1  0  0  0
 58128  1  0  0  0
 59 60  1  0  0  0
 59 61  1  0  0  0
 59 62  1  0  0  0
 60129  1  0  0  0
 60130  1  0  0  0
 60131  1  0  0  0
 61132  1  0  0  0
 61133  1  0  0  0
 61134  1  0  0  0
 62135  1  0  0  0
 62136  1  0  0  0
 62137  1  0  0  0
 63 65  1  0  0  0
 63138  1  0  0  0
 63139  1  0  0  0
 63140  1  0  0  0
 64141  1  0  0  0
 65142  1  0  0  0
 68 82  1  0  0  0
 71 72  2  0  0  0
 71 74  1  0  0  0
 71143  1  0  0  0
 72 76  1  0  0  0
 72144  1  0  0  0
 73 75  1  0  0  0
 73 76  2  0  0  0
 73145  1  0  0  0
 74 75  2  0  0  0
 74 79  1  0  0  0
 75 81  1  0  0  0
 76 83  1  0  0  0
 77 79  1  0  0  0
 77 80  1  0  0  0
 77146  1  0  0  0
 77147  1  0  0  0
 78 79  1  0  0  0
 78 80  1  0  0  0
 78148  1  0  0  0
 78149  1  0  0  0
 79150  1  0  0  0
 80 82  1  0  0  0
 80151  1  0  0  0
 81152  1  0  0  0
 81153  1  0  0  0
 81154  1  0  0  0
 82155  1  0  0  0
 82156  1  0  0  0
 83157  1  0  0  0
M  ISO  4   1 100  68 101  82 101  83 100
M  END
> <chiral flag>
0

> <version>
0

> <s_m_source_file>
/data/baiqing/PycharmProjects/Reinvent-master-3.2/result/LINK_invent/BTK/process_docking_weight1_custom_product_contain_oxygen_bond_distance_aromatic_linkinvent_7_9_3/rearranged_h_0131.sdf

> <i_m_source_file_index>
41

> <r_mmod_Potential_Energy-OPLS-2005>
111.728126525879

> <r_mmod_Stretch_Energy-OPLS-2005>
87.6240844726562

> <r_mmod_Bend_Energy-OPLS-2005>
164.732192993164

> <r_mmod_Torsional_Energy-OPLS-2005>
226.699401855469

> <r_mmod_Improper_Torsional_Energy-OPLS-2005>
4.05065107345581

> <r_mmod_Van_der_Waal_Energy-OPLS-2005>
146.003967285156

> <r_mmod_Electrostatic_Energy-OPLS-2005>
-374.700805664062

> <r_mmod_Solvation_Energy-OPLS-2005>
-201.656448364258

> <b_mmod_Minimization_Converged-OPLS-2005>
0

> <r_mmod_RMS_Derivative-OPLS-2005>
1.63443946838379

$$$$
41
                    3D
 Structure written by MMmdl.
156164  0  0  1  0            999 V2000
  -30.6092  -14.7497   20.4710 C   0  0  0  0  0  0
  -30.4416  -12.4624   19.4657 C   0  0  0  0  0  0
  -29.5165  -12.5175   18.2302 C   0  0  0  0  0  0
  -28.0402  -12.3408   18.6409 C   0  0  0  0  0  0
  -27.6444  -13.2308   19.8503 C   0  0  2  0  0  0
  -28.6923  -13.1575   20.9809 C   0  0  0  0  0  0
  -25.2511  -13.8184   20.5675 C   0  0  0  0  0  0
  -24.1810  -13.0427   20.9203 C   0  0  0  0  0  0
  -24.6405  -11.6902   20.8733 C   0  0  0  0  0  0
  -23.9078  -10.4284   21.0398 C   0  0  0  0  0  0
  -24.3624   -9.4199   21.9187 C   0  0  0  0  0  0
  -23.6289   -8.2239   22.0758 C   0  0  0  0  0  0
  -22.4262   -8.0297   21.3557 C   0  0  0  0  0  0
  -21.9899   -9.0259   20.4649 C   0  0  0  0  0  0
  -22.7238  -10.2137   20.3058 C   0  0  0  0  0  0
  -21.6855   -6.0734   22.5282 C   0  0  0  0  0  0
  -21.4017   -6.5637   23.8217 C   0  0  0  0  0  0
  -21.3667   -5.6789   24.9177 C   0  0  0  0  0  0
  -21.6046   -4.3055   24.7208 C   0  0  0  0  0  0
  -21.8827   -3.8151   23.4334 C   0  0  0  0  0  0
  -21.9184   -4.6966   22.3397 C   0  0  0  0  0  0
  -22.7824  -13.5214   21.1839 C   0  0  0  0  0  0
  -22.1659   -4.2153   21.0967 F   0  0  0  0  0  0
  -21.5617   -3.4542   25.7728 F   0  0  0  0  0  0
  -29.9916  -13.5207   20.3983 N   0  0  0  0  0  0
  -26.2954  -12.9397   20.3269 N   0  0  0  0  0  0
  -25.9346  -11.6534   20.5724 N   0  0  0  0  0  0
  -22.0463  -12.8241   22.0416 N   0  0  0  0  0  0
  -25.4137  -15.1914   20.4113 N   0  0  0  0  0  0
  -31.8119  -14.8490   20.2031 O   0  0  0  0  0  0
  -21.6642   -6.8889   21.4249 O   0  0  0  0  0  0
  -22.3514  -14.5503   20.6654 O   0  0  0  0  0  0
  -24.6302  -31.8549   23.1964 C   0  0  0  0  0  0
  -25.9122  -32.4758   23.8316 C   0  0  1  0  0  0
  -27.2415  -27.2723   20.1505 C   0  0  0  0  0  0
  -25.5913  -33.8559   24.2257 N   0  0  0  0  0  0
  -23.4284  -30.4742   21.5385 C   0  0  2  0  0  0
  -24.8822  -28.9125   20.1195 C   0  0  0  0  0  0
  -22.7492  -29.4596   22.4903 C   0  0  0  0  0  0
  -18.0291  -28.1384   22.8469 C   0  0  0  0  0  0
  -24.1489  -36.7292   23.2643 C   0  0  0  0  0  0
  -25.9717  -30.7750   21.3701 C   0  0  0  0  0  0
  -26.0523  -29.3937   20.7212 C   0  0  0  0  0  0
  -27.2361  -28.5893   20.7194 C   0  0  0  0  0  0
  -26.0494  -26.8489   19.5233 C   0  0  0  0  0  0
  -24.8844  -27.6458   19.5115 C   0  0  0  0  0  0
  -23.6489  -29.7980   20.1585 C   0  0  0  0  0  0
  -25.4117  -36.3077   24.0333 C   0  0  1  0  0  0
  -20.5890  -28.3692   23.1255 C   0  0  2  0  0  0
  -20.6776  -26.9399   22.5408 C   0  0  0  0  0  0
  -19.5754  -26.6364   21.5209 C   0  0  0  0  0  0
  -18.1935  -26.7922   22.1617 C   0  0  0  0  0  0
  -19.1542  -28.8853   23.2863 C   0  0  0  0  0  0
  -18.9471  -30.1450   23.8886 C   0  0  0  0  0  0
  -17.6472  -30.6578   24.0554 C   0  0  0  0  0  0
  -25.9045  -34.9446   23.5100 C   0  0  0  0  0  0
  -16.5362  -29.9075   23.6324 C   0  0  0  0  0  0
  -16.7280  -28.6495   23.0341 C   0  0  0  0  0  0
  -26.4495  -31.6582   25.0702 C   0  0  0  0  0  0
  -25.3722  -31.3736   26.1426 C   0  0  0  0  0  0
  -27.0336  -30.3004   24.6171 C   0  0  0  0  0  0
  -27.6041  -32.4326   25.7483 C   0  0  0  0  0  0
  -27.5577  -37.1804   24.8465 C   0  0  0  0  0  0
  -21.4201  -29.3046   22.3638 N   0  0  0  0  0  0
  -26.4289  -37.3771   23.9398 N   0  0  0  0  0  0
  -24.6960  -31.0517   22.0928 N   0  0  0  0  0  0
  -23.4190  -28.8139   23.3001 O   0  0  0  0  0  0
  -28.3572  -26.4052   20.1607 O   0  0  0  0  0  0
  -26.5610  -34.8917   22.4660 O   0  0  0  0  0  0
  -23.5455  -32.1354   23.7274 O   0  0  0  0  0  0
  -30.9535  -19.1347   21.3628 C   0  0  0  0  0  0
  -29.9889  -19.5700   20.4801 C   0  0  0  0  0  0
  -29.3981  -18.3044   20.0425 C   0  0  0  0  0  0
  -30.0729  -17.2425   20.6577 C   0  0  0  0  0  0
  -28.8564  -17.8653   17.6309 C   0  0  0  0  0  0
  -29.7905  -21.0706   19.9497 C   0  0  0  0  0  0
  -28.2975  -18.1851   19.0211 C   0  0  0  0  0  0
  -28.9817  -22.2580   20.6911 C   0  0  0  0  0  0
  -29.0270  -23.7517   20.0352 C   0  0  0  0  0  0
  -28.2084  -24.9983   20.6732 C   0  0  0  0  0  0
  -29.7952  -15.8689   20.5631 N   0  0  0  0  0  0
  -31.0284  -17.7587   21.4740 O   0  0  0  0  0  0
  -31.4819  -12.5979   19.1645 H   0  0  0  0  0  0
  -30.3943  -11.4844   19.9467 H   0  0  0  0  0  0
  -29.7955  -11.7499   17.5072 H   0  0  0  0  0  0
  -29.6459  -13.4738   17.7200 H   0  0  0  0  0  0
  -27.8923  -11.2903   18.8922 H   0  0  0  0  0  0
  -27.3885  -12.5468   17.7915 H   0  0  0  0  0  0
  -27.6343  -14.2539   19.4769 H   0  0  0  0  0  0
  -28.7326  -12.1536   21.4065 H   0  0  0  0  0  0
  -28.4284  -13.8283   21.8003 H   0  0  0  0  0  0
  -25.2774   -9.5666   22.4748 H   0  0  0  0  0  0
  -24.0005   -7.4624   22.7471 H   0  0  0  0  0  0
  -21.0832   -8.8774   19.8954 H   0  0  0  0  0  0
  -22.3699  -10.9671   19.6162 H   0  0  0  0  0  0
  -21.2037   -7.6146   23.9722 H   0  0  0  0  0  0
  -21.1474   -6.0516   25.9077 H   0  0  0  0  0  0
  -22.0596   -2.7605   23.2831 H   0  0  0  0  0  0
  -22.4069  -11.9943   22.4881 H   0  0  0  0  0  0
  -21.1070  -13.1281   22.2557 H   0  0  0  0  0  0
  -24.6325  -15.8303   20.5181 H   0  0  0  0  0  0
  -26.2496  -15.6456   20.0705 H   0  0  0  0  0  0
  -26.7189  -32.5432   23.1063 H   0  0  0  0  0  0
  -25.0057  -33.9690   25.0400 H   0  0  0  0  0  0
  -22.7258  -31.2959   21.3868 H   0  0  0  0  0  0
  -23.3744  -35.9631   23.3326 H   0  0  0  0  0  0
  -24.3571  -36.8889   22.2052 H   0  0  0  0  0  0
  -23.7258  -37.6506   23.6646 H   0  0  0  0  0  0
  -26.1016  -31.5321   20.5952 H   0  0  0  0  0  0
  -26.8520  -30.8341   21.9987 H   0  0  0  0  0  0
  -28.1359  -28.9612   21.1898 H   0  0  0  0  0  0
  -26.0157  -25.8783   19.0485 H   0  0  0  0  0  0
  -23.9888  -27.2662   19.0398 H   0  0  0  0  0  0
  -23.7724  -30.5709   19.3983 H   0  0  0  0  0  0
  -22.7688  -29.2288   19.8540 H   0  0  0  0  0  0
  -25.1303  -36.1934   25.0826 H   0  0  0  0  0  0
  -20.9999  -28.3292   24.1367 H   0  0  0  0  0  0
  -20.5652  -26.2312   23.3627 H   0  0  0  0  0  0
  -21.6649  -26.7399   22.1221 H   0  0  0  0  0  0
  -19.6915  -25.6271   21.1248 H   0  0  0  0  0  0
  -19.6699  -27.3164   20.6734 H   0  0  0  0  0  0
  -17.4203  -26.6651   21.4026 H   0  0  0  0  0  0
  -18.0338  -26.0073   22.9020 H   0  0  0  0  0  0
  -19.7952  -30.7257   24.2263 H   0  0  0  0  0  0
  -17.5029  -31.6261   24.5143 H   0  0  0  0  0  0
  -15.5365  -30.2974   23.7650 H   0  0  0  0  0  0
  -15.8683  -28.0812   22.7063 H   0  0  0  0  0  0
  -24.5890  -30.7092   25.7763 H   0  0  0  0  0  0
  -24.8922  -32.2911   26.4845 H   0  0  0  0  0  0
  -25.8040  -30.8919   27.0206 H   0  0  0  0  0  0
  -26.2915  -29.6757   24.1191 H   0  0  0  0  0  0
  -27.4024  -29.7265   25.4680 H   0  0  0  0  0  0
  -27.8784  -30.4295   23.9403 H   0  0  0  0  0  0
  -27.2640  -33.3630   26.2048 H   0  0  0  0  0  0
  -28.3858  -32.6885   25.0317 H   0  0  0  0  0  0
  -28.0692  -31.8455   26.5414 H   0  0  0  0  0  0
  -28.2609  -38.0084   24.7474 H   0  0  0  0  0  0
  -28.1046  -36.2611   24.6334 H   0  0  0  0  0  0
  -27.2273  -37.1517   25.8859 H   0  0  0  0  0  0
  -20.9386  -29.8780   21.6855 H   0  0  0  0  0  0
  -26.0181  -38.2842   24.1383 H   0  0  0  0  0  0
  -31.7092  -19.6563   21.9345 H   0  0  0  0  0  0
  -28.0569  -17.7987   16.8943 H   0  0  0  0  0  0
  -29.3908  -16.9144   17.6332 H   0  0  0  0  0  0
  -29.5533  -18.6364   17.2999 H   0  0  0  0  0  0
  -29.4073  -20.9955   18.9323 H   0  0  0  0  0  0
  -30.8064  -21.4488   19.8250 H   0  0  0  0  0  0
  -27.7339  -19.1192   18.9911 H   0  0  0  0  0  0
  -27.5964  -17.4106   19.3315 H   0  0  0  0  0  0
  -29.3451  -22.3316   21.7165 H   0  0  0  0  0  0
  -27.9382  -21.9532   20.7750 H   0  0  0  0  0  0
  -28.7043  -23.6580   18.9975 H   0  0  0  0  0  0
  -30.0755  -24.0477   19.9792 H   0  0  0  0  0  0
  -28.5038  -25.0547   21.7227 H   0  0  0  0  0  0
  -27.1545  -24.7216   20.7022 H   0  0  0  0  0  0
  -28.8132  -15.6451   20.5355 H   0  0  0  0  0  0
  1 25  1  0  0  0
  1 30  2  0  0  0
  1 81  1  0  0  0
  2  3  1  0  0  0
  2 25  1  0  0  0
  2 83  1  0  0  0
  2 84  1  0  0  0
  3  4  1  0  0  0
  3 85  1  0  0  0
  3 86  1  0  0  0
  4  5  1  0  0  0
  4 87  1  0  0  0
  4 88  1  0  0  0
  5  6  1  0  0  0
  5 26  1  0  0  0
  5 89  1  0  0  0
  6 25  1  0  0  0
  6 90  1  0  0  0
  6 91  1  0  0  0
  7  8  2  0  0  0
  7 26  1  0  0  0
  7 29  1  0  0  0
  8  9  1  0  0  0
  8 22  1  0  0  0
  9 10  1  0  0  0
  9 27  2  0  0  0
 10 11  2  0  0  0
 10 15  1  0  0  0
 11 12  1  0  0  0
 11 92  1  0  0  0
 12 13  2  0  0  0
 12 93  1  0  0  0
 13 14  1  0  0  0
 13 31  1  0  0  0
 14 15  2  0  0  0
 14 94  1  0  0  0
 15 95  1  0  0  0
 16 17  2  0  0  0
 16 21  1  0  0  0
 16 31  1  0  0  0
 17 18  1  0  0  0
 17 96  1  0  0  0
 18 19  2  0  0  0
 18 97  1  0  0  0
 19 20  1  0  0  0
 19 24  1  0  0  0
 20 21  2  0  0  0
 20 98  1  0  0  0
 21 23  1  0  0  0
 22 28  1  0  0  0
 22 32  2  0  0  0
 26 27  1  0  0  0
 28 99  1  0  0  0
 28100  1  0  0  0
 29101  1  0  0  0
 29102  1  0  0  0
 33 34  1  0  0  0
 33 66  1  0  0  0
 33 70  2  0  0  0
 34 36  1  0  0  0
 34 59  1  0  0  0
 34103  1  0  0  0
 35 44  2  0  0  0
 35 45  1  0  0  0
 35 68  1  0  0  0
 36 56  1  0  0  0
 36104  1  0  0  0
 37 39  1  0  0  0
 37 47  1  0  0  0
 37 66  1  0  0  0
 37105  1  0  0  0
 38 43  2  0  0  0
 38 46  1  0  0  0
 38 47  1  0  0  0
 39 64  1  0  0  0
 39 67  2  0  0  0
 40 52  1  0  0  0
 40 53  2  0  0  0
 40 58  1  0  0  0
 41106  1  0  0  0
 41107  1  0  0  0
 41108  1  0  0  0
 41 48  1  0  0  0
 42 43  1  0  0  0
 42 66  1  0  0  0
 42109  1  0  0  0
 42110  1  0  0  0
 43 44  1  0  0  0
 44111  1  0  0  0
 45 46  2  0  0  0
 45112  1  0  0  0
 46113  1  0  0  0
 47114  1  0  0  0
 47115  1  0  0  0
 48 56  1  0  0  0
 48 65  1  0  0  0
 48116  1  0  0  0
 49 50  1  0  0  0
 49 53  1  0  0  0
 49 64  1  0  0  0
 49117  1  0  0  0
 50 51  1  0  0  0
 50118  1  0  0  0
 50119  1  0  0  0
 51 52  1  0  0  0
 51120  1  0  0  0
 51121  1  0  0  0
 52122  1  0  0  0
 52123  1  0  0  0
 53 54  1  0  0  0
 54 55  2  0  0  0
 54124  1  0  0  0
 55 57  1  0  0  0
 55125  1  0  0  0
 56 69  2  0  0  0
 57 58  2  0  0  0
 57126  1  0  0  0
 58127  1  0  0  0
 59 60  1  0  0  0
 59 61  1  0  0  0
 59 62  1  0  0  0
 60128  1  0  0  0
 60129  1  0  0  0
 60130  1  0  0  0
 61131  1  0  0  0
 61132  1  0  0  0
 61133  1  0  0  0
 62134  1  0  0  0
 62135  1  0  0  0
 62136  1  0  0  0
 63 65  1  0  0  0
 63137  1  0  0  0
 63138  1  0  0  0
 63139  1  0  0  0
 64140  1  0  0  0
 65141  1  0  0  0
 68 80  1  0  0  0
 71 72  2  0  0  0
 71 82  1  0  0  0
 71142  1  0  0  0
 72 73  1  0  0  0
 72 76  1  0  0  0
 73 74  2  0  0  0
 73 77  1  0  0  0
 74 81  1  0  0  0
 74 82  1  0  0  0
 75 77  1  0  0  0
 75143  1  0  0  0
 75144  1  0  0  0
 75145  1  0  0  0
 76 78  1  0  0  0
 76146  1  0  0  0
 76147  1  0  0  0
 77148  1  0  0  0
 77149  1  0  0  0
 78 79  1  0  0  0
 78150  1  0  0  0
 78151  1  0  0  0
 79 80  1  0  0  0
 79152  1  0  0  0
 79153  1  0  0  0
 80154  1  0  0  0
 80155  1  0  0  0
 81156  1  0  0  0
M  ISO  4   1 100  68 101  80 101  81 100
M  END
> <chiral flag>
0

> <version>
0

> <s_m_source_file>
/data/baiqing/PycharmProjects/Reinvent-master-3.2/result/LINK_invent/BTK/process_docking_weight1_custom_product_contain_oxygen_bond_distance_aromatic_linkinvent_7_9_3/rearranged_h_0131.sdf

> <i_m_source_file_index>
42

> <r_mmod_Potential_Energy-OPLS-2005>
134.281478881836

> <r_mmod_Stretch_Energy-OPLS-2005>
116.416961669922

> <r_mmod_Bend_Energy-OPLS-2005>
173.608367919922

> <r_mmod_Torsional_Energy-OPLS-2005>
236.666839599609

> <r_mmod_Improper_Torsional_Energy-OPLS-2005>
8.44068717956543

> <r_mmod_Van_der_Waal_Energy-OPLS-2005>
103.635124206543

> <r_mmod_Electrostatic_Energy-OPLS-2005>
-376.406188964844

> <r_mmod_Solvation_Energy-OPLS-2005>
-209.910400390625

> <b_mmod_Minimization_Converged-OPLS-2005>
0

> <r_mmod_RMS_Derivative-OPLS-2005>
2.74178910255432

$$$$
42
                    3D
 Structure written by MMmdl.
155163  0  0  1  0            999 V2000
  -30.6160  -14.6154   20.5407 C   0  0  0  0  0  0
  -30.4452  -12.3905   19.4483 C   0  0  0  0  0  0
  -29.5134  -12.5225   18.2219 C   0  0  0  0  0  0
  -28.0359  -12.3512   18.6279 C   0  0  0  0  0  0
  -27.6559  -13.2097   19.8664 C   0  0  2  0  0  0
  -28.6965  -13.0372   20.9943 C   0  0  0  0  0  0
  -25.2562  -13.8127   20.5699 C   0  0  0  0  0  0
  -24.1816  -13.0421   20.9178 C   0  0  0  0  0  0
  -24.6373  -11.6886   20.8728 C   0  0  0  0  0  0
  -23.9066  -10.4285   21.0425 C   0  0  0  0  0  0
  -24.3620   -9.4200   21.9200 C   0  0  0  0  0  0
  -23.6285   -8.2236   22.0753 C   0  0  0  0  0  0
  -22.4267   -8.0286   21.3541 C   0  0  0  0  0  0
  -21.9913   -9.0272   20.4644 C   0  0  0  0  0  0
  -22.7243  -10.2146   20.3065 C   0  0  0  0  0  0
  -21.6839   -6.0742   22.5282 C   0  0  0  0  0  0
  -21.4005   -6.5644   23.8217 C   0  0  0  0  0  0
  -21.3662   -5.6792   24.9173 C   0  0  0  0  0  0
  -21.6057   -4.3053   24.7223 C   0  0  0  0  0  0
  -21.8824   -3.8150   23.4341 C   0  0  0  0  0  0
  -21.9190   -4.6976   22.3398 C   0  0  0  0  0  0
  -22.7840  -13.5233   21.1858 C   0  0  0  0  0  0
  -22.1662   -4.2167   21.0973 F   0  0  0  0  0  0
  -21.5638   -3.4532   25.7733 F   0  0  0  0  0  0
  -30.0162  -13.3900   20.4426 N   0  0  0  0  0  0
  -26.2988  -12.9305   20.3297 N   0  0  0  0  0  0
  -25.9287  -11.6476   20.5715 N   0  0  0  0  0  0
  -22.0464  -12.8240   22.0406 N   0  0  0  0  0  0
  -25.4276  -15.1858   20.4229 N   0  0  0  0  0  0
  -31.7713  -14.8081   20.1459 O   0  0  0  0  0  0
  -21.6618   -6.8889   21.4244 O   0  0  0  0  0  0
  -22.3541  -14.5558   20.6728 O   0  0  0  0  0  0
  -24.6247  -31.8626   23.2045 C   0  0  0  0  0  0
  -25.9115  -32.4791   23.8362 C   0  0  1  0  0  0
  -27.2251  -27.3397   20.1056 C   0  0  0  0  0  0
  -25.5922  -33.8591   24.2296 N   0  0  0  0  0  0
  -23.4154  -30.4874   21.5480 C   0  0  2  0  0  0
  -24.8635  -28.9496   20.1075 C   0  0  0  0  0  0
  -22.7472  -29.4625   22.4941 C   0  0  0  0  0  0
  -18.0284  -28.1361   22.8501 C   0  0  0  0  0  0
  -24.1487  -36.7296   23.2635 C   0  0  0  0  0  0
  -25.9559  -30.7978   21.3747 C   0  0  0  0  0  0
  -26.0304  -29.4277   20.7159 C   0  0  0  0  0  0
  -27.2139  -28.6335   20.7064 C   0  0  0  0  0  0
  -26.0353  -26.9163   19.4648 C   0  0  0  0  0  0
  -24.8686  -27.6999   19.4714 C   0  0  0  0  0  0
  -23.6292  -29.8243   20.1619 C   0  0  0  0  0  0
  -25.4111  -36.3089   24.0335 C   0  0  1  0  0  0
  -20.5885  -28.3665   23.1295 C   0  0  2  0  0  0
  -20.6780  -26.9393   22.5416 C   0  0  0  0  0  0
  -19.5744  -26.6358   21.5225 C   0  0  0  0  0  0
  -18.1923  -26.7909   22.1636 C   0  0  0  0  0  0
  -19.1537  -28.8837   23.2885 C   0  0  0  0  0  0
  -18.9444  -30.1443   23.8901 C   0  0  0  0  0  0
  -17.6439  -30.6575   24.0558 C   0  0  0  0  0  0
  -25.9051  -34.9456   23.5114 C   0  0  0  0  0  0
  -16.5339  -29.9063   23.6317 C   0  0  0  0  0  0
  -16.7275  -28.6481   23.0359 C   0  0  0  0  0  0
  -26.4494  -31.6583   25.0718 C   0  0  0  0  0  0
  -25.3728  -31.3725   26.1435 C   0  0  0  0  0  0
  -27.0320  -30.3015   24.6145 C   0  0  0  0  0  0
  -27.6059  -32.4306   25.7483 C   0  0  0  0  0  0
  -27.5577  -37.1801   24.8467 C   0  0  0  0  0  0
  -21.4195  -29.3022   22.3709 N   0  0  0  0  0  0
  -26.4294  -37.3784   23.9405 N   0  0  0  0  0  0
  -24.6835  -31.0656   22.0991 N   0  0  0  0  0  0
  -23.4225  -28.8161   23.3004 O   0  0  0  0  0  0
  -28.3452  -26.4990   20.1668 O   0  0  0  0  0  0
  -26.5615  -34.8927   22.4680 O   0  0  0  0  0  0
  -23.5415  -32.1397   23.7389 O   0  0  0  0  0  0
  -30.5351  -19.2154   21.9443 C   0  0  0  0  0  0
  -30.5699  -17.7937   21.9004 C   0  0  0  0  0  0
  -29.2004  -19.2747   19.9419 C   0  0  0  0  0  0
  -29.8638  -19.9949   20.9661 C   0  0  0  0  0  0
  -29.2164  -17.8443   19.8976 C   0  0  0  0  0  0
  -29.9199  -17.0731   20.8710 C   0  0  0  0  0  0
  -29.1791  -24.0619   20.4641 C   0  0  0  0  0  0
  -28.4465  -17.1447   18.7925 C   0  0  0  0  0  0
  -29.9386  -21.5598   21.0664 C   0  0  0  0  0  0
  -28.9905  -22.5122   20.2315 C   0  0  0  0  0  0
  -28.1281  -25.0669   19.8751 C   0  0  0  0  0  0
  -29.7895  -15.6270   20.9409 N   0  0  0  0  0  0
  -30.1476  -24.4827   21.1056 O   0  0  0  0  0  0
  -31.4860  -12.5290   19.1494 H   0  0  0  0  0  0
  -30.3876  -11.3897   19.8788 H   0  0  0  0  0  0
  -29.7812  -11.7895   17.4600 H   0  0  0  0  0  0
  -29.6546  -13.5047   17.7645 H   0  0  0  0  0  0
  -27.8722  -11.2950   18.8465 H   0  0  0  0  0  0
  -27.3861  -12.5919   17.7849 H   0  0  0  0  0  0
  -27.6793  -14.2494   19.5436 H   0  0  0  0  0  0
  -28.7016  -12.0088   21.3569 H   0  0  0  0  0  0
  -28.4351  -13.6471   21.8589 H   0  0  0  0  0  0
  -25.2788   -9.5662   22.4742 H   0  0  0  0  0  0
  -24.0009   -7.4625   22.7458 H   0  0  0  0  0  0
  -21.0843   -8.8808   19.8932 H   0  0  0  0  0  0
  -22.3737  -10.9693   19.6157 H   0  0  0  0  0  0
  -21.1981   -7.6146   23.9733 H   0  0  0  0  0  0
  -21.1474   -6.0503   25.9082 H   0  0  0  0  0  0
  -22.0592   -2.7610   23.2826 H   0  0  0  0  0  0
  -22.4082  -11.9904   22.4805 H   0  0  0  0  0  0
  -21.1082  -13.1276   22.2615 H   0  0  0  0  0  0
  -24.6668  -15.8416   20.5622 H   0  0  0  0  0  0
  -26.2866  -15.6310   20.1329 H   0  0  0  0  0  0
  -26.7183  -32.5465   23.1103 H   0  0  0  0  0  0
  -25.0062  -33.9741   25.0439 H   0  0  0  0  0  0
  -22.7064  -31.3058   21.4088 H   0  0  0  0  0  0
  -23.3744  -35.9636   23.3316 H   0  0  0  0  0  0
  -24.3563  -36.8905   22.2042 H   0  0  0  0  0  0
  -23.7251  -37.6513   23.6644 H   0  0  0  0  0  0
  -26.0842  -31.5630   20.6077 H   0  0  0  0  0  0
  -26.8369  -30.8470   22.0030 H   0  0  0  0  0  0
  -28.1068  -28.9964   21.1943 H   0  0  0  0  0  0
  -25.9751  -25.9701   18.9491 H   0  0  0  0  0  0
  -23.9784  -27.3372   18.9768 H   0  0  0  0  0  0
  -23.7453  -30.5986   19.4043 H   0  0  0  0  0  0
  -22.7495  -29.2519   19.8596 H   0  0  0  0  0  0
  -25.1284  -36.1941   25.0830 H   0  0  0  0  0  0
  -20.9964  -28.3215   24.1420 H   0  0  0  0  0  0
  -20.5681  -26.2264   23.3603 H   0  0  0  0  0  0
  -21.6647  -26.7435   22.1194 H   0  0  0  0  0  0
  -19.6898  -25.6263   21.1245 H   0  0  0  0  0  0
  -19.6659  -27.3179   20.6753 H   0  0  0  0  0  0
  -17.4200  -26.6692   21.4026 H   0  0  0  0  0  0
  -18.0300  -26.0043   22.9012 H   0  0  0  0  0  0
  -19.7928  -30.7268   24.2272 H   0  0  0  0  0  0
  -17.4992  -31.6261   24.5149 H   0  0  0  0  0  0
  -15.5343  -30.2965   23.7635 H   0  0  0  0  0  0
  -15.8679  -28.0801   22.7076 H   0  0  0  0  0  0
  -24.5906  -30.7074   25.7762 H   0  0  0  0  0  0
  -24.8899  -32.2888   26.4840 H   0  0  0  0  0  0
  -25.8036  -30.8912   27.0223 H   0  0  0  0  0  0
  -26.2886  -29.6788   24.1153 H   0  0  0  0  0  0
  -27.4017  -29.7245   25.4630 H   0  0  0  0  0  0
  -27.8763  -30.4312   23.9372 H   0  0  0  0  0  0
  -27.2681  -33.3613   26.2061 H   0  0  0  0  0  0
  -28.3864  -32.6856   25.0299 H   0  0  0  0  0  0
  -28.0731  -31.8422   26.5395 H   0  0  0  0  0  0
  -28.2598  -38.0087   24.7482 H   0  0  0  0  0  0
  -28.1062  -36.2613   24.6320 H   0  0  0  0  0  0
  -27.2287  -37.1489   25.8870 H   0  0  0  0  0  0
  -20.9378  -29.8759   21.6933 H   0  0  0  0  0  0
  -26.0178  -38.2872   24.1382 H   0  0  0  0  0  0
  -31.0360  -19.7151   22.7610 H   0  0  0  0  0  0
  -31.0725  -17.2626   22.6972 H   0  0  0  0  0  0
  -28.6580  -19.8215   19.1809 H   0  0  0  0  0  0
  -27.5128  -16.7440   19.1824 H   0  0  0  0  0  0
  -29.0264  -16.3213   18.3723 H   0  0  0  0  0  0
  -28.2029  -17.8288   17.9795 H   0  0  0  0  0  0
  -30.9697  -21.8230   20.8276 H   0  0  0  0  0  0
  -29.8171  -21.8180   22.1207 H   0  0  0  0  0  0
  -29.1379  -22.3202   19.1681 H   0  0  0  0  0  0
  -27.9500  -22.2688   20.4465 H   0  0  0  0  0  0
  -27.1666  -24.7544   20.2783 H   0  0  0  0  0  0
  -28.0837  -24.9315   18.7942 H   0  0  0  0  0  0
  -28.8644  -15.3027   21.1769 H   0  0  0  0  0  0
  1 25  1  0  0  0
  1 30  2  0  0  0
  1 82  1  0  0  0
  2  3  1  0  0  0
  2 25  1  0  0  0
  2 84  1  0  0  0
  2 85  1  0  0  0
  3  4  1  0  0  0
  3 86  1  0  0  0
  3 87  1  0  0  0
  4  5  1  0  0  0
  4 88  1  0  0  0
  4 89  1  0  0  0
  5  6  1  0  0  0
  5 26  1  0  0  0
  5 90  1  0  0  0
  6 25  1  0  0  0
  6 91  1  0  0  0
  6 92  1  0  0  0
  7  8  2  0  0  0
  7 26  1  0  0  0
  7 29  1  0  0  0
  8  9  1  0  0  0
  8 22  1  0  0  0
  9 10  1  0  0  0
  9 27  2  0  0  0
 10 11  2  0  0  0
 10 15  1  0  0  0
 11 12  1  0  0  0
 11 93  1  0  0  0
 12 13  2  0  0  0
 12 94  1  0  0  0
 13 14  1  0  0  0
 13 31  1  0  0  0
 14 15  2  0  0  0
 14 95  1  0  0  0
 15 96  1  0  0  0
 16 17  2  0  0  0
 16 21  1  0  0  0
 16 31  1  0  0  0
 17 18  1  0  0  0
 17 97  1  0  0  0
 18 19  2  0  0  0
 18 98  1  0  0  0
 19 20  1  0  0  0
 19 24  1  0  0  0
 20 21  2  0  0  0
 20 99  1  0  0  0
 21 23  1  0  0  0
 22 28  1  0  0  0
 22 32  2  0  0  0
 26 27  1  0  0  0
 28100  1  0  0  0
 28101  1  0  0  0
 29102  1  0  0  0
 29103  1  0  0  0
 33 34  1  0  0  0
 33 66  1  0  0  0
 33 70  2  0  0  0
 34 36  1  0  0  0
 34 59  1  0  0  0
 34104  1  0  0  0
 35 44  2  0  0  0
 35 45  1  0  0  0
 35 68  1  0  0  0
 36 56  1  0  0  0
 36105  1  0  0  0
 37 39  1  0  0  0
 37 47  1  0  0  0
 37 66  1  0  0  0
 37106  1  0  0  0
 38 43  2  0  0  0
 38 46  1  0  0  0
 38 47  1  0  0  0
 39 64  1  0  0  0
 39 67  2  0  0  0
 40 52  1  0  0  0
 40 53  2  0  0  0
 40 58  1  0  0  0
 41107  1  0  0  0
 41108  1  0  0  0
 41109  1  0  0  0
 41 48  1  0  0  0
 42 43  1  0  0  0
 42 66  1  0  0  0
 42110  1  0  0  0
 42111  1  0  0  0
 43 44  1  0  0  0
 44112  1  0  0  0
 45 46  2  0  0  0
 45113  1  0  0  0
 46114  1  0  0  0
 47115  1  0  0  0
 47116  1  0  0  0
 48 56  1  0  0  0
 48 65  1  0  0  0
 48117  1  0  0  0
 49 50  1  0  0  0
 49 53  1  0  0  0
 49 64  1  0  0  0
 49118  1  0  0  0
 50 51  1  0  0  0
 50119  1  0  0  0
 50120  1  0  0  0
 51 52  1  0  0  0
 51121  1  0  0  0
 51122  1  0  0  0
 52123  1  0  0  0
 52124  1  0  0  0
 53 54  1  0  0  0
 54 55  2  0  0  0
 54125  1  0  0  0
 55 57  1  0  0  0
 55126  1  0  0  0
 56 69  2  0  0  0
 57 58  2  0  0  0
 57127  1  0  0  0
 58128  1  0  0  0
 59 60  1  0  0  0
 59 61  1  0  0  0
 59 62  1  0  0  0
 60129  1  0  0  0
 60130  1  0  0  0
 60131  1  0  0  0
 61132  1  0  0  0
 61133  1  0  0  0
 61134  1  0  0  0
 62135  1  0  0  0
 62136  1  0  0  0
 62137  1  0  0  0
 63 65  1  0  0  0
 63138  1  0  0  0
 63139  1  0  0  0
 63140  1  0  0  0
 64141  1  0  0  0
 65142  1  0  0  0
 68 81  1  0  0  0
 71 72  2  0  0  0
 71 74  1  0  0  0
 71143  1  0  0  0
 72 76  1  0  0  0
 72144  1  0  0  0
 73 74  2  0  0  0
 73 75  1  0  0  0
 73145  1  0  0  0
 74 79  1  0  0  0
 75 76  2  0  0  0
 75 78  1  0  0  0
 76 82  1  0  0  0
 77 80  1  0  0  0
 77 81  1  0  0  0
 77 83  2  0  0  0
 78146  1  0  0  0
 78147  1  0  0  0
 78148  1  0  0  0
 79 80  1  0  0  0
 79149  1  0  0  0
 79150  1  0  0  0
 80151  1  0  0  0
 80152  1  0  0  0
 81153  1  0  0  0
 81154  1  0  0  0
 82155  1  0  0  0
M  ISO  4   1 100  68 101  81 101  82 100
M  END
> <chiral flag>
0

> <version>
0

> <s_m_source_file>
/data/baiqing/PycharmProjects/Reinvent-master-3.2/result/LINK_invent/BTK/process_docking_weight1_custom_product_contain_oxygen_bond_distance_aromatic_linkinvent_7_9_3/rearranged_h_0131.sdf

> <i_m_source_file_index>
43

> <r_mmod_Potential_Energy-OPLS-2005>
5.09258222579956

> <r_mmod_Stretch_Energy-OPLS-2005>
69.1561126708984

> <r_mmod_Bend_Energy-OPLS-2005>
123.811363220215

> <r_mmod_Torsional_Energy-OPLS-2005>
231.819473266602

> <r_mmod_Improper_Torsional_Energy-OPLS-2005>
5.21960735321045

> <r_mmod_Van_der_Waal_Energy-OPLS-2005>
141.070083618164

> <r_mmod_Electrostatic_Energy-OPLS-2005>
-375.772277832031

> <r_mmod_Solvation_Energy-OPLS-2005>
-232.144317626953

> <b_mmod_Minimization_Converged-OPLS-2005>
0

> <r_mmod_RMS_Derivative-OPLS-2005>
3.12793660163879

$$$$
43
                    3D
 Structure written by MMmdl.
158167  0  0  1  0            999 V2000
  -30.5682  -14.8338   20.3245 C   0  0  0  0  0  0
  -30.4376  -12.4870   19.4712 C   0  0  0  0  0  0
  -29.5066  -12.4824   18.2350 C   0  0  0  0  0  0
  -28.0320  -12.3076   18.6529 C   0  0  0  0  0  0
  -27.6245  -13.2229   19.8360 C   0  0  2  0  0  0
  -28.6846  -13.2313   20.9593 C   0  0  0  0  0  0
  -25.2481  -13.8212   20.5701 C   0  0  0  0  0  0
  -24.1760  -13.0460   20.9230 C   0  0  0  0  0  0
  -24.6360  -11.6931   20.8816 C   0  0  0  0  0  0
  -23.9081  -10.4262   21.0472 C   0  0  0  0  0  0
  -24.3633   -9.4167   21.9231 C   0  0  0  0  0  0
  -23.6306   -8.2211   22.0790 C   0  0  0  0  0  0
  -22.4278   -8.0272   21.3588 C   0  0  0  0  0  0
  -21.9926   -9.0250   20.4687 C   0  0  0  0  0  0
  -22.7275  -10.2117   20.3111 C   0  0  0  0  0  0
  -21.6854   -6.0727   22.5280 C   0  0  0  0  0  0
  -21.4000   -6.5643   23.8204 C   0  0  0  0  0  0
  -21.3643   -5.6798   24.9169 C   0  0  0  0  0  0
  -21.6063   -4.3064   24.7230 C   0  0  0  0  0  0
  -21.8820   -3.8151   23.4353 C   0  0  0  0  0  0
  -21.9188   -4.6954   22.3405 C   0  0  0  0  0  0
  -22.7762  -13.5229   21.1863 C   0  0  0  0  0  0
  -22.1654   -4.2164   21.0974 F   0  0  0  0  0  0
  -21.5622   -3.4545   25.7744 F   0  0  0  0  0  0
  -29.9742  -13.5819   20.3563 N   0  0  0  0  0  0
  -26.2860  -12.9369   20.3302 N   0  0  0  0  0  0
  -25.9277  -11.6539   20.5850 N   0  0  0  0  0  0
  -22.0437  -12.8186   22.0421 N   0  0  0  0  0  0
  -25.4231  -15.1929   20.4121 N   0  0  0  0  0  0
  -31.7966  -14.8905   20.2735 O   0  0  0  0  0  0
  -21.6642   -6.8877   21.4256 O   0  0  0  0  0  0
  -22.3432  -14.5542   20.6753 O   0  0  0  0  0  0
  -24.6310  -31.8492   23.1976 C   0  0  0  0  0  0
  -25.9112  -32.4741   23.8333 C   0  0  1  0  0  0
  -27.1946  -27.1829   20.1137 C   0  0  0  0  0  0
  -25.5919  -33.8551   24.2207 N   0  0  0  0  0  0
  -23.4329  -30.4737   21.5450 C   0  0  2  0  0  0
  -24.8775  -28.9280   20.1118 C   0  0  0  0  0  0
  -22.7557  -29.4487   22.4891 C   0  0  0  0  0  0
  -18.0300  -28.1358   22.8437 C   0  0  0  0  0  0
  -24.1483  -36.7213   23.2654 C   0  0  0  0  0  0
  -25.9933  -30.7356   21.3980 C   0  0  0  0  0  0
  -26.0571  -29.3567   20.7328 C   0  0  0  0  0  0
  -27.2158  -28.4949   20.7319 C   0  0  0  0  0  0
  -25.9854  -26.8708   19.4394 C   0  0  0  0  0  0
  -24.8499  -27.6938   19.4578 C   0  0  0  0  0  0
  -23.6549  -29.8224   20.1606 C   0  0  0  0  0  0
  -25.4130  -36.3041   24.0305 C   0  0  1  0  0  0
  -20.5906  -28.3561   23.1329 C   0  0  2  0  0  0
  -20.6750  -26.9289   22.5436 C   0  0  0  0  0  0
  -19.5753  -26.6342   21.5226 C   0  0  0  0  0  0
  -18.1927  -26.7888   22.1589 C   0  0  0  0  0  0
  -19.1556  -28.8804   23.2859 C   0  0  0  0  0  0
  -18.9477  -30.1418   23.8830 C   0  0  0  0  0  0
  -17.6473  -30.6559   24.0519 C   0  0  0  0  0  0
  -25.9099  -34.9412   23.5048 C   0  0  0  0  0  0
  -16.5372  -29.9020   23.6365 C   0  0  0  0  0  0
  -16.7297  -28.6492   23.0331 C   0  0  0  0  0  0
  -26.4419  -31.6658   25.0820 C   0  0  0  0  0  0
  -25.3574  -31.3847   26.1530 C   0  0  0  0  0  0
  -27.0232  -30.3035   24.6394 C   0  0  0  0  0  0
  -27.5985  -32.4408   25.7573 C   0  0  0  0  0  0
  -27.5547  -37.1770   24.8465 C   0  0  0  0  0  0
  -21.4259  -29.2916   22.3685 N   0  0  0  0  0  0
  -26.4253  -37.3764   23.9424 N   0  0  0  0  0  0
  -24.7050  -31.0375   22.1005 N   0  0  0  0  0  0
  -23.4289  -28.8063   23.2991 O   0  0  0  0  0  0
  -28.2524  -26.2095   20.1601 O   0  0  0  0  0  0
  -26.5675  -34.8890   22.4632 O   0  0  0  0  0  0
  -23.5456  -32.1332   23.7235 O   0  0  0  0  0  0
  -29.2369  -17.9681   17.6681 C   0  0  0  0  0  0
  -29.1150  -20.1122   16.6260 C   0  0  0  0  0  0
  -29.4305  -18.5428   18.9646 C   0  0  0  0  0  0
  -29.1071  -18.7285   16.4955 C   0  0  0  0  0  0
  -29.2647  -20.0375   18.9972 C   0  0  0  0  0  0
  -28.6548  -23.5854   20.2377 C   0  0  0  0  0  0
  -29.9474  -17.4131   19.9409 C   0  0  0  0  0  0
  -27.9877  -24.7903   19.9662 C   0  0  0  0  0  0
  -29.7363  -16.0221   19.8317 C   0  0  0  0  0  0
  -29.9927  -23.2794   20.8740 C   0  0  0  0  0  0
  -28.1258  -22.1381   19.9309 C   0  0  0  0  0  0
  -30.3906  -21.8472   20.3413 C   0  0  0  0  0  0
  -29.0285  -18.0812   15.1162 C   0  0  0  0  0  0
  -29.1605  -20.7154   17.8250 N   0  0  0  0  0  0
  -29.1760  -21.0409   20.0615 N   0  0  0  0  0  0
  -31.4740  -12.6248   19.1556 H   0  0  0  0  0  0
  -30.4003  -11.5243   19.9890 H   0  0  0  0  0  0
  -29.7893  -11.6742   17.5565 H   0  0  0  0  0  0
  -29.6194  -13.4133   17.6736 H   0  0  0  0  0  0
  -27.8942  -11.2630   18.9371 H   0  0  0  0  0  0
  -27.3736  -12.4943   17.8031 H   0  0  0  0  0  0
  -27.5658  -14.2180   19.4096 H   0  0  0  0  0  0
  -28.7422  -12.2546   21.4496 H   0  0  0  0  0  0
  -28.4275  -13.9595   21.7332 H   0  0  0  0  0  0
  -25.2790   -9.5623   22.4800 H   0  0  0  0  0  0
  -24.0029   -7.4608   22.7516 H   0  0  0  0  0  0
  -21.0846   -8.8797   19.9004 H   0  0  0  0  0  0
  -22.3784  -10.9666   19.6210 H   0  0  0  0  0  0
  -21.1979   -7.6163   23.9707 H   0  0  0  0  0  0
  -21.1464   -6.0532   25.9076 H   0  0  0  0  0  0
  -22.0620   -2.7641   23.2826 H   0  0  0  0  0  0
  -22.4087  -11.9788   22.4673 H   0  0  0  0  0  0
  -21.1122  -13.1267   22.2840 H   0  0  0  0  0  0
  -24.6733  -15.8614   20.5441 H   0  0  0  0  0  0
  -26.2926  -15.6306   20.1339 H   0  0  0  0  0  0
  -26.7169  -32.5303   23.1090 H   0  0  0  0  0  0
  -25.0021  -33.9700   25.0315 H   0  0  0  0  0  0
  -22.7243  -31.2948   21.3983 H   0  0  0  0  0  0
  -23.3766  -35.9553   23.3319 H   0  0  0  0  0  0
  -24.3590  -36.8859   22.2106 H   0  0  0  0  0  0
  -23.7254  -37.6413   23.6688 H   0  0  0  0  0  0
  -26.1574  -31.5056   20.6430 H   0  0  0  0  0  0
  -26.8602  -30.7650   22.0411 H   0  0  0  0  0  0
  -28.1151  -28.8105   21.2360 H   0  0  0  0  0  0
  -25.8417  -25.9741   18.8637 H   0  0  0  0  0  0
  -23.9509  -27.3650   18.9587 H   0  0  0  0  0  0
  -23.7791  -30.6007   19.4048 H   0  0  0  0  0  0
  -22.7715  -29.2595   19.8474 H   0  0  0  0  0  0
  -25.1326  -36.1824   25.0779 H   0  0  0  0  0  0
  -20.9916  -28.3046   24.1477 H   0  0  0  0  0  0
  -20.5612  -26.2118   23.3575 H   0  0  0  0  0  0
  -21.6607  -26.7301   22.1239 H   0  0  0  0  0  0
  -19.6868  -25.6277   21.1214 H   0  0  0  0  0  0
  -19.6739  -27.3172   20.6792 H   0  0  0  0  0  0
  -17.4187  -26.6670   21.4012 H   0  0  0  0  0  0
  -18.0253  -26.0094   22.9030 H   0  0  0  0  0  0
  -19.7993  -30.7236   24.2136 H   0  0  0  0  0  0
  -17.5078  -31.6249   24.5084 H   0  0  0  0  0  0
  -15.5353  -30.2869   23.7822 H   0  0  0  0  0  0
  -15.8701  -28.0811   22.7014 H   0  0  0  0  0  0
  -24.5878  -30.7021   25.7826 H   0  0  0  0  0  0
  -24.8578  -32.2971   26.4795 H   0  0  0  0  0  0
  -25.7903  -30.9180   27.0384 H   0  0  0  0  0  0
  -26.2827  -29.6875   24.1322 H   0  0  0  0  0  0
  -27.3708  -29.7293   25.5004 H   0  0  0  0  0  0
  -27.8736  -30.4276   23.9742 H   0  0  0  0  0  0
  -27.2664  -33.3833   26.1891 H   0  0  0  0  0  0
  -28.3831  -32.6804   25.0383 H   0  0  0  0  0  0
  -28.0476  -31.8666   26.5648 H   0  0  0  0  0  0
  -28.2551  -38.0095   24.7507 H   0  0  0  0  0  0
  -28.1057  -36.2629   24.6251 H   0  0  0  0  0  0
  -27.2234  -37.1311   25.8860 H   0  0  0  0  0  0
  -20.9397  -29.8771   21.7040 H   0  0  0  0  0  0
  -26.0102  -38.2769   24.1558 H   0  0  0  0  0  0
  -29.2892  -16.9019   17.5118 H   0  0  0  0  0  0
  -29.0770  -20.7511   15.7556 H   0  0  0  0  0  0
  -30.6792  -17.7447   20.6631 H   0  0  0  0  0  0
  -27.0481  -24.6145   19.4740 H   0  0  0  0  0  0
  -28.9432  -15.7295   19.1681 H   0  0  0  0  0  0
  -29.8277  -23.2437   21.9581 H   0  0  0  0  0  0
  -30.7506  -24.0428   20.6909 H   0  0  0  0  0  0
  -27.6042  -22.1393   18.9706 H   0  0  0  0  0  0
  -27.3528  -21.9301   20.6692 H   0  0  0  0  0  0
  -31.0559  -21.3335   21.0360 H   0  0  0  0  0  0
  -30.9691  -21.9622   19.4207 H   0  0  0  0  0  0
  -28.0214  -17.7081   14.9113 H   0  0  0  0  0  0
  -29.7253  -17.2476   15.0312 H   0  0  0  0  0  0
  -29.2787  -18.7983   14.3307 H   0  0  0  0  0  0
  1 25  1  0  0  0
  1 30  2  0  0  0
  1 79  1  0  0  0
  2  3  1  0  0  0
  2 25  1  0  0  0
  2 86  1  0  0  0
  2 87  1  0  0  0
  3  4  1  0  0  0
  3 88  1  0  0  0
  3 89  1  0  0  0
  4  5  1  0  0  0
  4 90  1  0  0  0
  4 91  1  0  0  0
  5  6  1  0  0  0
  5 26  1  0  0  0
  5 92  1  0  0  0
  6 25  1  0  0  0
  6 93  1  0  0  0
  6 94  1  0  0  0
  7  8  2  0  0  0
  7 26  1  0  0  0
  7 29  1  0  0  0
  8  9  1  0  0  0
  8 22  1  0  0  0
  9 10  1  0  0  0
  9 27  2  0  0  0
 10 11  2  0  0  0
 10 15  1  0  0  0
 11 12  1  0  0  0
 11 95  1  0  0  0
 12 13  2  0  0  0
 12 96  1  0  0  0
 13 14  1  0  0  0
 13 31  1  0  0  0
 14 15  2  0  0  0
 14 97  1  0  0  0
 15 98  1  0  0  0
 16 17  2  0  0  0
 16 21  1  0  0  0
 16 31  1  0  0  0
 17 18  1  0  0  0
 17 99  1  0  0  0
 18 19  2  0  0  0
 18100  1  0  0  0
 19 20  1  0  0  0
 19 24  1  0  0  0
 20 21  2  0  0  0
 20101  1  0  0  0
 21 23  1  0  0  0
 22 28  1  0  0  0
 22 32  2  0  0  0
 26 27  1  0  0  0
 28102  1  0  0  0
 28103  1  0  0  0
 29104  1  0  0  0
 29105  1  0  0  0
 33 34  1  0  0  0
 33 66  1  0  0  0
 33 70  2  0  0  0
 34 36  1  0  0  0
 34 59  1  0  0  0
 34106  1  0  0  0
 35 44  2  0  0  0
 35 45  1  0  0  0
 35 68  1  0  0  0
 36 56  1  0  0  0
 36107  1  0  0  0
 37 39  1  0  0  0
 37 47  1  0  0  0
 37 66  1  0  0  0
 37108  1  0  0  0
 38 43  2  0  0  0
 38 46  1  0  0  0
 38 47  1  0  0  0
 39 64  1  0  0  0
 39 67  2  0  0  0
 40 52  1  0  0  0
 40 53  2  0  0  0
 40 58  1  0  0  0
 41109  1  0  0  0
 41110  1  0  0  0
 41111  1  0  0  0
 41 48  1  0  0  0
 42 43  1  0  0  0
 42 66  1  0  0  0
 42112  1  0  0  0
 42113  1  0  0  0
 43 44  1  0  0  0
 44114  1  0  0  0
 45 46  2  0  0  0
 45115  1  0  0  0
 46116  1  0  0  0
 47117  1  0  0  0
 47118  1  0  0  0
 48 56  1  0  0  0
 48 65  1  0  0  0
 48119  1  0  0  0
 49 50  1  0  0  0
 49 53  1  0  0  0
 49 64  1  0  0  0
 49120  1  0  0  0
 50 51  1  0  0  0
 50121  1  0  0  0
 50122  1  0  0  0
 51 52  1  0  0  0
 51123  1  0  0  0
 51124  1  0  0  0
 52125  1  0  0  0
 52126  1  0  0  0
 53 54  1  0  0  0
 54 55  2  0  0  0
 54127  1  0  0  0
 55 57  1  0  0  0
 55128  1  0  0  0
 56 69  2  0  0  0
 57 58  2  0  0  0
 57129  1  0  0  0
 58130  1  0  0  0
 59 60  1  0  0  0
 59 61  1  0  0  0
 59 62  1  0  0  0
 60131  1  0  0  0
 60132  1  0  0  0
 60133  1  0  0  0
 61134  1  0  0  0
 61135  1  0  0  0
 61136  1  0  0  0
 62137  1  0  0  0
 62138  1  0  0  0
 62139  1  0  0  0
 63 65  1  0  0  0
 63140  1  0  0  0
 63141  1  0  0  0
 63142  1  0  0  0
 64143  1  0  0  0
 65144  1  0  0  0
 68 78  1  0  0  0
 71 73  2  0  0  0
 71 74  1  0  0  0
 71145  1  0  0  0
 72 74  2  0  0  0
 72 84  1  0  0  0
 72146  1  0  0  0
 73 75  1  0  0  0
 73 77  1  0  0  0
 74 83  1  0  0  0
 75 84  2  0  0  0
 75 85  1  0  0  0
 76 78  2  0  0  0
 76 80  1  0  0  0
 76 81  1  0  0  0
 77 79  2  0  0  0
 77147  1  0  0  0
 78148  1  0  0  0
 79149  1  0  0  0
 80 82  1  0  0  0
 80150  1  0  0  0
 80151  1  0  0  0
 81 85  1  0  0  0
 81152  1  0  0  0
 81153  1  0  0  0
 82 85  1  0  0  0
 82154  1  0  0  0
 82155  1  0  0  0
 83156  1  0  0  0
 83157  1  0  0  0
 83158  1  0  0  0
M  ISO  4   1 100  68 101  78 101  79 100
M  END
> <chiral flag>
0

> <version>
0

> <s_m_source_file>
/data/baiqing/PycharmProjects/Reinvent-master-3.2/result/LINK_invent/BTK/process_docking_weight1_custom_product_contain_oxygen_bond_distance_aromatic_linkinvent_7_9_3/rearranged_h_0131.sdf

> <i_m_source_file_index>
44

> <r_mmod_Potential_Energy-OPLS-2005>
413.002502441406

> <r_mmod_Stretch_Energy-OPLS-2005>
180.897247314453

> <r_mmod_Bend_Energy-OPLS-2005>
290.204956054688

> <r_mmod_Torsional_Energy-OPLS-2005>
284.002349853516

> <r_mmod_Improper_Torsional_Energy-OPLS-2005>
29.200553894043

> <r_mmod_Van_der_Waal_Energy-OPLS-2005>
160.927886962891

> <r_mmod_Electrostatic_Energy-OPLS-2005>
-455.840881347656

> <r_mmod_Solvation_Energy-OPLS-2005>
-223.133575439453

> <b_mmod_Minimization_Converged-OPLS-2005>
0

> <r_mmod_RMS_Derivative-OPLS-2005>
8.83428382873535

$$$$
44
                    3D
 Structure written by MMmdl.
156164  0  0  1  0            999 V2000
  -30.6436  -14.6634   20.4749 C   0  0  0  0  0  0
  -30.4405  -12.4050   19.4525 C   0  0  0  0  0  0
  -29.5079  -12.5073   18.2250 C   0  0  0  0  0  0
  -28.0318  -12.3440   18.6400 C   0  0  0  0  0  0
  -27.6482  -13.2190   19.8634 C   0  0  2  0  0  0
  -28.7043  -13.1030   20.9882 C   0  0  0  0  0  0
  -25.2374  -13.7993   20.5628 C   0  0  0  0  0  0
  -24.1732  -13.0271   20.9246 C   0  0  0  0  0  0
  -24.6388  -11.6797   20.8795 C   0  0  0  0  0  0
  -23.9069  -10.4206   21.0424 C   0  0  0  0  0  0
  -24.3617   -9.4138   21.9204 C   0  0  0  0  0  0
  -23.6273   -8.2191   22.0767 C   0  0  0  0  0  0
  -22.4259   -8.0250   21.3545 C   0  0  0  0  0  0
  -21.9897   -9.0227   20.4648 C   0  0  0  0  0  0
  -22.7246  -10.2087   20.3062 C   0  0  0  0  0  0
  -21.6836   -6.0720   22.5279 C   0  0  0  0  0  0
  -21.4010   -6.5629   23.8211 C   0  0  0  0  0  0
  -21.3654   -5.6782   24.9171 C   0  0  0  0  0  0
  -21.6042   -4.3045   24.7220 C   0  0  0  0  0  0
  -21.8822   -3.8133   23.4343 C   0  0  0  0  0  0
  -21.9188   -4.6951   22.3400 C   0  0  0  0  0  0
  -22.7760  -13.5096   21.1873 C   0  0  0  0  0  0
  -22.1659   -4.2142   21.0973 F   0  0  0  0  0  0
  -21.5625   -3.4527   25.7732 F   0  0  0  0  0  0
  -30.0184  -13.4418   20.4135 N   0  0  0  0  0  0
  -26.2941  -12.9302   20.3342 N   0  0  0  0  0  0
  -25.9338  -11.6453   20.5833 N   0  0  0  0  0  0
  -22.0393  -12.8146   22.0452 N   0  0  0  0  0  0
  -25.3621  -15.1652   20.3823 N   0  0  0  0  0  0
  -31.8221  -14.7983   20.1349 O   0  0  0  0  0  0
  -21.6613   -6.8860   21.4241 O   0  0  0  0  0  0
  -22.3477  -14.5408   20.6697 O   0  0  0  0  0  0
  -24.6246  -31.8607   23.2039 C   0  0  0  0  0  0
  -25.9097  -32.4782   23.8371 C   0  0  1  0  0  0
  -27.2370  -27.3366   20.1043 C   0  0  0  0  0  0
  -25.5916  -33.8579   24.2300 N   0  0  0  0  0  0
  -23.4191  -30.4840   21.5459 C   0  0  2  0  0  0
  -24.8674  -28.9414   20.1127 C   0  0  0  0  0  0
  -22.7473  -29.4618   22.4930 C   0  0  0  0  0  0
  -18.0292  -28.1383   22.8481 C   0  0  0  0  0  0
  -24.1491  -36.7296   23.2636 C   0  0  0  0  0  0
  -25.9598  -30.7951   21.3752 C   0  0  0  0  0  0
  -26.0362  -29.4242   20.7158 C   0  0  0  0  0  0
  -27.2221  -28.6330   20.7038 C   0  0  0  0  0  0
  -26.0402  -26.9024   19.4845 C   0  0  0  0  0  0
  -24.8700  -27.6843   19.4921 C   0  0  0  0  0  0
  -23.6355  -29.8211   20.1607 C   0  0  0  0  0  0
  -25.4107  -36.3081   24.0337 C   0  0  1  0  0  0
  -20.5888  -28.3686   23.1273 C   0  0  2  0  0  0
  -20.6780  -26.9410   22.5400 C   0  0  0  0  0  0
  -19.5754  -26.6382   21.5202 C   0  0  0  0  0  0
  -18.1938  -26.7925   22.1624 C   0  0  0  0  0  0
  -19.1542  -28.8851   23.2876 C   0  0  0  0  0  0
  -18.9467  -30.1453   23.8896 C   0  0  0  0  0  0
  -17.6466  -30.6581   24.0563 C   0  0  0  0  0  0
  -25.9044  -34.9449   23.5120 C   0  0  0  0  0  0
  -16.5358  -29.9080   23.6326 C   0  0  0  0  0  0
  -16.7278  -28.6498   23.0345 C   0  0  0  0  0  0
  -26.4493  -31.6582   25.0730 C   0  0  0  0  0  0
  -25.3738  -31.3725   26.1472 C   0  0  0  0  0  0
  -27.0331  -30.3008   24.6174 C   0  0  0  0  0  0
  -27.6080  -32.4299   25.7474 C   0  0  0  0  0  0
  -27.5586  -37.1789   24.8456 C   0  0  0  0  0  0
  -21.4186  -29.3041   22.3670 N   0  0  0  0  0  0
  -26.4284  -37.3776   23.9419 N   0  0  0  0  0  0
  -24.6865  -31.0625   22.0992 N   0  0  0  0  0  0
  -23.4199  -28.8153   23.3007 O   0  0  0  0  0  0
  -28.3696  -26.5070   20.1400 O   0  0  0  0  0  0
  -26.5610  -34.8910   22.4685 O   0  0  0  0  0  0
  -23.5410  -32.1399   23.7370 O   0  0  0  0  0  0
  -31.2314  -19.3421   20.7370 C   0  0  0  0  0  0
  -31.1867  -17.9127   20.7971 C   0  0  0  0  0  0
  -28.9087  -19.4207   20.1753 C   0  0  0  0  0  0
  -30.0906  -20.1437   20.4443 C   0  0  0  0  0  0
  -28.8516  -17.9994   20.2369 C   0  0  0  0  0  0
  -29.9844  -17.1923   20.5655 C   0  0  0  0  0  0
  -30.1510  -21.6646   20.4451 C   0  0  0  0  0  0
  -29.1706  -22.5917   20.1853 C   0  0  0  0  0  0
  -29.3556  -24.1004   20.2574 C   0  0  0  0  0  0
  -27.4346  -16.9071   18.4617 C   0  0  0  0  0  0
  -27.5188  -17.3648   19.9252 C   0  0  0  0  0  0
  -28.1623  -25.0626   19.8954 C   0  0  0  0  0  0
  -29.8295  -15.7374   20.7234 N   0  0  0  0  0  0
  -30.4317  -24.6033   20.5982 O   0  0  0  0  0  0
  -31.4814  -12.5248   19.1462 H   0  0  0  0  0  0
  -30.3740  -11.4158   19.9091 H   0  0  0  0  0  0
  -29.7725  -11.7495   17.4861 H   0  0  0  0  0  0
  -29.6469  -13.4739   17.7361 H   0  0  0  0  0  0
  -27.8744  -11.2909   18.8788 H   0  0  0  0  0  0
  -27.3764  -12.5648   17.7967 H   0  0  0  0  0  0
  -27.6503  -14.2487   19.5135 H   0  0  0  0  0  0
  -28.7215  -12.0900   21.3936 H   0  0  0  0  0  0
  -28.4551  -13.7559   21.8259 H   0  0  0  0  0  0
  -25.2763   -9.5610   22.4781 H   0  0  0  0  0  0
  -23.9963   -7.4579   22.7491 H   0  0  0  0  0  0
  -21.0822   -8.8766   19.8956 H   0  0  0  0  0  0
  -22.3730  -10.9636   19.6169 H   0  0  0  0  0  0
  -21.2014   -7.6143   23.9714 H   0  0  0  0  0  0
  -21.1466   -6.0510   25.9073 H   0  0  0  0  0  0
  -22.0609   -2.7594   23.2844 H   0  0  0  0  0  0
  -22.3983  -11.9817   22.4878 H   0  0  0  0  0  0
  -21.1018  -13.1213   22.2635 H   0  0  0  0  0  0
  -24.5451  -15.7650   20.4260 H   0  0  0  0  0  0
  -26.1364  -15.5875   19.8903 H   0  0  0  0  0  0
  -26.7167  -32.5465   23.1125 H   0  0  0  0  0  0
  -25.0062  -33.9730   25.0445 H   0  0  0  0  0  0
  -22.7123  -31.3041   21.4031 H   0  0  0  0  0  0
  -23.3750  -35.9630   23.3278 H   0  0  0  0  0  0
  -24.3603  -36.8930   22.2056 H   0  0  0  0  0  0
  -23.7238  -37.6492   23.6666 H   0  0  0  0  0  0
  -26.0916  -31.5610   20.6097 H   0  0  0  0  0  0
  -26.8391  -30.8421   22.0056 H   0  0  0  0  0  0
  -28.1187  -28.9996   21.1843 H   0  0  0  0  0  0
  -25.9777  -25.9458   18.9882 H   0  0  0  0  0  0
  -23.9741  -27.3081   19.0158 H   0  0  0  0  0  0
  -23.7578  -30.5995   19.4066 H   0  0  0  0  0  0
  -22.7561  -29.2520   19.8539 H   0  0  0  0  0  0
  -25.1277  -36.1941   25.0828 H   0  0  0  0  0  0
  -20.9985  -28.3268   24.1394 H   0  0  0  0  0  0
  -20.5678  -26.2301   23.3601 H   0  0  0  0  0  0
  -21.6652  -26.7436   22.1197 H   0  0  0  0  0  0
  -19.6915  -25.6293   21.1233 H   0  0  0  0  0  0
  -19.6684  -27.3190   20.6730 H   0  0  0  0  0  0
  -17.4201  -26.6655   21.4039 H   0  0  0  0  0  0
  -18.0351  -26.0070   22.9023 H   0  0  0  0  0  0
  -19.7945  -30.7268   24.2266 H   0  0  0  0  0  0
  -17.5021  -31.6262   24.5164 H   0  0  0  0  0  0
  -15.5359  -30.2984   23.7640 H   0  0  0  0  0  0
  -15.8682  -28.0814   22.7058 H   0  0  0  0  0  0
  -24.5876  -30.7117   25.7799 H   0  0  0  0  0  0
  -24.8977  -32.2898   26.4949 H   0  0  0  0  0  0
  -25.8060  -30.8848   27.0218 H   0  0  0  0  0  0
  -26.2899  -29.6746   24.1224 H   0  0  0  0  0  0
  -27.4066  -29.7276   25.4669 H   0  0  0  0  0  0
  -27.8756  -30.4303   23.9376 H   0  0  0  0  0  0
  -27.2733  -33.3612   26.2053 H   0  0  0  0  0  0
  -28.3878  -32.6822   25.0276 H   0  0  0  0  0  0
  -28.0757  -31.8414   26.5377 H   0  0  0  0  0  0
  -28.2569  -38.0120   24.7548 H   0  0  0  0  0  0
  -28.1115  -36.2655   24.6213 H   0  0  0  0  0  0
  -27.2319  -37.1353   25.8860 H   0  0  0  0  0  0
  -20.9362  -29.8791   21.6901 H   0  0  0  0  0  0
  -26.0166  -38.2845   24.1443 H   0  0  0  0  0  0
  -32.1730  -19.8331   20.9404 H   0  0  0  0  0  0
  -32.0891  -17.3769   21.0553 H   0  0  0  0  0  0
  -28.0084  -19.9646   19.9282 H   0  0  0  0  0  0
  -31.1237  -22.0611   20.7042 H   0  0  0  0  0  0
  -28.1822  -22.2528   19.9139 H   0  0  0  0  0  0
  -26.4579  -16.4848   18.2283 H   0  0  0  0  0  0
  -28.1904  -16.1566   18.2303 H   0  0  0  0  0  0
  -27.5913  -17.7473   17.7847 H   0  0  0  0  0  0
  -26.7116  -18.0680   20.1387 H   0  0  0  0  0  0
  -27.3851  -16.5477   20.6266 H   0  0  0  0  0  0
  -27.2953  -24.7236   20.4634 H   0  0  0  0  0  0
  -27.9324  -24.9161   18.8399 H   0  0  0  0  0  0
  -28.8832  -15.4443   20.9062 H   0  0  0  0  0  0
  1 25  1  0  0  0
  1 30  2  0  0  0
  1 83  1  0  0  0
  2  3  1  0  0  0
  2 25  1  0  0  0
  2 85  1  0  0  0
  2 86  1  0  0  0
  3  4  1  0  0  0
  3 87  1  0  0  0
  3 88  1  0  0  0
  4  5  1  0  0  0
  4 89  1  0  0  0
  4 90  1  0  0  0
  5  6  1  0  0  0
  5 26  1  0  0  0
  5 91  1  0  0  0
  6 25  1  0  0  0
  6 92  1  0  0  0
  6 93  1  0  0  0
  7  8  2  0  0  0
  7 26  1  0  0  0
  7 29  1  0  0  0
  8  9  1  0  0  0
  8 22  1  0  0  0
  9 10  1  0  0  0
  9 27  2  0  0  0
 10 11  2  0  0  0
 10 15  1  0  0  0
 11 12  1  0  0  0
 11 94  1  0  0  0
 12 13  2  0  0  0
 12 95  1  0  0  0
 13 14  1  0  0  0
 13 31  1  0  0  0
 14 15  2  0  0  0
 14 96  1  0  0  0
 15 97  1  0  0  0
 16 17  2  0  0  0
 16 21  1  0  0  0
 16 31  1  0  0  0
 17 18  1  0  0  0
 17 98  1  0  0  0
 18 19  2  0  0  0
 18 99  1  0  0  0
 19 20  1  0  0  0
 19 24  1  0  0  0
 20 21  2  0  0  0
 20100  1  0  0  0
 21 23  1  0  0  0
 22 28  1  0  0  0
 22 32  2  0  0  0
 26 27  1  0  0  0
 28101  1  0  0  0
 28102  1  0  0  0
 29103  1  0  0  0
 29104  1  0  0  0
 33 34  1  0  0  0
 33 66  1  0  0  0
 33 70  2  0  0  0
 34 36  1  0  0  0
 34 59  1  0  0  0
 34105  1  0  0  0
 35 44  2  0  0  0
 35 45  1  0  0  0
 35 68  1  0  0  0
 36 56  1  0  0  0
 36106  1  0  0  0
 37 39  1  0  0  0
 37 47  1  0  0  0
 37 66  1  0  0  0
 37107  1  0  0  0
 38 43  2  0  0  0
 38 46  1  0  0  0
 38 47  1  0  0  0
 39 64  1  0  0  0
 39 67  2  0  0  0
 40 52  1  0  0  0
 40 53  2  0  0  0
 40 58  1  0  0  0
 41108  1  0  0  0
 41109  1  0  0  0
 41110  1  0  0  0
 41 48  1  0  0  0
 42 43  1  0  0  0
 42 66  1  0  0  0
 42111  1  0  0  0
 42112  1  0  0  0
 43 44  1  0  0  0
 44113  1  0  0  0
 45 46  2  0  0  0
 45114  1  0  0  0
 46115  1  0  0  0
 47116  1  0  0  0
 47117  1  0  0  0
 48 56  1  0  0  0
 48 65  1  0  0  0
 48118  1  0  0  0
 49 50  1  0  0  0
 49 53  1  0  0  0
 49 64  1  0  0  0
 49119  1  0  0  0
 50 51  1  0  0  0
 50120  1  0  0  0
 50121  1  0  0  0
 51 52  1  0  0  0
 51122  1  0  0  0
 51123  1  0  0  0
 52124  1  0  0  0
 52125  1  0  0  0
 53 54  1  0  0  0
 54 55  2  0  0  0
 54126  1  0  0  0
 55 57  1  0  0  0
 55127  1  0  0  0
 56 69  2  0  0  0
 57 58  2  0  0  0
 57128  1  0  0  0
 58129  1  0  0  0
 59 60  1  0  0  0
 59 61  1  0  0  0
 59 62  1  0  0  0
 60130  1  0  0  0
 60131  1  0  0  0
 60132  1  0  0  0
 61133  1  0  0  0
 61134  1  0  0  0
 61135  1  0  0  0
 62136  1  0  0  0
 62137  1  0  0  0
 62138  1  0  0  0
 63 65  1  0  0  0
 63139  1  0  0  0
 63140  1  0  0  0
 63141  1  0  0  0
 64142  1  0  0  0
 65143  1  0  0  0
 68 82  1  0  0  0
 71 72  2  0  0  0
 71 74  1  0  0  0
 71144  1  0  0  0
 72 76  1  0  0  0
 72145  1  0  0  0
 73 74  2  0  0  0
 73 75  1  0  0  0
 73146  1  0  0  0
 74 77  1  0  0  0
 75 76  2  0  0  0
 75 81  1  0  0  0
 76 83  1  0  0  0
 77 78  2  0  0  0
 77147  1  0  0  0
 78 79  1  0  0  0
 78148  1  0  0  0
 79 82  1  0  0  0
 79 84  2  0  0  0
 80 81  1  0  0  0
 80149  1  0  0  0
 80150  1  0  0  0
 80151  1  0  0  0
 81152  1  0  0  0
 81153  1  0  0  0
 82154  1  0  0  0
 82155  1  0  0  0
 83156  1  0  0  0
M  ISO  4   1 100  68 101  82 101  83 100
M  END
> <chiral flag>
0

> <version>
0

> <s_m_source_file>
/data/baiqing/PycharmProjects/Reinvent-master-3.2/result/LINK_invent/BTK/process_docking_weight1_custom_product_contain_oxygen_bond_distance_aromatic_linkinvent_7_9_3/rearranged_h_0131.sdf

> <i_m_source_file_index>
45

> <r_mmod_Potential_Energy-OPLS-2005>
31.8995704650879

> <r_mmod_Stretch_Energy-OPLS-2005>
77.0539016723633

> <r_mmod_Bend_Energy-OPLS-2005>
127.921928405762

> <r_mmod_Torsional_Energy-OPLS-2005>
216.776718139648

> <r_mmod_Improper_Torsional_Energy-OPLS-2005>
6.49543905258179

> <r_mmod_Van_der_Waal_Energy-OPLS-2005>
146.129379272461

> <r_mmod_Electrostatic_Energy-OPLS-2005>
-364.775726318359

> <r_mmod_Solvation_Energy-OPLS-2005>
-227.465255737305

> <b_mmod_Minimization_Converged-OPLS-2005>
0

> <r_mmod_RMS_Derivative-OPLS-2005>
1.43183290958405

$$$$
45
                    3D
 Structure written by MMmdl.
160168  0  0  1  0            999 V2000
  -30.6498  -14.5543   20.4790 C   0  0  0  0  0  0
  -30.4363  -12.3281   19.4469 C   0  0  0  0  0  0
  -29.5073  -12.4822   18.2202 C   0  0  0  0  0  0
  -28.0264  -12.3297   18.6276 C   0  0  0  0  0  0
  -27.6549  -13.1928   19.8619 C   0  0  2  0  0  0
  -28.7000  -13.0147   20.9881 C   0  0  0  0  0  0
  -25.2570  -13.8075   20.5688 C   0  0  0  0  0  0
  -24.1806  -13.0389   20.9180 C   0  0  0  0  0  0
  -24.6356  -11.6857   20.8743 C   0  0  0  0  0  0
  -23.9027  -10.4256   21.0420 C   0  0  0  0  0  0
  -24.3594   -9.4173   21.9197 C   0  0  0  0  0  0
  -23.6266   -8.2212   22.0765 C   0  0  0  0  0  0
  -22.4249   -8.0252   21.3547 C   0  0  0  0  0  0
  -21.9883   -9.0226   20.4656 C   0  0  0  0  0  0
  -22.7206  -10.2104   20.3063 C   0  0  0  0  0  0
  -21.6829   -6.0718   22.5282 C   0  0  0  0  0  0
  -21.4000   -6.5631   23.8212 C   0  0  0  0  0  0
  -21.3654   -5.6784   24.9171 C   0  0  0  0  0  0
  -21.6036   -4.3047   24.7225 C   0  0  0  0  0  0
  -21.8814   -3.8138   23.4350 C   0  0  0  0  0  0
  -21.9183   -4.6950   22.3403 C   0  0  0  0  0  0
  -22.7836  -13.5227   21.1844 C   0  0  0  0  0  0
  -22.1658   -4.2139   21.0979 F   0  0  0  0  0  0
  -21.5636   -3.4535   25.7743 F   0  0  0  0  0  0
  -30.0278  -13.3376   20.4377 N   0  0  0  0  0  0
  -26.2982  -12.9234   20.3310 N   0  0  0  0  0  0
  -25.9275  -11.6413   20.5749 N   0  0  0  0  0  0
  -22.0471  -12.8252   22.0416 N   0  0  0  0  0  0
  -25.4325  -15.1777   20.4180 N   0  0  0  0  0  0
  -31.8322  -14.6843   20.1494 O   0  0  0  0  0  0
  -21.6610   -6.8855   21.4240 O   0  0  0  0  0  0
  -22.3531  -14.5526   20.6676 O   0  0  0  0  0  0
  -24.6164  -31.8663   23.2090 C   0  0  0  0  0  0
  -25.9055  -32.4807   23.8379 C   0  0  1  0  0  0
  -27.2361  -27.4116   20.0854 C   0  0  0  0  0  0
  -25.5918  -33.8604   24.2318 N   0  0  0  0  0  0
  -23.4041  -30.4906   21.5492 C   0  0  2  0  0  0
  -24.8491  -28.9514   20.1148 C   0  0  0  0  0  0
  -22.7414  -29.4657   22.4975 C   0  0  0  0  0  0
  -18.0283  -28.1376   22.8491 C   0  0  0  0  0  0
  -24.1490  -36.7312   23.2635 C   0  0  0  0  0  0
  -25.9358  -30.8228   21.3653 C   0  0  0  0  0  0
  -26.0098  -29.4550   20.7110 C   0  0  0  0  0  0
  -27.2011  -28.6917   20.6941 C   0  0  0  0  0  0
  -26.0465  -26.9197   19.4979 C   0  0  0  0  0  0
  -24.8637  -27.6838   19.5093 C   0  0  0  0  0  0
  -23.6140  -29.8244   20.1629 C   0  0  0  0  0  0
  -25.4107  -36.3101   24.0337 C   0  0  1  0  0  0
  -20.5873  -28.3670   23.1320 C   0  0  2  0  0  0
  -20.6772  -26.9399   22.5429 C   0  0  0  0  0  0
  -19.5759  -26.6386   21.5215 C   0  0  0  0  0  0
  -18.1929  -26.7932   22.1608 C   0  0  0  0  0  0
  -19.1528  -28.8837   23.2910 C   0  0  0  0  0  0
  -18.9449  -30.1441   23.8924 C   0  0  0  0  0  0
  -17.6448  -30.6579   24.0566 C   0  0  0  0  0  0
  -25.9039  -34.9467   23.5128 C   0  0  0  0  0  0
  -16.5341  -29.9078   23.6320 C   0  0  0  0  0  0
  -16.7272  -28.6495   23.0345 C   0  0  0  0  0  0
  -26.4477  -31.6591   25.0720 C   0  0  0  0  0  0
  -25.3743  -31.3705   26.1474 C   0  0  0  0  0  0
  -27.0298  -30.3030   24.6101 C   0  0  0  0  0  0
  -27.6058  -32.4297   25.7480 C   0  0  0  0  0  0
  -27.5579  -37.1809   24.8466 C   0  0  0  0  0  0
  -21.4143  -29.3042   22.3720 N   0  0  0  0  0  0
  -26.4290  -37.3785   23.9409 N   0  0  0  0  0  0
  -24.6701  -31.0750   22.0996 N   0  0  0  0  0  0
  -23.4183  -28.8203   23.3015 O   0  0  0  0  0  0
  -28.4297  -26.7063   20.0981 O   0  0  0  0  0  0
  -26.5588  -34.8921   22.4682 O   0  0  0  0  0  0
  -23.5358  -32.1418   23.7485 O   0  0  0  0  0  0
  -27.8028  -17.8924   19.9431 C   0  0  0  0  0  0
  -29.5173  -19.4842   20.5667 C   0  0  0  0  0  0
  -29.1468  -18.1404   20.2889 C   0  0  0  0  0  0
  -27.2226  -20.2644   20.1622 C   0  0  0  0  0  0
  -26.8500  -18.9249   19.8856 C   0  0  0  0  0  0
  -28.5788  -20.5540   20.4932 C   0  0  0  0  0  0
  -30.0982  -16.9894   20.3455 C   0  0  0  0  0  0
  -29.7483  -15.7096   20.6491 C   0  0  0  0  0  0
  -28.5096  -24.2238   20.3822 C   0  0  0  0  0  0
  -25.6797  -21.7952   18.7816 C   0  0  0  0  0  0
  -26.1483  -21.3538   20.1809 C   0  0  0  0  0  0
  -28.5671  -25.4347   19.4184 C   0  0  0  0  0  0
  -28.9818  -22.8505   19.8342 C   0  0  0  0  0  0
  -25.5315  -18.5826   19.5773 N   0  0  0  0  0  0
  -28.1035  -24.3472   21.5440 O   0  0  0  0  0  0
  -28.9859  -21.8299   20.8542 O   0  0  0  0  0  0
  -31.4807  -12.4336   19.1468 H   0  0  0  0  0  0
  -30.3492  -11.3272   19.8738 H   0  0  0  0  0  0
  -29.7653  -11.7415   17.4617 H   0  0  0  0  0  0
  -29.6626  -13.4583   17.7578 H   0  0  0  0  0  0
  -27.8509  -11.2764   18.8496 H   0  0  0  0  0  0
  -27.3746  -12.5744   17.7874 H   0  0  0  0  0  0
  -27.6773  -14.2260   19.5197 H   0  0  0  0  0  0
  -28.6923  -11.9855   21.3518 H   0  0  0  0  0  0
  -28.4600  -13.6247   21.8593 H   0  0  0  0  0  0
  -25.2742   -9.5638   22.4775 H   0  0  0  0  0  0
  -23.9947   -7.4605   22.7495 H   0  0  0  0  0  0
  -21.0807   -8.8749   19.8982 H   0  0  0  0  0  0
  -22.3667  -10.9644   19.6164 H   0  0  0  0  0  0
  -21.1999   -7.6144   23.9705 H   0  0  0  0  0  0
  -21.1482   -6.0526   25.9070 H   0  0  0  0  0  0
  -22.0610   -2.7605   23.2857 H   0  0  0  0  0  0
  -22.4052  -11.9903   22.4807 H   0  0  0  0  0  0
  -21.1115  -13.1334   22.2646 H   0  0  0  0  0  0
  -24.6901  -15.8474   20.5890 H   0  0  0  0  0  0
  -26.3086  -15.6150   20.1746 H   0  0  0  0  0  0
  -26.7124  -32.5520   23.1135 H   0  0  0  0  0  0
  -25.0098  -33.9757   25.0483 H   0  0  0  0  0  0
  -22.6937  -31.3091   21.4114 H   0  0  0  0  0  0
  -23.3748  -35.9652   23.3299 H   0  0  0  0  0  0
  -24.3586  -36.8920   22.2052 H   0  0  0  0  0  0
  -23.7250  -37.6519   23.6645 H   0  0  0  0  0  0
  -26.0513  -31.5889   20.5968 H   0  0  0  0  0  0
  -26.8226  -30.8750   21.9854 H   0  0  0  0  0  0
  -28.1009  -29.0815   21.1502 H   0  0  0  0  0  0
  -25.9949  -25.9449   19.0380 H   0  0  0  0  0  0
  -23.9672  -27.2872   19.0520 H   0  0  0  0  0  0
  -23.7304  -30.6019   19.4067 H   0  0  0  0  0  0
  -22.7349  -29.2520   19.8602 H   0  0  0  0  0  0
  -25.1278  -36.1953   25.0829 H   0  0  0  0  0  0
  -20.9977  -28.3239   24.1436 H   0  0  0  0  0  0
  -20.5666  -26.2272   23.3611 H   0  0  0  0  0  0
  -21.6643  -26.7434   22.1224 H   0  0  0  0  0  0
  -19.6918  -25.6304   21.1224 H   0  0  0  0  0  0
  -19.6712  -27.3212   20.6759 H   0  0  0  0  0  0
  -17.4212  -26.6720   21.3989 H   0  0  0  0  0  0
  -18.0304  -26.0049   22.8974 H   0  0  0  0  0  0
  -19.7921  -30.7257   24.2303 H   0  0  0  0  0  0
  -17.4998  -31.6262   24.5162 H   0  0  0  0  0  0
  -15.5341  -30.2985   23.7626 H   0  0  0  0  0  0
  -15.8680  -28.0821   22.7044 H   0  0  0  0  0  0
  -24.5930  -30.7029   25.7823 H   0  0  0  0  0  0
  -24.8928  -32.2872   26.4901 H   0  0  0  0  0  0
  -25.8110  -30.8900   27.0244 H   0  0  0  0  0  0
  -26.2848  -29.6807   24.1134 H   0  0  0  0  0  0
  -27.4045  -29.7244   25.4555 H   0  0  0  0  0  0
  -27.8696  -30.4343   23.9267 H   0  0  0  0  0  0
  -27.2686  -33.3593   26.2078 H   0  0  0  0  0  0
  -28.3861  -32.6852   25.0297 H   0  0  0  0  0  0
  -28.0736  -31.8404   26.5380 H   0  0  0  0  0  0
  -28.2593  -38.0109   24.7497 H   0  0  0  0  0  0
  -28.1072  -36.2633   24.6292 H   0  0  0  0  0  0
  -27.2301  -37.1467   25.8872 H   0  0  0  0  0  0
  -20.9298  -29.8769   21.6953 H   0  0  0  0  0  0
  -26.0178  -38.2862   24.1404 H   0  0  0  0  0  0
  -27.5003  -16.8877   19.6961 H   0  0  0  0  0  0
  -30.5380  -19.7013   20.8484 H   0  0  0  0  0  0
  -31.1157  -17.2041   20.0457 H   0  0  0  0  0  0
  -28.7386  -15.5541   20.9881 H   0  0  0  0  0  0
  -24.9466  -22.5975   18.8582 H   0  0  0  0  0  0
  -25.2086  -20.9758   18.2399 H   0  0  0  0  0  0
  -26.4964  -22.1592   18.1610 H   0  0  0  0  0  0
  -26.4892  -22.2142   20.7502 H   0  0  0  0  0  0
  -25.2930  -20.9842   20.7472 H   0  0  0  0  0  0
  -27.8668  -25.3061   18.5962 H   0  0  0  0  0  0
  -29.5529  -25.4237   18.9540 H   0  0  0  0  0  0
  -29.9982  -22.9634   19.4571 H   0  0  0  0  0  0
  -28.3724  -22.5647   18.9812 H   0  0  0  0  0  0
  -25.3277  -17.6842   19.1528 H   0  0  0  0  0  0
  -24.8745  -19.3118   19.3253 H   0  0  0  0  0  0
  1 25  1  0  0  0
  1 30  2  0  0  0
  1 78  1  0  0  0
  2  3  1  0  0  0
  2 25  1  0  0  0
  2 87  1  0  0  0
  2 88  1  0  0  0
  3  4  1  0  0  0
  3 89  1  0  0  0
  3 90  1  0  0  0
  4  5  1  0  0  0
  4 91  1  0  0  0
  4 92  1  0  0  0
  5  6  1  0  0  0
  5 26  1  0  0  0
  5 93  1  0  0  0
  6 25  1  0  0  0
  6 94  1  0  0  0
  6 95  1  0  0  0
  7  8  2  0  0  0
  7 26  1  0  0  0
  7 29  1  0  0  0
  8  9  1  0  0  0
  8 22  1  0  0  0
  9 10  1  0  0  0
  9 27  2  0  0  0
 10 11  2  0  0  0
 10 15  1  0  0  0
 11 12  1  0  0  0
 11 96  1  0  0  0
 12 13  2  0  0  0
 12 97  1  0  0  0
 13 14  1  0  0  0
 13 31  1  0  0  0
 14 15  2  0  0  0
 14 98  1  0  0  0
 15 99  1  0  0  0
 16 17  2  0  0  0
 16 21  1  0  0  0
 16 31  1  0  0  0
 17 18  1  0  0  0
 17100  1  0  0  0
 18 19  2  0  0  0
 18101  1  0  0  0
 19 20  1  0  0  0
 19 24  1  0  0  0
 20 21  2  0  0  0
 20102  1  0  0  0
 21 23  1  0  0  0
 22 28  1  0  0  0
 22 32  2  0  0  0
 26 27  1  0  0  0
 28103  1  0  0  0
 28104  1  0  0  0
 29105  1  0  0  0
 29106  1  0  0  0
 33 34  1  0  0  0
 33 66  1  0  0  0
 33 70  2  0  0  0
 34 36  1  0  0  0
 34 59  1  0  0  0
 34107  1  0  0  0
 35 44  2  0  0  0
 35 45  1  0  0  0
 35 68  1  0  0  0
 36 56  1  0  0  0
 36108  1  0  0  0
 37 39  1  0  0  0
 37 47  1  0  0  0
 37 66  1  0  0  0
 37109  1  0  0  0
 38 43  2  0  0  0
 38 46  1  0  0  0
 38 47  1  0  0  0
 39 64  1  0  0  0
 39 67  2  0  0  0
 40 52  1  0  0  0
 40 53  2  0  0  0
 40 58  1  0  0  0
 41110  1  0  0  0
 41111  1  0  0  0
 41112  1  0  0  0
 41 48  1  0  0  0
 42 43  1  0  0  0
 42 66  1  0  0  0
 42113  1  0  0  0
 42114  1  0  0  0
 43 44  1  0  0  0
 44115  1  0  0  0
 45 46  2  0  0  0
 45116  1  0  0  0
 46117  1  0  0  0
 47118  1  0  0  0
 47119  1  0  0  0
 48 56  1  0  0  0
 48 65  1  0  0  0
 48120  1  0  0  0
 49 50  1  0  0  0
 49 53  1  0  0  0
 49 64  1  0  0  0
 49121  1  0  0  0
 50 51  1  0  0  0
 50122  1  0  0  0
 50123  1  0  0  0
 51 52  1  0  0  0
 51124  1  0  0  0
 51125  1  0  0  0
 52126  1  0  0  0
 52127  1  0  0  0
 53 54  1  0  0  0
 54 55  2  0  0  0
 54128  1  0  0  0
 55 57  1  0  0  0
 55129  1  0  0  0
 56 69  2  0  0  0
 57 58  2  0  0  0
 57130  1  0  0  0
 58131  1  0  0  0
 59 60  1  0  0  0
 59 61  1  0  0  0
 59 62  1  0  0  0
 60132  1  0  0  0
 60133  1  0  0  0
 60134  1  0  0  0
 61135  1  0  0  0
 61136  1  0  0  0
 61137  1  0  0  0
 62138  1  0  0  0
 62139  1  0  0  0
 62140  1  0  0  0
 63 65  1  0  0  0
 63141  1  0  0  0
 63142  1  0  0  0
 63143  1  0  0  0
 64144  1  0  0  0
 65145  1  0  0  0
 68 82  1  0  0  0
 71 73  2  0  0  0
 71 75  1  0  0  0
 71146  1  0  0  0
 72 73  1  0  0  0
 72 76  2  0  0  0
 72147  1  0  0  0
 73 77  1  0  0  0
 74 75  2  0  0  0
 74 76  1  0  0  0
 74 81  1  0  0  0
 75 84  1  0  0  0
 76 86  1  0  0  0
 77 78  2  0  0  0
 77148  1  0  0  0
 78149  1  0  0  0
 79 82  1  0  0  0
 79 83  1  0  0  0
 79 85  2  0  0  0
 80 81  1  0  0  0
 80150  1  0  0  0
 80151  1  0  0  0
 80152  1  0  0  0
 81153  1  0  0  0
 81154  1  0  0  0
 82155  1  0  0  0
 82156  1  0  0  0
 83 86  1  0  0  0
 83157  1  0  0  0
 83158  1  0  0  0
 84159  1  0  0  0
 84160  1  0  0  0
M  ISO  4   1 100  68 101  78 100  82 101
M  END
> <chiral flag>
0

> <version>
0

> <s_m_source_file>
/data/baiqing/PycharmProjects/Reinvent-master-3.2/result/LINK_invent/BTK/process_docking_weight1_custom_product_contain_oxygen_bond_distance_aromatic_linkinvent_7_9_3/rearranged_h_0131.sdf

> <i_m_source_file_index>
46

> <r_mmod_Potential_Energy-OPLS-2005>
43.6124267578125

> <r_mmod_Stretch_Energy-OPLS-2005>
47.8681793212891

> <r_mmod_Bend_Energy-OPLS-2005>
113.039344787598

> <r_mmod_Torsional_Energy-OPLS-2005>
218.256301879883

> <r_mmod_Improper_Torsional_Energy-OPLS-2005>
10.2654285430908

> <r_mmod_Van_der_Waal_Energy-OPLS-2005>
152.445343017578

> <r_mmod_Electrostatic_Energy-OPLS-2005>
-291.292724609375

> <r_mmod_Solvation_Energy-OPLS-2005>
-230.332916259766

> <b_mmod_Minimization_Converged-OPLS-2005>
0

> <r_mmod_RMS_Derivative-OPLS-2005>
1.90885031223297

$$$$
46
                    3D
 Structure written by MMmdl.
166174  0  0  1  0            999 V2000
  -30.6916  -14.4859   20.5624 C   0  0  0  0  0  0
  -30.4265  -12.3076   19.4291 C   0  0  0  0  0  0
  -29.5030  -12.5098   18.2086 C   0  0  0  0  0  0
  -28.0187  -12.3718   18.6118 C   0  0  0  0  0  0
  -27.6603  -13.1945   19.8798 C   0  0  2  0  0  0
  -28.7053  -12.9797   20.9991 C   0  0  0  0  0  0
  -25.2599  -13.8111   20.5692 C   0  0  0  0  0  0
  -24.1832  -13.0408   20.9164 C   0  0  0  0  0  0
  -24.6368  -11.6865   20.8726 C   0  0  0  0  0  0
  -23.9025  -10.4270   21.0411 C   0  0  0  0  0  0
  -24.3583   -9.4184   21.9192 C   0  0  0  0  0  0
  -23.6259   -8.2226   22.0751 C   0  0  0  0  0  0
  -22.4249   -8.0268   21.3541 C   0  0  0  0  0  0
  -21.9877   -9.0242   20.4638 C   0  0  0  0  0  0
  -22.7200  -10.2124   20.3055 C   0  0  0  0  0  0
  -21.6844   -6.0728   22.5281 C   0  0  0  0  0  0
  -21.4015   -6.5639   23.8218 C   0  0  0  0  0  0
  -21.3654   -5.6786   24.9175 C   0  0  0  0  0  0
  -21.6039   -4.3046   24.7237 C   0  0  0  0  0  0
  -21.8818   -3.8139   23.4352 C   0  0  0  0  0  0
  -21.9184   -4.6953   22.3403 C   0  0  0  0  0  0
  -22.7860  -13.5247   21.1808 C   0  0  0  0  0  0
  -22.1657   -4.2134   21.0985 F   0  0  0  0  0  0
  -21.5613   -3.4541   25.7749 F   0  0  0  0  0  0
  -30.0383  -13.2933   20.4509 N   0  0  0  0  0  0
  -26.3012  -12.9236   20.3387 N   0  0  0  0  0  0
  -25.9288  -11.6413   20.5766 N   0  0  0  0  0  0
  -22.0459  -12.8282   22.0362 N   0  0  0  0  0  0
  -25.4376  -15.1831   20.4147 N   0  0  0  0  0  0
  -31.8116  -14.6860   20.0871 O   0  0  0  0  0  0
  -21.6611   -6.8867   21.4245 O   0  0  0  0  0  0
  -22.3580  -14.5557   20.6635 O   0  0  0  0  0  0
  -24.6156  -31.8656   23.2082 C   0  0  0  0  0  0
  -25.9044  -32.4808   23.8384 C   0  0  1  0  0  0
  -27.2462  -27.4258   20.0899 C   0  0  0  0  0  0
  -25.5897  -33.8610   24.2313 N   0  0  0  0  0  0
  -23.4051  -30.4872   21.5492 C   0  0  2  0  0  0
  -24.8526  -28.9519   20.1119 C   0  0  0  0  0  0
  -22.7425  -29.4635   22.4984 C   0  0  0  0  0  0
  -18.0273  -28.1374   22.8483 C   0  0  0  0  0  0
  -24.1480  -36.7303   23.2635 C   0  0  0  0  0  0
  -25.9345  -30.8275   21.3638 C   0  0  0  0  0  0
  -26.0122  -29.4621   20.7077 C   0  0  0  0  0  0
  -27.2073  -28.7053   20.6954 C   0  0  0  0  0  0
  -26.0599  -26.9261   19.5022 C   0  0  0  0  0  0
  -24.8716  -27.6827   19.5077 C   0  0  0  0  0  0
  -23.6131  -29.8182   20.1639 C   0  0  0  0  0  0
  -25.4104  -36.3101   24.0329 C   0  0  1  0  0  0
  -20.5867  -28.3659   23.1314 C   0  0  2  0  0  0
  -20.6760  -26.9389   22.5418 C   0  0  0  0  0  0
  -19.5743  -26.6377   21.5206 C   0  0  0  0  0  0
  -18.1918  -26.7921   22.1611 C   0  0  0  0  0  0
  -19.1527  -28.8830   23.2893 C   0  0  0  0  0  0
  -18.9458  -30.1441   23.8907 C   0  0  0  0  0  0
  -17.6456  -30.6575   24.0562 C   0  0  0  0  0  0
  -25.9037  -34.9466   23.5120 C   0  0  0  0  0  0
  -16.5349  -29.9075   23.6329 C   0  0  0  0  0  0
  -16.7264  -28.6498   23.0342 C   0  0  0  0  0  0
  -26.4476  -31.6600   25.0718 C   0  0  0  0  0  0
  -25.3751  -31.3716   26.1477 C   0  0  0  0  0  0
  -27.0313  -30.3046   24.6096 C   0  0  0  0  0  0
  -27.6049  -32.4333   25.7477 C   0  0  0  0  0  0
  -27.5583  -37.1801   24.8451 C   0  0  0  0  0  0
  -21.4148  -29.3019   22.3724 N   0  0  0  0  0  0
  -26.4284  -37.3789   23.9406 N   0  0  0  0  0  0
  -24.6702  -31.0745   22.0989 N   0  0  0  0  0  0
  -23.4180  -28.8182   23.3041 O   0  0  0  0  0  0
  -28.4171  -26.6876   20.1459 O   0  0  0  0  0  0
  -26.5607  -34.8928   22.4687 O   0  0  0  0  0  0
  -23.5349  -32.1413   23.7466 O   0  0  0  0  0  0
  -30.2593  -19.1285   21.9133 C   0  0  0  0  0  0
  -30.3811  -17.7228   22.0111 C   0  0  0  0  0  0
  -29.5401  -18.8977   19.6128 C   0  0  0  0  0  0
  -29.7988  -19.7306   20.7226 C   0  0  0  0  0  0
  -29.6620  -17.4898   19.6936 C   0  0  0  0  0  0
  -30.0633  -16.8813   20.9186 C   0  0  0  0  0  0
  -29.2326  -24.4534   19.7512 C   0  0  0  0  0  0
  -28.5947  -25.5790   19.3474 C   0  0  0  0  0  0
  -30.4178  -16.6197   17.4256 C   0  0  0  0  0  0
  -28.1607  -22.7385   18.2468 C   0  0  0  0  0  0
  -30.4130  -23.6837   17.7053 C   0  0  0  0  0  0
  -29.4629  -21.2312   20.6612 C   0  0  0  0  0  0
  -29.2833  -16.6907   18.4526 C   0  0  0  0  0  0
  -30.2277  -22.0459   19.5796 C   0  0  0  0  0  0
  -29.4899  -23.2294   18.8579 C   0  0  0  0  0  0
  -29.9816  -15.4697   21.1494 N   0  0  0  0  0  0
  -31.4727  -12.4035   19.1338 H   0  0  0  0  0  0
  -30.3206  -11.2963   19.8256 H   0  0  0  0  0  0
  -29.7472  -11.7857   17.4297 H   0  0  0  0  0  0
  -29.6780  -13.4945   17.7733 H   0  0  0  0  0  0
  -27.8213  -11.3139   18.7877 H   0  0  0  0  0  0
  -27.3790  -12.6658   17.7777 H   0  0  0  0  0  0
  -27.6882  -14.2421   19.5972 H   0  0  0  0  0  0
  -28.6873  -11.9408   21.3315 H   0  0  0  0  0  0
  -28.4608  -13.5707   21.8832 H   0  0  0  0  0  0
  -25.2737   -9.5655   22.4758 H   0  0  0  0  0  0
  -23.9964   -7.4624   22.7483 H   0  0  0  0  0  0
  -21.0801   -8.8757   19.8964 H   0  0  0  0  0  0
  -22.3661  -10.9658   19.6155 H   0  0  0  0  0  0
  -21.2025   -7.6148   23.9730 H   0  0  0  0  0  0
  -21.1474   -6.0512   25.9077 H   0  0  0  0  0  0
  -22.0600   -2.7600   23.2868 H   0  0  0  0  0  0
  -22.4027  -11.9957   22.4804 H   0  0  0  0  0  0
  -21.1069  -13.1346   22.2503 H   0  0  0  0  0  0
  -24.6835  -15.8476   20.5432 H   0  0  0  0  0  0
  -26.3060  -15.6216   20.1338 H   0  0  0  0  0  0
  -26.7108  -32.5514   23.1149 H   0  0  0  0  0  0
  -25.0085  -33.9755   25.0479 H   0  0  0  0  0  0
  -22.6948  -31.3044   21.4101 H   0  0  0  0  0  0
  -23.3737  -35.9639   23.3291 H   0  0  0  0  0  0
  -24.3589  -36.8923   22.2053 H   0  0  0  0  0  0
  -23.7227  -37.6500   23.6663 H   0  0  0  0  0  0
  -26.0524  -31.5946   20.5973 H   0  0  0  0  0  0
  -26.8209  -30.8798   21.9844 H   0  0  0  0  0  0
  -28.1012  -29.0926   21.1643 H   0  0  0  0  0  0
  -26.0339  -25.9454   19.0506 H   0  0  0  0  0  0
  -23.9782  -27.2773   19.0534 H   0  0  0  0  0  0
  -23.7195  -30.5936   19.4048 H   0  0  0  0  0  0
  -22.7364  -29.2386   19.8687 H   0  0  0  0  0  0
  -25.1272  -36.1977   25.0817 H   0  0  0  0  0  0
  -20.9950  -28.3226   24.1437 H   0  0  0  0  0  0
  -20.5656  -26.2264   23.3604 H   0  0  0  0  0  0
  -21.6633  -26.7427   22.1225 H   0  0  0  0  0  0
  -19.6909  -25.6291   21.1219 H   0  0  0  0  0  0
  -19.6688  -27.3198   20.6751 H   0  0  0  0  0  0
  -17.4193  -26.6681   21.4005 H   0  0  0  0  0  0
  -18.0303  -26.0059   22.8999 H   0  0  0  0  0  0
  -19.7928  -30.7259   24.2272 H   0  0  0  0  0  0
  -17.5007  -31.6255   24.5162 H   0  0  0  0  0  0
  -15.5350  -30.2981   23.7650 H   0  0  0  0  0  0
  -15.8658  -28.0826   22.7051 H   0  0  0  0  0  0
  -24.5896  -30.7091   25.7820 H   0  0  0  0  0  0
  -24.8985  -32.2885   26.4957 H   0  0  0  0  0  0
  -25.8109  -30.8858   27.0215 H   0  0  0  0  0  0
  -26.2863  -29.6799   24.1152 H   0  0  0  0  0  0
  -27.4100  -29.7285   25.4550 H   0  0  0  0  0  0
  -27.8686  -30.4375   23.9240 H   0  0  0  0  0  0
  -27.2664  -33.3620   26.2085 H   0  0  0  0  0  0
  -28.3841  -32.6917   25.0291 H   0  0  0  0  0  0
  -28.0740  -31.8447   26.5371 H   0  0  0  0  0  0
  -28.2579  -38.0117   24.7520 H   0  0  0  0  0  0
  -28.1097  -36.2653   24.6239 H   0  0  0  0  0  0
  -27.2312  -37.1392   25.8853 H   0  0  0  0  0  0
  -20.9318  -29.8761   21.6961 H   0  0  0  0  0  0
  -26.0170  -38.2858   24.1428 H   0  0  0  0  0  0
  -30.4698  -19.7367   22.7825 H   0  0  0  0  0  0
  -30.6771  -17.2926   22.9585 H   0  0  0  0  0  0
  -29.1878  -19.3450   18.6937 H   0  0  0  0  0  0
  -29.6048  -24.3966   20.7649 H   0  0  0  0  0  0
  -28.1938  -25.7136   18.3520 H   0  0  0  0  0  0
  -30.1109  -16.0406   16.5542 H   0  0  0  0  0  0
  -31.3066  -16.1450   17.8417 H   0  0  0  0  0  0
  -30.6993  -17.6146   17.0805 H   0  0  0  0  0  0
  -27.7776  -23.4299   17.4958 H   0  0  0  0  0  0
  -27.3831  -22.6359   19.0050 H   0  0  0  0  0  0
  -28.2777  -21.7680   17.7618 H   0  0  0  0  0  0
  -29.9715  -24.4899   17.1180 H   0  0  0  0  0  0
  -30.6289  -22.8686   17.0136 H   0  0  0  0  0  0
  -31.3685  -24.0482   18.0852 H   0  0  0  0  0  0
  -29.6245  -21.6899   21.6375 H   0  0  0  0  0  0
  -28.3887  -21.2878   20.4953 H   0  0  0  0  0  0
  -28.4070  -17.1505   17.9924 H   0  0  0  0  0  0
  -28.9727  -15.6869   18.7133 H   0  0  0  0  0  0
  -30.5205  -21.3450   18.7980 H   0  0  0  0  0  0
  -31.1735  -22.3881   20.0015 H   0  0  0  0  0  0
  -29.1469  -15.1574   21.6212 H   0  0  0  0  0  0
  1 25  1  0  0  0
  1 30  2  0  0  0
  1 86  1  0  0  0
  2  3  1  0  0  0
  2 25  1  0  0  0
  2 87  1  0  0  0
  2 88  1  0  0  0
  3  4  1  0  0  0
  3 89  1  0  0  0
  3 90  1  0  0  0
  4  5  1  0  0  0
  4 91  1  0  0  0
  4 92  1  0  0  0
  5  6  1  0  0  0
  5 26  1  0  0  0
  5 93  1  0  0  0
  6 25  1  0  0  0
  6 94  1  0  0  0
  6 95  1  0  0  0
  7  8  2  0  0  0
  7 26  1  0  0  0
  7 29  1  0  0  0
  8  9  1  0  0  0
  8 22  1  0  0  0
  9 10  1  0  0  0
  9 27  2  0  0  0
 10 11  2  0  0  0
 10 15  1  0  0  0
 11 12  1  0  0  0
 11 96  1  0  0  0
 12 13  2  0  0  0
 12 97  1  0  0  0
 13 14  1  0  0  0
 13 31  1  0  0  0
 14 15  2  0  0  0
 14 98  1  0  0  0
 15 99  1  0  0  0
 16 17  2  0  0  0
 16 21  1  0  0  0
 16 31  1  0  0  0
 17 18  1  0  0  0
 17100  1  0  0  0
 18 19  2  0  0  0
 18101  1  0  0  0
 19 20  1  0  0  0
 19 24  1  0  0  0
 20 21  2  0  0  0
 20102  1  0  0  0
 21 23  1  0  0  0
 22 28  1  0  0  0
 22 32  2  0  0  0
 26 27  1  0  0  0
 28103  1  0  0  0
 28104  1  0  0  0
 29105  1  0  0  0
 29106  1  0  0  0
 33 34  1  0  0  0
 33 66  1  0  0  0
 33 70  2  0  0  0
 34 36  1  0  0  0
 34 59  1  0  0  0
 34107  1  0  0  0
 35 44  2  0  0  0
 35 45  1  0  0  0
 35 68  1  0  0  0
 36 56  1  0  0  0
 36108  1  0  0  0
 37 39  1  0  0  0
 37 47  1  0  0  0
 37 66  1  0  0  0
 37109  1  0  0  0
 38 43  2  0  0  0
 38 46  1  0  0  0
 38 47  1  0  0  0
 39 64  1  0  0  0
 39 67  2  0  0  0
 40 52  1  0  0  0
 40 53  2  0  0  0
 40 58  1  0  0  0
 41110  1  0  0  0
 41111  1  0  0  0
 41112  1  0  0  0
 41 48  1  0  0  0
 42 43  1  0  0  0
 42 66  1  0  0  0
 42113  1  0  0  0
 42114  1  0  0  0
 43 44  1  0  0  0
 44115  1  0  0  0
 45 46  2  0  0  0
 45116  1  0  0  0
 46117  1  0  0  0
 47118  1  0  0  0
 47119  1  0  0  0
 48 56  1  0  0  0
 48 65  1  0  0  0
 48120  1  0  0  0
 49 50  1  0  0  0
 49 53  1  0  0  0
 49 64  1  0  0  0
 49121  1  0  0  0
 50 51  1  0  0  0
 50122  1  0  0  0
 50123  1  0  0  0
 51 52  1  0  0  0
 51124  1  0  0  0
 51125  1  0  0  0
 52126  1  0  0  0
 52127  1  0  0  0
 53 54  1  0  0  0
 54 55  2  0  0  0
 54128  1  0  0  0
 55 57  1  0  0  0
 55129  1  0  0  0
 56 69  2  0  0  0
 57 58  2  0  0  0
 57130  1  0  0  0
 58131  1  0  0  0
 59 60  1  0  0  0
 59 61  1  0  0  0
 59 62  1  0  0  0
 60132  1  0  0  0
 60133  1  0  0  0
 60134  1  0  0  0
 61135  1  0  0  0
 61136  1  0  0  0
 61137  1  0  0  0
 62138  1  0  0  0
 62139  1  0  0  0
 62140  1  0  0  0
 63 65  1  0  0  0
 63141  1  0  0  0
 63142  1  0  0  0
 63143  1  0  0  0
 64144  1  0  0  0
 65145  1  0  0  0
 68 78  1  0  0  0
 71 72  2  0  0  0
 71 74  1  0  0  0
 71146  1  0  0  0
 72 76  1  0  0  0
 72147  1  0  0  0
 73 74  2  0  0  0
 73 75  1  0  0  0
 73148  1  0  0  0
 74 82  1  0  0  0
 75 76  2  0  0  0
 75 83  1  0  0  0
 76 86  1  0  0  0
 77 78  2  0  0  0
 77 85  1  0  0  0
 77149  1  0  0  0
 78150  1  0  0  0
 79 83  1  0  0  0
 79151  1  0  0  0
 79152  1  0  0  0
 79153  1  0  0  0
 80154  1  0  0  0
 80155  1  0  0  0
 80156  1  0  0  0
 80 85  1  0  0  0
 81 85  1  0  0  0
 81157  1  0  0  0
 81158  1  0  0  0
 81159  1  0  0  0
 82 84  1  0  0  0
 82160  1  0  0  0
 82161  1  0  0  0
 83162  1  0  0  0
 83163  1  0  0  0
 84 85  1  0  0  0
 84164  1  0  0  0
 84165  1  0  0  0
 86166  1  0  0  0
M  ISO  4   1 100  68 101  78 101  86 100
M  END
> <chiral flag>
0

> <version>
0

> <s_m_source_file>
/data/baiqing/PycharmProjects/Reinvent-master-3.2/result/LINK_invent/BTK/process_docking_weight1_custom_product_contain_oxygen_bond_distance_aromatic_linkinvent_7_9_3/rearranged_h_0131.sdf

> <i_m_source_file_index>
47

> <r_mmod_Potential_Energy-OPLS-2005>
-1.44615519046783

> <r_mmod_Stretch_Energy-OPLS-2005>
42.6250305175781

> <r_mmod_Bend_Energy-OPLS-2005>
110.230506896973

> <r_mmod_Torsional_Energy-OPLS-2005>
254.773345947266

> <r_mmod_Improper_Torsional_Energy-OPLS-2005>
4.66761302947998

> <r_mmod_Van_der_Waal_Energy-OPLS-2005>
146.395751953125

> <r_mmod_Electrostatic_Energy-OPLS-2005>
-383.846130371094

> <r_mmod_Solvation_Energy-OPLS-2005>
-190.898651123047

> <b_mmod_Minimization_Converged-OPLS-2005>
0

> <r_mmod_RMS_Derivative-OPLS-2005>
2.29520559310913

$$$$
47
                    3D
 Structure written by MMmdl.
161169  0  0  1  0            999 V2000
  -30.7628  -14.4776   20.6732 C   0  0  0  0  0  0
  -30.4159  -12.3475   19.4336 C   0  0  0  0  0  0
  -29.4885  -12.5375   18.2185 C   0  0  0  0  0  0
  -28.0161  -12.3738   18.6337 C   0  0  0  0  0  0
  -27.6616  -13.2127   19.8885 C   0  0  2  0  0  0
  -28.7081  -13.0150   21.0134 C   0  0  0  0  0  0
  -25.2480  -13.8075   20.5599 C   0  0  0  0  0  0
  -24.1779  -13.0366   20.9186 C   0  0  0  0  0  0
  -24.6370  -11.6860   20.8752 C   0  0  0  0  0  0
  -23.9029  -10.4263   21.0402 C   0  0  0  0  0  0
  -24.3595   -9.4200   21.9177 C   0  0  0  0  0  0
  -23.6295   -8.2218   22.0755 C   0  0  0  0  0  0
  -22.4278   -8.0253   21.3531 C   0  0  0  0  0  0
  -21.9894   -9.0215   20.4631 C   0  0  0  0  0  0
  -22.7194  -10.2112   20.3054 C   0  0  0  0  0  0
  -21.6850   -6.0719   22.5262 C   0  0  0  0  0  0
  -21.4013   -6.5631   23.8191 C   0  0  0  0  0  0
  -21.3671   -5.6797   24.9158 C   0  0  0  0  0  0
  -21.6054   -4.3057   24.7212 C   0  0  0  0  0  0
  -21.8826   -3.8138   23.4332 C   0  0  0  0  0  0
  -21.9207   -4.6949   22.3393 C   0  0  0  0  0  0
  -22.7808  -13.5177   21.1864 C   0  0  0  0  0  0
  -22.1679   -4.2140   21.0971 F   0  0  0  0  0  0
  -21.5636   -3.4546   25.7727 F   0  0  0  0  0  0
  -30.0376  -13.3330   20.4673 N   0  0  0  0  0  0
  -26.3014  -12.9325   20.3458 N   0  0  0  0  0  0
  -25.9329  -11.6475   20.5848 N   0  0  0  0  0  0
  -22.0474  -12.8171   22.0438 N   0  0  0  0  0  0
  -25.3990  -15.1735   20.3738 N   0  0  0  0  0  0
  -31.7969  -14.6836   20.0336 O   0  0  0  0  0  0
  -21.6647   -6.8848   21.4219 O   0  0  0  0  0  0
  -22.3491  -14.5494   20.6743 O   0  0  0  0  0  0
  -24.6173  -31.8652   23.2062 C   0  0  0  0  0  0
  -25.9056  -32.4804   23.8370 C   0  0  1  0  0  0
  -27.2494  -27.4068   20.0949 C   0  0  0  0  0  0
  -25.5911  -33.8602   24.2312 N   0  0  0  0  0  0
  -23.4074  -30.4841   21.5483 C   0  0  2  0  0  0
  -24.8559  -28.9430   20.1137 C   0  0  0  0  0  0
  -22.7433  -29.4630   22.4996 C   0  0  0  0  0  0
  -18.0285  -28.1362   22.8504 C   0  0  0  0  0  0
  -24.1492  -36.7307   23.2635 C   0  0  0  0  0  0
  -25.9375  -30.8174   21.3667 C   0  0  0  0  0  0
  -26.0139  -29.4487   20.7152 C   0  0  0  0  0  0
  -27.2059  -28.6854   20.7079 C   0  0  0  0  0  0
  -26.0651  -26.9139   19.5000 C   0  0  0  0  0  0
  -24.8777  -27.6751   19.5046 C   0  0  0  0  0  0
  -23.6164  -29.8104   20.1648 C   0  0  0  0  0  0
  -25.4113  -36.3101   24.0340 C   0  0  1  0  0  0
  -20.5880  -28.3653   23.1332 C   0  0  2  0  0  0
  -20.6783  -26.9395   22.5421 C   0  0  0  0  0  0
  -19.5750  -26.6380   21.5228 C   0  0  0  0  0  0
  -18.1928  -26.7915   22.1633 C   0  0  0  0  0  0
  -19.1533  -28.8826   23.2908 C   0  0  0  0  0  0
  -18.9453  -30.1445   23.8902 C   0  0  0  0  0  0
  -17.6450  -30.6574   24.0563 C   0  0  0  0  0  0
  -25.9042  -34.9466   23.5123 C   0  0  0  0  0  0
  -16.5346  -29.9066   23.6330 C   0  0  0  0  0  0
  -16.7272  -28.6482   23.0353 C   0  0  0  0  0  0
  -26.4475  -31.6581   25.0704 C   0  0  0  0  0  0
  -25.3734  -31.3690   26.1450 C   0  0  0  0  0  0
  -27.0317  -30.3025   24.6094 C   0  0  0  0  0  0
  -27.6052  -32.4304   25.7458 C   0  0  0  0  0  0
  -27.5593  -37.1807   24.8467 C   0  0  0  0  0  0
  -21.4161  -29.3011   22.3734 N   0  0  0  0  0  0
  -26.4298  -37.3788   23.9416 N   0  0  0  0  0  0
  -24.6718  -31.0717   22.0976 N   0  0  0  0  0  0
  -23.4194  -28.8191   23.3063 O   0  0  0  0  0  0
  -28.4398  -26.6929   20.1242 O   0  0  0  0  0  0
  -26.5598  -34.8926   22.4684 O   0  0  0  0  0  0
  -23.5365  -32.1421   23.7445 O   0  0  0  0  0  0
  -27.3878  -17.7356   20.9246 C   0  0  0  0  0  0
  -27.9306  -18.9996   20.6750 C   0  0  0  0  0  0
  -28.2273  -16.6546   21.2257 C   0  0  0  0  0  0
  -29.3201  -19.2282   20.7505 C   0  0  0  0  0  0
  -29.6239  -16.8072   21.3078 C   0  0  0  0  0  0
  -30.1774  -18.1253   21.1050 C   0  0  0  0  0  0
  -29.7863  -20.6338   20.4982 C   0  0  0  0  0  0
  -29.0492  -21.7648   20.6723 C   0  0  0  0  0  0
  -32.5061  -18.1825   20.0523 C   0  0  0  0  0  0
  -30.4065  -15.5404   21.7614 C   0  0  0  0  0  0
  -31.6683  -18.3919   21.3187 C   0  0  0  0  0  0
  -29.4669  -23.2069   20.3407 C   0  0  0  0  0  0
  -28.2695  -24.1424   19.9716 C   0  0  0  0  0  0
  -28.6291  -25.5127   19.3139 C   0  0  0  0  0  0
  -31.4596  -12.4320   19.1291 H   0  0  0  0  0  0
  -30.3156  -11.3350   19.8293 H   0  0  0  0  0  0
  -29.7362  -11.8198   17.4342 H   0  0  0  0  0  0
  -29.6430  -13.5314   17.7947 H   0  0  0  0  0  0
  -27.8420  -11.3153   18.8312 H   0  0  0  0  0  0
  -27.3587  -12.6425   17.8058 H   0  0  0  0  0  0
  -27.6967  -14.2581   19.5830 H   0  0  0  0  0  0
  -28.6976  -11.9823   21.3651 H   0  0  0  0  0  0
  -28.4456  -13.6141   21.8823 H   0  0  0  0  0  0
  -25.2732   -9.5721   22.4748 H   0  0  0  0  0  0
  -24.0034   -7.4626   22.7483 H   0  0  0  0  0  0
  -21.0836   -8.8693   19.8923 H   0  0  0  0  0  0
  -22.3615  -10.9654   19.6185 H   0  0  0  0  0  0
  -21.1984   -7.6134   23.9685 H   0  0  0  0  0  0
  -21.1499   -6.0523   25.9067 H   0  0  0  0  0  0
  -22.0596   -2.7595   23.2821 H   0  0  0  0  0  0
  -22.4120  -11.9841   22.4821 H   0  0  0  0  0  0
  -21.1085  -13.1179   22.2655 H   0  0  0  0  0  0
  -24.6125  -15.8091   20.4368 H   0  0  0  0  0  0
  -26.2381  -15.6092   20.0144 H   0  0  0  0  0  0
  -26.7126  -32.5509   23.1128 H   0  0  0  0  0  0
  -25.0092  -33.9757   25.0481 H   0  0  0  0  0  0
  -22.6964  -31.3003   21.4066 H   0  0  0  0  0  0
  -23.3754  -35.9640   23.3290 H   0  0  0  0  0  0
  -24.3591  -36.8932   22.2052 H   0  0  0  0  0  0
  -23.7247  -37.6512   23.6651 H   0  0  0  0  0  0
  -26.0569  -31.5801   20.5961 H   0  0  0  0  0  0
  -26.8237  -30.8713   21.9871 H   0  0  0  0  0  0
  -28.0994  -29.0717   21.1783 H   0  0  0  0  0  0
  -26.0354  -25.9347   19.0454 H   0  0  0  0  0  0
  -23.9854  -27.2753   19.0432 H   0  0  0  0  0  0
  -23.7219  -30.5816   19.4014 H   0  0  0  0  0  0
  -22.7413  -29.2265   19.8739 H   0  0  0  0  0  0
  -25.1286  -36.1962   25.0833 H   0  0  0  0  0  0
  -20.9968  -28.3212   24.1451 H   0  0  0  0  0  0
  -20.5737  -26.2244   23.3600 H   0  0  0  0  0  0
  -21.6647  -26.7460   22.1184 H   0  0  0  0  0  0
  -19.6916  -25.6297   21.1239 H   0  0  0  0  0  0
  -19.6690  -27.3208   20.6774 H   0  0  0  0  0  0
  -17.4214  -26.6696   21.4014 H   0  0  0  0  0  0
  -18.0298  -26.0040   22.9003 H   0  0  0  0  0  0
  -19.7923  -30.7274   24.2260 H   0  0  0  0  0  0
  -17.4995  -31.6257   24.5156 H   0  0  0  0  0  0
  -15.5342  -30.2960   23.7645 H   0  0  0  0  0  0
  -15.8680  -28.0804   22.7053 H   0  0  0  0  0  0
  -24.5912  -30.7031   25.7777 H   0  0  0  0  0  0
  -24.8913  -32.2847   26.4885 H   0  0  0  0  0  0
  -25.8087  -30.8863   27.0209 H   0  0  0  0  0  0
  -26.2864  -29.6767   24.1170 H   0  0  0  0  0  0
  -27.4113  -29.7278   25.4550 H   0  0  0  0  0  0
  -27.8682  -30.4339   23.9228 H   0  0  0  0  0  0
  -27.2679  -33.3608   26.2037 H   0  0  0  0  0  0
  -28.3848  -32.6863   25.0265 H   0  0  0  0  0  0
  -28.0732  -31.8427   26.5367 H   0  0  0  0  0  0
  -28.2597  -38.0114   24.7533 H   0  0  0  0  0  0
  -28.1107  -36.2654   24.6269 H   0  0  0  0  0  0
  -27.2321  -37.1427   25.8871 H   0  0  0  0  0  0
  -20.9340  -29.8685   21.6906 H   0  0  0  0  0  0
  -26.0190  -38.2870   24.1405 H   0  0  0  0  0  0
  -26.3156  -17.6081   20.8925 H   0  0  0  0  0  0
  -27.2472  -19.7968   20.4196 H   0  0  0  0  0  0
  -27.7782  -15.6989   21.4424 H   0  0  0  0  0  0
  -30.7866  -20.7384   20.1008 H   0  0  0  0  0  0
  -28.0578  -21.6829   21.0925 H   0  0  0  0  0  0
  -33.5560  -18.4101   20.2388 H   0  0  0  0  0  0
  -32.1658  -18.8247   19.2412 H   0  0  0  0  0  0
  -32.4510  -17.1523   19.7062 H   0  0  0  0  0  0
  -29.8556  -15.0656   22.5711 H   0  0  0  0  0  0
  -31.3404  -15.8229   22.2386 H   0  0  0  0  0  0
  -32.0647  -17.7901   22.1338 H   0  0  0  0  0  0
  -31.8092  -19.4113   21.6757 H   0  0  0  0  0  0
  -30.1867  -23.1742   19.5216 H   0  0  0  0  0  0
  -29.9945  -23.6232   21.2000 H   0  0  0  0  0  0
  -27.6390  -24.3047   20.8472 H   0  0  0  0  0  0
  -27.6420  -23.6039   19.2605 H   0  0  0  0  0  0
  -28.1105  -25.6182   18.3600 H   0  0  0  0  0  0
  -29.6828  -25.4970   19.0340 H   0  0  0  0  0  0
  1 25  1  0  0  0
  1 30  2  0  0  0
  1 80  1  0  0  0
  2  3  1  0  0  0
  2 25  1  0  0  0
  2 85  1  0  0  0
  2 86  1  0  0  0
  3  4  1  0  0  0
  3 87  1  0  0  0
  3 88  1  0  0  0
  4  5  1  0  0  0
  4 89  1  0  0  0
  4 90  1  0  0  0
  5  6  1  0  0  0
  5 26  1  0  0  0
  5 91  1  0  0  0
  6 25  1  0  0  0
  6 92  1  0  0  0
  6 93  1  0  0  0
  7  8  2  0  0  0
  7 26  1  0  0  0
  7 29  1  0  0  0
  8  9  1  0  0  0
  8 22  1  0  0  0
  9 10  1  0  0  0
  9 27  2  0  0  0
 10 11  2  0  0  0
 10 15  1  0  0  0
 11 12  1  0  0  0
 11 94  1  0  0  0
 12 13  2  0  0  0
 12 95  1  0  0  0
 13 14  1  0  0  0
 13 31  1  0  0  0
 14 15  2  0  0  0
 14 96  1  0  0  0
 15 97  1  0  0  0
 16 17  2  0  0  0
 16 21  1  0  0  0
 16 31  1  0  0  0
 17 18  1  0  0  0
 17 98  1  0  0  0
 18 19  2  0  0  0
 18 99  1  0  0  0
 19 20  1  0  0  0
 19 24  1  0  0  0
 20 21  2  0  0  0
 20100  1  0  0  0
 21 23  1  0  0  0
 22 28  1  0  0  0
 22 32  2  0  0  0
 26 27  1  0  0  0
 28101  1  0  0  0
 28102  1  0  0  0
 29103  1  0  0  0
 29104  1  0  0  0
 33 34  1  0  0  0
 33 66  1  0  0  0
 33 70  2  0  0  0
 34 36  1  0  0  0
 34 59  1  0  0  0
 34105  1  0  0  0
 35 44  2  0  0  0
 35 45  1  0  0  0
 35 68  1  0  0  0
 36 56  1  0  0  0
 36106  1  0  0  0
 37 39  1  0  0  0
 37 47  1  0  0  0
 37 66  1  0  0  0
 37107  1  0  0  0
 38 43  2  0  0  0
 38 46  1  0  0  0
 38 47  1  0  0  0
 39 64  1  0  0  0
 39 67  2  0  0  0
 40 52  1  0  0  0
 40 53  2  0  0  0
 40 58  1  0  0  0
 41108  1  0  0  0
 41109  1  0  0  0
 41110  1  0  0  0
 41 48  1  0  0  0
 42 43  1  0  0  0
 42 66  1  0  0  0
 42111  1  0  0  0
 42112  1  0  0  0
 43 44  1  0  0  0
 44113  1  0  0  0
 45 46  2  0  0  0
 45114  1  0  0  0
 46115  1  0  0  0
 47116  1  0  0  0
 47117  1  0  0  0
 48 56  1  0  0  0
 48 65  1  0  0  0
 48118  1  0  0  0
 49 50  1  0  0  0
 49 53  1  0  0  0
 49 64  1  0  0  0
 49119  1  0  0  0
 50 51  1  0  0  0
 50120  1  0  0  0
 50121  1  0  0  0
 51 52  1  0  0  0
 51122  1  0  0  0
 51123  1  0  0  0
 52124  1  0  0  0
 52125  1  0  0  0
 53 54  1  0  0  0
 54 55  2  0  0  0
 54126  1  0  0  0
 55 57  1  0  0  0
 55127  1  0  0  0
 56 69  2  0  0  0
 57 58  2  0  0  0
 57128  1  0  0  0
 58129  1  0  0  0
 59 60  1  0  0  0
 59 61  1  0  0  0
 59 62  1  0  0  0
 60130  1  0  0  0
 60131  1  0  0  0
 60132  1  0  0  0
 61133  1  0  0  0
 61134  1  0  0  0
 61135  1  0  0  0
 62136  1  0  0  0
 62137  1  0  0  0
 62138  1  0  0  0
 63 65  1  0  0  0
 63139  1  0  0  0
 63140  1  0  0  0
 63141  1  0  0  0
 64142  1  0  0  0
 65143  1  0  0  0
 68 84  1  0  0  0
 71 72  2  0  0  0
 71 73  1  0  0  0
 71144  1  0  0  0
 72 74  1  0  0  0
 72145  1  0  0  0
 73 75  2  0  0  0
 73146  1  0  0  0
 74 76  2  0  0  0
 74 77  1  0  0  0
 75 76  1  0  0  0
 75 80  1  0  0  0
 76 81  1  0  0  0
 77 78  2  0  0  0
 77147  1  0  0  0
 78 82  1  0  0  0
 78148  1  0  0  0
 79 81  1  0  0  0
 79149  1  0  0  0
 79150  1  0  0  0
 79151  1  0  0  0
 80152  1  0  0  0
 80153  1  0  0  0
 81154  1  0  0  0
 81155  1  0  0  0
 82 83  1  0  0  0
 82156  1  0  0  0
 82157  1  0  0  0
 83 84  1  0  0  0
 83158  1  0  0  0
 83159  1  0  0  0
 84160  1  0  0  0
 84161  1  0  0  0
M  ISO  4   1 100  68 101  80 100  84 101
M  END
> <chiral flag>
0

> <version>
0

> <s_m_source_file>
/data/baiqing/PycharmProjects/Reinvent-master-3.2/result/LINK_invent/BTK/process_docking_weight1_custom_product_contain_oxygen_bond_distance_aromatic_linkinvent_7_9_3/rearranged_h_0131.sdf

> <i_m_source_file_index>
48

> <r_mmod_Potential_Energy-OPLS-2005>
48.0635261535645

> <r_mmod_Stretch_Energy-OPLS-2005>
54.1308250427246

> <r_mmod_Bend_Energy-OPLS-2005>
122.940231323242

> <r_mmod_Torsional_Energy-OPLS-2005>
183.106323242188

> <r_mmod_Improper_Torsional_Energy-OPLS-2005>
3.05402946472168

> <r_mmod_Van_der_Waal_Energy-OPLS-2005>
147.173431396484

> <r_mmod_Electrostatic_Energy-OPLS-2005>
-296.729949951172

> <r_mmod_Solvation_Energy-OPLS-2005>
-180.873184204102

> <b_mmod_Minimization_Converged-OPLS-2005>
0

> <r_mmod_RMS_Derivative-OPLS-2005>
2.04280138015747

$$$$
48
                    3D
 Structure written by MMmdl.
168176  0  0  1  0            999 V2000
  -30.6795  -14.6047   20.5220 C   0  0  0  0  0  0
  -30.4247  -12.3817   19.4455 C   0  0  0  0  0  0
  -29.4974  -12.4981   18.2182 C   0  0  0  0  0  0
  -28.0227  -12.3416   18.6357 C   0  0  0  0  0  0
  -27.6490  -13.2214   19.8591 C   0  0  2  0  0  0
  -28.6955  -13.0970   20.9882 C   0  0  0  0  0  0
  -25.2554  -13.8195   20.5707 C   0  0  0  0  0  0
  -24.1827  -13.0453   20.9218 C   0  0  0  0  0  0
  -24.6395  -11.6923   20.8754 C   0  0  0  0  0  0
  -23.9067  -10.4303   21.0411 C   0  0  0  0  0  0
  -24.3620   -9.4217   21.9188 C   0  0  0  0  0  0
  -23.6299   -8.2250   22.0753 C   0  0  0  0  0  0
  -22.4283   -8.0286   21.3542 C   0  0  0  0  0  0
  -21.9917   -9.0259   20.4643 C   0  0  0  0  0  0
  -22.7242  -10.2142   20.3058 C   0  0  0  0  0  0
  -21.6855   -6.0739   22.5278 C   0  0  0  0  0  0
  -21.4014   -6.5644   23.8214 C   0  0  0  0  0  0
  -21.3661   -5.6794   24.9178 C   0  0  0  0  0  0
  -21.6042   -4.3054   24.7222 C   0  0  0  0  0  0
  -21.8818   -3.8154   23.4344 C   0  0  0  0  0  0
  -21.9195   -4.6970   22.3404 C   0  0  0  0  0  0
  -22.7848  -13.5245   21.1870 C   0  0  0  0  0  0
  -22.1662   -4.2155   21.0976 F   0  0  0  0  0  0
  -21.5630   -3.4539   25.7737 F   0  0  0  0  0  0
  -30.0084  -13.4174   20.4110 N   0  0  0  0  0  0
  -26.2972  -12.9378   20.3319 N   0  0  0  0  0  0
  -25.9323  -11.6529   20.5775 N   0  0  0  0  0  0
  -22.0488  -12.8223   22.0413 N   0  0  0  0  0  0
  -25.4263  -15.1914   20.4097 N   0  0  0  0  0  0
  -31.8500  -14.7133   20.1499 O   0  0  0  0  0  0
  -21.6644   -6.8884   21.4241 O   0  0  0  0  0  0
  -22.3531  -14.5553   20.6727 O   0  0  0  0  0  0
  -24.6257  -31.8619   23.2065 C   0  0  0  0  0  0
  -25.9119  -32.4789   23.8377 C   0  0  1  0  0  0
  -27.2174  -27.3288   20.1047 C   0  0  0  0  0  0
  -25.5948  -33.8589   24.2299 N   0  0  0  0  0  0
  -23.4178  -30.4904   21.5488 C   0  0  2  0  0  0
  -24.8622  -28.9556   20.1087 C   0  0  0  0  0  0
  -22.7472  -29.4642   22.4937 C   0  0  0  0  0  0
  -18.0292  -28.1376   22.8493 C   0  0  0  0  0  0
  -24.1487  -36.7285   23.2635 C   0  0  0  0  0  0
  -25.9613  -30.7939   21.3794 C   0  0  0  0  0  0
  -26.0326  -29.4246   20.7183 C   0  0  0  0  0  0
  -27.2123  -28.6212   20.7135 C   0  0  0  0  0  0
  -26.0229  -26.9261   19.4554 C   0  0  0  0  0  0
  -24.8592  -27.7101   19.4702 C   0  0  0  0  0  0
  -23.6303  -29.8343   20.1613 C   0  0  0  0  0  0
  -25.4107  -36.3081   24.0332 C   0  0  1  0  0  0
  -20.5895  -28.3682   23.1280 C   0  0  2  0  0  0
  -20.6778  -26.9403   22.5403 C   0  0  0  0  0  0
  -19.5754  -26.6381   21.5208 C   0  0  0  0  0  0
  -18.1935  -26.7922   22.1618 C   0  0  0  0  0  0
  -19.1547  -28.8848   23.2884 C   0  0  0  0  0  0
  -18.9469  -30.1454   23.8895 C   0  0  0  0  0  0
  -17.6467  -30.6578   24.0575 C   0  0  0  0  0  0
  -25.9053  -34.9454   23.5109 C   0  0  0  0  0  0
  -16.5358  -29.9078   23.6332 C   0  0  0  0  0  0
  -16.7279  -28.6494   23.0354 C   0  0  0  0  0  0
  -26.4502  -31.6598   25.0743 C   0  0  0  0  0  0
  -25.3740  -31.3734   26.1476 C   0  0  0  0  0  0
  -27.0343  -30.3019   24.6191 C   0  0  0  0  0  0
  -27.6068  -32.4333   25.7501 C   0  0  0  0  0  0
  -27.5592  -37.1781   24.8452 C   0  0  0  0  0  0
  -21.4188  -29.3047   22.3683 N   0  0  0  0  0  0
  -26.4275  -37.3785   23.9439 N   0  0  0  0  0  0
  -24.6869  -31.0650   22.1009 N   0  0  0  0  0  0
  -23.4206  -28.8166   23.2994 O   0  0  0  0  0  0
  -28.3213  -26.4604   20.1672 O   0  0  0  0  0  0
  -26.5612  -34.8923   22.4667 O   0  0  0  0  0  0
  -23.5427  -32.1410   23.7400 O   0  0  0  0  0  0
  -30.9255  -19.2962   20.1958 C   0  0  0  0  0  0
  -30.5846  -20.6304   19.8503 C   0  0  0  0  0  0
  -30.0088  -18.4068   20.8138 C   0  0  0  0  0  0
  -29.2926  -21.1539   20.0866 C   0  0  0  0  0  0
  -28.7024  -18.9263   21.0702 C   0  0  0  0  0  0
  -28.3494  -20.2666   20.6810 C   0  0  0  0  0  0
  -29.0262  -23.9170   20.2623 C   0  0  0  0  0  0
  -26.6213  -17.5176   24.0672 C   0  0  0  0  0  0
  -24.7460  -20.7520   20.3317 C   0  0  0  0  0  0
  -28.8843  -22.5517   19.4998 C   0  0  0  0  0  0
  -27.6764  -18.0747   21.8142 C   0  0  0  0  0  0
  -30.5488  -17.0240   21.3329 C   0  0  0  0  0  0
  -28.0534  -25.0560   19.7895 C   0  0  0  0  0  0
  -27.6788  -18.3439   23.3260 C   0  0  0  0  0  0
  -26.1585  -20.4213   19.8482 C   0  0  0  0  0  0
  -29.9727  -15.7030   20.9196 N   0  0  0  0  0  0
  -29.8520  -24.0864   21.1656 O   0  0  0  0  0  0
  -27.0743  -20.7241   20.8967 O   0  0  0  0  0  0
  -31.4673  -12.4888   19.1406 H   0  0  0  0  0  0
  -30.3469  -11.3916   19.8974 H   0  0  0  0  0  0
  -29.7577  -11.7417   17.4768 H   0  0  0  0  0  0
  -29.6423  -13.4651   17.7340 H   0  0  0  0  0  0
  -27.8600  -11.2896   18.8733 H   0  0  0  0  0  0
  -27.3655  -12.5662   17.7949 H   0  0  0  0  0  0
  -27.6635  -14.2538   19.5099 H   0  0  0  0  0  0
  -28.7035  -12.0860   21.3986 H   0  0  0  0  0  0
  -28.4478  -13.7565   21.8214 H   0  0  0  0  0  0
  -25.2763   -9.5697   22.4763 H   0  0  0  0  0  0
  -24.0013   -7.4639   22.7467 H   0  0  0  0  0  0
  -21.0855   -8.8776   19.8942 H   0  0  0  0  0  0
  -22.3704  -10.9683   19.6170 H   0  0  0  0  0  0
  -21.2002   -7.6150   23.9721 H   0  0  0  0  0  0
  -21.1481   -6.0522   25.9078 H   0  0  0  0  0  0
  -22.0597   -2.7614   23.2841 H   0  0  0  0  0  0
  -22.4104  -11.9878   22.4787 H   0  0  0  0  0  0
  -21.1102  -13.1232   22.2615 H   0  0  0  0  0  0
  -24.6541  -15.8407   20.5112 H   0  0  0  0  0  0
  -26.2632  -15.6239   20.0426 H   0  0  0  0  0  0
  -26.7187  -32.5455   23.1125 H   0  0  0  0  0  0
  -25.0141  -33.9742   25.0478 H   0  0  0  0  0  0
  -22.7117  -31.3118   21.4109 H   0  0  0  0  0  0
  -23.3767  -35.9598   23.3261 H   0  0  0  0  0  0
  -24.3596  -36.8929   22.2057 H   0  0  0  0  0  0
  -23.7209  -37.6466   23.6674 H   0  0  0  0  0  0
  -26.0985  -31.5591   20.6139 H   0  0  0  0  0  0
  -26.8392  -30.8350   22.0119 H   0  0  0  0  0  0
  -28.1061  -28.9746   21.2083 H   0  0  0  0  0  0
  -25.9408  -25.9888   18.9275 H   0  0  0  0  0  0
  -23.9653  -27.3481   18.9810 H   0  0  0  0  0  0
  -23.7491  -30.6148   19.4091 H   0  0  0  0  0  0
  -22.7491  -29.2664   19.8568 H   0  0  0  0  0  0
  -25.1270  -36.1925   25.0820 H   0  0  0  0  0  0
  -21.0001  -28.3245   24.1393 H   0  0  0  0  0  0
  -20.5672  -26.2286   23.3598 H   0  0  0  0  0  0
  -21.6646  -26.7418   22.1205 H   0  0  0  0  0  0
  -19.6914  -25.6293   21.1231 H   0  0  0  0  0  0
  -19.6697  -27.3202   20.6746 H   0  0  0  0  0  0
  -17.4205  -26.6696   21.4017 H   0  0  0  0  0  0
  -18.0323  -26.0043   22.8996 H   0  0  0  0  0  0
  -19.7947  -30.7282   24.2252 H   0  0  0  0  0  0
  -17.5018  -31.6264   24.5173 H   0  0  0  0  0  0
  -15.5359  -30.2983   23.7656 H   0  0  0  0  0  0
  -15.8677  -28.0817   22.7061 H   0  0  0  0  0  0
  -24.5940  -30.7040   25.7833 H   0  0  0  0  0  0
  -24.8906  -32.2894   26.4887 H   0  0  0  0  0  0
  -25.8077  -30.8953   27.0267 H   0  0  0  0  0  0
  -26.2914  -29.6776   24.1214 H   0  0  0  0  0  0
  -27.4040  -29.7269   25.4691 H   0  0  0  0  0  0
  -27.8783  -30.4308   23.9410 H   0  0  0  0  0  0
  -27.2694  -33.3660   26.2038 H   0  0  0  0  0  0
  -28.3899  -32.6849   25.0337 H   0  0  0  0  0  0
  -28.0709  -31.8481   26.5447 H   0  0  0  0  0  0
  -28.2545  -38.0147   24.7601 H   0  0  0  0  0  0
  -28.1147  -36.2681   24.6128 H   0  0  0  0  0  0
  -27.2334  -37.1246   25.8857 H   0  0  0  0  0  0
  -20.9354  -29.8788   21.6917 H   0  0  0  0  0  0
  -26.0145  -38.2840   24.1511 H   0  0  0  0  0  0
  -31.9355  -18.9637   19.9982 H   0  0  0  0  0  0
  -31.3285  -21.2498   19.3681 H   0  0  0  0  0  0
  -26.6250  -17.7458   25.1332 H   0  0  0  0  0  0
  -26.8042  -16.4486   23.9560 H   0  0  0  0  0  0
  -25.6202  -17.7258   23.6877 H   0  0  0  0  0  0
  -24.0146  -20.5735   19.5430 H   0  0  0  0  0  0
  -24.6666  -21.7976   20.6306 H   0  0  0  0  0  0
  -24.4718  -20.1353   21.1879 H   0  0  0  0  0  0
  -27.8446  -22.4948   19.1908 H   0  0  0  0  0  0
  -29.4376  -22.6715   18.5688 H   0  0  0  0  0  0
  -27.8452  -17.0176   21.6243 H   0  0  0  0  0  0
  -26.6784  -18.2610   21.4227 H   0  0  0  0  0  0
  -30.4648  -17.0554   22.4196 H   0  0  0  0  0  0
  -31.6256  -17.0073   21.1558 H   0  0  0  0  0  0
  -27.0873  -24.7560   20.1961 H   0  0  0  0  0  0
  -27.9776  -25.0001   18.7035 H   0  0  0  0  0  0
  -28.6644  -18.1288   23.7400 H   0  0  0  0  0  0
  -27.4941  -19.4040   23.5055 H   0  0  0  0  0  0
  -26.3854  -21.0008   18.9543 H   0  0  0  0  0  0
  -26.2144  -19.3725   19.5553 H   0  0  0  0  0  0
  -28.9984  -15.5512   21.1255 H   0  0  0  0  0  0
  1 25  1  0  0  0
  1 30  2  0  0  0
  1 86  1  0  0  0
  2  3  1  0  0  0
  2 25  1  0  0  0
  2 89  1  0  0  0
  2 90  1  0  0  0
  3  4  1  0  0  0
  3 91  1  0  0  0
  3 92  1  0  0  0
  4  5  1  0  0  0
  4 93  1  0  0  0
  4 94  1  0  0  0
  5  6  1  0  0  0
  5 26  1  0  0  0
  5 95  1  0  0  0
  6 25  1  0  0  0
  6 96  1  0  0  0
  6 97  1  0  0  0
  7  8  2  0  0  0
  7 26  1  0  0  0
  7 29  1  0  0  0
  8  9  1  0  0  0
  8 22  1  0  0  0
  9 10  1  0  0  0
  9 27  2  0  0  0
 10 11  2  0  0  0
 10 15  1  0  0  0
 11 12  1  0  0  0
 11 98  1  0  0  0
 12 13  2  0  0  0
 12 99  1  0  0  0
 13 14  1  0  0  0
 13 31  1  0  0  0
 14 15  2  0  0  0
 14100  1  0  0  0
 15101  1  0  0  0
 16 17  2  0  0  0
 16 21  1  0  0  0
 16 31  1  0  0  0
 17 18  1  0  0  0
 17102  1  0  0  0
 18 19  2  0  0  0
 18103  1  0  0  0
 19 20  1  0  0  0
 19 24  1  0  0  0
 20 21  2  0  0  0
 20104  1  0  0  0
 21 23  1  0  0  0
 22 28  1  0  0  0
 22 32  2  0  0  0
 26 27  1  0  0  0
 28105  1  0  0  0
 28106  1  0  0  0
 29107  1  0  0  0
 29108  1  0  0  0
 33 34  1  0  0  0
 33 66  1  0  0  0
 33 70  2  0  0  0
 34 36  1  0  0  0
 34 59  1  0  0  0
 34109  1  0  0  0
 35 44  2  0  0  0
 35 45  1  0  0  0
 35 68  1  0  0  0
 36 56  1  0  0  0
 36110  1  0  0  0
 37 39  1  0  0  0
 37 47  1  0  0  0
 37 66  1  0  0  0
 37111  1  0  0  0
 38 43  2  0  0  0
 38 46  1  0  0  0
 38 47  1  0  0  0
 39 64  1  0  0  0
 39 67  2  0  0  0
 40 52  1  0  0  0
 40 53  2  0  0  0
 40 58  1  0  0  0
 41112  1  0  0  0
 41113  1  0  0  0
 41114  1  0  0  0
 41 48  1  0  0  0
 42 43  1  0  0  0
 42 66  1  0  0  0
 42115  1  0  0  0
 42116  1  0  0  0
 43 44  1  0  0  0
 44117  1  0  0  0
 45 46  2  0  0  0
 45118  1  0  0  0
 46119  1  0  0  0
 47120  1  0  0  0
 47121  1  0  0  0
 48 56  1  0  0  0
 48 65  1  0  0  0
 48122  1  0  0  0
 49 50  1  0  0  0
 49 53  1  0  0  0
 49 64  1  0  0  0
 49123  1  0  0  0
 50 51  1  0  0  0
 50124  1  0  0  0
 50125  1  0  0  0
 51 52  1  0  0  0
 51126  1  0  0  0
 51127  1  0  0  0
 52128  1  0  0  0
 52129  1  0  0  0
 53 54  1  0  0  0
 54 55  2  0  0  0
 54130  1  0  0  0
 55 57  1  0  0  0
 55131  1  0  0  0
 56 69  2  0  0  0
 57 58  2  0  0  0
 57132  1  0  0  0
 58133  1  0  0  0
 59 60  1  0  0  0
 59 61  1  0  0  0
 59 62  1  0  0  0
 60134  1  0  0  0
 60135  1  0  0  0
 60136  1  0  0  0
 61137  1  0  0  0
 61138  1  0  0  0
 61139  1  0  0  0
 62140  1  0  0  0
 62141  1  0  0  0
 62142  1  0  0  0
 63 65  1  0  0  0
 63143  1  0  0  0
 63144  1  0  0  0
 63145  1  0  0  0
 64146  1  0  0  0
 65147  1  0  0  0
 68 83  1  0  0  0
 71 72  2  0  0  0
 71 73  1  0  0  0
 71148  1  0  0  0
 72 74  1  0  0  0
 72149  1  0  0  0
 73 75  2  0  0  0
 73 82  1  0  0  0
 74 76  2  0  0  0
 74 80  1  0  0  0
 75 76  1  0  0  0
 75 81  1  0  0  0
 76 88  1  0  0  0
 77 80  1  0  0  0
 77 83  1  0  0  0
 77 87  2  0  0  0
 78 84  1  0  0  0
 78150  1  0  0  0
 78151  1  0  0  0
 78152  1  0  0  0
 79 85  1  0  0  0
 79153  1  0  0  0
 79154  1  0  0  0
 79155  1  0  0  0
 80156  1  0  0  0
 80157  1  0  0  0
 81 84  1  0  0  0
 81158  1  0  0  0
 81159  1  0  0  0
 82 86  1  0  0  0
 82160  1  0  0  0
 82161  1  0  0  0
 83162  1  0  0  0
 83163  1  0  0  0
 84164  1  0  0  0
 84165  1  0  0  0
 85 88  1  0  0  0
 85166  1  0  0  0
 85167  1  0  0  0
 86168  1  0  0  0
M  ISO  4   1 100  68 101  83 101  86 100
M  END
> <chiral flag>
0

> <version>
0

> <s_m_source_file>
/data/baiqing/PycharmProjects/Reinvent-master-3.2/result/LINK_invent/BTK/process_docking_weight1_custom_product_contain_oxygen_bond_distance_aromatic_linkinvent_7_9_3/rearranged_h_0131.sdf

> <i_m_source_file_index>
49

> <r_mmod_Potential_Energy-OPLS-2005>
16.6948337554932

> <r_mmod_Stretch_Energy-OPLS-2005>
73.6441421508789

> <r_mmod_Bend_Energy-OPLS-2005>
147.951293945312

> <r_mmod_Torsional_Energy-OPLS-2005>
238.631958007812

> <r_mmod_Improper_Torsional_Energy-OPLS-2005>
5.48702907562256

> <r_mmod_Van_der_Waal_Energy-OPLS-2005>
141.033142089844

> <r_mmod_Electrostatic_Energy-OPLS-2005>
-401.643432617188

> <r_mmod_Solvation_Energy-OPLS-2005>
-233.730178833008

> <b_mmod_Minimization_Converged-OPLS-2005>
0

> <r_mmod_RMS_Derivative-OPLS-2005>
1.11101257801056

$$$$
49
                    3D
 Structure written by MMmdl.
159167  0  0  1  0            999 V2000
  -30.7395  -14.3896   20.6472 C   0  0  0  0  0  0
  -30.4156  -12.2798   19.4019 C   0  0  0  0  0  0
  -29.4858  -12.5099   18.1946 C   0  0  0  0  0  0
  -28.0100  -12.3677   18.6128 C   0  0  0  0  0  0
  -27.6662  -13.2003   19.8769 C   0  0  2  0  0  0
  -28.7063  -12.9567   20.9936 C   0  0  0  0  0  0
  -25.2616  -13.8144   20.5691 C   0  0  0  0  0  0
  -24.1855  -13.0432   20.9172 C   0  0  0  0  0  0
  -24.6397  -11.6898   20.8728 C   0  0  0  0  0  0
  -23.9056  -10.4291   21.0404 C   0  0  0  0  0  0
  -24.3613   -9.4214   21.9190 C   0  0  0  0  0  0
  -23.6291   -8.2250   22.0756 C   0  0  0  0  0  0
  -22.4275   -8.0286   21.3541 C   0  0  0  0  0  0
  -21.9912   -9.0258   20.4639 C   0  0  0  0  0  0
  -22.7234  -10.2135   20.3050 C   0  0  0  0  0  0
  -21.6849   -6.0741   22.5285 C   0  0  0  0  0  0
  -21.4015   -6.5645   23.8226 C   0  0  0  0  0  0
  -21.3655   -5.6795   24.9184 C   0  0  0  0  0  0
  -21.6041   -4.3062   24.7231 C   0  0  0  0  0  0
  -21.8819   -3.8155   23.4351 C   0  0  0  0  0  0
  -21.9196   -4.6970   22.3405 C   0  0  0  0  0  0
  -22.7881  -13.5235   21.1846 C   0  0  0  0  0  0
  -22.1663   -4.2162   21.0979 F   0  0  0  0  0  0
  -21.5624   -3.4543   25.7735 F   0  0  0  0  0  0
  -30.0415  -13.2423   20.4478 N   0  0  0  0  0  0
  -26.3061  -12.9312   20.3379 N   0  0  0  0  0  0
  -25.9326  -11.6476   20.5755 N   0  0  0  0  0  0
  -22.0513  -12.8226   22.0390 N   0  0  0  0  0  0
  -25.4342  -15.1870   20.4110 N   0  0  0  0  0  0
  -31.8153  -14.6078   20.0801 O   0  0  0  0  0  0
  -21.6633   -6.8886   21.4244 O   0  0  0  0  0  0
  -22.3577  -14.5546   20.6696 O   0  0  0  0  0  0
  -24.6151  -31.8701   23.2107 C   0  0  0  0  0  0
  -25.9042  -32.4832   23.8392 C   0  0  1  0  0  0
  -27.2346  -27.4502   20.1064 C   0  0  0  0  0  0
  -25.5907  -33.8626   24.2342 N   0  0  0  0  0  0
  -23.4001  -30.4962   21.5499 C   0  0  2  0  0  0
  -24.8472  -28.9630   20.1131 C   0  0  0  0  0  0
  -22.7389  -29.4693   22.4973 C   0  0  0  0  0  0
  -18.0272  -28.1366   22.8499 C   0  0  0  0  0  0
  -24.1477  -36.7303   23.2646 C   0  0  0  0  0  0
  -25.9265  -30.8439   21.3590 C   0  0  0  0  0  0
  -26.0057  -29.4781   20.7080 C   0  0  0  0  0  0
  -27.2047  -28.7317   20.6994 C   0  0  0  0  0  0
  -26.0636  -26.9517   19.4925 C   0  0  0  0  0  0
  -24.8695  -27.6976   19.5015 C   0  0  0  0  0  0
  -23.6079  -29.8293   20.1636 C   0  0  0  0  0  0
  -25.4104  -36.3121   24.0344 C   0  0  1  0  0  0
  -20.5863  -28.3684   23.1300 C   0  0  2  0  0  0
  -20.6778  -26.9428   22.5399 C   0  0  0  0  0  0
  -19.5751  -26.6399   21.5197 C   0  0  0  0  0  0
  -18.1920  -26.7916   22.1612 C   0  0  0  0  0  0
  -19.1526  -28.8834   23.2890 C   0  0  0  0  0  0
  -18.9455  -30.1423   23.8934 C   0  0  0  0  0  0
  -17.6473  -30.6588   24.0571 C   0  0  0  0  0  0
  -25.9041  -34.9491   23.5151 C   0  0  0  0  0  0
  -16.5350  -29.9106   23.6327 C   0  0  0  0  0  0
  -16.7266  -28.6495   23.0378 C   0  0  0  0  0  0
  -26.4486  -31.6582   25.0691 C   0  0  0  0  0  0
  -25.3756  -31.3604   26.1419 C   0  0  0  0  0  0
  -27.0363  -30.3058   24.6026 C   0  0  0  0  0  0
  -27.6052  -32.4299   25.7468 C   0  0  0  0  0  0
  -27.5571  -37.1813   24.8475 C   0  0  0  0  0  0
  -21.4119  -29.3051   22.3694 N   0  0  0  0  0  0
  -26.4303  -37.3792   23.9397 N   0  0  0  0  0  0
  -24.6660  -31.0830   22.0992 N   0  0  0  0  0  0
  -23.4165  -28.8268   23.3046 O   0  0  0  0  0  0
  -28.3833  -26.6956   20.1344 O   0  0  0  0  0  0
  -26.5604  -34.8952   22.4713 O   0  0  0  0  0  0
  -23.5340  -32.1442   23.7492 O   0  0  0  0  0  0
  -30.3851  -18.1497   23.6293 C   0  0  0  0  0  0
  -29.0197  -20.1673   23.4299 C   0  0  0  0  0  0
  -29.5555  -18.8559   21.4478 C   0  0  0  0  0  0
  -29.7499  -19.2601   24.2254 C   0  0  0  0  0  0
  -30.2866  -17.9458   22.2378 C   0  0  0  0  0  0
  -28.9399  -19.9823   22.0326 C   0  0  0  0  0  0
  -28.9024  -21.9468   20.8879 C   0  0  0  0  0  0
  -28.9964  -24.3225   19.9956 C   0  0  0  0  0  0
  -29.8611  -19.5046   25.7172 C   0  0  0  0  0  0
  -30.9913  -16.7789   21.5684 C   0  0  0  0  0  0
  -28.3506  -22.9383   19.8846 C   0  0  0  0  0  0
  -28.2070  -25.4030   20.7426 C   0  0  0  0  0  0
  -30.1496  -15.4861   21.5538 C   0  0  0  0  0  0
  -28.2703  -20.8898   21.2144 N   0  0  0  0  0  0
  -30.1019  -24.5591   19.4922 O   0  0  0  0  0  0
  -31.4615  -12.3676   19.1010 H   0  0  0  0  0  0
  -30.3018  -11.2619   19.7801 H   0  0  0  0  0  0
  -29.7186  -11.7992   17.4005 H   0  0  0  0  0  0
  -29.6579  -13.5036   17.7781 H   0  0  0  0  0  0
  -27.8222  -11.3102   18.8041 H   0  0  0  0  0  0
  -27.3540  -12.6454   17.7874 H   0  0  0  0  0  0
  -27.7199  -14.2505   19.5926 H   0  0  0  0  0  0
  -28.6672  -11.9178   21.3260 H   0  0  0  0  0  0
  -28.4701  -13.5501   21.8760 H   0  0  0  0  0  0
  -25.2756   -9.5698   22.4769 H   0  0  0  0  0  0
  -24.0003   -7.4642   22.7484 H   0  0  0  0  0  0
  -21.0848   -8.8771   19.8942 H   0  0  0  0  0  0
  -22.3700  -10.9675   19.6158 H   0  0  0  0  0  0
  -21.2009   -7.6160   23.9730 H   0  0  0  0  0  0
  -21.1471   -6.0524   25.9081 H   0  0  0  0  0  0
  -22.0604   -2.7619   23.2843 H   0  0  0  0  0  0
  -22.4103  -11.9862   22.4749 H   0  0  0  0  0  0
  -21.1135  -13.1263   22.2583 H   0  0  0  0  0  0
  -24.6699  -15.8440   20.5232 H   0  0  0  0  0  0
  -26.2983  -15.6298   20.1213 H   0  0  0  0  0  0
  -26.7121  -32.5562   23.1158 H   0  0  0  0  0  0
  -25.0026  -33.9780   25.0471 H   0  0  0  0  0  0
  -22.6863  -31.3120   21.4115 H   0  0  0  0  0  0
  -23.3763  -35.9610   23.3312 H   0  0  0  0  0  0
  -24.3568  -36.8903   22.2061 H   0  0  0  0  0  0
  -23.7220  -37.6502   23.6663 H   0  0  0  0  0  0
  -26.0319  -31.6132   20.5922 H   0  0  0  0  0  0
  -26.8161  -30.8979   21.9737 H   0  0  0  0  0  0
  -28.0997  -29.1250   21.1625 H   0  0  0  0  0  0
  -26.0690  -25.9834   19.0130 H   0  0  0  0  0  0
  -23.9814  -27.2945   19.0349 H   0  0  0  0  0  0
  -23.7160  -30.6063   19.4050 H   0  0  0  0  0  0
  -22.7315  -29.2489   19.8702 H   0  0  0  0  0  0
  -25.1290  -36.1981   25.0840 H   0  0  0  0  0  0
  -20.9943  -28.3274   24.1428 H   0  0  0  0  0  0
  -20.5659  -26.2318   23.3591 H   0  0  0  0  0  0
  -21.6658  -26.7473   22.1206 H   0  0  0  0  0  0
  -19.6928  -25.6323   21.1211 H   0  0  0  0  0  0
  -19.6682  -27.3214   20.6734 H   0  0  0  0  0  0
  -17.4195  -26.6663   21.4005 H   0  0  0  0  0  0
  -18.0313  -26.0022   22.8983 H   0  0  0  0  0  0
  -19.7938  -30.7192   24.2345 H   0  0  0  0  0  0
  -17.5059  -31.6283   24.5159 H   0  0  0  0  0  0
  -15.5365  -30.3058   23.7630 H   0  0  0  0  0  0
  -15.8629  -28.0828   22.7137 H   0  0  0  0  0  0
  -24.6003  -30.6887   25.7711 H   0  0  0  0  0  0
  -24.8875  -32.2721   26.4883 H   0  0  0  0  0  0
  -25.8146  -30.8772   27.0160 H   0  0  0  0  0  0
  -26.2904  -29.6731   24.1208 H   0  0  0  0  0  0
  -27.4324  -29.7361   25.4439 H   0  0  0  0  0  0
  -27.8634  -30.4411   23.9047 H   0  0  0  0  0  0
  -27.2691  -33.3616   26.2023 H   0  0  0  0  0  0
  -28.3891  -32.6806   25.0313 H   0  0  0  0  0  0
  -28.0682  -31.8428   26.5399 H   0  0  0  0  0  0
  -28.2608  -38.0098   24.7556 H   0  0  0  0  0  0
  -28.1065  -36.2648   24.6296 H   0  0  0  0  0  0
  -27.2291  -37.1435   25.8879 H   0  0  0  0  0  0
  -20.9266  -29.8772   21.6923 H   0  0  0  0  0  0
  -26.0194  -38.2869   24.1410 H   0  0  0  0  0  0
  -30.9558  -17.4594   24.2357 H   0  0  0  0  0  0
  -28.5344  -21.0159   23.8925 H   0  0  0  0  0  0
  -29.4869  -18.7009   20.3799 H   0  0  0  0  0  0
  -29.8951  -22.1811   21.2875 H   0  0  0  0  0  0
  -30.4456  -18.7297   26.2130 H   0  0  0  0  0  0
  -28.8724  -19.5313   26.1774 H   0  0  0  0  0  0
  -30.3481  -20.4625   25.9016 H   0  0  0  0  0  0
  -31.9409  -16.5959   22.0714 H   0  0  0  0  0  0
  -31.2464  -17.0780   20.5507 H   0  0  0  0  0  0
  -27.2727  -23.0249   20.0161 H   0  0  0  0  0  0
  -28.5170  -22.5504   18.8817 H   0  0  0  0  0  0
  -28.5590  -25.4355   21.7750 H   0  0  0  0  0  0
  -27.1589  -25.1017   20.7868 H   0  0  0  0  0  0
  -29.1482  -15.7207   21.1917 H   0  0  0  0  0  0
  -30.0444  -15.1034   22.5691 H   0  0  0  0  0  0
  1 25  1  0  0  0
  1 30  2  0  0  0
  1 83  1  0  0  0
  2  3  1  0  0  0
  2 25  1  0  0  0
  2 86  1  0  0  0
  2 87  1  0  0  0
  3  4  1  0  0  0
  3 88  1  0  0  0
  3 89  1  0  0  0
  4  5  1  0  0  0
  4 90  1  0  0  0
  4 91  1  0  0  0
  5  6  1  0  0  0
  5 26  1  0  0  0
  5 92  1  0  0  0
  6 25  1  0  0  0
  6 93  1  0  0  0
  6 94  1  0  0  0
  7  8  2  0  0  0
  7 26  1  0  0  0
  7 29  1  0  0  0
  8  9  1  0  0  0
  8 22  1  0  0  0
  9 10  1  0  0  0
  9 27  2  0  0  0
 10 11  2  0  0  0
 10 15  1  0  0  0
 11 12  1  0  0  0
 11 95  1  0  0  0
 12 13  2  0  0  0
 12 96  1  0  0  0
 13 14  1  0  0  0
 13 31  1  0  0  0
 14 15  2  0  0  0
 14 97  1  0  0  0
 15 98  1  0  0  0
 16 17  2  0  0  0
 16 21  1  0  0  0
 16 31  1  0  0  0
 17 18  1  0  0  0
 17 99  1  0  0  0
 18 19  2  0  0  0
 18100  1  0  0  0
 19 20  1  0  0  0
 19 24  1  0  0  0
 20 21  2  0  0  0
 20101  1  0  0  0
 21 23  1  0  0  0
 22 28  1  0  0  0
 22 32  2  0  0  0
 26 27  1  0  0  0
 28102  1  0  0  0
 28103  1  0  0  0
 29104  1  0  0  0
 29105  1  0  0  0
 33 34  1  0  0  0
 33 66  1  0  0  0
 33 70  2  0  0  0
 34 36  1  0  0  0
 34 59  1  0  0  0
 34106  1  0  0  0
 35 44  2  0  0  0
 35 45  1  0  0  0
 35 68  1  0  0  0
 36 56  1  0  0  0
 36107  1  0  0  0
 37 39  1  0  0  0
 37 47  1  0  0  0
 37 66  1  0  0  0
 37108  1  0  0  0
 38 43  2  0  0  0
 38 46  1  0  0  0
 38 47  1  0  0  0
 39 64  1  0  0  0
 39 67  2  0  0  0
 40 52  1  0  0  0
 40 53  2  0  0  0
 40 58  1  0  0  0
 41109  1  0  0  0
 41110  1  0  0  0
 41111  1  0  0  0
 41 48  1  0  0  0
 42 43  1  0  0  0
 42 66  1  0  0  0
 42112  1  0  0  0
 42113  1  0  0  0
 43 44  1  0  0  0
 44114  1  0  0  0
 45 46  2  0  0  0
 45115  1  0  0  0
 46116  1  0  0  0
 47117  1  0  0  0
 47118  1  0  0  0
 48 56  1  0  0  0
 48 65  1  0  0  0
 48119  1  0  0  0
 49 50  1  0  0  0
 49 53  1  0  0  0
 49 64  1  0  0  0
 49120  1  0  0  0
 50 51  1  0  0  0
 50121  1  0  0  0
 50122  1  0  0  0
 51 52  1  0  0  0
 51123  1  0  0  0
 51124  1  0  0  0
 52125  1  0  0  0
 52126  1  0  0  0
 53 54  1  0  0  0
 54 55  2  0  0  0
 54127  1  0  0  0
 55 57  1  0  0  0
 55128  1  0  0  0
 56 69  2  0  0  0
 57 58  2  0  0  0
 57129  1  0  0  0
 58130  1  0  0  0
 59 60  1  0  0  0
 59 61  1  0  0  0
 59 62  1  0  0  0
 60131  1  0  0  0
 60132  1  0  0  0
 60133  1  0  0  0
 61134  1  0  0  0
 61135  1  0  0  0
 61136  1  0  0  0
 62137  1  0  0  0
 62138  1  0  0  0
 62139  1  0  0  0
 63 65  1  0  0  0
 63140  1  0  0  0
 63141  1  0  0  0
 63142  1  0  0  0
 64143  1  0  0  0
 65144  1  0  0  0
 68 82  1  0  0  0
 71 74  2  0  0  0
 71 75  1  0  0  0
 71145  1  0  0  0
 72 74  1  0  0  0
 72 76  2  0  0  0
 72146  1  0  0  0
 73 75  2  0  0  0
 73 76  1  0  0  0
 73147  1  0  0  0
 74 79  1  0  0  0
 75 80  1  0  0  0
 76 84  1  0  0  0
 77 81  1  0  0  0
 77 84  2  0  0  0
 77148  1  0  0  0
 78 81  1  0  0  0
 78 82  1  0  0  0
 78 85  2  0  0  0
 79149  1  0  0  0
 79150  1  0  0  0
 79151  1  0  0  0
 80 83  1  0  0  0
 80152  1  0  0  0
 80153  1  0  0  0
 81154  1  0  0  0
 81155  1  0  0  0
 82156  1  0  0  0
 82157  1  0  0  0
 83158  1  0  0  0
 83159  1  0  0  0
M  ISO  4   1 100  68 101  82 101  83 100
M  END
> <chiral flag>
0

> <version>
0

> <s_m_source_file>
/data/baiqing/PycharmProjects/Reinvent-master-3.2/result/LINK_invent/BTK/process_docking_weight1_custom_product_contain_oxygen_bond_distance_aromatic_linkinvent_7_9_3/rearranged_h_0131.sdf

> <i_m_source_file_index>
50

> <r_mmod_Potential_Energy-OPLS-2005>
-95.8890151977539

> <r_mmod_Stretch_Energy-OPLS-2005>
32.6362152099609

> <r_mmod_Bend_Energy-OPLS-2005>
81.5076675415039

> <r_mmod_Torsional_Energy-OPLS-2005>
213.913848876953

> <r_mmod_Improper_Torsional_Energy-OPLS-2005>
2.01980757713318

> <r_mmod_Van_der_Waal_Energy-OPLS-2005>
152.571548461914

> <r_mmod_Electrostatic_Energy-OPLS-2005>
-369.743957519531

> <r_mmod_Solvation_Energy-OPLS-2005>
-217.666030883789

> <b_mmod_Minimization_Converged-OPLS-2005>
0

> <r_mmod_RMS_Derivative-OPLS-2005>
2.80311179161072

$$$$
50
                    3D
 Structure written by MMmdl.
151159  0  0  1  0            999 V2000
  -30.6027  -14.7213   20.4675 C   0  0  0  0  0  0
  -30.4410  -12.4393   19.4709 C   0  0  0  0  0  0
  -29.5144  -12.5188   18.2338 C   0  0  0  0  0  0
  -28.0328  -12.3525   18.6340 C   0  0  0  0  0  0
  -27.6488  -13.2181   19.8640 C   0  0  2  0  0  0
  -28.6939  -13.0632   20.9874 C   0  0  0  0  0  0
  -25.2548  -13.8156   20.5703 C   0  0  0  0  0  0
  -24.1799  -13.0423   20.9152 C   0  0  0  0  0  0
  -24.6373  -11.6898   20.8714 C   0  0  0  0  0  0
  -23.9042  -10.4288   21.0390 C   0  0  0  0  0  0
  -24.3605   -9.4211   21.9171 C   0  0  0  0  0  0
  -23.6281   -8.2250   22.0755 C   0  0  0  0  0  0
  -22.4265   -8.0280   21.3546 C   0  0  0  0  0  0
  -21.9890   -9.0246   20.4648 C   0  0  0  0  0  0
  -22.7215  -10.2124   20.3044 C   0  0  0  0  0  0
  -21.6853   -6.0732   22.5282 C   0  0  0  0  0  0
  -21.4018   -6.5639   23.8213 C   0  0  0  0  0  0
  -21.3655   -5.6792   24.9173 C   0  0  0  0  0  0
  -21.6040   -4.3053   24.7226 C   0  0  0  0  0  0
  -21.8819   -3.8145   23.4349 C   0  0  0  0  0  0
  -21.9193   -4.6960   22.3404 C   0  0  0  0  0  0
  -22.7831  -13.5232   21.1831 C   0  0  0  0  0  0
  -22.1661   -4.2145   21.0980 F   0  0  0  0  0  0
  -21.5617   -3.4536   25.7739 F   0  0  0  0  0  0
  -29.9964  -13.4749   20.4368 N   0  0  0  0  0  0
  -26.2971  -12.9335   20.3335 N   0  0  0  0  0  0
  -25.9303  -11.6488   20.5736 N   0  0  0  0  0  0
  -22.0478  -12.8240   22.0401 N   0  0  0  0  0  0
  -25.4294  -15.1881   20.4215 N   0  0  0  0  0  0
  -31.7773  -14.8250   20.0949 O   0  0  0  0  0  0
  -21.6635   -6.8874   21.4246 O   0  0  0  0  0  0
  -22.3520  -14.5543   20.6689 O   0  0  0  0  0  0
  -24.6296  -31.8559   23.1987 C   0  0  0  0  0  0
  -25.9131  -32.4755   23.8333 C   0  0  1  0  0  0
  -27.2294  -27.2836   20.1121 C   0  0  0  0  0  0
  -25.5929  -33.8557   24.2250 N   0  0  0  0  0  0
  -23.4260  -30.4776   21.5412 C   0  0  2  0  0  0
  -24.8725  -28.9255   20.1091 C   0  0  0  0  0  0
  -22.7491  -29.4602   22.4910 C   0  0  0  0  0  0
  -18.0290  -28.1384   22.8485 C   0  0  0  0  0  0
  -24.1487  -36.7274   23.2639 C   0  0  0  0  0  0
  -25.9699  -30.7727   21.3781 C   0  0  0  0  0  0
  -26.0415  -29.3982   20.7165 C   0  0  0  0  0  0
  -27.2178  -28.5870   20.7101 C   0  0  0  0  0  0
  -26.0299  -26.8649   19.4918 C   0  0  0  0  0  0
  -24.8702  -27.6659   19.4902 C   0  0  0  0  0  0
  -23.6429  -29.8105   20.1576 C   0  0  0  0  0  0
  -25.4114  -36.3063   24.0323 C   0  0  1  0  0  0
  -20.5893  -28.3692   23.1264 C   0  0  2  0  0  0
  -20.6771  -26.9409   22.5405 C   0  0  0  0  0  0
  -19.5745  -26.6380   21.5210 C   0  0  0  0  0  0
  -18.1929  -26.7928   22.1627 C   0  0  0  0  0  0
  -19.1544  -28.8857   23.2870 C   0  0  0  0  0  0
  -18.9466  -30.1459   23.8889 C   0  0  0  0  0  0
  -17.6463  -30.6588   24.0562 C   0  0  0  0  0  0
  -25.9053  -34.9437   23.5088 C   0  0  0  0  0  0
  -16.5352  -29.9081   23.6331 C   0  0  0  0  0  0
  -16.7278  -28.6497   23.0357 C   0  0  0  0  0  0
  -26.4499  -31.6593   25.0734 C   0  0  0  0  0  0
  -25.3711  -31.3761   26.1451 C   0  0  0  0  0  0
  -27.0352  -30.3004   24.6244 C   0  0  0  0  0  0
  -27.6046  -32.4337   25.7504 C   0  0  0  0  0  0
  -27.5572  -37.1795   24.8466 C   0  0  0  0  0  0
  -21.4202  -29.3039   22.3655 N   0  0  0  0  0  0
  -26.4285  -37.3763   23.9407 N   0  0  0  0  0  0
  -24.6939  -31.0535   22.0955 N   0  0  0  0  0  0
  -23.4195  -28.8144   23.3007 O   0  0  0  0  0  0
  -28.3596  -26.4431   20.1883 O   0  0  0  0  0  0
  -26.5629  -34.8912   22.4660 O   0  0  0  0  0  0
  -23.5445  -32.1376   23.7290 O   0  0  0  0  0  0
  -30.9871  -18.7767   18.3394 C   0  0  0  0  0  0
  -30.7919  -17.5412   18.9915 C   0  0  0  0  0  0
  -30.4231  -19.9720   18.8296 C   0  0  0  0  0  0
  -29.4685  -18.6980   20.6559 C   0  0  0  0  0  0
  -30.0298  -17.4373   20.1796 C   0  0  0  0  0  0
  -29.6404  -19.9839   20.0061 C   0  0  0  0  0  0
  -29.7573  -16.0471   20.8436 C   0  0  0  0  0  0
  -28.5894  -23.7957   20.3821 C   0  0  0  0  0  0
  -29.1892  -22.4659   19.7305 C   0  0  0  0  0  0
  -28.4629  -25.1183   19.4991 C   0  0  0  0  0  0
  -28.8280  -16.0131   21.7041 N   0  0  0  0  0  0
  -28.2237  -23.7991   21.5634 O   0  0  0  0  0  0
  -29.0682  -21.1929   20.4979 O   0  0  0  0  0  0
  -31.4815  -12.5668   19.1674 H   0  0  0  0  0  0
  -30.3909  -11.4475   19.9229 H   0  0  0  0  0  0
  -29.7919  -11.7557   17.5058 H   0  0  0  0  0  0
  -29.6522  -13.4795   17.7353 H   0  0  0  0  0  0
  -27.8667  -11.2985   18.8597 H   0  0  0  0  0  0
  -27.3835  -12.5862   17.7893 H   0  0  0  0  0  0
  -27.6656  -14.2552   19.5309 H   0  0  0  0  0  0
  -28.7344  -12.0228   21.3135 H   0  0  0  0  0  0
  -28.4153  -13.6106   21.8846 H   0  0  0  0  0  0
  -25.2752   -9.5687   22.4738 H   0  0  0  0  0  0
  -23.9986   -7.4643   22.7481 H   0  0  0  0  0  0
  -21.0811   -8.8766   19.8965 H   0  0  0  0  0  0
  -22.3668  -10.9659   19.6153 H   0  0  0  0  0  0
  -21.2024   -7.6150   23.9713 H   0  0  0  0  0  0
  -21.1469   -6.0524   25.9074 H   0  0  0  0  0  0
  -22.0600   -2.7608   23.2852 H   0  0  0  0  0  0
  -22.4101  -11.9913   22.4806 H   0  0  0  0  0  0
  -21.1104  -13.1285   22.2619 H   0  0  0  0  0  0
  -24.6834  -15.8555   20.5817 H   0  0  0  0  0  0
  -26.3292  -15.6244   20.2593 H   0  0  0  0  0  0
  -26.7200  -32.5405   23.1079 H   0  0  0  0  0  0
  -25.0085  -33.9696   25.0402 H   0  0  0  0  0  0
  -22.7224  -31.2998   21.3952 H   0  0  0  0  0  0
  -23.3751  -35.9607   23.3311 H   0  0  0  0  0  0
  -24.3570  -36.8890   22.2052 H   0  0  0  0  0  0
  -23.7243  -37.6475   23.6664 H   0  0  0  0  0  0
  -26.1130  -31.5368   20.6131 H   0  0  0  0  0  0
  -26.8455  -30.8154   22.0151 H   0  0  0  0  0  0
  -28.1145  -28.9443   21.1970 H   0  0  0  0  0  0
  -25.9389  -25.8960   19.0288 H   0  0  0  0  0  0
  -23.9701  -27.2947   19.0194 H   0  0  0  0  0  0
  -23.7656  -30.5860   19.4001 H   0  0  0  0  0  0
  -22.7628  -29.2412   19.8538 H   0  0  0  0  0  0
  -25.1299  -36.1906   25.0814 H   0  0  0  0  0  0
  -20.9989  -28.3272   24.1383 H   0  0  0  0  0  0
  -20.5653  -26.2305   23.3613 H   0  0  0  0  0  0
  -21.6639  -26.7419   22.1207 H   0  0  0  0  0  0
  -19.6898  -25.6287   21.1245 H   0  0  0  0  0  0
  -19.6681  -27.3185   20.6735 H   0  0  0  0  0  0
  -17.4192  -26.6674   21.4036 H   0  0  0  0  0  0
  -18.0332  -26.0073   22.9024 H   0  0  0  0  0  0
  -19.7942  -30.7281   24.2251 H   0  0  0  0  0  0
  -17.5017  -31.6270   24.5162 H   0  0  0  0  0  0
  -15.5351  -30.2982   23.7665 H   0  0  0  0  0  0
  -15.8678  -28.0817   22.7077 H   0  0  0  0  0  0
  -24.5882  -30.7118   25.7776 H   0  0  0  0  0  0
  -24.8915  -32.2943   26.4847 H   0  0  0  0  0  0
  -25.8013  -30.8951   27.0245 H   0  0  0  0  0  0
  -26.2952  -29.6754   24.1230 H   0  0  0  0  0  0
  -27.3978  -29.7268   25.4785 H   0  0  0  0  0  0
  -27.8853  -30.4268   23.9536 H   0  0  0  0  0  0
  -27.2656  -33.3641   26.2075 H   0  0  0  0  0  0
  -28.3866  -32.6899   25.0341 H   0  0  0  0  0  0
  -28.0719  -31.8478   26.5434 H   0  0  0  0  0  0
  -28.2594  -38.0085   24.7499 H   0  0  0  0  0  0
  -28.1064  -36.2616   24.6313 H   0  0  0  0  0  0
  -27.2290  -37.1464   25.8869 H   0  0  0  0  0  0
  -20.9387  -29.8762   21.6866 H   0  0  0  0  0  0
  -26.0164  -38.2835   24.1411 H   0  0  0  0  0  0
  -31.5748  -18.8067   17.4323 H   0  0  0  0  0  0
  -31.2330  -16.6662   18.5374 H   0  0  0  0  0  0
  -30.6117  -20.8770   18.2714 H   0  0  0  0  0  0
  -28.8661  -18.6860   21.5522 H   0  0  0  0  0  0
  -30.2468  -22.6596   19.5495 H   0  0  0  0  0  0
  -28.7221  -22.3302   18.7547 H   0  0  0  0  0  0
  -27.6752  -24.9663   18.7673 H   0  0  0  0  0  0
  -29.3732  -25.1638   18.9018 H   0  0  0  0  0  0
  -28.4028  -16.9239   21.8164 H   0  0  0  0  0  0
  1 25  1  0  0  0
  1 30  2  0  0  0
  1 77  1  0  0  0
  2  3  1  0  0  0
  2 25  1  0  0  0
  2 84  1  0  0  0
  2 85  1  0  0  0
  3  4  1  0  0  0
  3 86  1  0  0  0
  3 87  1  0  0  0
  4  5  1  0  0  0
  4 88  1  0  0  0
  4 89  1  0  0  0
  5  6  1  0  0  0
  5 26  1  0  0  0
  5 90  1  0  0  0
  6 25  1  0  0  0
  6 91  1  0  0  0
  6 92  1  0  0  0
  7  8  2  0  0  0
  7 26  1  0  0  0
  7 29  1  0  0  0
  8  9  1  0  0  0
  8 22  1  0  0  0
  9 10  1  0  0  0
  9 27  2  0  0  0
 10 11  2  0  0  0
 10 15  1  0  0  0
 11 12  1  0  0  0
 11 93  1  0  0  0
 12 13  2  0  0  0
 12 94  1  0  0  0
 13 14  1  0  0  0
 13 31  1  0  0  0
 14 15  2  0  0  0
 14 95  1  0  0  0
 15 96  1  0  0  0
 16 17  2  0  0  0
 16 21  1  0  0  0
 16 31  1  0  0  0
 17 18  1  0  0  0
 17 97  1  0  0  0
 18 19  2  0  0  0
 18 98  1  0  0  0
 19 20  1  0  0  0
 19 24  1  0  0  0
 20 21  2  0  0  0
 20 99  1  0  0  0
 21 23  1  0  0  0
 22 28  1  0  0  0
 22 32  2  0  0  0
 26 27  1  0  0  0
 28100  1  0  0  0
 28101  1  0  0  0
 29102  1  0  0  0
 29103  1  0  0  0
 33 34  1  0  0  0
 33 66  1  0  0  0
 33 70  2  0  0  0
 34 36  1  0  0  0
 34 59  1  0  0  0
 34104  1  0  0  0
 35 44  2  0  0  0
 35 45  1  0  0  0
 35 68  1  0  0  0
 36 56  1  0  0  0
 36105  1  0  0  0
 37 39  1  0  0  0
 37 47  1  0  0  0
 37 66  1  0  0  0
 37106  1  0  0  0
 38 43  2  0  0  0
 38 46  1  0  0  0
 38 47  1  0  0  0
 39 64  1  0  0  0
 39 67  2  0  0  0
 40 52  1  0  0  0
 40 53  2  0  0  0
 40 58  1  0  0  0
 41107  1  0  0  0
 41108  1  0  0  0
 41109  1  0  0  0
 41 48  1  0  0  0
 42 43  1  0  0  0
 42 66  1  0  0  0
 42110  1  0  0  0
 42111  1  0  0  0
 43 44  1  0  0  0
 44112  1  0  0  0
 45 46  2  0  0  0
 45113  1  0  0  0
 46114  1  0  0  0
 47115  1  0  0  0
 47116  1  0  0  0
 48 56  1  0  0  0
 48 65  1  0  0  0
 48117  1  0  0  0
 49 50  1  0  0  0
 49 53  1  0  0  0
 49 64  1  0  0  0
 49118  1  0  0  0
 50 51  1  0  0  0
 50119  1  0  0  0
 50120  1  0  0  0
 51 52  1  0  0  0
 51121  1  0  0  0
 51122  1  0  0  0
 52123  1  0  0  0
 52124  1  0  0  0
 53 54  1  0  0  0
 54 55  2  0  0  0
 54125  1  0  0  0
 55 57  1  0  0  0
 55126  1  0  0  0
 56 69  2  0  0  0
 57 58  2  0  0  0
 57127  1  0  0  0
 58128  1  0  0  0
 59 60  1  0  0  0
 59 61  1  0  0  0
 59 62  1  0  0  0
 60129  1  0  0  0
 60130  1  0  0  0
 60131  1  0  0  0
 61132  1  0  0  0
 61133  1  0  0  0
 61134  1  0  0  0
 62135  1  0  0  0
 62136  1  0  0  0
 62137  1  0  0  0
 63 65  1  0  0  0
 63138  1  0  0  0
 63139  1  0  0  0
 63140  1  0  0  0
 64141  1  0  0  0
 65142  1  0  0  0
 68 80  1  0  0  0
 71 72  2  0  0  0
 71 73  1  0  0  0
 71143  1  0  0  0
 72 75  1  0  0  0
 72144  1  0  0  0
 73 76  2  0  0  0
 73145  1  0  0  0
 74 75  2  0  0  0
 74 76  1  0  0  0
 74146  1  0  0  0
 75 77  1  0  0  0
 76 83  1  0  0  0
 77 81  2  0  0  0
 78 79  1  0  0  0
 78 80  1  0  0  0
 78 82  2  0  0  0
 79 83  1  0  0  0
 79147  1  0  0  0
 79148  1  0  0  0
 80149  1  0  0  0
 80150  1  0  0  0
 81151  1  0  0  0
M  ISO  4   1 100  68 101  77 100  80 101
M  END
> <chiral flag>
0

> <version>
0

> <s_m_source_file>
/data/baiqing/PycharmProjects/Reinvent-master-3.2/result/LINK_invent/BTK/process_docking_weight1_custom_product_contain_oxygen_bond_distance_aromatic_linkinvent_7_9_3/rearranged_h_0131.sdf

> <i_m_source_file_index>
51

> <r_mmod_Potential_Energy-OPLS-2005>
285.198577880859

> <r_mmod_Stretch_Energy-OPLS-2005>
129.425384521484

> <r_mmod_Bend_Energy-OPLS-2005>
171.633773803711

> <r_mmod_Torsional_Energy-OPLS-2005>
184.14453125

> <r_mmod_Improper_Torsional_Energy-OPLS-2005>
3.22985363006592

> <r_mmod_Van_der_Waal_Energy-OPLS-2005>
152.485549926758

> <r_mmod_Electrostatic_Energy-OPLS-2005>
-189.288772583008

> <r_mmod_Solvation_Energy-OPLS-2005>
-233.991882324219

> <b_mmod_Minimization_Converged-OPLS-2005>
0

> <r_mmod_RMS_Derivative-OPLS-2005>
1.1348397731781

$$$$
51
                    3D
 Structure written by MMmdl.
156164  0  0  1  0            999 V2000
  -30.6191  -14.6957   20.4391 C   0  0  0  0  0  0
  -30.4377  -12.4021   19.4885 C   0  0  0  0  0  0
  -29.5183  -12.4307   18.2468 C   0  0  0  0  0  0
  -28.0331  -12.3226   18.6479 C   0  0  0  0  0  0
  -27.6477  -13.2245   19.8525 C   0  0  2  0  0  0
  -28.6894  -13.1384   20.9892 C   0  0  0  0  0  0
  -25.2538  -13.8191   20.5692 C   0  0  0  0  0  0
  -24.1815  -13.0445   20.9202 C   0  0  0  0  0  0
  -24.6395  -11.6920   20.8752 C   0  0  0  0  0  0
  -23.9071  -10.4296   21.0413 C   0  0  0  0  0  0
  -24.3622   -9.4205   21.9185 C   0  0  0  0  0  0
  -23.6295   -8.2241   22.0753 C   0  0  0  0  0  0
  -22.4275   -8.0282   21.3545 C   0  0  0  0  0  0
  -21.9913   -9.0258   20.4648 C   0  0  0  0  0  0
  -22.7244  -10.2136   20.3060 C   0  0  0  0  0  0
  -21.6851   -6.0737   22.5281 C   0  0  0  0  0  0
  -21.4014   -6.5639   23.8215 C   0  0  0  0  0  0
  -21.3661   -5.6790   24.9177 C   0  0  0  0  0  0
  -21.6044   -4.3054   24.7225 C   0  0  0  0  0  0
  -21.8819   -3.8147   23.4346 C   0  0  0  0  0  0
  -21.9191   -4.6965   22.3403 C   0  0  0  0  0  0
  -22.7835  -13.5230   21.1863 C   0  0  0  0  0  0
  -22.1660   -4.2151   21.0980 F   0  0  0  0  0  0
  -21.5629   -3.4537   25.7738 F   0  0  0  0  0  0
  -29.9995  -13.4697   20.4147 N   0  0  0  0  0  0
  -26.2965  -12.9389   20.3289 N   0  0  0  0  0  0
  -25.9325  -11.6539   20.5774 N   0  0  0  0  0  0
  -22.0480  -12.8224   22.0425 N   0  0  0  0  0  0
  -25.4241  -15.1914   20.4118 N   0  0  0  0  0  0
  -31.8050  -14.8016   20.1131 O   0  0  0  0  0  0
  -21.6637   -6.8881   21.4243 O   0  0  0  0  0  0
  -22.3517  -14.5535   20.6710 O   0  0  0  0  0  0
  -24.6275  -31.8590   23.2024 C   0  0  0  0  0  0
  -25.9117  -32.4776   23.8353 C   0  0  1  0  0  0
  -27.2189  -27.2985   20.1227 C   0  0  0  0  0  0
  -25.5928  -33.8578   24.2278 N   0  0  0  0  0  0
  -23.4219  -30.4835   21.5452 C   0  0  2  0  0  0
  -24.8686  -28.9405   20.1076 C   0  0  0  0  0  0
  -22.7483  -29.4618   22.4926 C   0  0  0  0  0  0
  -18.0288  -28.1382   22.8484 C   0  0  0  0  0  0
  -24.1488  -36.7292   23.2638 C   0  0  0  0  0  0
  -25.9653  -30.7832   21.3780 C   0  0  0  0  0  0
  -26.0379  -29.4098   20.7191 C   0  0  0  0  0  0
  -27.2145  -28.5997   20.7197 C   0  0  0  0  0  0
  -26.0302  -26.8994   19.4659 C   0  0  0  0  0  0
  -24.8682  -27.6917   19.4708 C   0  0  0  0  0  0
  -23.6375  -29.8221   20.1591 C   0  0  0  0  0  0
  -25.4113  -36.3083   24.0329 C   0  0  1  0  0  0
  -20.5890  -28.3689   23.1277 C   0  0  2  0  0  0
  -20.6776  -26.9410   22.5410 C   0  0  0  0  0  0
  -19.5752  -26.6380   21.5211 C   0  0  0  0  0  0
  -18.1932  -26.7925   22.1623 C   0  0  0  0  0  0
  -19.1541  -28.8853   23.2876 C   0  0  0  0  0  0
  -18.9464  -30.1454   23.8894 C   0  0  0  0  0  0
  -17.6465  -30.6584   24.0562 C   0  0  0  0  0  0
  -25.9053  -34.9452   23.5104 C   0  0  0  0  0  0
  -16.5355  -29.9084   23.6328 C   0  0  0  0  0  0
  -16.7275  -28.6500   23.0350 C   0  0  0  0  0  0
  -26.4494  -31.6589   25.0729 C   0  0  0  0  0  0
  -25.3724  -31.3736   26.1454 C   0  0  0  0  0  0
  -27.0336  -30.3009   24.6194 C   0  0  0  0  0  0
  -27.6050  -32.4326   25.7502 C   0  0  0  0  0  0
  -27.5579  -37.1803   24.8464 C   0  0  0  0  0  0
  -21.4195  -29.3042   22.3669 N   0  0  0  0  0  0
  -26.4291  -37.3777   23.9408 N   0  0  0  0  0  0
  -24.6903  -31.0589   22.0984 N   0  0  0  0  0  0
  -23.4201  -28.8155   23.3008 O   0  0  0  0  0  0
  -28.3188  -26.4203   20.2066 O   0  0  0  0  0  0
  -26.5621  -34.8919   22.4670 O   0  0  0  0  0  0
  -23.5434  -32.1399   23.7339 O   0  0  0  0  0  0
  -29.8362  -19.6986   18.6634 C   0  0  0  0  0  0
  -29.9561  -18.5019   17.9427 C   0  0  0  0  0  0
  -29.7122  -18.3971   20.7147 C   0  0  0  0  0  0
  -29.6788  -19.6944   20.0615 C   0  0  0  0  0  0
  -29.9505  -17.2442   18.5793 C   0  0  0  0  0  0
  -29.8791  -17.1426   20.0002 C   0  0  0  0  0  0
  -29.9443  -16.0326   17.6667 C   0  0  0  0  0  0
  -29.5750  -21.0945   20.7920 C   0  0  0  0  0  0
  -28.8011  -22.3230   20.0929 C   0  0  0  0  0  0
  -29.0486  -23.8378   20.5696 C   0  0  0  0  0  0
  -28.0937  -24.9672   19.9588 C   0  0  0  0  0  0
  -29.8370  -15.8148   20.6550 N   0  0  0  0  0  0
  -31.4799  -12.5175   19.1859 H   0  0  0  0  0  0
  -30.3797  -11.4322   19.9847 H   0  0  0  0  0  0
  -29.7756  -11.6053   17.5815 H   0  0  0  0  0  0
  -29.6937  -13.3299   17.6644 H   0  0  0  0  0  0
  -27.8493  -11.2782   18.9018 H   0  0  0  0  0  0
  -27.3931  -12.5405   17.7921 H   0  0  0  0  0  0
  -27.6495  -14.2486   19.4801 H   0  0  0  0  0  0
  -28.7065  -12.1379   21.4236 H   0  0  0  0  0  0
  -28.4323  -13.8182   21.8029 H   0  0  0  0  0  0
  -25.2770   -9.5675   22.4756 H   0  0  0  0  0  0
  -24.0006   -7.4627   22.7466 H   0  0  0  0  0  0
  -21.0846   -8.8780   19.8950 H   0  0  0  0  0  0
  -22.3708  -10.9675   19.6168 H   0  0  0  0  0  0
  -21.2007   -7.6147   23.9722 H   0  0  0  0  0  0
  -21.1483   -6.0518   25.9081 H   0  0  0  0  0  0
  -22.0597   -2.7610   23.2845 H   0  0  0  0  0  0
  -22.4095  -11.9890   22.4822 H   0  0  0  0  0  0
  -21.1097  -13.1248   22.2626 H   0  0  0  0  0  0
  -24.6569  -15.8455   20.5233 H   0  0  0  0  0  0
  -26.2740  -15.6329   20.0846 H   0  0  0  0  0  0
  -26.7183  -32.5439   23.1098 H   0  0  0  0  0  0
  -25.0073  -33.9722   25.0420 H   0  0  0  0  0  0
  -22.7163  -31.3047   21.4033 H   0  0  0  0  0  0
  -23.3751  -35.9624   23.3302 H   0  0  0  0  0  0
  -24.3578  -36.8910   22.2052 H   0  0  0  0  0  0
  -23.7242  -37.6495   23.6658 H   0  0  0  0  0  0
  -26.1004  -31.5461   20.6101 H   0  0  0  0  0  0
  -26.8446  -30.8308   22.0088 H   0  0  0  0  0  0
  -28.1069  -28.9510   21.2185 H   0  0  0  0  0  0
  -25.9640  -25.9532   18.9506 H   0  0  0  0  0  0
  -23.9754  -27.3303   18.9790 H   0  0  0  0  0  0
  -23.7579  -30.6007   19.4049 H   0  0  0  0  0  0
  -22.7569  -29.2536   19.8547 H   0  0  0  0  0  0
  -25.1293  -36.1935   25.0822 H   0  0  0  0  0  0
  -20.9983  -28.3266   24.1397 H   0  0  0  0  0  0
  -20.5670  -26.2301   23.3612 H   0  0  0  0  0  0
  -21.6646  -26.7432   22.1209 H   0  0  0  0  0  0
  -19.6914  -25.6290   21.1243 H   0  0  0  0  0  0
  -19.6689  -27.3188   20.6739 H   0  0  0  0  0  0
  -17.4201  -26.6667   21.4028 H   0  0  0  0  0  0
  -18.0336  -26.0069   22.9022 H   0  0  0  0  0  0
  -19.7942  -30.7267   24.2265 H   0  0  0  0  0  0
  -17.5021  -31.6265   24.5162 H   0  0  0  0  0  0
  -15.5356  -30.2985   23.7653 H   0  0  0  0  0  0
  -15.8676  -28.0818   22.7068 H   0  0  0  0  0  0
  -24.5898  -30.7083   25.7788 H   0  0  0  0  0  0
  -24.8917  -32.2906   26.4871 H   0  0  0  0  0  0
  -25.8046  -30.8922   27.0235 H   0  0  0  0  0  0
  -26.2915  -29.6765   24.1204 H   0  0  0  0  0  0
  -27.4012  -29.7259   25.4704 H   0  0  0  0  0  0
  -27.8795  -30.4289   23.9436 H   0  0  0  0  0  0
  -27.2656  -33.3624   26.2077 H   0  0  0  0  0  0
  -28.3862  -32.6889   25.0334 H   0  0  0  0  0  0
  -28.0715  -31.8454   26.5422 H   0  0  0  0  0  0
  -28.2597  -38.0100   24.7509 H   0  0  0  0  0  0
  -28.1074  -36.2632   24.6289 H   0  0  0  0  0  0
  -27.2298  -37.1454   25.8867 H   0  0  0  0  0  0
  -20.9372  -29.8773   21.6886 H   0  0  0  0  0  0
  -26.0172  -38.2852   24.1408 H   0  0  0  0  0  0
  -29.8647  -20.6238   18.1081 H   0  0  0  0  0  0
  -30.0328  -18.5614   16.8656 H   0  0  0  0  0  0
  -29.6157  -18.3659   21.7911 H   0  0  0  0  0  0
  -29.8265  -16.3143   16.6202 H   0  0  0  0  0  0
  -29.0970  -15.3980   17.9187 H   0  0  0  0  0  0
  -30.8721  -15.4677   17.7436 H   0  0  0  0  0  0
  -30.6031  -21.4097   20.9729 H   0  0  0  0  0  0
  -29.1478  -20.9307   21.7820 H   0  0  0  0  0  0
  -27.7328  -22.1107   20.1465 H   0  0  0  0  0  0
  -29.0291  -22.3291   19.0297 H   0  0  0  0  0  0
  -30.0823  -24.1008   20.3443 H   0  0  0  0  0  0
  -28.9663  -23.8788   21.6559 H   0  0  0  0  0  0
  -27.1004  -24.7008   20.3219 H   0  0  0  0  0  0
  -28.0677  -24.8339   18.8765 H   0  0  0  0  0  0
  -28.9748  -15.6179   21.1406 H   0  0  0  0  0  0
  1 25  1  0  0  0
  1 30  2  0  0  0
  1 82  1  0  0  0
  2  3  1  0  0  0
  2 25  1  0  0  0
  2 83  1  0  0  0
  2 84  1  0  0  0
  3  4  1  0  0  0
  3 85  1  0  0  0
  3 86  1  0  0  0
  4  5  1  0  0  0
  4 87  1  0  0  0
  4 88  1  0  0  0
  5  6  1  0  0  0
  5 26  1  0  0  0
  5 89  1  0  0  0
  6 25  1  0  0  0
  6 90  1  0  0  0
  6 91  1  0  0  0
  7  8  2  0  0  0
  7 26  1  0  0  0
  7 29  1  0  0  0
  8  9  1  0  0  0
  8 22  1  0  0  0
  9 10  1  0  0  0
  9 27  2  0  0  0
 10 11  2  0  0  0
 10 15  1  0  0  0
 11 12  1  0  0  0
 11 92  1  0  0  0
 12 13  2  0  0  0
 12 93  1  0  0  0
 13 14  1  0  0  0
 13 31  1  0  0  0
 14 15  2  0  0  0
 14 94  1  0  0  0
 15 95  1  0  0  0
 16 17  2  0  0  0
 16 21  1  0  0  0
 16 31  1  0  0  0
 17 18  1  0  0  0
 17 96  1  0  0  0
 18 19  2  0  0  0
 18 97  1  0  0  0
 19 20  1  0  0  0
 19 24  1  0  0  0
 20 21  2  0  0  0
 20 98  1  0  0  0
 21 23  1  0  0  0
 22 28  1  0  0  0
 22 32  2  0  0  0
 26 27  1  0  0  0
 28 99  1  0  0  0
 28100  1  0  0  0
 29101  1  0  0  0
 29102  1  0  0  0
 33 34  1  0  0  0
 33 66  1  0  0  0
 33 70  2  0  0  0
 34 36  1  0  0  0
 34 59  1  0  0  0
 34103  1  0  0  0
 35 44  2  0  0  0
 35 45  1  0  0  0
 35 68  1  0  0  0
 36 56  1  0  0  0
 36104  1  0  0  0
 37 39  1  0  0  0
 37 47  1  0  0  0
 37 66  1  0  0  0
 37105  1  0  0  0
 38 43  2  0  0  0
 38 46  1  0  0  0
 38 47  1  0  0  0
 39 64  1  0  0  0
 39 67  2  0  0  0
 40 52  1  0  0  0
 40 53  2  0  0  0
 40 58  1  0  0  0
 41106  1  0  0  0
 41107  1  0  0  0
 41108  1  0  0  0
 41 48  1  0  0  0
 42 43  1  0  0  0
 42 66  1  0  0  0
 42109  1  0  0  0
 42110  1  0  0  0
 43 44  1  0  0  0
 44111  1  0  0  0
 45 46  2  0  0  0
 45112  1  0  0  0
 46113  1  0  0  0
 47114  1  0  0  0
 47115  1  0  0  0
 48 56  1  0  0  0
 48 65  1  0  0  0
 48116  1  0  0  0
 49 50  1  0  0  0
 49 53  1  0  0  0
 49 64  1  0  0  0
 49117  1  0  0  0
 50 51  1  0  0  0
 50118  1  0  0  0
 50119  1  0  0  0
 51 52  1  0  0  0
 51120  1  0  0  0
 51121  1  0  0  0
 52122  1  0  0  0
 52123  1  0  0  0
 53 54  1  0  0  0
 54 55  2  0  0  0
 54124  1  0  0  0
 55 57  1  0  0  0
 55125  1  0  0  0
 56 69  2  0  0  0
 57 58  2  0  0  0
 57126  1  0  0  0
 58127  1  0  0  0
 59 60  1  0  0  0
 59 61  1  0  0  0
 59 62  1  0  0  0
 60128  1  0  0  0
 60129  1  0  0  0
 60130  1  0  0  0
 61131  1  0  0  0
 61132  1  0  0  0
 61133  1  0  0  0
 62134  1  0  0  0
 62135  1  0  0  0
 62136  1  0  0  0
 63 65  1  0  0  0
 63137  1  0  0  0
 63138  1  0  0  0
 63139  1  0  0  0
 64140  1  0  0  0
 65141  1  0  0  0
 68 81  1  0  0  0
 71 72  2  0  0  0
 71 74  1  0  0  0
 71142  1  0  0  0
 72 75  1  0  0  0
 72143  1  0  0  0
 73 74  2  0  0  0
 73 76  1  0  0  0
 73144  1  0  0  0
 74 78  1  0  0  0
 75 76  2  0  0  0
 75 77  1  0  0  0
 76 82  1  0  0  0
 77145  1  0  0  0
 77146  1  0  0  0
 77147  1  0  0  0
 78 79  1  0  0  0
 78148  1  0  0  0
 78149  1  0  0  0
 79 80  1  0  0  0
 79150  1  0  0  0
 79151  1  0  0  0
 80 81  1  0  0  0
 80152  1  0  0  0
 80153  1  0  0  0
 81154  1  0  0  0
 81155  1  0  0  0
 82156  1  0  0  0
M  ISO  4   1 100  68 101  81 101  82 100
M  END
> <chiral flag>
0

> <version>
0

> <s_m_source_file>
/data/baiqing/PycharmProjects/Reinvent-master-3.2/result/LINK_invent/BTK/process_docking_weight1_custom_product_contain_oxygen_bond_distance_aromatic_linkinvent_7_9_3/rearranged_h_0131.sdf

> <i_m_source_file_index>
52

> <r_mmod_Potential_Energy-OPLS-2005>
125.623222351074

> <r_mmod_Stretch_Energy-OPLS-2005>
101.977119445801

> <r_mmod_Bend_Energy-OPLS-2005>
141.998931884766

> <r_mmod_Torsional_Energy-OPLS-2005>
243.21728515625

> <r_mmod_Improper_Torsional_Energy-OPLS-2005>
5.56820583343506

> <r_mmod_Van_der_Waal_Energy-OPLS-2005>
146.844650268555

> <r_mmod_Electrostatic_Energy-OPLS-2005>
-377.535827636719

> <r_mmod_Solvation_Energy-OPLS-2005>
-205.289993286133

> <b_mmod_Minimization_Converged-OPLS-2005>
0

> <r_mmod_RMS_Derivative-OPLS-2005>
0.365159332752228

$$$$
52
                    3D
 Structure written by MMmdl.
157165  0  0  1  0            999 V2000
  -30.8223  -14.3067   20.7945 C   0  0  0  0  0  0
  -30.5741  -12.3056   19.2816 C   0  0  0  0  0  0
  -29.5776  -12.4844   18.0856 C   0  0  0  0  0  0
  -28.0742  -12.5729   18.4720 C   0  0  0  0  0  0
  -27.9900  -13.5446   19.6491 C   0  0  2  0  0  0
  -28.8307  -12.8322   20.7471 C   0  0  0  0  0  0
  -24.9757  -14.6728   19.6446 C   0  0  0  0  0  0
  -23.9328  -13.9123   20.8584 C   0  0  0  0  0  0
  -24.6563  -12.5939   21.6904 C   0  0  0  0  0  0
  -24.0219  -11.0193   21.4780 C   0  0  0  0  0  0
  -24.4394   -9.8166   22.1724 C   0  0  0  0  0  0
  -23.7700   -8.5267   22.1653 C   0  0  0  0  0  0
  -22.5956   -8.2667   21.4126 C   0  0  0  0  0  0
  -22.2361   -9.3445   20.5621 C   0  0  0  0  0  0
  -22.9279  -10.6218   20.5822 C   0  0  0  0  0  0
  -21.7847   -6.1845   22.5021 C   0  0  0  0  0  0
  -21.4698   -6.6328   23.8075 C   0  0  0  0  0  0
  -21.3811   -5.7255   24.8885 C   0  0  0  0  0  0
  -21.5990   -4.3503   24.6856 C   0  0  0  0  0  0
  -21.8691   -3.8814   23.3891 C   0  0  0  0  0  0
  -21.9482   -4.7851   22.3068 C   0  0  0  0  0  0
  -22.4905  -13.9894   21.0549 C   0  0  0  0  0  0
  -22.1829   -4.2882   21.0684 F   0  0  0  0  0  0
  -21.5405   -3.4834   25.7276 F   0  0  0  0  0  0
  -30.1959  -13.1546   20.4213 N   0  0  0  0  0  0
  -26.7018  -13.8392   20.1384 N   0  0  0  0  0  0
  -26.2504  -12.7727   21.4621 N   0  0  0  0  0  0
  -21.8987  -13.1335   21.8998 N   0  0  0  0  0  0
  -24.9837  -15.7805   18.9233 N   0  0  0  0  0  0
  -31.8889  -14.6675   20.2857 O   0  0  0  0  0  0
  -21.8600   -7.0624   21.4178 O   0  0  0  0  0  0
  -21.8934  -14.8538   20.4667 O   0  0  0  0  0  0
  -24.7250  -31.7367   23.1210 C   0  0  0  0  0  0
  -25.9673  -32.4097   23.7849 C   0  0  1  0  0  0
  -26.6042  -25.8989   20.4989 C   0  0  0  0  0  0
  -25.6076  -33.7995   24.1635 N   0  0  0  0  0  0
  -23.5451  -30.3519   21.4883 C   0  0  2  0  0  0
  -24.9088  -28.5616   20.1170 C   0  0  0  0  0  0
  -22.7811  -29.4037   22.4534 C   0  0  0  0  0  0
  -18.0319  -28.1428   22.8427 C   0  0  0  0  0  0
  -24.1489  -36.6992   23.2654 C   0  0  0  0  0  0
  -26.1205  -30.1837   21.5131 C   0  0  0  0  0  0
  -26.0560  -28.6758   20.8980 C   0  0  0  0  0  0
  -26.8973  -27.3799   21.0456 C   0  0  0  0  0  0
  -25.6228  -26.2102   19.5152 C   0  0  0  0  0  0
  -24.7985  -27.3799   19.3694 C   0  0  0  0  0  0
  -23.8108  -29.6544   20.1154 C   0  0  0  0  0  0
  -25.4164  -36.2694   24.0228 C   0  0  1  0  0  0
  -20.5953  -28.3785   23.1066 C   0  0  2  0  0  0
  -20.6770  -26.9413   22.5399 C   0  0  0  0  0  0
  -19.5765  -26.6343   21.5207 C   0  0  0  0  0  0
  -18.1940  -26.7942   22.1602 C   0  0  0  0  0  0
  -19.1590  -28.8945   23.2716 C   0  0  0  0  0  0
  -18.9507  -30.1518   23.8783 C   0  0  0  0  0  0
  -17.6502  -30.6613   24.0538 C   0  0  0  0  0  0
  -25.9203  -34.9106   23.4799 C   0  0  0  0  0  0
  -16.5385  -29.9094   23.6364 C   0  0  0  0  0  0
  -16.7298  -28.6516   23.0370 C   0  0  0  0  0  0
  -26.4696  -31.6440   25.0727 C   0  0  0  0  0  0
  -25.3612  -31.3935   26.1223 C   0  0  0  0  0  0
  -27.0780  -30.2741   24.7143 C   0  0  0  0  0  0
  -27.6021  -32.4475   25.7536 C   0  0  0  0  0  0
  -27.5545  -37.1644   24.8450 C   0  0  0  0  0  0
  -21.4433  -29.2962   22.3312 N   0  0  0  0  0  0
  -26.4218  -37.3542   23.9431 N   0  0  0  0  0  0
  -24.8346  -30.8172   22.0847 N   0  0  0  0  0  0
  -23.4092  -28.7642   23.3007 O   0  0  0  0  0  0
  -27.0230  -24.2366   20.7067 O   0  0  0  0  0  0
  -26.5917  -34.8797   22.4469 O   0  0  0  0  0  0
  -23.6216  -32.0859   23.5829 O   0  0  0  0  0  0
  -29.3904  -14.8519   22.8684 C   0  0  0  0  0  0
  -27.9815  -14.9979   23.0229 C   0  0  0  0  0  0
  -27.9917  -16.4149   21.0657 C   0  0  0  0  0  0
  -29.9974  -15.2643   21.6460 C   0  0  0  0  0  0
  -27.2563  -15.5972   21.9702 C   0  0  0  0  0  0
  -29.3824  -16.3253   20.9552 C   0  0  0  0  0  0
  -30.0578  -16.6656   18.4813 C   0  0  0  0  0  0
  -25.7508  -15.2692   21.5845 C   0  0  0  0  0  0
  -30.1189  -17.1791   19.9307 C   0  0  0  0  0  0
  -25.5973  -17.6516   21.3204 C   0  0  0  0  0  0
  -26.4110  -19.8722   21.0743 C   0  0  0  0  0  0
  -26.2991  -22.2434   20.8797 C   0  0  0  0  0  0
  -31.5898  -12.5323   18.9520 H   0  0  0  0  0  0
  -30.6025  -11.2649   19.6053 H   0  0  0  0  0  0
  -29.7297  -11.6832   17.3622 H   0  0  0  0  0  0
  -29.8486  -13.4070   17.5717 H   0  0  0  0  0  0
  -27.6720  -11.5918   18.7293 H   0  0  0  0  0  0
  -27.4927  -12.9383   17.6251 H   0  0  0  0  0  0
  -28.4034  -14.4964   19.3298 H   0  0  0  0  0  0
  -28.6851  -11.7512   20.6923 H   0  0  0  0  0  0
  -28.5891  -12.9616   21.7829 H   0  0  0  0  0  0
  -25.2880   -9.9251   22.8340 H   0  0  0  0  0  0
  -24.1686   -7.7455   22.7995 H   0  0  0  0  0  0
  -21.3938   -9.2235   19.8947 H   0  0  0  0  0  0
  -22.5341  -11.3779   19.9180 H   0  0  0  0  0  0
  -21.3061   -7.6863   23.9841 H   0  0  0  0  0  0
  -21.1568   -6.0907   25.8800 H   0  0  0  0  0  0
  -22.0156   -2.8254   23.2202 H   0  0  0  0  0  0
  -22.4032  -12.3910   22.3583 H   0  0  0  0  0  0
  -20.9003  -13.1994   22.0442 H   0  0  0  0  0  0
  -24.1546  -16.3202   18.7126 H   0  0  0  0  0  0
  -25.8168  -16.1371   18.4707 H   0  0  0  0  0  0
  -26.7747  -32.4360   23.0515 H   0  0  0  0  0  0
  -25.0035  -33.8959   24.9665 H   0  0  0  0  0  0
  -22.9032  -31.2135   21.2948 H   0  0  0  0  0  0
  -23.3825  -35.9234   23.3135 H   0  0  0  0  0  0
  -24.3545  -36.8885   22.2103 H   0  0  0  0  0  0
  -23.7155  -37.6055   23.6907 H   0  0  0  0  0  0
  -26.4431  -30.8367   20.7010 H   0  0  0  0  0  0
  -26.9467  -30.2198   22.2027 H   0  0  0  0  0  0
  -27.7117  -27.4561   21.7519 H   0  0  0  0  0  0
  -25.3158  -25.3722   18.9071 H   0  0  0  0  0  0
  -23.9706  -27.3046   18.6760 H   0  0  0  0  0  0
  -24.1050  -30.4121   19.3878 H   0  0  0  0  0  0
  -22.8803  -29.2295   19.7321 H   0  0  0  0  0  0
  -25.1388  -36.1353   25.0709 H   0  0  0  0  0  0
  -21.0035  -28.3462   24.1196 H   0  0  0  0  0  0
  -20.5633  -26.2404   23.3679 H   0  0  0  0  0  0
  -21.6619  -26.7324   22.1212 H   0  0  0  0  0  0
  -19.6910  -25.6231   21.1294 H   0  0  0  0  0  0
  -19.6724  -27.3108   20.6704 H   0  0  0  0  0  0
  -17.4199  -26.6655   21.4011 H   0  0  0  0  0  0
  -18.0326  -26.0125   22.9044 H   0  0  0  0  0  0
  -19.7994  -30.7342   24.2100 H   0  0  0  0  0  0
  -17.5068  -31.6288   24.5151 H   0  0  0  0  0  0
  -15.5388  -30.2971   23.7778 H   0  0  0  0  0  0
  -15.8671  -28.0819   22.7157 H   0  0  0  0  0  0
  -24.5757  -30.7358   25.7467 H   0  0  0  0  0  0
  -24.8865  -32.3236   26.4376 H   0  0  0  0  0  0
  -25.7624  -30.9205   27.0194 H   0  0  0  0  0  0
  -26.3560  -29.6000   24.2518 H   0  0  0  0  0  0
  -27.4310  -29.7613   25.6102 H   0  0  0  0  0  0
  -27.9520  -30.3754   24.0693 H   0  0  0  0  0  0
  -27.2486  -33.3925   26.1680 H   0  0  0  0  0  0
  -28.4038  -32.6800   25.0507 H   0  0  0  0  0  0
  -28.0466  -31.8921   26.5806 H   0  0  0  0  0  0
  -28.2414  -38.0083   24.7645 H   0  0  0  0  0  0
  -28.1199  -36.2612   24.6104 H   0  0  0  0  0  0
  -27.2284  -37.1034   25.8850 H   0  0  0  0  0  0
  -20.9781  -29.8620   21.6341 H   0  0  0  0  0  0
  -25.9982  -38.2536   24.1554 H   0  0  0  0  0  0
  -29.8725  -14.1007   23.4785 H   0  0  0  0  0  0
  -27.4637  -14.4207   23.7762 H   0  0  0  0  0  0
  -27.5262  -16.9529   20.2539 H   0  0  0  0  0  0
  -30.3685  -15.6258   18.3928 H   0  0  0  0  0  0
  -29.0537  -16.7529   18.0680 H   0  0  0  0  0  0
  -30.7316  -17.2442   17.8463 H   0  0  0  0  0  0
  -25.2791  -15.0711   22.5528 H   0  0  0  0  0  0
  -25.1960  -12.9368   19.9396 H   0  0  0  0  0  0
  -31.1539  -17.2748   20.2616 H   0  0  0  0  0  0
  -29.7063  -18.1880   19.9645 H   0  0  0  0  0  0
  -25.1139  -17.8207   22.2824 H   0  0  0  0  0  0
  -24.7492  -17.7086   20.6425 H   0  0  0  0  0  0
  -26.9772  -19.7010   20.1608 H   0  0  0  0  0  0
  -27.1646  -19.8248   21.8605 H   0  0  0  0  0  0
  -25.7491  -22.4283   21.8020 H   0  0  0  0  0  0
  -25.5274  -22.3130   20.1141 H   0  0  0  0  0  0
  1 25  1  0  0  0
  1 30  2  0  0  0
  1 74  1  0  0  0
  2  3  1  0  0  0
  2 25  1  0  0  0
  2 83  1  0  0  0
  2 84  1  0  0  0
  3  4  1  0  0  0
  3 85  1  0  0  0
  3 86  1  0  0  0
  4  5  1  0  0  0
  4 87  1  0  0  0
  4 88  1  0  0  0
  5  6  1  0  0  0
  5 26  1  0  0  0
  5 89  1  0  0  0
  6 25  1  0  0  0
  6 90  1  0  0  0
  6 91  1  0  0  0
  7  8  2  0  0  0
  7 26  1  0  0  0
  7 29  1  0  0  0
  8  9  1  0  0  0
  8 22  1  0  0  0
  9 10  1  0  0  0
  9 27  2  0  0  0
 10 11  2  0  0  0
 10 15  1  0  0  0
 11 12  1  0  0  0
 11 92  1  0  0  0
 12 13  2  0  0  0
 12 93  1  0  0  0
 13 14  1  0  0  0
 13 31  1  0  0  0
 14 15  2  0  0  0
 14 94  1  0  0  0
 15 95  1  0  0  0
 16 17  2  0  0  0
 16 21  1  0  0  0
 16 31  1  0  0  0
 17 18  1  0  0  0
 17 96  1  0  0  0
 18 19  2  0  0  0
 18 97  1  0  0  0
 19 20  1  0  0  0
 19 24  1  0  0  0
 20 21  2  0  0  0
 20 98  1  0  0  0
 21 23  1  0  0  0
 22 28  1  0  0  0
 22 32  2  0  0  0
 26 27  1  0  0  0
 28 99  1  0  0  0
 28100  1  0  0  0
 29101  1  0  0  0
 29102  1  0  0  0
 33 34  1  0  0  0
 33 66  1  0  0  0
 33 70  2  0  0  0
 34 36  1  0  0  0
 34 59  1  0  0  0
 34103  1  0  0  0
 35 44  2  0  0  0
 35 45  1  0  0  0
 35 68  1  0  0  0
 36 56  1  0  0  0
 36104  1  0  0  0
 37 39  1  0  0  0
 37 47  1  0  0  0
 37 66  1  0  0  0
 37105  1  0  0  0
 38 43  2  0  0  0
 38 46  1  0  0  0
 38 47  1  0  0  0
 39 64  1  0  0  0
 39 67  2  0  0  0
 40 52  1  0  0  0
 40 53  2  0  0  0
 40 58  1  0  0  0
 41106  1  0  0  0
 41107  1  0  0  0
 41108  1  0  0  0
 41 48  1  0  0  0
 42 43  1  0  0  0
 42 66  1  0  0  0
 42109  1  0  0  0
 42110  1  0  0  0
 43 44  1  0  0  0
 44111  1  0  0  0
 45 46  2  0  0  0
 45112  1  0  0  0
 46113  1  0  0  0
 47114  1  0  0  0
 47115  1  0  0  0
 48 56  1  0  0  0
 48 65  1  0  0  0
 48116  1  0  0  0
 49 50  1  0  0  0
 49 53  1  0  0  0
 49 64  1  0  0  0
 49117  1  0  0  0
 50 51  1  0  0  0
 50118  1  0  0  0
 50119  1  0  0  0
 51 52  1  0  0  0
 51120  1  0  0  0
 51121  1  0  0  0
 52122  1  0  0  0
 52123  1  0  0  0
 53 54  1  0  0  0
 54 55  2  0  0  0
 54124  1  0  0  0
 55 57  1  0  0  0
 55125  1  0  0  0
 56 69  2  0  0  0
 57 58  2  0  0  0
 57126  1  0  0  0
 58127  1  0  0  0
 59 60  1  0  0  0
 59 61  1  0  0  0
 59 62  1  0  0  0
 60128  1  0  0  0
 60129  1  0  0  0
 60130  1  0  0  0
 61131  1  0  0  0
 61132  1  0  0  0
 61133  1  0  0  0
 62134  1  0  0  0
 62135  1  0  0  0
 62136  1  0  0  0
 63 65  1  0  0  0
 63137  1  0  0  0
 63138  1  0  0  0
 63139  1  0  0  0
 64140  1  0  0  0
 65141  1  0  0  0
 68 82  1  0  0  0
 71 72  2  0  0  0
 71 74  1  0  0  0
 71142  1  0  0  0
 72 75  1  0  0  0
 72143  1  0  0  0
 73 75  2  0  0  0
 73 76  1  0  0  0
 73144  1  0  0  0
 74 76  2  0  0  0
 75 78  1  0  0  0
 76 79  1  0  0  0
 77 79  1  0  0  0
 77145  1  0  0  0
 77146  1  0  0  0
 77147  1  0  0  0
 78 80  1  0  0  0
 78148  1  0  0  0
 78149  1  0  0  0
 79150  1  0  0  0
 79151  1  0  0  0
 80 81  1  0  0  0
 80152  1  0  0  0
 80153  1  0  0  0
 81 82  1  0  0  0
 81154  1  0  0  0
 81155  1  0  0  0
 82156  1  0  0  0
 82157  1  0  0  0
M  ISO  4   1 100  68 101  74 100  82 101
M  END
> <chiral flag>
0

> <version>
0

> <s_m_source_file>
/data/baiqing/PycharmProjects/Reinvent-master-3.2/result/LINK_invent/BTK/process_docking_weight1_custom_product_contain_oxygen_bond_distance_aromatic_linkinvent_7_9_3/rearranged_h_0131.sdf

> <i_m_source_file_index>
53

> <r_mmod_Potential_Energy-OPLS-2005>
16600.1796875

> <r_mmod_Stretch_Energy-OPLS-2005>
10089.71484375

> <r_mmod_Bend_Energy-OPLS-2005>
1172.90893554688

> <r_mmod_Torsional_Energy-OPLS-2005>
479.32568359375

> <r_mmod_Improper_Torsional_Energy-OPLS-2005>
47.8941497802734

> <r_mmod_Van_der_Waal_Energy-OPLS-2005>
2329.54150390625

> <r_mmod_Electrostatic_Energy-OPLS-2005>
-287.550964355469

> <r_mmod_Solvation_Energy-OPLS-2005>
-188.734130859375

> <b_mmod_Minimization_Converged-OPLS-2005>
0

> <r_mmod_RMS_Derivative-OPLS-2005>
6.84176731109619

$$$$
53
                    3D
 Structure written by MMmdl.
161169  0  0  1  0            999 V2000
  -27.4641  -17.7427   21.1054 C   0  0  0  0  0  0
  -29.3023  -15.1150   19.9059 C   0  0  0  0  0  0
  -29.2872  -13.7665   18.8628 C   0  0  0  0  0  0
  -28.2797  -12.6786   19.2070 C   0  0  0  0  0  0
  -27.3262  -13.5409   20.0090 C   0  0  2  0  0  0
  -27.8135  -14.5050   21.1992 C   0  0  0  0  0  0
  -25.0244  -13.8287   20.5552 C   0  0  0  0  0  0
  -24.0351  -13.0068   20.9335 C   0  0  0  0  0  0
  -24.5706  -11.6791   20.8892 C   0  0  0  0  0  0
  -23.8794  -10.4082   21.0458 C   0  0  0  0  0  0
  -24.3476   -9.4102   21.9230 C   0  0  0  0  0  0
  -23.6214   -8.2111   22.0781 C   0  0  0  0  0  0
  -22.4199   -8.0123   21.3549 C   0  0  0  0  0  0
  -21.9774   -9.0039   20.4630 C   0  0  0  0  0  0
  -22.7041  -10.1921   20.3039 C   0  0  0  0  0  0
  -21.6827   -6.0665   22.5301 C   0  0  0  0  0  0
  -21.4005   -6.5609   23.8227 C   0  0  0  0  0  0
  -21.3642   -5.6771   24.9193 C   0  0  0  0  0  0
  -21.6029   -4.3033   24.7246 C   0  0  0  0  0  0
  -21.8822   -3.8112   23.4376 C   0  0  0  0  0  0
  -21.9183   -4.6907   22.3429 C   0  0  0  0  0  0
  -22.6497  -13.4713   21.2073 C   0  0  0  0  0  0
  -22.1654   -4.2093   21.1003 F   0  0  0  0  0  0
  -21.5619   -3.4528   25.7781 F   0  0  0  0  0  0
  -27.9760  -16.0104   20.7090 N   0  0  0  0  0  0
  -26.0962  -13.0035   20.3620 N   0  0  0  0  0  0
  -25.8674  -11.6921   20.5888 N   0  0  0  0  0  0
  -21.9425  -12.7768   22.0819 N   0  0  0  0  0  0
  -25.0999  -15.2091   20.3573 N   0  0  0  0  0  0
  -28.8138  -17.6976   20.8744 O   0  0  0  0  0  0
  -21.6585   -6.8740   21.4239 O   0  0  0  0  0  0
  -22.2189  -14.5052   20.6972 O   0  0  0  0  0  0
  -24.6851  -31.9097   23.2548 C   0  0  0  0  0  0
  -25.9428  -32.5162   23.9095 C   0  0  1  0  0  0
  -27.0676  -27.5589   19.8727 C   0  0  0  0  0  0
  -25.6121  -33.8887   24.2847 N   0  0  0  0  0  0
  -23.7299  -30.3515   21.6400 C   0  0  2  0  0  0
  -25.1574  -29.4696   19.8119 C   0  0  0  0  0  0
  -23.8215  -28.9874   22.4368 C   0  0  0  0  0  0
  -18.5041  -26.6077   23.1292 C   0  0  0  0  0  0
  -24.1496  -36.7347   23.2598 C   0  0  0  0  0  0
  -26.1636  -30.8553   21.5596 C   0  0  0  0  0  0
  -26.1901  -29.6103   20.7175 C   0  0  0  0  0  0
  -27.1105  -28.5619   20.8557 C   0  0  0  0  0  0
  -26.4092  -27.7482   18.6894 C   0  0  0  0  0  0
  -25.3527  -28.6580   18.7043 C   0  0  0  0  0  0
  -23.9629  -30.3046   20.0939 C   0  0  0  0  0  0
  -25.4080  -36.3208   24.0370 C   0  0  1  0  0  0
  -22.6306  -26.3678   21.7829 C   0  0  2  0  0  0
  -21.7968  -24.9142   20.4163 C   0  0  0  0  0  0
  -19.7452  -24.0916   20.8265 C   0  0  0  0  0  0
  -18.4028  -25.0873   22.1080 C   0  0  0  0  0  0
  -19.9103  -27.0151   23.7502 C   0  0  0  0  0  0
  -19.5784  -28.5227   24.2133 C   0  0  0  0  0  0
  -18.4164  -29.4239   24.0951 C   0  0  0  0  0  0
  -25.9005  -34.9574   23.5299 C   0  0  0  0  0  0
  -17.2225  -28.9254   23.5756 C   0  0  0  0  0  0
  -17.3190  -27.5616   23.1266 C   0  0  0  0  0  0
  -26.4547  -31.6779   25.1412 C   0  0  0  0  0  0
  -25.3619  -31.4022   26.1999 C   0  0  0  0  0  0
  -27.0591  -30.3140   24.7212 C   0  0  0  0  0  0
  -27.6038  -32.4527   25.8169 C   0  0  0  0  0  0
  -27.5633  -37.1812   24.8444 C   0  0  0  0  0  0
  -23.7201  -27.7219   21.8098 N   0  0  0  0  0  0
  -26.4317  -37.3837   23.9436 N   0  0  0  0  0  0
  -24.8464  -31.1179   22.1786 N   0  0  0  0  0  0
  -23.8080  -29.0592   23.6512 O   0  0  0  0  0  0
  -26.9008  -26.2727   20.1396 O   0  0  0  0  0  0
  -26.5407  -34.8899   22.4749 O   0  0  0  0  0  0
  -23.5708  -32.1521   23.7427 O   0  0  0  0  0  0
  -22.2135  -26.9971   23.8658 C   0  0  0  0  0  0
  -22.5379  -25.2201   23.8656 C   0  0  0  0  0  0
  -20.5380  -27.0284   21.6482 C   0  0  0  0  0  0
  -21.3885  -28.0921   22.4181 C   0  0  0  0  0  0
  -22.4537  -23.9287   22.7043 C   0  0  0  0  0  0
  -20.8144  -25.3193   22.3920 C   0  0  0  0  0  0
  -24.0206  -26.3895   19.3287 C   0  0  0  0  0  0
  -18.4872  -26.9120   20.1586 C   0  0  0  0  0  0
  -21.6745  -28.4904   20.6815 C   0  0  0  0  0  0
  -19.9741  -26.3803   20.6645 C   0  0  0  0  0  0
  -24.2776  -21.6721   21.9294 C   0  0  0  0  0  0
  -22.7358  -27.6025   19.4433 C   0  0  0  0  0  0
  -25.3770  -25.9302   20.2796 C   0  0  0  0  0  0
  -25.9005  -19.3611   21.5418 N   0  0  0  0  0  0
  -23.9513  -25.7205   18.2926 O   0  0  0  0  0  0
  -29.7375  -15.8931   19.2727 H   0  0  0  0  0  0
  -30.1135  -14.9796   20.6289 H   0  0  0  0  0  0
  -30.2877  -13.3441   18.7645 H   0  0  0  0  0  0
  -29.0283  -14.1370   17.8716 H   0  0  0  0  0  0
  -28.7134  -11.8929   19.8260 H   0  0  0  0  0  0
  -27.8202  -12.2252   18.3275 H   0  0  0  0  0  0
  -27.0159  -14.2106   19.1988 H   0  0  0  0  0  0
  -28.6236  -14.0739   21.8036 H   0  0  0  0  0  0
  -27.0479  -14.5774   21.9717 H   0  0  0  0  0  0
  -25.2582   -9.5686   22.4826 H   0  0  0  0  0  0
  -23.9942   -7.4522   22.7539 H   0  0  0  0  0  0
  -21.0692   -8.8496   19.8947 H   0  0  0  0  0  0
  -22.3459  -10.9439   19.6130 H   0  0  0  0  0  0
  -21.2027   -7.6119   23.9697 H   0  0  0  0  0  0
  -21.1444   -6.0523   25.9079 H   0  0  0  0  0  0
  -22.0622   -2.7564   23.2900 H   0  0  0  0  0  0
  -22.3236  -11.9457   22.5110 H   0  0  0  0  0  0
  -21.0069  -13.0749   22.3262 H   0  0  0  0  0  0
  -24.2659  -15.7836   20.3451 H   0  0  0  0  0  0
  -25.9105  -15.6373   19.9329 H   0  0  0  0  0  0
  -26.7786  -32.5920   23.2178 H   0  0  0  0  0  0
  -25.0715  -34.0164   25.1292 H   0  0  0  0  0  0
  -22.7833  -30.8554   21.8383 H   0  0  0  0  0  0
  -23.3811  -35.9618   23.3176 H   0  0  0  0  0  0
  -24.3713  -36.8971   22.2052 H   0  0  0  0  0  0
  -23.7204  -37.6536   23.6584 H   0  0  0  0  0  0
  -26.4160  -31.7129   20.9285 H   0  0  0  0  0  0
  -27.0013  -30.7458   22.2325 H   0  0  0  0  0  0
  -27.6232  -28.4174   21.7888 H   0  0  0  0  0  0
  -26.4488  -26.9883   17.9185 H   0  0  0  0  0  0
  -24.6885  -28.6700   17.8535 H   0  0  0  0  0  0
  -24.2579  -31.3054   19.7630 H   0  0  0  0  0  0
  -23.1458  -30.1288   19.4207 H   0  0  0  0  0  0
  -25.1189  -36.2152   25.0859 H   0  0  0  0  0  0
  -23.5341  -25.8495   22.0298 H   0  0  0  0  0  0
  -22.4698  -24.0702   20.3060 H   0  0  0  0  0  0
  -21.7932  -25.1458   19.3594 H   0  0  0  0  0  0
  -19.9067  -23.1130   21.2882 H   0  0  0  0  0  0
  -19.2544  -23.7944   19.8902 H   0  0  0  0  0  0
  -17.4195  -25.0706   21.6532 H   0  0  0  0  0  0
  -18.2127  -24.3337   22.8754 H   0  0  0  0  0  0
  -20.4572  -29.0951   24.4934 H   0  0  0  0  0  0
  -18.5103  -30.4785   24.3236 H   0  0  0  0  0  0
  -16.3304  -29.5309   23.4613 H   0  0  0  0  0  0
  -16.4359  -27.1954   22.6247 H   0  0  0  0  0  0
  -24.5629  -30.7593   25.8277 H   0  0  0  0  0  0
  -24.9057  -32.3298   26.5486 H   0  0  0  0  0  0
  -25.7767  -30.9086   27.0801 H   0  0  0  0  0  0
  -26.3537  -29.6750   24.1927 H   0  0  0  0  0  0
  -27.3795  -29.7482   25.5976 H   0  0  0  0  0  0
  -27.9567  -30.4372   24.1147 H   0  0  0  0  0  0
  -27.2562  -33.3803   26.2727 H   0  0  0  0  0  0
  -28.3869  -32.7094   25.1012 H   0  0  0  0  0  0
  -28.0642  -31.8676   26.6145 H   0  0  0  0  0  0
  -28.2448  -38.0292   24.7706 H   0  0  0  0  0  0
  -28.1333  -36.2855   24.5958 H   0  0  0  0  0  0
  -27.2401  -37.1040   25.8840 H   0  0  0  0  0  0
  -24.0942  -27.8295   20.8783 H   0  0  0  0  0  0
  -26.0222  -38.2880   24.1561 H   0  0  0  0  0  0
  -22.4702  -27.4679   24.8028 H   0  0  0  0  0  0
  -23.1923  -24.9350   24.6799 H   0  0  0  0  0  0
  -19.8013  -27.9397   21.7680 H   0  0  0  0  0  0
  -18.6227  -27.4165   19.2011 H   0  0  0  0  0  0
  -17.9878  -27.6678   20.7572 H   0  0  0  0  0  0
  -17.7744  -26.1269   19.9018 H   0  0  0  0  0  0
  -21.6984  -29.5560   20.6203 H   0  0  0  0  0  0
  -20.7420  -28.6775   20.1307 H   0  0  0  0  0  0
  -19.7760  -25.8540   19.7238 H   0  0  0  0  0  0
  -20.4902  -26.6621   19.6857 H   0  0  0  0  0  0
  -24.5124  -22.1085   20.9540 H   0  0  0  0  0  0
  -23.4003  -21.0292   21.8229 H   0  0  0  0  0  0
  -22.0750  -27.0121   18.8439 H   0  0  0  0  0  0
  -22.8415  -28.2952   18.6195 H   0  0  0  0  0  0
  -25.4941  -24.9277   19.8775 H   0  0  0  0  0  0
  -25.2056  -25.6975   21.3179 H   0  0  0  0  0  0
  -25.1422  -18.6902   21.6095 H   0  0  0  0  0  0
  1 25  1  0  0  0
  1 30  2  0  0  0
  1 84  1  0  0  0
  2  3  1  0  0  0
  2 25  1  0  0  0
  2 86  1  0  0  0
  2 87  1  0  0  0
  3  4  1  0  0  0
  3 88  1  0  0  0
  3 89  1  0  0  0
  4  5  1  0  0  0
  4 90  1  0  0  0
  4 91  1  0  0  0
  5  6  1  0  0  0
  5 26  1  0  0  0
  5 92  1  0  0  0
  6 25  1  0  0  0
  6 93  1  0  0  0
  6 94  1  0  0  0
  7  8  2  0  0  0
  7 26  1  0  0  0
  7 29  1  0  0  0
  8  9  1  0  0  0
  8 22  1  0  0  0
  9 10  1  0  0  0
  9 27  2  0  0  0
 10 11  2  0  0  0
 10 15  1  0  0  0
 11 12  1  0  0  0
 11 95  1  0  0  0
 12 13  2  0  0  0
 12 96  1  0  0  0
 13 14  1  0  0  0
 13 31  1  0  0  0
 14 15  2  0  0  0
 14 97  1  0  0  0
 15 98  1  0  0  0
 16 17  2  0  0  0
 16 21  1  0  0  0
 16 31  1  0  0  0
 17 18  1  0  0  0
 17 99  1  0  0  0
 18 19  2  0  0  0
 18100  1  0  0  0
 19 20  1  0  0  0
 19 24  1  0  0  0
 20 21  2  0  0  0
 20101  1  0  0  0
 21 23  1  0  0  0
 22 28  1  0  0  0
 22 32  2  0  0  0
 26 27  1  0  0  0
 28102  1  0  0  0
 28103  1  0  0  0
 29104  1  0  0  0
 29105  1  0  0  0
 33 34  1  0  0  0
 33 66  1  0  0  0
 33 70  2  0  0  0
 34 36  1  0  0  0
 34 59  1  0  0  0
 34106  1  0  0  0
 35 44  2  0  0  0
 35 45  1  0  0  0
 35 68  1  0  0  0
 36 56  1  0  0  0
 36107  1  0  0  0
 37 39  1  0  0  0
 37 47  1  0  0  0
 37 66  1  0  0  0
 37108  1  0  0  0
 38 43  2  0  0  0
 38 46  1  0  0  0
 38 47  1  0  0  0
 39 64  1  0  0  0
 39 67  2  0  0  0
 40 52  1  0  0  0
 40 53  2  0  0  0
 40 58  1  0  0  0
 41109  1  0  0  0
 41110  1  0  0  0
 41111  1  0  0  0
 41 48  1  0  0  0
 42 43  1  0  0  0
 42 66  1  0  0  0
 42112  1  0  0  0
 42113  1  0  0  0
 43 44  1  0  0  0
 44114  1  0  0  0
 45 46  2  0  0  0
 45115  1  0  0  0
 46116  1  0  0  0
 47117  1  0  0  0
 47118  1  0  0  0
 48 56  1  0  0  0
 48 65  1  0  0  0
 48119  1  0  0  0
 49 50  1  0  0  0
 49 53  1  0  0  0
 49 64  1  0  0  0
 49120  1  0  0  0
 50 51  1  0  0  0
 50121  1  0  0  0
 50122  1  0  0  0
 51 52  1  0  0  0
 51123  1  0  0  0
 51124  1  0  0  0
 52125  1  0  0  0
 52126  1  0  0  0
 53 54  1  0  0  0
 54 55  2  0  0  0
 54127  1  0  0  0
 55 57  1  0  0  0
 55128  1  0  0  0
 56 69  2  0  0  0
 57 58  2  0  0  0
 57129  1  0  0  0
 58130  1  0  0  0
 59 60  1  0  0  0
 59 61  1  0  0  0
 59 62  1  0  0  0
 60131  1  0  0  0
 60132  1  0  0  0
 60133  1  0  0  0
 61134  1  0  0  0
 61135  1  0  0  0
 61136  1  0  0  0
 62137  1  0  0  0
 62138  1  0  0  0
 62139  1  0  0  0
 63 65  1  0  0  0
 63140  1  0  0  0
 63141  1  0  0  0
 63142  1  0  0  0
 64143  1  0  0  0
 65144  1  0  0  0
 68 83  1  0  0  0
 71 72  2  0  0  0
 71 74  1  0  0  0
 71145  1  0  0  0
 72 75  1  0  0  0
 72146  1  0  0  0
 73 74  2  0  0  0
 73 76  1  0  0  0
 73147  1  0  0  0
 74 79  1  0  0  0
 75 76  2  0  0  0
 75 81  1  0  0  0
 76 80  1  0  0  0
 77 82  1  0  0  0
 77 83  1  0  0  0
 77 85  2  0  0  0
 78 80  1  0  0  0
 78148  1  0  0  0
 78149  1  0  0  0
 78150  1  0  0  0
 79 82  1  0  0  0
 79151  1  0  0  0
 79152  1  0  0  0
 80153  1  0  0  0
 80154  1  0  0  0
 81 84  1  0  0  0
 81155  1  0  0  0
 81156  1  0  0  0
 82157  1  0  0  0
 82158  1  0  0  0
 83159  1  0  0  0
 83160  1  0  0  0
 84161  1  0  0  0
M  ISO  4   1 100  68 101  83 101  84 100
M  END
> <chiral flag>
0

> <version>
0

> <s_m_source_file>
/data/baiqing/PycharmProjects/Reinvent-master-3.2/result/LINK_invent/BTK/process_docking_weight1_custom_product_contain_oxygen_bond_distance_aromatic_linkinvent_7_9_3/rearranged_h_0131.sdf

> <i_m_source_file_index>
54

> <r_mmod_Potential_Energy-OPLS-2005>
41112.6171875

> <r_mmod_Stretch_Energy-OPLS-2005>
19159.892578125

> <r_mmod_Bend_Energy-OPLS-2005>
3789.87915039062

> <r_mmod_Torsional_Energy-OPLS-2005>
857.518737792969

> <r_mmod_Improper_Torsional_Energy-OPLS-2005>
122.64998626709

> <r_mmod_Van_der_Waal_Energy-OPLS-2005>
4644.88330078125

> <r_mmod_Electrostatic_Energy-OPLS-2005>
-365.278991699219

> <r_mmod_Solvation_Energy-OPLS-2005>
-240.758636474609

> <b_mmod_Minimization_Converged-OPLS-2005>
0

> <r_mmod_RMS_Derivative-OPLS-2005>
20.349308013916

$$$$
54
                    3D
 Structure written by MMmdl.
155163  0  0  1  0            999 V2000
  -30.7046  -14.5610   20.4541 C   0  0  0  0  0  0
  -30.4164  -12.3244   19.4635 C   0  0  0  0  0  0
  -29.5093  -12.4770   18.2243 C   0  0  0  0  0  0
  -28.0284  -12.3379   18.6280 C   0  0  0  0  0  0
  -27.6511  -13.2191   19.8517 C   0  0  2  0  0  0
  -28.6953  -13.0933   20.9847 C   0  0  0  0  0  0
  -25.2521  -13.8140   20.5663 C   0  0  0  0  0  0
  -24.1806  -13.0406   20.9195 C   0  0  0  0  0  0
  -24.6393  -11.6883   20.8725 C   0  0  0  0  0  0
  -23.9058  -10.4276   21.0406 C   0  0  0  0  0  0
  -24.3610   -9.4191   21.9181 C   0  0  0  0  0  0
  -23.6290   -8.2233   22.0749 C   0  0  0  0  0  0
  -22.4269   -8.0278   21.3549 C   0  0  0  0  0  0
  -21.9896   -9.0253   20.4660 C   0  0  0  0  0  0
  -22.7228  -10.2128   20.3066 C   0  0  0  0  0  0
  -21.6855   -6.0734   22.5278 C   0  0  0  0  0  0
  -21.4028   -6.5635   23.8215 C   0  0  0  0  0  0
  -21.3655   -5.6777   24.9168 C   0  0  0  0  0  0
  -21.6038   -4.3035   24.7236 C   0  0  0  0  0  0
  -21.8812   -3.8146   23.4345 C   0  0  0  0  0  0
  -21.9189   -4.6961   22.3398 C   0  0  0  0  0  0
  -22.7836  -13.5211   21.1845 C   0  0  0  0  0  0
  -22.1651   -4.2141   21.0982 F   0  0  0  0  0  0
  -21.5616   -3.4523   25.7746 F   0  0  0  0  0  0
  -30.0228  -13.3742   20.4210 N   0  0  0  0  0  0
  -26.2969  -12.9357   20.3250 N   0  0  0  0  0  0
  -25.9325  -11.6506   20.5738 N   0  0  0  0  0  0
  -22.0460  -12.8255   22.0433 N   0  0  0  0  0  0
  -25.4112  -15.1856   20.4095 N   0  0  0  0  0  0
  -31.8999  -14.5994   20.1568 O   0  0  0  0  0  0
  -21.6628   -6.8880   21.4245 O   0  0  0  0  0  0
  -22.3515  -14.5490   20.6633 O   0  0  0  0  0  0
  -24.6219  -31.8635   23.2087 C   0  0  0  0  0  0
  -25.9089  -32.4787   23.8392 C   0  0  1  0  0  0
  -27.2178  -27.3491   20.0997 C   0  0  0  0  0  0
  -25.5918  -33.8584   24.2290 N   0  0  0  0  0  0
  -23.4145  -30.4913   21.5480 C   0  0  2  0  0  0
  -24.8609  -28.9615   20.1077 C   0  0  0  0  0  0
  -22.7450  -29.4643   22.4922 C   0  0  0  0  0  0
  -18.0286  -28.1385   22.8490 C   0  0  0  0  0  0
  -24.1489  -36.7299   23.2632 C   0  0  0  0  0  0
  -25.9568  -30.7958   21.3873 C   0  0  0  0  0  0
  -26.0275  -29.4297   20.7242 C   0  0  0  0  0  0
  -27.2072  -28.6319   20.7225 C   0  0  0  0  0  0
  -26.0274  -26.9439   19.4429 C   0  0  0  0  0  0
  -24.8619  -27.7213   19.4599 C   0  0  0  0  0  0
  -23.6289  -29.8355   20.1605 C   0  0  0  0  0  0
  -25.4107  -36.3079   24.0323 C   0  0  1  0  0  0
  -20.5881  -28.3681   23.1280 C   0  0  2  0  0  0
  -20.6772  -26.9405   22.5413 C   0  0  0  0  0  0
  -19.5756  -26.6384   21.5203 C   0  0  0  0  0  0
  -18.1934  -26.7933   22.1618 C   0  0  0  0  0  0
  -19.1540  -28.8849   23.2882 C   0  0  0  0  0  0
  -18.9459  -30.1445   23.8904 C   0  0  0  0  0  0
  -17.6464  -30.6594   24.0558 C   0  0  0  0  0  0
  -25.9045  -34.9444   23.5100 C   0  0  0  0  0  0
  -16.5349  -29.9093   23.6329 C   0  0  0  0  0  0
  -16.7274  -28.6503   23.0361 C   0  0  0  0  0  0
  -26.4486  -31.6600   25.0764 C   0  0  0  0  0  0
  -25.3718  -31.3761   26.1494 C   0  0  0  0  0  0
  -27.0329  -30.3010   24.6254 C   0  0  0  0  0  0
  -27.6044  -32.4349   25.7519 C   0  0  0  0  0  0
  -27.5582  -37.1795   24.8446 C   0  0  0  0  0  0
  -21.4170  -29.3044   22.3679 N   0  0  0  0  0  0
  -26.4279  -37.3780   23.9420 N   0  0  0  0  0  0
  -24.6816  -31.0673   22.1029 N   0  0  0  0  0  0
  -23.4189  -28.8163   23.2973 O   0  0  0  0  0  0
  -28.3322  -26.5009   20.1546 O   0  0  0  0  0  0
  -26.5622  -34.8905   22.4669 O   0  0  0  0  0  0
  -23.5387  -32.1421   23.7416 O   0  0  0  0  0  0
  -30.7839  -19.5160   20.5318 C   0  0  0  0  0  0
  -30.3867  -20.8698   20.3509 C   0  0  0  0  0  0
  -28.2372  -20.0902   19.5917 C   0  0  0  0  0  0
  -29.9358  -18.4167   20.2210 C   0  0  0  0  0  0
  -29.0970  -21.1804   19.8648 C   0  0  0  0  0  0
  -28.6358  -18.7372   19.7431 C   0  0  0  0  0  0
  -30.4964  -17.0232   20.3408 C   0  0  0  0  0  0
  -29.9127  -15.8065   20.5741 C   0  0  0  0  0  0
  -27.6661  -17.6648   19.2838 C   0  0  0  0  0  0
  -28.5958  -22.5994   19.4821 C   0  0  0  0  0  0
  -29.0799  -23.9262   20.1758 C   0  0  0  0  0  0
  -28.0791  -25.0911   19.8363 C   0  0  0  0  0  0
  -31.4678  -12.3797   19.1763 H   0  0  0  0  0  0
  -30.2885  -11.3370   19.9108 H   0  0  0  0  0  0
  -29.7676  -11.7264   17.4751 H   0  0  0  0  0  0
  -29.6741  -13.4485   17.7552 H   0  0  0  0  0  0
  -27.8501  -11.2889   18.8643 H   0  0  0  0  0  0
  -27.3825  -12.5702   17.7801 H   0  0  0  0  0  0
  -27.6646  -14.2503   19.5003 H   0  0  0  0  0  0
  -28.6802  -12.0897   21.4102 H   0  0  0  0  0  0
  -28.4655  -13.7662   21.8123 H   0  0  0  0  0  0
  -25.2775   -9.5664   22.4733 H   0  0  0  0  0  0
  -23.9999   -7.4621   22.7471 H   0  0  0  0  0  0
  -21.0807   -8.8788   19.8983 H   0  0  0  0  0  0
  -22.3691  -10.9667   19.6166 H   0  0  0  0  0  0
  -21.2037   -7.6145   23.9722 H   0  0  0  0  0  0
  -21.1472   -6.0505   25.9064 H   0  0  0  0  0  0
  -22.0601   -2.7614   23.2842 H   0  0  0  0  0  0
  -22.4071  -11.9955   22.4908 H   0  0  0  0  0  0
  -21.1093  -13.1317   22.2623 H   0  0  0  0  0  0
  -24.6334  -15.8289   20.5153 H   0  0  0  0  0  0
  -26.2535  -15.6275   20.0708 H   0  0  0  0  0  0
  -26.7153  -32.5459   23.1137 H   0  0  0  0  0  0
  -25.0038  -33.9739   25.0416 H   0  0  0  0  0  0
  -22.7070  -31.3110   21.4090 H   0  0  0  0  0  0
  -23.3751  -35.9631   23.3273 H   0  0  0  0  0  0
  -24.3584  -36.8950   22.2053 H   0  0  0  0  0  0
  -23.7244  -37.6493   23.6670 H   0  0  0  0  0  0
  -26.1005  -31.5635   20.6257 H   0  0  0  0  0  0
  -26.8316  -30.8308   22.0234 H   0  0  0  0  0  0
  -28.0956  -28.9766   21.2313 H   0  0  0  0  0  0
  -25.9510  -26.0122   18.9036 H   0  0  0  0  0  0
  -23.9732  -27.3639   18.9587 H   0  0  0  0  0  0
  -23.7450  -30.6133   19.4048 H   0  0  0  0  0  0
  -22.7527  -29.2601   19.8580 H   0  0  0  0  0  0
  -25.1285  -36.1922   25.0815 H   0  0  0  0  0  0
  -20.9974  -28.3254   24.1394 H   0  0  0  0  0  0
  -20.5662  -26.2279   23.3606 H   0  0  0  0  0  0
  -21.6641  -26.7436   22.1211 H   0  0  0  0  0  0
  -19.6911  -25.6287   21.1251 H   0  0  0  0  0  0
  -19.6708  -27.3177   20.6718 H   0  0  0  0  0  0
  -17.4204  -26.6674   21.4024 H   0  0  0  0  0  0
  -18.0340  -26.0071   22.9008 H   0  0  0  0  0  0
  -19.7929  -30.7252   24.2284 H   0  0  0  0  0  0
  -17.5021  -31.6278   24.5158 H   0  0  0  0  0  0
  -15.5350  -30.3001   23.7650 H   0  0  0  0  0  0
  -15.8669  -28.0821   22.7084 H   0  0  0  0  0  0
  -24.5848  -30.7171   25.7825 H   0  0  0  0  0  0
  -24.8962  -32.2939   26.4954 H   0  0  0  0  0  0
  -25.8024  -30.8899   27.0252 H   0  0  0  0  0  0
  -26.2918  -29.6778   24.1238 H   0  0  0  0  0  0
  -27.3949  -29.7267   25.4793 H   0  0  0  0  0  0
  -27.8826  -30.4282   23.9542 H   0  0  0  0  0  0
  -27.2634  -33.3608   26.2157 H   0  0  0  0  0  0
  -28.3804  -32.6992   25.0326 H   0  0  0  0  0  0
  -28.0776  -31.8461   26.5386 H   0  0  0  0  0  0
  -28.2567  -38.0124   24.7530 H   0  0  0  0  0  0
  -28.1111  -36.2657   24.6208 H   0  0  0  0  0  0
  -27.2314  -37.1368   25.8851 H   0  0  0  0  0  0
  -20.9330  -29.8754   21.6896 H   0  0  0  0  0  0
  -26.0154  -38.2844   24.1464 H   0  0  0  0  0  0
  -31.7894  -19.3190   20.8797 H   0  0  0  0  0  0
  -31.0929  -21.6626   20.5567 H   0  0  0  0  0  0
  -27.2561  -20.2992   19.1883 H   0  0  0  0  0  0
  -31.5588  -17.0101   20.1457 H   0  0  0  0  0  0
  -28.8649  -15.7513   20.8104 H   0  0  0  0  0  0
  -26.7920  -18.0996   18.7991 H   0  0  0  0  0  0
  -27.3096  -17.0937   20.1371 H   0  0  0  0  0  0
  -28.1359  -16.9918   18.5663 H   0  0  0  0  0  0
  -27.5102  -22.5626   19.5866 H   0  0  0  0  0  0
  -28.7675  -22.7062   18.4091 H   0  0  0  0  0  0
  -30.0880  -24.1724   19.8416 H   0  0  0  0  0  0
  -29.1251  -23.7955   21.2570 H   0  0  0  0  0  0
  -27.1516  -24.7980   20.3349 H   0  0  0  0  0  0
  -27.8897  -25.0403   18.7629 H   0  0  0  0  0  0
  1 25  1  0  0  0
  1 30  2  0  0  0
  1 78  1  0  0  0
  2  3  1  0  0  0
  2 25  1  0  0  0
  2 83  1  0  0  0
  2 84  1  0  0  0
  3  4  1  0  0  0
  3 85  1  0  0  0
  3 86  1  0  0  0
  4  5  1  0  0  0
  4 87  1  0  0  0
  4 88  1  0  0  0
  5  6  1  0  0  0
  5 26  1  0  0  0
  5 89  1  0  0  0
  6 25  1  0  0  0
  6 90  1  0  0  0
  6 91  1  0  0  0
  7  8  2  0  0  0
  7 26  1  0  0  0
  7 29  1  0  0  0
  8  9  1  0  0  0
  8 22  1  0  0  0
  9 10  1  0  0  0
  9 27  2  0  0  0
 10 11  2  0  0  0
 10 15  1  0  0  0
 11 12  1  0  0  0
 11 92  1  0  0  0
 12 13  2  0  0  0
 12 93  1  0  0  0
 13 14  1  0  0  0
 13 31  1  0  0  0
 14 15  2  0  0  0
 14 94  1  0  0  0
 15 95  1  0  0  0
 16 17  2  0  0  0
 16 21  1  0  0  0
 16 31  1  0  0  0
 17 18  1  0  0  0
 17 96  1  0  0  0
 18 19  2  0  0  0
 18 97  1  0  0  0
 19 20  1  0  0  0
 19 24  1  0  0  0
 20 21  2  0  0  0
 20 98  1  0  0  0
 21 23  1  0  0  0
 22 28  1  0  0  0
 22 32  2  0  0  0
 26 27  1  0  0  0
 28 99  1  0  0  0
 28100  1  0  0  0
 29101  1  0  0  0
 29102  1  0  0  0
 33 34  1  0  0  0
 33 66  1  0  0  0
 33 70  2  0  0  0
 34 36  1  0  0  0
 34 59  1  0  0  0
 34103  1  0  0  0
 35 44  2  0  0  0
 35 45  1  0  0  0
 35 68  1  0  0  0
 36 56  1  0  0  0
 36104  1  0  0  0
 37 39  1  0  0  0
 37 47  1  0  0  0
 37 66  1  0  0  0
 37105  1  0  0  0
 38 43  2  0  0  0
 38 46  1  0  0  0
 38 47  1  0  0  0
 39 64  1  0  0  0
 39 67  2  0  0  0
 40 52  1  0  0  0
 40 53  2  0  0  0
 40 58  1  0  0  0
 41106  1  0  0  0
 41107  1  0  0  0
 41108  1  0  0  0
 41 48  1  0  0  0
 42 43  1  0  0  0
 42 66  1  0  0  0
 42109  1  0  0  0
 42110  1  0  0  0
 43 44  1  0  0  0
 44111  1  0  0  0
 45 46  2  0  0  0
 45112  1  0  0  0
 46113  1  0  0  0
 47114  1  0  0  0
 47115  1  0  0  0
 48 56  1  0  0  0
 48 65  1  0  0  0
 48116  1  0  0  0
 49 50  1  0  0  0
 49 53  1  0  0  0
 49 64  1  0  0  0
 49117  1  0  0  0
 50 51  1  0  0  0
 50118  1  0  0  0
 50119  1  0  0  0
 51 52  1  0  0  0
 51120  1  0  0  0
 51121  1  0  0  0
 52122  1  0  0  0
 52123  1  0  0  0
 53 54  1  0  0  0
 54 55  2  0  0  0
 54124  1  0  0  0
 55 57  1  0  0  0
 55125  1  0  0  0
 56 69  2  0  0  0
 57 58  2  0  0  0
 57126  1  0  0  0
 58127  1  0  0  0
 59 60  1  0  0  0
 59 61  1  0  0  0
 59 62  1  0  0  0
 60128  1  0  0  0
 60129  1  0  0  0
 60130  1  0  0  0
 61131  1  0  0  0
 61132  1  0  0  0
 61133  1  0  0  0
 62134  1  0  0  0
 62135  1  0  0  0
 62136  1  0  0  0
 63 65  1  0  0  0
 63137  1  0  0  0
 63138  1  0  0  0
 63139  1  0  0  0
 64140  1  0  0  0
 65141  1  0  0  0
 68 82  1  0  0  0
 71 72  2  0  0  0
 71 74  1  0  0  0
 71142  1  0  0  0
 72 75  1  0  0  0
 72143  1  0  0  0
 73 75  2  0  0  0
 73 76  1  0  0  0
 73144  1  0  0  0
 74 76  2  0  0  0
 74 77  1  0  0  0
 75 80  1  0  0  0
 76 79  1  0  0  0
 77 78  2  0  0  0
 77145  1  0  0  0
 78146  1  0  0  0
 79147  1  0  0  0
 79148  1  0  0  0
 79149  1  0  0  0
 80 81  1  0  0  0
 80150  1  0  0  0
 80151  1  0  0  0
 81 82  1  0  0  0
 81152  1  0  0  0
 81153  1  0  0  0
 82154  1  0  0  0
 82155  1  0  0  0
M  ISO  4   1 100  68 101  78 100  82 101
M  END
> <chiral flag>
0

> <version>
0

> <s_m_source_file>
/data/baiqing/PycharmProjects/Reinvent-master-3.2/result/LINK_invent/BTK/process_docking_weight1_custom_product_contain_oxygen_bond_distance_aromatic_linkinvent_7_9_3/rearranged_h_0131.sdf

> <i_m_source_file_index>
55

> <r_mmod_Potential_Energy-OPLS-2005>
65.8363342285156

> <r_mmod_Stretch_Energy-OPLS-2005>
58.2092132568359

> <r_mmod_Bend_Energy-OPLS-2005>
139.730911254883

> <r_mmod_Torsional_Energy-OPLS-2005>
194.04182434082

> <r_mmod_Improper_Torsional_Energy-OPLS-2005>
7.61992740631104

> <r_mmod_Van_der_Waal_Energy-OPLS-2005>
161.931900024414

> <r_mmod_Electrostatic_Energy-OPLS-2005>
-343.298522949219

> <r_mmod_Solvation_Energy-OPLS-2005>
-193.110900878906

> <b_mmod_Minimization_Converged-OPLS-2005>
0

> <r_mmod_RMS_Derivative-OPLS-2005>
2.919677734375

$$$$
55
                    3D
 Structure written by MMmdl.
156164  0  0  1  0            999 V2000
  -30.7302  -14.4544   20.5806 C   0  0  0  0  0  0
  -30.4186  -12.2940   19.4225 C   0  0  0  0  0  0
  -29.4995  -12.5169   18.2048 C   0  0  0  0  0  0
  -28.0178  -12.3828   18.6090 C   0  0  0  0  0  0
  -27.6644  -13.2141   19.8714 C   0  0  2  0  0  0
  -28.7101  -13.0082   20.9917 C   0  0  0  0  0  0
  -25.2614  -13.8169   20.5692 C   0  0  0  0  0  0
  -24.1866  -13.0428   20.9175 C   0  0  0  0  0  0
  -24.6429  -11.6905   20.8717 C   0  0  0  0  0  0
  -23.9084  -10.4294   21.0390 C   0  0  0  0  0  0
  -24.3630   -9.4219   21.9176 C   0  0  0  0  0  0
  -23.6306   -8.2251   22.0751 C   0  0  0  0  0  0
  -22.4283   -8.0293   21.3549 C   0  0  0  0  0  0
  -21.9919   -9.0262   20.4646 C   0  0  0  0  0  0
  -22.7247  -10.2141   20.3057 C   0  0  0  0  0  0
  -21.6867   -6.0745   22.5281 C   0  0  0  0  0  0
  -21.4014   -6.5639   23.8211 C   0  0  0  0  0  0
  -21.3661   -5.6791   24.9166 C   0  0  0  0  0  0
  -21.6048   -4.3059   24.7227 C   0  0  0  0  0  0
  -21.8814   -3.8148   23.4346 C   0  0  0  0  0  0
  -21.9203   -4.6968   22.3401 C   0  0  0  0  0  0
  -22.7896  -13.5231   21.1848 C   0  0  0  0  0  0
  -22.1677   -4.2152   21.0984 F   0  0  0  0  0  0
  -21.5635   -3.4539   25.7737 F   0  0  0  0  0  0
  -30.0436  -13.2878   20.4402 N   0  0  0  0  0  0
  -26.3061  -12.9346   20.3361 N   0  0  0  0  0  0
  -25.9363  -11.6493   20.5743 N   0  0  0  0  0  0
  -22.0541  -12.8218   22.0402 N   0  0  0  0  0  0
  -25.4324  -15.1883   20.4125 N   0  0  0  0  0  0
  -31.8556  -14.5965   20.0952 O   0  0  0  0  0  0
  -21.6652   -6.8892   21.4247 O   0  0  0  0  0  0
  -22.3572  -14.5525   20.6692 O   0  0  0  0  0  0
  -24.6169  -31.8695   23.2100 C   0  0  0  0  0  0
  -25.9055  -32.4839   23.8407 C   0  0  1  0  0  0
  -27.2310  -27.4289   20.0939 C   0  0  0  0  0  0
  -25.5902  -33.8642   24.2335 N   0  0  0  0  0  0
  -23.4063  -30.4917   21.5531 C   0  0  2  0  0  0
  -24.8525  -28.9617   20.1141 C   0  0  0  0  0  0
  -22.7437  -29.4653   22.5009 C   0  0  0  0  0  0
  -18.0279  -28.1384   22.8524 C   0  0  0  0  0  0
  -24.1481  -36.7323   23.2631 C   0  0  0  0  0  0
  -25.9379  -30.8316   21.3661 C   0  0  0  0  0  0
  -26.0145  -29.4663   20.7124 C   0  0  0  0  0  0
  -27.2106  -28.7090   20.6968 C   0  0  0  0  0  0
  -26.0559  -26.9539   19.4697 C   0  0  0  0  0  0
  -24.8689  -27.7070   19.4855 C   0  0  0  0  0  0
  -23.6140  -29.8271   20.1673 C   0  0  0  0  0  0
  -25.4112  -36.3137   24.0329 C   0  0  1  0  0  0
  -20.5872  -28.3676   23.1341 C   0  0  2  0  0  0
  -20.6780  -26.9418   22.5442 C   0  0  0  0  0  0
  -19.5746  -26.6397   21.5254 C   0  0  0  0  0  0
  -18.1916  -26.7938   22.1653 C   0  0  0  0  0  0
  -19.1529  -28.8854   23.2926 C   0  0  0  0  0  0
  -18.9445  -30.1466   23.8935 C   0  0  0  0  0  0
  -17.6439  -30.6596   24.0582 C   0  0  0  0  0  0
  -25.9043  -34.9491   23.5133 C   0  0  0  0  0  0
  -16.5335  -29.9100   23.6325 C   0  0  0  0  0  0
  -16.7265  -28.6512   23.0360 C   0  0  0  0  0  0
  -26.4467  -31.6606   25.0739 C   0  0  0  0  0  0
  -25.3722  -31.3712   26.1473 C   0  0  0  0  0  0
  -27.0288  -30.3039   24.6121 C   0  0  0  0  0  0
  -27.6051  -32.4318   25.7504 C   0  0  0  0  0  0
  -27.5592  -37.1820   24.8465 C   0  0  0  0  0  0
  -21.4165  -29.3032   22.3755 N   0  0  0  0  0  0
  -26.4300  -37.3810   23.9404 N   0  0  0  0  0  0
  -24.6723  -31.0779   22.1014 N   0  0  0  0  0  0
  -23.4198  -28.8204   23.3065 O   0  0  0  0  0  0
  -28.3730  -26.6536   20.1102 O   0  0  0  0  0  0
  -26.5619  -34.8943   22.4703 O   0  0  0  0  0  0
  -23.5361  -32.1450   23.7484 O   0  0  0  0  0  0
  -28.7259  -18.3000   19.9039 C   0  0  0  0  0  0
  -28.4922  -19.6805   19.6347 C   0  0  0  0  0  0
  -29.9138  -18.2027   20.5693 C   0  0  0  0  0  0
  -29.5492  -20.3538   20.1987 C   0  0  0  0  0  0
  -29.2537  -24.3226   20.2207 C   0  0  0  0  0  0
  -27.3295  -20.2349   18.8491 C   0  0  0  0  0  0
  -30.7800  -17.0494   21.0040 C   0  0  0  0  0  0
  -29.9765  -21.8026   20.2767 C   0  0  0  0  0  0
  -28.8328  -22.8420   20.1636 C   0  0  0  0  0  0
  -28.1503  -25.3192   20.6146 C   0  0  0  0  0  0
  -30.0517  -15.6842   21.2330 C   0  0  0  0  0  0
  -30.4065  -24.6869   19.9627 O   0  0  0  0  0  0
  -30.4280  -19.4549   20.7444 O   0  0  0  0  0  0
  -31.4662  -12.3646   19.1269 H   0  0  0  0  0  0
  -30.2907  -11.2844   19.8173 H   0  0  0  0  0  0
  -29.7380  -11.8075   17.4119 H   0  0  0  0  0  0
  -29.6811  -13.5106   17.7892 H   0  0  0  0  0  0
  -27.8117  -11.3260   18.7826 H   0  0  0  0  0  0
  -27.3780  -12.6830   17.7774 H   0  0  0  0  0  0
  -27.7020  -14.2611   19.5700 H   0  0  0  0  0  0
  -28.6766  -11.9786   21.3513 H   0  0  0  0  0  0
  -28.4822  -13.6300   21.8588 H   0  0  0  0  0  0
  -25.2782   -9.5690   22.4749 H   0  0  0  0  0  0
  -24.0033   -7.4632   22.7449 H   0  0  0  0  0  0
  -21.0869   -8.8760   19.8946 H   0  0  0  0  0  0
  -22.3697  -10.9678   19.6166 H   0  0  0  0  0  0
  -21.1995   -7.6146   23.9705 H   0  0  0  0  0  0
  -21.1502   -6.0529   25.9068 H   0  0  0  0  0  0
  -22.0600   -2.7617   23.2838 H   0  0  0  0  0  0
  -22.4171  -11.9894   22.4800 H   0  0  0  0  0  0
  -21.1154  -13.1235   22.2560 H   0  0  0  0  0  0
  -24.6669  -15.8454   20.5178 H   0  0  0  0  0  0
  -26.2931  -15.6306   20.1159 H   0  0  0  0  0  0
  -26.7142  -32.5548   23.1189 H   0  0  0  0  0  0
  -25.0044  -33.9818   25.0475 H   0  0  0  0  0  0
  -22.6948  -31.3086   21.4160 H   0  0  0  0  0  0
  -23.3755  -35.9646   23.3305 H   0  0  0  0  0  0
  -24.3571  -36.8931   22.2041 H   0  0  0  0  0  0
  -23.7225  -37.6526   23.6649 H   0  0  0  0  0  0
  -26.0549  -31.5950   20.5958 H   0  0  0  0  0  0
  -26.8250  -30.8837   21.9862 H   0  0  0  0  0  0
  -28.1078  -29.0917   21.1628 H   0  0  0  0  0  0
  -26.0490  -26.0049   18.9543 H   0  0  0  0  0  0
  -23.9818  -27.3221   19.0011 H   0  0  0  0  0  0
  -23.7196  -30.6038   19.4087 H   0  0  0  0  0  0
  -22.7388  -29.2442   19.8745 H   0  0  0  0  0  0
  -25.1281  -36.2006   25.0823 H   0  0  0  0  0  0
  -20.9960  -28.3244   24.1462 H   0  0  0  0  0  0
  -20.5730  -26.2287   23.3625 H   0  0  0  0  0  0
  -21.6636  -26.7488   22.1198 H   0  0  0  0  0  0
  -19.6903  -25.6317   21.1263 H   0  0  0  0  0  0
  -19.6665  -27.3235   20.6800 H   0  0  0  0  0  0
  -17.4194  -26.6724   21.4034 H   0  0  0  0  0  0
  -18.0284  -26.0062   22.9027 H   0  0  0  0  0  0
  -19.7911  -30.7305   24.2286 H   0  0  0  0  0  0
  -17.4982  -31.6270   24.5200 H   0  0  0  0  0  0
  -15.5343  -30.3016   23.7622 H   0  0  0  0  0  0
  -15.8662  -28.0855   22.7041 H   0  0  0  0  0  0
  -24.5898  -30.7065   25.7787 H   0  0  0  0  0  0
  -24.8912  -32.2862   26.4939 H   0  0  0  0  0  0
  -25.8056  -30.8857   27.0222 H   0  0  0  0  0  0
  -26.2840  -29.6834   24.1122 H   0  0  0  0  0  0
  -27.3977  -29.7248   25.4597 H   0  0  0  0  0  0
  -27.8711  -30.4342   23.9324 H   0  0  0  0  0  0
  -27.2679  -33.3597   26.2134 H   0  0  0  0  0  0
  -28.3836  -32.6907   25.0317 H   0  0  0  0  0  0
  -28.0749  -31.8410   26.5381 H   0  0  0  0  0  0
  -28.2617  -38.0112   24.7531 H   0  0  0  0  0  0
  -28.1081  -36.2651   24.6263 H   0  0  0  0  0  0
  -27.2317  -37.1433   25.8870 H   0  0  0  0  0  0
  -20.9342  -29.8737   21.6957 H   0  0  0  0  0  0
  -26.0198  -38.2898   24.1395 H   0  0  0  0  0  0
  -28.1151  -17.4649   19.5906 H   0  0  0  0  0  0
  -26.7994  -19.4354   18.3311 H   0  0  0  0  0  0
  -27.6797  -20.9393   18.0932 H   0  0  0  0  0  0
  -26.6199  -20.7367   19.5062 H   0  0  0  0  0  0
  -31.3055  -17.3210   21.9204 H   0  0  0  0  0  0
  -31.5622  -16.9664   20.2500 H   0  0  0  0  0  0
  -30.7080  -21.9884   19.4885 H   0  0  0  0  0  0
  -30.5084  -21.9625   21.2158 H   0  0  0  0  0  0
  -28.2999  -22.7118   19.2244 H   0  0  0  0  0  0
  -28.1096  -22.6648   20.9573 H   0  0  0  0  0  0
  -28.0966  -25.3557   21.7021 H   0  0  0  0  0  0
  -27.2088  -24.8965   20.2726 H   0  0  0  0  0  0
  -29.0410  -15.7467   20.8387 H   0  0  0  0  0  0
  -29.9467  -15.5073   22.3032 H   0  0  0  0  0  0
  1 25  1  0  0  0
  1 30  2  0  0  0
  1 81  1  0  0  0
  2  3  1  0  0  0
  2 25  1  0  0  0
  2 84  1  0  0  0
  2 85  1  0  0  0
  3  4  1  0  0  0
  3 86  1  0  0  0
  3 87  1  0  0  0
  4  5  1  0  0  0
  4 88  1  0  0  0
  4 89  1  0  0  0
  5  6  1  0  0  0
  5 26  1  0  0  0
  5 90  1  0  0  0
  6 25  1  0  0  0
  6 91  1  0  0  0
  6 92  1  0  0  0
  7  8  2  0  0  0
  7 26  1  0  0  0
  7 29  1  0  0  0
  8  9  1  0  0  0
  8 22  1  0  0  0
  9 10  1  0  0  0
  9 27  2  0  0  0
 10 11  2  0  0  0
 10 15  1  0  0  0
 11 12  1  0  0  0
 11 93  1  0  0  0
 12 13  2  0  0  0
 12 94  1  0  0  0
 13 14  1  0  0  0
 13 31  1  0  0  0
 14 15  2  0  0  0
 14 95  1  0  0  0
 15 96  1  0  0  0
 16 17  2  0  0  0
 16 21  1  0  0  0
 16 31  1  0  0  0
 17 18  1  0  0  0
 17 97  1  0  0  0
 18 19  2  0  0  0
 18 98  1  0  0  0
 19 20  1  0  0  0
 19 24  1  0  0  0
 20 21  2  0  0  0
 20 99  1  0  0  0
 21 23  1  0  0  0
 22 28  1  0  0  0
 22 32  2  0  0  0
 26 27  1  0  0  0
 28100  1  0  0  0
 28101  1  0  0  0
 29102  1  0  0  0
 29103  1  0  0  0
 33 34  1  0  0  0
 33 66  1  0  0  0
 33 70  2  0  0  0
 34 36  1  0  0  0
 34 59  1  0  0  0
 34104  1  0  0  0
 35 44  2  0  0  0
 35 45  1  0  0  0
 35 68  1  0  0  0
 36 56  1  0  0  0
 36105  1  0  0  0
 37 39  1  0  0  0
 37 47  1  0  0  0
 37 66  1  0  0  0
 37106  1  0  0  0
 38 43  2  0  0  0
 38 46  1  0  0  0
 38 47  1  0  0  0
 39 64  1  0  0  0
 39 67  2  0  0  0
 40 52  1  0  0  0
 40 53  2  0  0  0
 40 58  1  0  0  0
 41107  1  0  0  0
 41108  1  0  0  0
 41109  1  0  0  0
 41 48  1  0  0  0
 42 43  1  0  0  0
 42 66  1  0  0  0
 42110  1  0  0  0
 42111  1  0  0  0
 43 44  1  0  0  0
 44112  1  0  0  0
 45 46  2  0  0  0
 45113  1  0  0  0
 46114  1  0  0  0
 47115  1  0  0  0
 47116  1  0  0  0
 48 56  1  0  0  0
 48 65  1  0  0  0
 48117  1  0  0  0
 49 50  1  0  0  0
 49 53  1  0  0  0
 49 64  1  0  0  0
 49118  1  0  0  0
 50 51  1  0  0  0
 50119  1  0  0  0
 50120  1  0  0  0
 51 52  1  0  0  0
 51121  1  0  0  0
 51122  1  0  0  0
 52123  1  0  0  0
 52124  1  0  0  0
 53 54  1  0  0  0
 54 55  2  0  0  0
 54125  1  0  0  0
 55 57  1  0  0  0
 55126  1  0  0  0
 56 69  2  0  0  0
 57 58  2  0  0  0
 57127  1  0  0  0
 58128  1  0  0  0
 59 60  1  0  0  0
 59 61  1  0  0  0
 59 62  1  0  0  0
 60129  1  0  0  0
 60130  1  0  0  0
 60131  1  0  0  0
 61132  1  0  0  0
 61133  1  0  0  0
 61134  1  0  0  0
 62135  1  0  0  0
 62136  1  0  0  0
 62137  1  0  0  0
 63 65  1  0  0  0
 63138  1  0  0  0
 63139  1  0  0  0
 63140  1  0  0  0
 64141  1  0  0  0
 65142  1  0  0  0
 68 80  1  0  0  0
 71 72  1  0  0  0
 71 73  2  0  0  0
 71143  1  0  0  0
 72 74  2  0  0  0
 72 76  1  0  0  0
 73 77  1  0  0  0
 73 83  1  0  0  0
 74 78  1  0  0  0
 74 83  1  0  0  0
 75 79  1  0  0  0
 75 80  1  0  0  0
 75 82  2  0  0  0
 76144  1  0  0  0
 76145  1  0  0  0
 76146  1  0  0  0
 77 81  1  0  0  0
 77147  1  0  0  0
 77148  1  0  0  0
 78 79  1  0  0  0
 78149  1  0  0  0
 78150  1  0  0  0
 79151  1  0  0  0
 79152  1  0  0  0
 80153  1  0  0  0
 80154  1  0  0  0
 81155  1  0  0  0
 81156  1  0  0  0
M  ISO  4   1 100  68 101  80 101  81 100
M  END
> <chiral flag>
0

> <version>
0

> <s_m_source_file>
/data/baiqing/PycharmProjects/Reinvent-master-3.2/result/LINK_invent/BTK/process_docking_weight1_custom_product_contain_oxygen_bond_distance_aromatic_linkinvent_7_9_3/rearranged_h_0131.sdf

> <i_m_source_file_index>
56

> <r_mmod_Potential_Energy-OPLS-2005>
-104.271858215332

> <r_mmod_Stretch_Energy-OPLS-2005>
36.6078109741211

> <r_mmod_Bend_Energy-OPLS-2005>
92.2329788208008

> <r_mmod_Torsional_Energy-OPLS-2005>
199.258361816406

> <r_mmod_Improper_Torsional_Energy-OPLS-2005>
3.23777270317078

> <r_mmod_Van_der_Waal_Energy-OPLS-2005>
129.865829467773

> <r_mmod_Electrostatic_Energy-OPLS-2005>
-363.134429931641

> <r_mmod_Solvation_Energy-OPLS-2005>
-216.014358520508

> <b_mmod_Minimization_Converged-OPLS-2005>
0

> <r_mmod_RMS_Derivative-OPLS-2005>
2.63326907157898

$$$$
56
                    3D
 Structure written by MMmdl.
165173  0  0  1  0            999 V2000
  -30.6554  -14.6199   20.5090 C   0  0  0  0  0  0
  -30.4357  -12.3808   19.4576 C   0  0  0  0  0  0
  -29.5094  -12.5120   18.2291 C   0  0  0  0  0  0
  -28.0333  -12.3389   18.6426 C   0  0  0  0  0  0
  -27.6476  -13.2160   19.8633 C   0  0  2  0  0  0
  -28.6950  -13.0807   20.9935 C   0  0  0  0  0  0
  -25.2415  -13.8057   20.5723 C   0  0  0  0  0  0
  -24.1739  -13.0333   20.9253 C   0  0  0  0  0  0
  -24.6357  -11.6846   20.8785 C   0  0  0  0  0  0
  -23.9045  -10.4248   21.0434 C   0  0  0  0  0  0
  -24.3592   -9.4164   21.9198 C   0  0  0  0  0  0
  -23.6265   -8.2210   22.0753 C   0  0  0  0  0  0
  -22.4238   -8.0282   21.3544 C   0  0  0  0  0  0
  -21.9882   -9.0251   20.4639 C   0  0  0  0  0  0
  -22.7231  -10.2117   20.3062 C   0  0  0  0  0  0
  -21.6834   -6.0740   22.5287 C   0  0  0  0  0  0
  -21.4002   -6.5629   23.8221 C   0  0  0  0  0  0
  -21.3650   -5.6781   24.9182 C   0  0  0  0  0  0
  -21.6050   -4.3053   24.7228 C   0  0  0  0  0  0
  -21.8814   -3.8143   23.4348 C   0  0  0  0  0  0
  -21.9177   -4.6966   22.3409 C   0  0  0  0  0  0
  -22.7758  -13.5167   21.1887 C   0  0  0  0  0  0
  -22.1652   -4.2157   21.0987 F   0  0  0  0  0  0
  -21.5618   -3.4533   25.7738 F   0  0  0  0  0  0
  -30.0174  -13.4076   20.4301 N   0  0  0  0  0  0
  -26.2918  -12.9317   20.3313 N   0  0  0  0  0  0
  -25.9280  -11.6466   20.5757 N   0  0  0  0  0  0
  -22.0366  -12.8206   22.0447 N   0  0  0  0  0  0
  -25.3848  -15.1752   20.4151 N   0  0  0  0  0  0
  -31.8234  -14.7629   20.1438 O   0  0  0  0  0  0
  -21.6600   -6.8884   21.4248 O   0  0  0  0  0  0
  -22.3480  -14.5478   20.6718 O   0  0  0  0  0  0
  -24.6229  -31.8586   23.2016 C   0  0  0  0  0  0
  -25.9080  -32.4778   23.8346 C   0  0  1  0  0  0
  -27.2423  -27.3410   20.1160 C   0  0  0  0  0  0
  -25.5895  -33.8575   24.2276 N   0  0  0  0  0  0
  -23.4176  -30.4826   21.5418 C   0  0  2  0  0  0
  -24.8681  -28.9360   20.1143 C   0  0  0  0  0  0
  -22.7445  -29.4640   22.4915 C   0  0  0  0  0  0
  -18.0286  -28.1398   22.8479 C   0  0  0  0  0  0
  -24.1483  -36.7298   23.2633 C   0  0  0  0  0  0
  -25.9558  -30.7996   21.3665 C   0  0  0  0  0  0
  -26.0345  -29.4263   20.7139 C   0  0  0  0  0  0
  -27.2222  -28.6406   20.7056 C   0  0  0  0  0  0
  -26.0485  -26.8958   19.4986 C   0  0  0  0  0  0
  -24.8749  -27.6739   19.5011 C   0  0  0  0  0  0
  -23.6331  -29.8115   20.1595 C   0  0  0  0  0  0
  -25.4102  -36.3075   24.0323 C   0  0  1  0  0  0
  -20.5880  -28.3712   23.1273 C   0  0  2  0  0  0
  -20.6785  -26.9436   22.5403 C   0  0  0  0  0  0
  -19.5767  -26.6401   21.5202 C   0  0  0  0  0  0
  -18.1945  -26.7946   22.1617 C   0  0  0  0  0  0
  -19.1539  -28.8869   23.2885 C   0  0  0  0  0  0
  -18.9458  -30.1462   23.8930 C   0  0  0  0  0  0
  -17.6463  -30.6599   24.0568 C   0  0  0  0  0  0
  -25.9035  -34.9445   23.5100 C   0  0  0  0  0  0
  -16.5361  -29.9112   23.6321 C   0  0  0  0  0  0
  -16.7272  -28.6522   23.0359 C   0  0  0  0  0  0
  -26.4485  -31.6581   25.0704 C   0  0  0  0  0  0
  -25.3735  -31.3720   26.1449 C   0  0  0  0  0  0
  -27.0319  -30.3006   24.6137 C   0  0  0  0  0  0
  -27.6060  -32.4317   25.7461 C   0  0  0  0  0  0
  -27.5577  -37.1781   24.8454 C   0  0  0  0  0  0
  -21.4163  -29.3059   22.3644 N   0  0  0  0  0  0
  -26.4282  -37.3766   23.9411 N   0  0  0  0  0  0
  -24.6850  -31.0629   22.0949 N   0  0  0  0  0  0
  -23.4170  -28.8181   23.2995 O   0  0  0  0  0  0
  -28.3830  -26.5261   20.1661 O   0  0  0  0  0  0
  -26.5614  -34.8908   22.4674 O   0  0  0  0  0  0
  -23.5400  -32.1375   23.7357 O   0  0  0  0  0  0
  -31.2798  -19.2266   21.1674 C   0  0  0  0  0  0
  -31.2016  -17.8031   21.1768 C   0  0  0  0  0  0
  -29.1121  -19.3721   20.1412 C   0  0  0  0  0  0
  -30.2306  -20.0481   20.6715 C   0  0  0  0  0  0
  -29.0235  -17.9504   20.1503 C   0  0  0  0  0  0
  -30.0569  -17.1249   20.6874 C   0  0  0  0  0  0
  -27.0763  -15.7823   16.0147 C   0  0  0  0  0  0
  -30.3485  -21.6069   20.7471 C   0  0  0  0  0  0
  -27.7850  -17.3312   19.5423 C   0  0  0  0  0  0
  -26.7719  -16.4800   17.3433 C   0  0  0  0  0  0
  -29.1752  -22.5481   20.2486 C   0  0  0  0  0  0
  -28.0509  -16.8069   18.1228 C   0  0  0  0  0  0
  -29.3947  -24.1126   20.4368 C   0  0  0  0  0  0
  -28.2202  -25.0733   19.9838 C   0  0  0  0  0  0
  -29.8572  -15.6835   20.8177 N   0  0  0  0  0  0
  -31.4811  -12.4915   19.1638 H   0  0  0  0  0  0
  -30.3536  -11.3862   19.9004 H   0  0  0  0  0  0
  -29.7759  -11.7724   17.4729 H   0  0  0  0  0  0
  -29.6539  -13.4895   17.7670 H   0  0  0  0  0  0
  -27.8836  -11.2872   18.8906 H   0  0  0  0  0  0
  -27.3768  -12.5518   17.7996 H   0  0  0  0  0  0
  -27.6581  -14.2472   19.5156 H   0  0  0  0  0  0
  -28.6974  -12.0614   21.3853 H   0  0  0  0  0  0
  -28.4429  -13.7209   21.8414 H   0  0  0  0  0  0
  -25.2740   -9.5621   22.4771 H   0  0  0  0  0  0
  -23.9968   -7.4575   22.7449 H   0  0  0  0  0  0
  -21.0815   -8.8795   19.8930 H   0  0  0  0  0  0
  -22.3730  -10.9659   19.6171 H   0  0  0  0  0  0
  -21.2005   -7.6137   23.9742 H   0  0  0  0  0  0
  -21.1464   -6.0499   25.9086 H   0  0  0  0  0  0
  -22.0599   -2.7605   23.2845 H   0  0  0  0  0  0
  -22.3938  -11.9878   22.4886 H   0  0  0  0  0  0
  -21.0995  -13.1283   22.2624 H   0  0  0  0  0  0
  -24.5829  -15.7931   20.4758 H   0  0  0  0  0  0
  -26.1743  -15.5960   19.9479 H   0  0  0  0  0  0
  -26.7148  -32.5462   23.1098 H   0  0  0  0  0  0
  -25.0026  -33.9727   25.0411 H   0  0  0  0  0  0
  -22.7127  -31.3034   21.3943 H   0  0  0  0  0  0
  -23.3733  -35.9638   23.3278 H   0  0  0  0  0  0
  -24.3584  -36.8935   22.2050 H   0  0  0  0  0  0
  -23.7247  -37.6498   23.6673 H   0  0  0  0  0  0
  -26.0755  -31.5597   20.5929 H   0  0  0  0  0  0
  -26.8401  -30.8581   21.9891 H   0  0  0  0  0  0
  -28.1185  -29.0140   21.1813 H   0  0  0  0  0  0
  -25.9976  -25.9321   19.0154 H   0  0  0  0  0  0
  -23.9793  -27.2903   19.0329 H   0  0  0  0  0  0
  -23.7472  -30.5829   19.3973 H   0  0  0  0  0  0
  -22.7563  -29.2346   19.8607 H   0  0  0  0  0  0
  -25.1275  -36.1920   25.0815 H   0  0  0  0  0  0
  -21.0000  -28.3303   24.1383 H   0  0  0  0  0  0
  -20.5700  -26.2317   23.3600 H   0  0  0  0  0  0
  -21.6654  -26.7480   22.1190 H   0  0  0  0  0  0
  -19.6938  -25.6309   21.1246 H   0  0  0  0  0  0
  -19.6712  -27.3194   20.6717 H   0  0  0  0  0  0
  -17.4205  -26.6675   21.4030 H   0  0  0  0  0  0
  -18.0365  -26.0096   22.9027 H   0  0  0  0  0  0
  -19.7937  -30.7256   24.2335 H   0  0  0  0  0  0
  -17.5027  -31.6292   24.5153 H   0  0  0  0  0  0
  -15.5367  -30.3041   23.7620 H   0  0  0  0  0  0
  -15.8666  -28.0846   22.7087 H   0  0  0  0  0  0
  -24.5895  -30.7084   25.7773 H   0  0  0  0  0  0
  -24.8955  -32.2901   26.4886 H   0  0  0  0  0  0
  -25.8075  -30.8883   27.0212 H   0  0  0  0  0  0
  -26.2870  -29.6758   24.1196 H   0  0  0  0  0  0
  -27.4057  -29.7259   25.4622 H   0  0  0  0  0  0
  -27.8725  -30.4288   23.9311 H   0  0  0  0  0  0
  -27.2666  -33.3598   26.2074 H   0  0  0  0  0  0
  -28.3841  -32.6913   25.0267 H   0  0  0  0  0  0
  -28.0767  -31.8430   26.5348 H   0  0  0  0  0  0
  -28.2571  -38.0097   24.7513 H   0  0  0  0  0  0
  -28.1092  -36.2629   24.6252 H   0  0  0  0  0  0
  -27.2303  -37.1389   25.8858 H   0  0  0  0  0  0
  -20.9329  -29.8756   21.6838 H   0  0  0  0  0  0
  -26.0157  -38.2826   24.1457 H   0  0  0  0  0  0
  -32.1636  -19.6961   21.5773 H   0  0  0  0  0  0
  -32.0203  -17.2368   21.5995 H   0  0  0  0  0  0
  -28.3000  -19.9514   19.7255 H   0  0  0  0  0  0
  -26.2145  -15.8117   15.3482 H   0  0  0  0  0  0
  -27.3379  -14.7350   16.1728 H   0  0  0  0  0  0
  -27.9076  -16.2613   15.4976 H   0  0  0  0  0  0
  -31.2628  -21.8825   20.2194 H   0  0  0  0  0  0
  -30.5315  -21.8413   21.7966 H   0  0  0  0  0  0
  -26.9741  -18.0610   19.5414 H   0  0  0  0  0  0
  -27.4670  -16.5330   20.2012 H   0  0  0  0  0  0
  -26.1078  -15.8462   17.9282 H   0  0  0  0  0  0
  -26.2248  -17.4057   17.1554 H   0  0  0  0  0  0
  -28.2605  -22.2633   20.7703 H   0  0  0  0  0  0
  -28.9896  -22.3480   19.1929 H   0  0  0  0  0  0
  -28.7018  -15.9331   18.1674 H   0  0  0  0  0  0
  -28.6040  -17.5622   17.5626 H   0  0  0  0  0  0
  -30.3054  -24.3991   19.9085 H   0  0  0  0  0  0
  -29.5975  -24.3001   21.4914 H   0  0  0  0  0  0
  -27.3268  -24.7526   20.5245 H   0  0  0  0  0  0
  -28.0332  -24.8910   18.9255 H   0  0  0  0  0  0
  -28.9043  -15.4081   20.9942 H   0  0  0  0  0  0
  1 25  1  0  0  0
  1 30  2  0  0  0
  1 85  1  0  0  0
  2  3  1  0  0  0
  2 25  1  0  0  0
  2 86  1  0  0  0
  2 87  1  0  0  0
  3  4  1  0  0  0
  3 88  1  0  0  0
  3 89  1  0  0  0
  4  5  1  0  0  0
  4 90  1  0  0  0
  4 91  1  0  0  0
  5  6  1  0  0  0
  5 26  1  0  0  0
  5 92  1  0  0  0
  6 25  1  0  0  0
  6 93  1  0  0  0
  6 94  1  0  0  0
  7  8  2  0  0  0
  7 26  1  0  0  0
  7 29  1  0  0  0
  8  9  1  0  0  0
  8 22  1  0  0  0
  9 10  1  0  0  0
  9 27  2  0  0  0
 10 11  2  0  0  0
 10 15  1  0  0  0
 11 12  1  0  0  0
 11 95  1  0  0  0
 12 13  2  0  0  0
 12 96  1  0  0  0
 13 14  1  0  0  0
 13 31  1  0  0  0
 14 15  2  0  0  0
 14 97  1  0  0  0
 15 98  1  0  0  0
 16 17  2  0  0  0
 16 21  1  0  0  0
 16 31  1  0  0  0
 17 18  1  0  0  0
 17 99  1  0  0  0
 18 19  2  0  0  0
 18100  1  0  0  0
 19 20  1  0  0  0
 19 24  1  0  0  0
 20 21  2  0  0  0
 20101  1  0  0  0
 21 23  1  0  0  0
 22 28  1  0  0  0
 22 32  2  0  0  0
 26 27  1  0  0  0
 28102  1  0  0  0
 28103  1  0  0  0
 29104  1  0  0  0
 29105  1  0  0  0
 33 34  1  0  0  0
 33 66  1  0  0  0
 33 70  2  0  0  0
 34 36  1  0  0  0
 34 59  1  0  0  0
 34106  1  0  0  0
 35 44  2  0  0  0
 35 45  1  0  0  0
 35 68  1  0  0  0
 36 56  1  0  0  0
 36107  1  0  0  0
 37 39  1  0  0  0
 37 47  1  0  0  0
 37 66  1  0  0  0
 37108  1  0  0  0
 38 43  2  0  0  0
 38 46  1  0  0  0
 38 47  1  0  0  0
 39 64  1  0  0  0
 39 67  2  0  0  0
 40 52  1  0  0  0
 40 53  2  0  0  0
 40 58  1  0  0  0
 41109  1  0  0  0
 41110  1  0  0  0
 41111  1  0  0  0
 41 48  1  0  0  0
 42 43  1  0  0  0
 42 66  1  0  0  0
 42112  1  0  0  0
 42113  1  0  0  0
 43 44  1  0  0  0
 44114  1  0  0  0
 45 46  2  0  0  0
 45115  1  0  0  0
 46116  1  0  0  0
 47117  1  0  0  0
 47118  1  0  0  0
 48 56  1  0  0  0
 48 65  1  0  0  0
 48119  1  0  0  0
 49 50  1  0  0  0
 49 53  1  0  0  0
 49 64  1  0  0  0
 49120  1  0  0  0
 50 51  1  0  0  0
 50121  1  0  0  0
 50122  1  0  0  0
 51 52  1  0  0  0
 51123  1  0  0  0
 51124  1  0  0  0
 52125  1  0  0  0
 52126  1  0  0  0
 53 54  1  0  0  0
 54 55  2  0  0  0
 54127  1  0  0  0
 55 57  1  0  0  0
 55128  1  0  0  0
 56 69  2  0  0  0
 57 58  2  0  0  0
 57129  1  0  0  0
 58130  1  0  0  0
 59 60  1  0  0  0
 59 61  1  0  0  0
 59 62  1  0  0  0
 60131  1  0  0  0
 60132  1  0  0  0
 60133  1  0  0  0
 61134  1  0  0  0
 61135  1  0  0  0
 61136  1  0  0  0
 62137  1  0  0  0
 62138  1  0  0  0
 62139  1  0  0  0
 63 65  1  0  0  0
 63140  1  0  0  0
 63141  1  0  0  0
 63142  1  0  0  0
 64143  1  0  0  0
 65144  1  0  0  0
 68 84  1  0  0  0
 71 72  2  0  0  0
 71 74  1  0  0  0
 71145  1  0  0  0
 72 76  1  0  0  0
 72146  1  0  0  0
 73 74  2  0  0  0
 73 75  1  0  0  0
 73147  1  0  0  0
 74 78  1  0  0  0
 75 76  2  0  0  0
 75 79  1  0  0  0
 76 85  1  0  0  0
 77 80  1  0  0  0
 77148  1  0  0  0
 77149  1  0  0  0
 77150  1  0  0  0
 78 81  1  0  0  0
 78151  1  0  0  0
 78152  1  0  0  0
 79 82  1  0  0  0
 79153  1  0  0  0
 79154  1  0  0  0
 80 82  1  0  0  0
 80155  1  0  0  0
 80156  1  0  0  0
 81 83  1  0  0  0
 81157  1  0  0  0
 81158  1  0  0  0
 82159  1  0  0  0
 82160  1  0  0  0
 83 84  1  0  0  0
 83161  1  0  0  0
 83162  1  0  0  0
 84163  1  0  0  0
 84164  1  0  0  0
 85165  1  0  0  0
M  ISO  4   1 100  68 101  84 101  85 100
M  END
> <chiral flag>
0

> <version>
0

> <s_m_source_file>
/data/baiqing/PycharmProjects/Reinvent-master-3.2/result/LINK_invent/BTK/process_docking_weight1_custom_product_contain_oxygen_bond_distance_aromatic_linkinvent_7_9_3/rearranged_h_0131.sdf

> <i_m_source_file_index>
57

> <r_mmod_Potential_Energy-OPLS-2005>
38.7265205383301

> <r_mmod_Stretch_Energy-OPLS-2005>
70.0048217773438

> <r_mmod_Bend_Energy-OPLS-2005>
125.222969055176

> <r_mmod_Torsional_Energy-OPLS-2005>
224.422225952148

> <r_mmod_Improper_Torsional_Energy-OPLS-2005>
6.28361368179321

> <r_mmod_Van_der_Waal_Energy-OPLS-2005>
132.167739868164

> <r_mmod_Electrostatic_Energy-OPLS-2005>
-366.136413574219

> <r_mmod_Solvation_Energy-OPLS-2005>
-194.388854980469

> <b_mmod_Minimization_Converged-OPLS-2005>
0

> <r_mmod_RMS_Derivative-OPLS-2005>
2.89979791641235

$$$$
57
                    3D
 Structure written by MMmdl.
148156  0  0  1  0            999 V2000
  -30.6154  -14.7294   20.4498 C   0  0  0  0  0  0
  -30.4301  -12.4373   19.4852 C   0  0  0  0  0  0
  -29.5139  -12.5083   18.2425 C   0  0  0  0  0  0
  -28.0364  -12.3386   18.6468 C   0  0  0  0  0  0
  -27.6436  -13.2325   19.8535 C   0  0  2  0  0  0
  -28.6841  -13.1482   20.9897 C   0  0  0  0  0  0
  -25.2516  -13.8202   20.5697 C   0  0  0  0  0  0
  -24.1802  -13.0444   20.9194 C   0  0  0  0  0  0
  -24.6394  -11.6923   20.8739 C   0  0  0  0  0  0
  -23.9073  -10.4297   21.0404 C   0  0  0  0  0  0
  -24.3625   -9.4212   21.9184 C   0  0  0  0  0  0
  -23.6298   -8.2246   22.0752 C   0  0  0  0  0  0
  -22.4280   -8.0283   21.3541 C   0  0  0  0  0  0
  -21.9916   -9.0256   20.4643 C   0  0  0  0  0  0
  -22.7244  -10.2136   20.3053 C   0  0  0  0  0  0
  -21.6853   -6.0738   22.5278 C   0  0  0  0  0  0
  -21.4014   -6.5639   23.8213 C   0  0  0  0  0  0
  -21.3661   -5.6792   24.9175 C   0  0  0  0  0  0
  -21.6047   -4.3055   24.7224 C   0  0  0  0  0  0
  -21.8817   -3.8148   23.4344 C   0  0  0  0  0  0
  -21.9191   -4.6966   22.3401 C   0  0  0  0  0  0
  -22.7824  -13.5222   21.1863 C   0  0  0  0  0  0
  -22.1658   -4.2153   21.0978 F   0  0  0  0  0  0
  -21.5635   -3.4538   25.7736 F   0  0  0  0  0  0
  -29.9930  -13.4986   20.4240 N   0  0  0  0  0  0
  -26.2943  -12.9411   20.3283 N   0  0  0  0  0  0
  -25.9325  -11.6551   20.5744 N   0  0  0  0  0  0
  -22.0472  -12.8208   22.0421 N   0  0  0  0  0  0
  -25.4223  -15.1928   20.4147 N   0  0  0  0  0  0
  -31.8005  -14.7969   20.1087 O   0  0  0  0  0  0
  -21.6640   -6.8883   21.4240 O   0  0  0  0  0  0
  -22.3504  -14.5528   20.6714 O   0  0  0  0  0  0
  -24.6304  -31.8559   23.1986 C   0  0  0  0  0  0
  -25.9134  -32.4757   23.8327 C   0  0  1  0  0  0
  -27.2226  -27.2721   20.1149 C   0  0  0  0  0  0
  -25.5936  -33.8561   24.2255 N   0  0  0  0  0  0
  -23.4254  -30.4787   21.5423 C   0  0  2  0  0  0
  -24.8707  -28.9260   20.1086 C   0  0  0  0  0  0
  -22.7492  -29.4607   22.4920 C   0  0  0  0  0  0
  -18.0292  -28.1386   22.8489 C   0  0  0  0  0  0
  -24.1491  -36.7282   23.2640 C   0  0  0  0  0  0
  -25.9700  -30.7709   21.3761 C   0  0  0  0  0  0
  -26.0410  -29.3944   20.7169 C   0  0  0  0  0  0
  -27.2149  -28.5776   20.7128 C   0  0  0  0  0  0
  -26.0217  -26.8624   19.4912 C   0  0  0  0  0  0
  -24.8656  -27.6674   19.4886 C   0  0  0  0  0  0
  -23.6413  -29.8124   20.1579 C   0  0  0  0  0  0
  -25.4119  -36.3071   24.0325 C   0  0  1  0  0  0
  -20.5894  -28.3698   23.1274 C   0  0  2  0  0  0
  -20.6780  -26.9418   22.5410 C   0  0  0  0  0  0
  -19.5753  -26.6385   21.5214 C   0  0  0  0  0  0
  -18.1933  -26.7930   22.1625 C   0  0  0  0  0  0
  -19.1545  -28.8858   23.2877 C   0  0  0  0  0  0
  -18.9466  -30.1459   23.8896 C   0  0  0  0  0  0
  -17.6465  -30.6587   24.0563 C   0  0  0  0  0  0
  -25.9060  -34.9442   23.5093 C   0  0  0  0  0  0
  -16.5358  -29.9083   23.6330 C   0  0  0  0  0  0
  -16.7279  -28.6500   23.0357 C   0  0  0  0  0  0
  -26.4501  -31.6582   25.0718 C   0  0  0  0  0  0
  -25.3721  -31.3728   26.1435 C   0  0  0  0  0  0
  -27.0353  -30.3003   24.6199 C   0  0  0  0  0  0
  -27.6054  -32.4323   25.7495 C   0  0  0  0  0  0
  -27.5579  -37.1800   24.8467 C   0  0  0  0  0  0
  -21.4202  -29.3045   22.3663 N   0  0  0  0  0  0
  -26.4293  -37.3771   23.9407 N   0  0  0  0  0  0
  -24.6944  -31.0530   22.0955 N   0  0  0  0  0  0
  -23.4198  -28.8150   23.3017 O   0  0  0  0  0  0
  -28.3419  -26.4139   20.1969 O   0  0  0  0  0  0
  -26.5631  -34.8917   22.4662 O   0  0  0  0  0  0
  -23.5458  -32.1380   23.7290 O   0  0  0  0  0  0
  -30.0084  -19.8406   19.7820 C   0  0  0  0  0  0
  -28.2925  -20.2878   21.0504 C   0  0  0  0  0  0
  -29.1316  -20.9358   20.1729 C   0  0  0  0  0  0
  -29.6570  -18.6397   20.3923 C   0  0  0  0  0  0
  -30.1865  -17.2450   20.3042 C   0  0  0  0  0  0
  -29.8009  -15.9764   20.7132 C   0  0  0  0  0  0
  -28.5881  -23.7422   20.3437 C   0  0  0  0  0  0
  -29.1299  -22.4314   19.6057 C   0  0  0  0  0  0
  -28.4300  -25.0911   19.4939 C   0  0  0  0  0  0
  -28.2982  -23.7138   21.5446 O   0  0  0  0  0  0
  -28.5761  -18.9318   21.1780 O   0  0  0  0  0  0
  -31.4743  -12.5450   19.1874 H   0  0  0  0  0  0
  -30.3600  -11.4577   19.9605 H   0  0  0  0  0  0
  -29.7949  -11.7396   17.5214 H   0  0  0  0  0  0
  -29.6506  -13.4667   17.7392 H   0  0  0  0  0  0
  -27.8850  -11.2891   18.9012 H   0  0  0  0  0  0
  -27.3845  -12.5416   17.7964 H   0  0  0  0  0  0
  -27.6449  -14.2581   19.4844 H   0  0  0  0  0  0
  -28.7116  -12.1423   21.4110 H   0  0  0  0  0  0
  -28.4169  -13.8074   21.8160 H   0  0  0  0  0  0
  -25.2771   -9.5689   22.4759 H   0  0  0  0  0  0
  -24.0008   -7.4638   22.7472 H   0  0  0  0  0  0
  -21.0848   -8.8771   19.8949 H   0  0  0  0  0  0
  -22.3701  -10.9673   19.6161 H   0  0  0  0  0  0
  -21.2000   -7.6147   23.9719 H   0  0  0  0  0  0
  -21.1489   -6.0521   25.9079 H   0  0  0  0  0  0
  -22.0595   -2.7610   23.2842 H   0  0  0  0  0  0
  -22.4085  -11.9868   22.4810 H   0  0  0  0  0  0
  -21.1091  -13.1235   22.2628 H   0  0  0  0  0  0
  -24.6597  -15.8508   20.5338 H   0  0  0  0  0  0
  -26.2807  -15.6343   20.1089 H   0  0  0  0  0  0
  -26.7200  -32.5403   23.1066 H   0  0  0  0  0  0
  -25.0082  -33.9702   25.0399 H   0  0  0  0  0  0
  -22.7214  -31.3010   21.3977 H   0  0  0  0  0  0
  -23.3756  -35.9612   23.3304 H   0  0  0  0  0  0
  -24.3577  -36.8904   22.2053 H   0  0  0  0  0  0
  -23.7245  -37.6484   23.6664 H   0  0  0  0  0  0
  -26.1083  -31.5327   20.6076 H   0  0  0  0  0  0
  -26.8478  -30.8181   22.0089 H   0  0  0  0  0  0
  -28.1108  -28.9320   21.2032 H   0  0  0  0  0  0
  -25.9213  -25.8949   19.0277 H   0  0  0  0  0  0
  -23.9647  -27.2987   19.0176 H   0  0  0  0  0  0
  -23.7646  -30.5890   19.4022 H   0  0  0  0  0  0
  -22.7589  -29.2464   19.8536 H   0  0  0  0  0  0
  -25.1303  -36.1916   25.0818 H   0  0  0  0  0  0
  -20.9988  -28.3278   24.1394 H   0  0  0  0  0  0
  -20.5684  -26.2311   23.3615 H   0  0  0  0  0  0
  -21.6648  -26.7444   22.1201 H   0  0  0  0  0  0
  -19.6916  -25.6295   21.1248 H   0  0  0  0  0  0
  -19.6685  -27.3194   20.6742 H   0  0  0  0  0  0
  -17.4203  -26.6684   21.4025 H   0  0  0  0  0  0
  -18.0329  -26.0068   22.9017 H   0  0  0  0  0  0
  -19.7942  -30.7277   24.2264 H   0  0  0  0  0  0
  -17.5019  -31.6268   24.5163 H   0  0  0  0  0  0
  -15.5358  -30.2985   23.7654 H   0  0  0  0  0  0
  -15.8681  -28.0816   22.7076 H   0  0  0  0  0  0
  -24.5905  -30.7069   25.7758 H   0  0  0  0  0  0
  -24.8900  -32.2895   26.4843 H   0  0  0  0  0  0
  -25.8034  -30.8916   27.0222 H   0  0  0  0  0  0
  -26.2937  -29.6747   24.1220 H   0  0  0  0  0  0
  -27.4037  -29.7269   25.4715 H   0  0  0  0  0  0
  -27.8810  -30.4286   23.9441 H   0  0  0  0  0  0
  -27.2666  -33.3631   26.2055 H   0  0  0  0  0  0
  -28.3875  -32.6870   25.0329 H   0  0  0  0  0  0
  -28.0710  -31.8458   26.5425 H   0  0  0  0  0  0
  -28.2598  -38.0095   24.7511 H   0  0  0  0  0  0
  -28.1073  -36.2626   24.6298 H   0  0  0  0  0  0
  -27.2295  -37.1454   25.8870 H   0  0  0  0  0  0
  -20.9389  -29.8768   21.6867 H   0  0  0  0  0  0
  -26.0170  -38.2846   24.1401 H   0  0  0  0  0  0
  -30.8218  -19.9208   19.0738 H   0  0  0  0  0  0
  -27.4377  -20.6175   21.6262 H   0  0  0  0  0  0
  -31.1308  -17.2488   19.7774 H   0  0  0  0  0  0
  -28.8659  -15.8914   21.2442 H   0  0  0  0  0  0
  -28.6021  -22.3909   18.6530 H   0  0  0  0  0  0
  -30.1628  -22.6560   19.3401 H   0  0  0  0  0  0
  -27.6272  -24.9419   18.7782 H   0  0  0  0  0  0
  -29.3245  -25.1517   18.8739 H   0  0  0  0  0  0
  1 25  1  0  0  0
  1 30  2  0  0  0
  1 76  1  0  0  0
  2  3  1  0  0  0
  2 25  1  0  0  0
  2 82  1  0  0  0
  2 83  1  0  0  0
  3  4  1  0  0  0
  3 84  1  0  0  0
  3 85  1  0  0  0
  4  5  1  0  0  0
  4 86  1  0  0  0
  4 87  1  0  0  0
  5  6  1  0  0  0
  5 26  1  0  0  0
  5 88  1  0  0  0
  6 25  1  0  0  0
  6 89  1  0  0  0
  6 90  1  0  0  0
  7  8  2  0  0  0
  7 26  1  0  0  0
  7 29  1  0  0  0
  8  9  1  0  0  0
  8 22  1  0  0  0
  9 10  1  0  0  0
  9 27  2  0  0  0
 10 11  2  0  0  0
 10 15  1  0  0  0
 11 12  1  0  0  0
 11 91  1  0  0  0
 12 13  2  0  0  0
 12 92  1  0  0  0
 13 14  1  0  0  0
 13 31  1  0  0  0
 14 15  2  0  0  0
 14 93  1  0  0  0
 15 94  1  0  0  0
 16 17  2  0  0  0
 16 21  1  0  0  0
 16 31  1  0  0  0
 17 18  1  0  0  0
 17 95  1  0  0  0
 18 19  2  0  0  0
 18 96  1  0  0  0
 19 20  1  0  0  0
 19 24  1  0  0  0
 20 21  2  0  0  0
 20 97  1  0  0  0
 21 23  1  0  0  0
 22 28  1  0  0  0
 22 32  2  0  0  0
 26 27  1  0  0  0
 28 98  1  0  0  0
 28 99  1  0  0  0
 29100  1  0  0  0
 29101  1  0  0  0
 33 34  1  0  0  0
 33 66  1  0  0  0
 33 70  2  0  0  0
 34 36  1  0  0  0
 34 59  1  0  0  0
 34102  1  0  0  0
 35 44  2  0  0  0
 35 45  1  0  0  0
 35 68  1  0  0  0
 36 56  1  0  0  0
 36103  1  0  0  0
 37 39  1  0  0  0
 37 47  1  0  0  0
 37 66  1  0  0  0
 37104  1  0  0  0
 38 43  2  0  0  0
 38 46  1  0  0  0
 38 47  1  0  0  0
 39 64  1  0  0  0
 39 67  2  0  0  0
 40 52  1  0  0  0
 40 53  2  0  0  0
 40 58  1  0  0  0
 41105  1  0  0  0
 41106  1  0  0  0
 41107  1  0  0  0
 41 48  1  0  0  0
 42 43  1  0  0  0
 42 66  1  0  0  0
 42108  1  0  0  0
 42109  1  0  0  0
 43 44  1  0  0  0
 44110  1  0  0  0
 45 46  2  0  0  0
 45111  1  0  0  0
 46112  1  0  0  0
 47113  1  0  0  0
 47114  1  0  0  0
 48 56  1  0  0  0
 48 65  1  0  0  0
 48115  1  0  0  0
 49 50  1  0  0  0
 49 53  1  0  0  0
 49 64  1  0  0  0
 49116  1  0  0  0
 50 51  1  0  0  0
 50117  1  0  0  0
 50118  1  0  0  0
 51 52  1  0  0  0
 51119  1  0  0  0
 51120  1  0  0  0
 52121  1  0  0  0
 52122  1  0  0  0
 53 54  1  0  0  0
 54 55  2  0  0  0
 54123  1  0  0  0
 55 57  1  0  0  0
 55124  1  0  0  0
 56 69  2  0  0  0
 57 58  2  0  0  0
 57125  1  0  0  0
 58126  1  0  0  0
 59 60  1  0  0  0
 59 61  1  0  0  0
 59 62  1  0  0  0
 60127  1  0  0  0
 60128  1  0  0  0
 60129  1  0  0  0
 61130  1  0  0  0
 61131  1  0  0  0
 61132  1  0  0  0
 62133  1  0  0  0
 62134  1  0  0  0
 62135  1  0  0  0
 63 65  1  0  0  0
 63136  1  0  0  0
 63137  1  0  0  0
 63138  1  0  0  0
 64139  1  0  0  0
 65140  1  0  0  0
 68 79  1  0  0  0
 71 73  1  0  0  0
 71 74  2  0  0  0
 71141  1  0  0  0
 72 73  2  0  0  0
 72 81  1  0  0  0
 72142  1  0  0  0
 73 78  1  0  0  0
 74 75  1  0  0  0
 74 81  1  0  0  0
 75 76  2  0  0  0
 75143  1  0  0  0
 76144  1  0  0  0
 77 78  1  0  0  0
 77 79  1  0  0  0
 77 80  2  0  0  0
 78145  1  0  0  0
 78146  1  0  0  0
 79147  1  0  0  0
 79148  1  0  0  0
M  ISO  4   1 100  68 101  76 100  79 101
M  END
> <chiral flag>
0

> <version>
0

> <s_m_source_file>
/data/baiqing/PycharmProjects/Reinvent-master-3.2/result/LINK_invent/BTK/process_docking_weight1_custom_product_contain_oxygen_bond_distance_aromatic_linkinvent_7_9_3/rearranged_h_0131.sdf

> <i_m_source_file_index>
58

> <r_mmod_Potential_Energy-OPLS-2005>
135.008926391602

> <r_mmod_Stretch_Energy-OPLS-2005>
107.777008056641

> <r_mmod_Bend_Energy-OPLS-2005>
176.544891357422

> <r_mmod_Torsional_Energy-OPLS-2005>
177.268005371094

> <r_mmod_Improper_Torsional_Energy-OPLS-2005>
4.12732601165771

> <r_mmod_Van_der_Waal_Energy-OPLS-2005>
120.199317932129

> <r_mmod_Electrostatic_Energy-OPLS-2005>
-302.401794433594

> <r_mmod_Solvation_Energy-OPLS-2005>
-224.295608520508

> <b_mmod_Minimization_Converged-OPLS-2005>
0

> <r_mmod_RMS_Derivative-OPLS-2005>
0.383605182170868

$$$$
58
                    3D
 Structure written by MMmdl.
161169  0  0  1  0            999 V2000
  -30.6945  -14.4540   20.5796 C   0  0  0  0  0  0
  -30.4247  -12.2930   19.4285 C   0  0  0  0  0  0
  -29.5022  -12.5118   18.2110 C   0  0  0  0  0  0
  -28.0198  -12.3758   18.6151 C   0  0  0  0  0  0
  -27.6654  -13.2055   19.8785 C   0  0  2  0  0  0
  -28.7018  -12.9655   20.9999 C   0  0  0  0  0  0
  -25.2590  -13.8157   20.5674 C   0  0  0  0  0  0
  -24.1831  -13.0439   20.9157 C   0  0  0  0  0  0
  -24.6386  -11.6906   20.8706 C   0  0  0  0  0  0
  -23.9047  -10.4295   21.0383 C   0  0  0  0  0  0
  -24.3602   -9.4212   21.9167 C   0  0  0  0  0  0
  -23.6279   -8.2246   22.0749 C   0  0  0  0  0  0
  -22.4252   -8.0284   21.3548 C   0  0  0  0  0  0
  -21.9886   -9.0257   20.4644 C   0  0  0  0  0  0
  -22.7216  -10.2131   20.3043 C   0  0  0  0  0  0
  -21.6850   -6.0731   22.5276 C   0  0  0  0  0  0
  -21.4025   -6.5636   23.8213 C   0  0  0  0  0  0
  -21.3665   -5.6786   24.9173 C   0  0  0  0  0  0
  -21.6037   -4.3046   24.7223 C   0  0  0  0  0  0
  -21.8816   -3.8141   23.4342 C   0  0  0  0  0  0
  -21.9196   -4.6957   22.3401 C   0  0  0  0  0  0
  -22.7855  -13.5245   21.1823 C   0  0  0  0  0  0
  -22.1658   -4.2145   21.0975 F   0  0  0  0  0  0
  -21.5627   -3.4534   25.7736 F   0  0  0  0  0  0
  -30.0405  -13.2665   20.4612 N   0  0  0  0  0  0
  -26.3033  -12.9328   20.3353 N   0  0  0  0  0  0
  -25.9314  -11.6484   20.5724 N   0  0  0  0  0  0
  -22.0494  -12.8254   22.0389 N   0  0  0  0  0  0
  -25.4319  -15.1876   20.4120 N   0  0  0  0  0  0
  -31.8028  -14.6613   20.0742 O   0  0  0  0  0  0
  -21.6636   -6.8869   21.4235 O   0  0  0  0  0  0
  -22.3537  -14.5552   20.6682 O   0  0  0  0  0  0
  -24.6124  -31.8697   23.2115 C   0  0  0  0  0  0
  -25.9020  -32.4841   23.8408 C   0  0  1  0  0  0
  -27.2365  -27.4494   20.1021 C   0  0  0  0  0  0
  -25.5880  -33.8637   24.2338 N   0  0  0  0  0  0
  -23.4011  -30.4926   21.5507 C   0  0  2  0  0  0
  -24.8495  -28.9549   20.1187 C   0  0  0  0  0  0
  -22.7400  -29.4670   22.4993 C   0  0  0  0  0  0
  -18.0270  -28.1381   22.8495 C   0  0  0  0  0  0
  -24.1479  -36.7326   23.2642 C   0  0  0  0  0  0
  -25.9274  -30.8384   21.3626 C   0  0  0  0  0  0
  -26.0063  -29.4705   20.7180 C   0  0  0  0  0  0
  -27.2043  -28.7222   20.7129 C   0  0  0  0  0  0
  -26.0711  -26.9437   19.4953 C   0  0  0  0  0  0
  -24.8750  -27.6880   19.5066 C   0  0  0  0  0  0
  -23.6111  -29.8221   20.1658 C   0  0  0  0  0  0
  -25.4100  -36.3129   24.0345 C   0  0  1  0  0  0
  -20.5859  -28.3666   23.1325 C   0  0  2  0  0  0
  -20.6759  -26.9402   22.5427 C   0  0  0  0  0  0
  -19.5738  -26.6384   21.5219 C   0  0  0  0  0  0
  -18.1914  -26.7926   22.1627 C   0  0  0  0  0  0
  -19.1520  -28.8836   23.2913 C   0  0  0  0  0  0
  -18.9451  -30.1436   23.8935 C   0  0  0  0  0  0
  -17.6456  -30.6585   24.0576 C   0  0  0  0  0  0
  -25.9025  -34.9491   23.5143 C   0  0  0  0  0  0
  -16.5347  -29.9100   23.6317 C   0  0  0  0  0  0
  -16.7262  -28.6514   23.0344 C   0  0  0  0  0  0
  -26.4458  -31.6621   25.0730 C   0  0  0  0  0  0
  -25.3735  -31.3720   26.1490 C   0  0  0  0  0  0
  -27.0288  -30.3070   24.6089 C   0  0  0  0  0  0
  -27.6041  -32.4343   25.7476 C   0  0  0  0  0  0
  -27.5582  -37.1817   24.8466 C   0  0  0  0  0  0
  -21.4129  -29.3039   22.3733 N   0  0  0  0  0  0
  -26.4294  -37.3807   23.9411 N   0  0  0  0  0  0
  -24.6652  -31.0814   22.1003 N   0  0  0  0  0  0
  -23.4178  -28.8214   23.3034 O   0  0  0  0  0  0
  -28.3883  -26.7012   20.0635 O   0  0  0  0  0  0
  -26.5594  -34.8937   22.4704 O   0  0  0  0  0  0
  -23.5319  -32.1439   23.7515 O   0  0  0  0  0  0
  -30.4588  -18.7722   19.5648 C   0  0  0  0  0  0
  -30.4536  -17.3808   19.7746 C   0  0  0  0  0  0
  -29.6945  -19.1220   21.8421 C   0  0  0  0  0  0
  -30.0838  -19.6577   20.5945 C   0  0  0  0  0  0
  -29.6682  -17.7178   22.0635 C   0  0  0  0  0  0
  -30.0709  -16.8346   21.0240 C   0  0  0  0  0  0
  -29.2006  -23.5440   20.6034 C   0  0  0  0  0  0
  -28.4210  -18.0899   24.3153 C   0  0  0  0  0  0
  -30.1712  -21.1660   20.3380 C   0  0  0  0  0  0
  -29.2473  -17.1507   23.4220 C   0  0  0  0  0  0
  -29.0728  -22.0528   20.9764 C   0  0  0  0  0  0
  -28.2368  -24.5319   21.2813 C   0  0  0  0  0  0
  -28.6949  -26.0135   21.2810 C   0  0  0  0  0  0
  -30.0132  -15.4183   21.2270 N   0  0  0  0  0  0
  -30.0435  -23.9300   19.7872 O   0  0  0  0  0  0
  -31.4723  -12.3864   19.1365 H   0  0  0  0  0  0
  -30.3159  -11.2786   19.8161 H   0  0  0  0  0  0
  -29.7434  -11.7979   17.4223 H   0  0  0  0  0  0
  -29.6792  -13.5025   17.7879 H   0  0  0  0  0  0
  -27.8215  -11.3189   18.8004 H   0  0  0  0  0  0
  -27.3768  -12.6644   17.7828 H   0  0  0  0  0  0
  -27.7163  -14.2566   19.5921 H   0  0  0  0  0  0
  -28.6689  -11.9247   21.3270 H   0  0  0  0  0  0
  -28.4578  -13.5504   21.8872 H   0  0  0  0  0  0
  -25.2752   -9.5696   22.4734 H   0  0  0  0  0  0
  -23.9998   -7.4634   22.7466 H   0  0  0  0  0  0
  -21.0818   -8.8765   19.8951 H   0  0  0  0  0  0
  -22.3667  -10.9667   19.6147 H   0  0  0  0  0  0
  -21.2025   -7.6143   23.9718 H   0  0  0  0  0  0
  -21.1487   -6.0513   25.9077 H   0  0  0  0  0  0
  -22.0591   -2.7603   23.2843 H   0  0  0  0  0  0
  -22.4113  -11.9937   22.4812 H   0  0  0  0  0  0
  -21.1117  -13.1290   22.2585 H   0  0  0  0  0  0
  -24.6665  -15.8440   20.5241 H   0  0  0  0  0  0
  -26.2915  -15.6302   20.1128 H   0  0  0  0  0  0
  -26.7100  -32.5568   23.1185 H   0  0  0  0  0  0
  -25.0029  -33.9801   25.0484 H   0  0  0  0  0  0
  -22.6896  -31.3090   21.4107 H   0  0  0  0  0  0
  -23.3741  -35.9660   23.3322 H   0  0  0  0  0  0
  -24.3575  -36.8920   22.2054 H   0  0  0  0  0  0
  -23.7231  -37.6536   23.6642 H   0  0  0  0  0  0
  -26.0340  -31.5996   20.5887 H   0  0  0  0  0  0
  -26.8181  -30.8995   21.9768 H   0  0  0  0  0  0
  -28.1008  -29.1176   21.1703 H   0  0  0  0  0  0
  -26.0904  -25.9733   19.0202 H   0  0  0  0  0  0
  -23.9860  -27.2844   19.0418 H   0  0  0  0  0  0
  -23.7208  -30.5966   19.4057 H   0  0  0  0  0  0
  -22.7350  -29.2424   19.8698 H   0  0  0  0  0  0
  -25.1275  -36.2005   25.0840 H   0  0  0  0  0  0
  -20.9958  -28.3235   24.1444 H   0  0  0  0  0  0
  -20.5649  -26.2277   23.3617 H   0  0  0  0  0  0
  -21.6631  -26.7438   22.1229 H   0  0  0  0  0  0
  -19.6896  -25.6296   21.1245 H   0  0  0  0  0  0
  -19.6679  -27.3199   20.6753 H   0  0  0  0  0  0
  -17.4185  -26.6680   21.4031 H   0  0  0  0  0  0
  -18.0312  -26.0067   22.9021 H   0  0  0  0  0  0
  -19.7928  -30.7234   24.2334 H   0  0  0  0  0  0
  -17.5018  -31.6268   24.5176 H   0  0  0  0  0  0
  -15.5353  -30.3025   23.7613 H   0  0  0  0  0  0
  -15.8658  -28.0851   22.7041 H   0  0  0  0  0  0
  -24.5877  -30.7105   25.7828 H   0  0  0  0  0  0
  -24.8959  -32.2874   26.4994 H   0  0  0  0  0  0
  -25.8091  -30.8842   27.0220 H   0  0  0  0  0  0
  -26.2822  -29.6834   24.1158 H   0  0  0  0  0  0
  -27.4087  -29.7308   25.4537 H   0  0  0  0  0  0
  -27.8644  -30.4407   23.9214 H   0  0  0  0  0  0
  -27.2662  -33.3625   26.2098 H   0  0  0  0  0  0
  -28.3810  -32.6941   25.0274 H   0  0  0  0  0  0
  -28.0757  -31.8449   26.5350 H   0  0  0  0  0  0
  -28.2619  -38.0097   24.7506 H   0  0  0  0  0  0
  -28.1058  -36.2634   24.6296 H   0  0  0  0  0  0
  -27.2308  -37.1480   25.8872 H   0  0  0  0  0  0
  -20.9277  -29.8778   21.6978 H   0  0  0  0  0  0
  -26.0194  -38.2891   24.1403 H   0  0  0  0  0  0
  -30.7669  -19.1572   18.6024 H   0  0  0  0  0  0
  -30.7412  -16.7406   18.9522 H   0  0  0  0  0  0
  -29.4284  -19.8046   22.6340 H   0  0  0  0  0  0
  -28.0928  -17.5667   25.2134 H   0  0  0  0  0  0
  -27.5277  -18.4456   23.8002 H   0  0  0  0  0  0
  -28.9998  -18.9527   24.6448 H   0  0  0  0  0  0
  -30.1622  -21.3232   19.2583 H   0  0  0  0  0  0
  -31.1504  -21.5031   20.6797 H   0  0  0  0  0  0
  -30.1469  -16.8405   23.9550 H   0  0  0  0  0  0
  -28.6559  -16.2483   23.2653 H   0  0  0  0  0  0
  -28.0869  -21.7067   20.6660 H   0  0  0  0  0  0
  -29.1094  -21.9708   22.0619 H   0  0  0  0  0  0
  -28.1305  -24.2049   22.3158 H   0  0  0  0  0  0
  -27.2486  -24.4382   20.8325 H   0  0  0  0  0  0
  -29.7717  -26.0748   21.4430 H   0  0  0  0  0  0
  -28.2494  -26.5241   22.1373 H   0  0  0  0  0  0
  -29.2392  -15.0892   21.7820 H   0  0  0  0  0  0
  1 25  1  0  0  0
  1 30  2  0  0  0
  1 84  1  0  0  0
  2  3  1  0  0  0
  2 25  1  0  0  0
  2 86  1  0  0  0
  2 87  1  0  0  0
  3  4  1  0  0  0
  3 88  1  0  0  0
  3 89  1  0  0  0
  4  5  1  0  0  0
  4 90  1  0  0  0
  4 91  1  0  0  0
  5  6  1  0  0  0
  5 26  1  0  0  0
  5 92  1  0  0  0
  6 25  1  0  0  0
  6 93  1  0  0  0
  6 94  1  0  0  0
  7  8  2  0  0  0
  7 26  1  0  0  0
  7 29  1  0  0  0
  8  9  1  0  0  0
  8 22  1  0  0  0
  9 10  1  0  0  0
  9 27  2  0  0  0
 10 11  2  0  0  0
 10 15  1  0  0  0
 11 12  1  0  0  0
 11 95  1  0  0  0
 12 13  2  0  0  0
 12 96  1  0  0  0
 13 14  1  0  0  0
 13 31  1  0  0  0
 14 15  2  0  0  0
 14 97  1  0  0  0
 15 98  1  0  0  0
 16 17  2  0  0  0
 16 21  1  0  0  0
 16 31  1  0  0  0
 17 18  1  0  0  0
 17 99  1  0  0  0
 18 19  2  0  0  0
 18100  1  0  0  0
 19 20  1  0  0  0
 19 24  1  0  0  0
 20 21  2  0  0  0
 20101  1  0  0  0
 21 23  1  0  0  0
 22 28  1  0  0  0
 22 32  2  0  0  0
 26 27  1  0  0  0
 28102  1  0  0  0
 28103  1  0  0  0
 29104  1  0  0  0
 29105  1  0  0  0
 33 34  1  0  0  0
 33 66  1  0  0  0
 33 70  2  0  0  0
 34 36  1  0  0  0
 34 59  1  0  0  0
 34106  1  0  0  0
 35 44  2  0  0  0
 35 45  1  0  0  0
 35 68  1  0  0  0
 36 56  1  0  0  0
 36107  1  0  0  0
 37 39  1  0  0  0
 37 47  1  0  0  0
 37 66  1  0  0  0
 37108  1  0  0  0
 38 43  2  0  0  0
 38 46  1  0  0  0
 38 47  1  0  0  0
 39 64  1  0  0  0
 39 67  2  0  0  0
 40 52  1  0  0  0
 40 53  2  0  0  0
 40 58  1  0  0  0
 41109  1  0  0  0
 41110  1  0  0  0
 41111  1  0  0  0
 41 48  1  0  0  0
 42 43  1  0  0  0
 42 66  1  0  0  0
 42112  1  0  0  0
 42113  1  0  0  0
 43 44  1  0  0  0
 44114  1  0  0  0
 45 46  2  0  0  0
 45115  1  0  0  0
 46116  1  0  0  0
 47117  1  0  0  0
 47118  1  0  0  0
 48 56  1  0  0  0
 48 65  1  0  0  0
 48119  1  0  0  0
 49 50  1  0  0  0
 49 53  1  0  0  0
 49 64  1  0  0  0
 49120  1  0  0  0
 50 51  1  0  0  0
 50121  1  0  0  0
 50122  1  0  0  0
 51 52  1  0  0  0
 51123  1  0  0  0
 51124  1  0  0  0
 52125  1  0  0  0
 52126  1  0  0  0
 53 54  1  0  0  0
 54 55  2  0  0  0
 54127  1  0  0  0
 55 57  1  0  0  0
 55128  1  0  0  0
 56 69  2  0  0  0
 57 58  2  0  0  0
 57129  1  0  0  0
 58130  1  0  0  0
 59 60  1  0  0  0
 59 61  1  0  0  0
 59 62  1  0  0  0
 60131  1  0  0  0
 60132  1  0  0  0
 60133  1  0  0  0
 61134  1  0  0  0
 61135  1  0  0  0
 61136  1  0  0  0
 62137  1  0  0  0
 62138  1  0  0  0
 62139  1  0  0  0
 63 65  1  0  0  0
 63140  1  0  0  0
 63141  1  0  0  0
 63142  1  0  0  0
 64143  1  0  0  0
 65144  1  0  0  0
 68 83  1  0  0  0
 71 72  2  0  0  0
 71 74  1  0  0  0
 71145  1  0  0  0
 72 76  1  0  0  0
 72146  1  0  0  0
 73 74  2  0  0  0
 73 75  1  0  0  0
 73147  1  0  0  0
 74 79  1  0  0  0
 75 76  2  0  0  0
 75 80  1  0  0  0
 76 84  1  0  0  0
 77 81  1  0  0  0
 77 82  1  0  0  0
 77 85  2  0  0  0
 78 80  1  0  0  0
 78148  1  0  0  0
 78149  1  0  0  0
 78150  1  0  0  0
 79 81  1  0  0  0
 79151  1  0  0  0
 79152  1  0  0  0
 80153  1  0  0  0
 80154  1  0  0  0
 81155  1  0  0  0
 81156  1  0  0  0
 82 83  1  0  0  0
 82157  1  0  0  0
 82158  1  0  0  0
 83159  1  0  0  0
 83160  1  0  0  0
 84161  1  0  0  0
M  ISO  4   1 100  68 101  83 101  84 100
M  END
> <chiral flag>
0

> <version>
0

> <s_m_source_file>
/data/baiqing/PycharmProjects/Reinvent-master-3.2/result/LINK_invent/BTK/process_docking_weight1_custom_product_contain_oxygen_bond_distance_aromatic_linkinvent_7_9_3/rearranged_h_0131.sdf

> <i_m_source_file_index>
59

> <r_mmod_Potential_Energy-OPLS-2005>
-91.2482528686523

> <r_mmod_Stretch_Energy-OPLS-2005>
37.6033706665039

> <r_mmod_Bend_Energy-OPLS-2005>
93.6024932861328

> <r_mmod_Torsional_Energy-OPLS-2005>
233.921585083008

> <r_mmod_Improper_Torsional_Energy-OPLS-2005>
3.10633373260498

> <r_mmod_Van_der_Waal_Energy-OPLS-2005>
155.45719909668

> <r_mmod_Electrostatic_Energy-OPLS-2005>
-406.133270263672

> <r_mmod_Solvation_Energy-OPLS-2005>
-218.603302001953

> <b_mmod_Minimization_Converged-OPLS-2005>
0

> <r_mmod_RMS_Derivative-OPLS-2005>
1.43122470378876

$$$$
59
                    3D
 Structure written by MMmdl.
160168  0  0  1  0            999 V2000
  -30.6092  -14.8118   20.4760 C   0  0  0  0  0  0
  -30.4572  -12.4897   19.5230 C   0  0  0  0  0  0
  -29.5350  -12.4790   18.2780 C   0  0  0  0  0  0
  -28.0645  -12.2782   18.6900 C   0  0  0  0  0  0
  -27.6537  -13.2081   19.8569 C   0  0  2  0  0  0
  -28.6942  -13.1748   20.9952 C   0  0  0  0  0  0
  -25.2666  -13.8096   20.5856 C   0  0  0  0  0  0
  -24.1859  -13.0460   20.9139 C   0  0  0  0  0  0
  -24.6387  -11.6872   20.8733 C   0  0  0  0  0  0
  -23.9027  -10.4314   21.0381 C   0  0  0  0  0  0
  -24.3592   -9.4250   21.9179 C   0  0  0  0  0  0
  -23.6283   -8.2294   22.0807 C   0  0  0  0  0  0
  -22.4264   -8.0314   21.3577 C   0  0  0  0  0  0
  -21.9875   -9.0268   20.4688 C   0  0  0  0  0  0
  -22.7173  -10.2148   20.3079 C   0  0  0  0  0  0
  -21.6881   -6.0756   22.5271 C   0  0  0  0  0  0
  -21.4006   -6.5648   23.8187 C   0  0  0  0  0  0
  -21.3670   -5.6816   24.9144 C   0  0  0  0  0  0
  -21.6033   -4.3069   24.7212 C   0  0  0  0  0  0
  -21.8821   -3.8157   23.4327 C   0  0  0  0  0  0
  -21.9197   -4.6984   22.3382 C   0  0  0  0  0  0
  -22.7883  -13.5311   21.1755 C   0  0  0  0  0  0
  -22.1698   -4.2155   21.0979 F   0  0  0  0  0  0
  -21.5635   -3.4570   25.7727 F   0  0  0  0  0  0
  -29.9960  -13.5654   20.4385 N   0  0  0  0  0  0
  -26.3045  -12.9245   20.3363 N   0  0  0  0  0  0
  -25.9353  -11.6422   20.5854 N   0  0  0  0  0  0
  -22.0530  -12.8394   22.0352 N   0  0  0  0  0  0
  -25.4641  -15.1828   20.4593 N   0  0  0  0  0  0
  -31.7564  -14.9228   20.0269 O   0  0  0  0  0  0
  -21.6635   -6.8913   21.4253 O   0  0  0  0  0  0
  -22.3623  -14.5653   20.6566 O   0  0  0  0  0  0
  -24.6220  -31.8671   23.2103 C   0  0  0  0  0  0
  -25.9079  -32.4822   23.8444 C   0  0  1  0  0  0
  -27.2601  -27.3448   20.1429 C   0  0  0  0  0  0
  -25.5909  -33.8611   24.2335 N   0  0  0  0  0  0
  -23.4216  -30.4892   21.5567 C   0  0  2  0  0  0
  -24.8868  -28.9412   20.1414 C   0  0  0  0  0  0
  -22.7415  -29.4657   22.4992 C   0  0  0  0  0  0
  -18.0369  -28.1460   22.8374 C   0  0  0  0  0  0
  -24.1482  -36.7256   23.2648 C   0  0  0  0  0  0
  -25.9737  -30.8055   21.3946 C   0  0  0  0  0  0
  -26.0577  -29.4343   20.7357 C   0  0  0  0  0  0
  -27.2533  -28.6497   20.7231 C   0  0  0  0  0  0
  -26.0826  -26.9229   19.5036 C   0  0  0  0  0  0
  -24.8946  -27.6777   19.5295 C   0  0  0  0  0  0
  -23.6482  -29.8144   20.1829 C   0  0  0  0  0  0
  -25.4113  -36.3092   24.0357 C   0  0  1  0  0  0
  -20.5922  -28.3653   23.1253 C   0  0  2  0  0  0
  -20.6836  -26.9478   22.5148 C   0  0  0  0  0  0
  -19.5871  -26.6862   21.4774 C   0  0  0  0  0  0
  -18.1998  -26.8241   22.1096 C   0  0  0  0  0  0
  -19.1612  -28.8820   23.2897 C   0  0  0  0  0  0
  -18.9530  -30.1357   23.9074 C   0  0  0  0  0  0
  -17.6535  -30.6466   24.0781 C   0  0  0  0  0  0
  -25.9046  -34.9468   23.5132 C   0  0  0  0  0  0
  -16.5424  -29.9047   23.6409 C   0  0  0  0  0  0
  -16.7354  -28.6524   23.0285 C   0  0  0  0  0  0
  -26.4470  -31.6627   25.0812 C   0  0  0  0  0  0
  -25.3648  -31.3814   26.1502 C   0  0  0  0  0  0
  -27.0326  -30.3020   24.6338 C   0  0  0  0  0  0
  -27.6069  -32.4370   25.7497 C   0  0  0  0  0  0
  -27.5568  -37.1805   24.8459 C   0  0  0  0  0  0
  -21.4116  -29.3060   22.3668 N   0  0  0  0  0  0
  -26.4301  -37.3780   23.9412 N   0  0  0  0  0  0
  -24.6923  -31.0641   22.1116 N   0  0  0  0  0  0
  -23.4093  -28.8158   23.3069 O   0  0  0  0  0  0
  -28.3751  -26.4931   20.0760 O   0  0  0  0  0  0
  -26.5577  -34.8922   22.4665 O   0  0  0  0  0  0
  -23.5382  -32.1483   23.7384 O   0  0  0  0  0  0
  -29.2473  -18.6396   18.1592 C   0  0  0  0  0  0
  -29.5888  -17.4840   18.8962 C   0  0  0  0  0  0
  -29.0000  -19.8762   18.7873 C   0  0  0  0  0  0
  -29.7331  -17.5079   20.3034 C   0  0  0  0  0  0
  -29.5995  -18.8477   20.9074 C   0  0  0  0  0  0
  -29.1677  -20.0408   20.1756 C   0  0  0  0  0  0
  -29.2584  -19.7457   24.6138 C   0  0  0  0  0  0
  -26.8018  -23.6011   20.0469 C   0  0  0  0  0  0
  -28.9874  -19.4795   23.3279 C   0  0  0  0  0  0
  -29.8548  -16.1246   21.0685 C   0  0  0  0  0  0
  -28.0853  -23.8245   20.3676 C   0  0  0  0  0  0
  -30.0562  -19.0737   22.3460 C   0  0  0  0  0  0
  -28.4528  -25.2718   20.9235 C   0  0  0  0  0  0
  -29.1431  -22.6382   20.2185 C   0  0  0  0  0  0
  -29.3242  -16.0548   22.2186 N   0  0  0  0  0  0
  -28.8194  -21.2890   20.7893 O   0  0  0  0  0  0
  -31.5036  -12.6126   19.2342 H   0  0  0  0  0  0
  -30.4184  -11.5300   20.0382 H   0  0  0  0  0  0
  -29.8443  -11.6855   17.5948 H   0  0  0  0  0  0
  -29.6300  -13.4123   17.7234 H   0  0  0  0  0  0
  -27.9544  -11.2379   18.9950 H   0  0  0  0  0  0
  -27.3962  -12.4154   17.8383 H   0  0  0  0  0  0
  -27.6416  -14.2132   19.4402 H   0  0  0  0  0  0
  -28.7573  -12.1826   21.4407 H   0  0  0  0  0  0
  -28.3920  -13.8260   21.8064 H   0  0  0  0  0  0
  -25.2781   -9.5732   22.4692 H   0  0  0  0  0  0
  -23.9987   -7.4736   22.7588 H   0  0  0  0  0  0
  -21.0789   -8.8778   19.9052 H   0  0  0  0  0  0
  -22.3649  -10.9661   19.6184 H   0  0  0  0  0  0
  -21.2019   -7.6155   23.9682 H   0  0  0  0  0  0
  -21.1492   -6.0545   25.9035 H   0  0  0  0  0  0
  -22.0591   -2.7615   23.2813 H   0  0  0  0  0  0
  -22.4171  -11.9967   22.4532 H   0  0  0  0  0  0
  -21.1204  -13.1499   22.2730 H   0  0  0  0  0  0
  -24.7366  -15.8555   20.6674 H   0  0  0  0  0  0
  -26.3874  -15.5887   20.4093 H   0  0  0  0  0  0
  -26.7151  -32.5522   23.1218 H   0  0  0  0  0  0
  -25.0125  -33.9728   25.0518 H   0  0  0  0  0  0
  -22.7158  -31.3111   21.4026 H   0  0  0  0  0  0
  -23.3802  -35.9530   23.3311 H   0  0  0  0  0  0
  -24.3605  -36.8852   22.2068 H   0  0  0  0  0  0
  -23.7150  -37.6443   23.6617 H   0  0  0  0  0  0
  -26.1003  -31.5763   20.6328 H   0  0  0  0  0  0
  -26.8528  -30.8471   22.0316 H   0  0  0  0  0  0
  -28.1697  -29.0429   21.1491 H   0  0  0  0  0  0
  -26.1038  -26.0014   18.9516 H   0  0  0  0  0  0
  -24.0123  -27.2561   19.0660 H   0  0  0  0  0  0
  -23.7432  -30.5914   19.4254 H   0  0  0  0  0  0
  -22.7873  -29.2207   19.8758 H   0  0  0  0  0  0
  -25.1281  -36.1996   25.0859 H   0  0  0  0  0  0
  -21.0062  -28.3135   24.1351 H   0  0  0  0  0  0
  -20.5707  -26.2126   23.3150 H   0  0  0  0  0  0
  -21.6742  -26.7710   22.0893 H   0  0  0  0  0  0
  -19.7048  -25.7073   21.0173 H   0  0  0  0  0  0
  -19.6928  -27.4145   20.6708 H   0  0  0  0  0  0
  -17.4398  -26.7492   21.3300 H   0  0  0  0  0  0
  -18.0184  -26.0127   22.8148 H   0  0  0  0  0  0
  -19.8011  -30.7116   24.2617 H   0  0  0  0  0  0
  -17.5102  -31.6053   24.5602 H   0  0  0  0  0  0
  -15.5434  -30.2954   23.7698 H   0  0  0  0  0  0
  -15.8782  -28.0885   22.6854 H   0  0  0  0  0  0
  -24.5839  -30.7142   25.7822 H   0  0  0  0  0  0
  -24.8805  -32.2998   26.4831 H   0  0  0  0  0  0
  -25.7929  -30.9064   27.0327 H   0  0  0  0  0  0
  -26.2928  -29.6770   24.1330 H   0  0  0  0  0  0
  -27.3927  -29.7295   25.4905 H   0  0  0  0  0  0
  -27.8821  -30.4303   23.9637 H   0  0  0  0  0  0
  -27.2733  -33.3693   26.2054 H   0  0  0  0  0  0
  -28.3828  -32.6905   25.0258 H   0  0  0  0  0  0
  -28.0776  -31.8508   26.5411 H   0  0  0  0  0  0
  -28.2622  -38.0070   24.7514 H   0  0  0  0  0  0
  -28.1036  -36.2614   24.6278 H   0  0  0  0  0  0
  -27.2290  -37.1435   25.8862 H   0  0  0  0  0  0
  -20.9210  -29.8811   21.6949 H   0  0  0  0  0  0
  -26.0212  -38.2873   24.1397 H   0  0  0  0  0  0
  -29.1188  -18.5715   17.0879 H   0  0  0  0  0  0
  -29.7080  -16.5555   18.3536 H   0  0  0  0  0  0
  -28.6508  -20.6990   18.1800 H   0  0  0  0  0  0
  -28.4955  -20.0467   25.3188 H   0  0  0  0  0  0
  -30.2743  -19.6638   24.9761 H   0  0  0  0  0  0
  -26.0752  -24.3773   20.2272 H   0  0  0  0  0  0
  -26.4393  -22.6797   19.6165 H   0  0  0  0  0  0
  -27.9774  -19.5567   22.9501 H   0  0  0  0  0  0
  -30.7972  -19.8742   22.3455 H   0  0  0  0  0  0
  -30.5920  -18.2152   22.7464 H   0  0  0  0  0  0
  -27.8058  -25.4420   21.7882 H   0  0  0  0  0  0
  -29.4652  -25.2497   21.3260 H   0  0  0  0  0  0
  -30.0456  -22.9503   20.7467 H   0  0  0  0  0  0
  -29.4088  -22.5656   19.1666 H   0  0  0  0  0  0
  -28.8807  -16.9253   22.4867 H   0  0  0  0  0  0
  1 25  1  0  0  0
  1 30  2  0  0  0
  1 80  1  0  0  0
  2  3  1  0  0  0
  2 25  1  0  0  0
  2 87  1  0  0  0
  2 88  1  0  0  0
  3  4  1  0  0  0
  3 89  1  0  0  0
  3 90  1  0  0  0
  4  5  1  0  0  0
  4 91  1  0  0  0
  4 92  1  0  0  0
  5  6  1  0  0  0
  5 26  1  0  0  0
  5 93  1  0  0  0
  6 25  1  0  0  0
  6 94  1  0  0  0
  6 95  1  0  0  0
  7  8  2  0  0  0
  7 26  1  0  0  0
  7 29  1  0  0  0
  8  9  1  0  0  0
  8 22  1  0  0  0
  9 10  1  0  0  0
  9 27  2  0  0  0
 10 11  2  0  0  0
 10 15  1  0  0  0
 11 12  1  0  0  0
 11 96  1  0  0  0
 12 13  2  0  0  0
 12 97  1  0  0  0
 13 14  1  0  0  0
 13 31  1  0  0  0
 14 15  2  0  0  0
 14 98  1  0  0  0
 15 99  1  0  0  0
 16 17  2  0  0  0
 16 21  1  0  0  0
 16 31  1  0  0  0
 17 18  1  0  0  0
 17100  1  0  0  0
 18 19  2  0  0  0
 18101  1  0  0  0
 19 20  1  0  0  0
 19 24  1  0  0  0
 20 21  2  0  0  0
 20102  1  0  0  0
 21 23  1  0  0  0
 22 28  1  0  0  0
 22 32  2  0  0  0
 26 27  1  0  0  0
 28103  1  0  0  0
 28104  1  0  0  0
 29105  1  0  0  0
 29106  1  0  0  0
 33 34  1  0  0  0
 33 66  1  0  0  0
 33 70  2  0  0  0
 34 36  1  0  0  0
 34 59  1  0  0  0
 34107  1  0  0  0
 35 44  2  0  0  0
 35 45  1  0  0  0
 35 68  1  0  0  0
 36 56  1  0  0  0
 36108  1  0  0  0
 37 39  1  0  0  0
 37 47  1  0  0  0
 37 66  1  0  0  0
 37109  1  0  0  0
 38 43  2  0  0  0
 38 46  1  0  0  0
 38 47  1  0  0  0
 39 64  1  0  0  0
 39 67  2  0  0  0
 40 52  1  0  0  0
 40 53  2  0  0  0
 40 58  1  0  0  0
 41110  1  0  0  0
 41111  1  0  0  0
 41112  1  0  0  0
 41 48  1  0  0  0
 42 43  1  0  0  0
 42 66  1  0  0  0
 42113  1  0  0  0
 42114  1  0  0  0
 43 44  1  0  0  0
 44115  1  0  0  0
 45 46  2  0  0  0
 45116  1  0  0  0
 46117  1  0  0  0
 47118  1  0  0  0
 47119  1  0  0  0
 48 56  1  0  0  0
 48 65  1  0  0  0
 48120  1  0  0  0
 49 50  1  0  0  0
 49 53  1  0  0  0
 49 64  1  0  0  0
 49121  1  0  0  0
 50 51  1  0  0  0
 50122  1  0  0  0
 50123  1  0  0  0
 51 52  1  0  0  0
 51124  1  0  0  0
 51125  1  0  0  0
 52126  1  0  0  0
 52127  1  0  0  0
 53 54  1  0  0  0
 54 55  2  0  0  0
 54128  1  0  0  0
 55 57  1  0  0  0
 55129  1  0  0  0
 56 69  2  0  0  0
 57 58  2  0  0  0
 57130  1  0  0  0
 58131  1  0  0  0
 59 60  1  0  0  0
 59 61  1  0  0  0
 59 62  1  0  0  0
 60132  1  0  0  0
 60133  1  0  0  0
 60134  1  0  0  0
 61135  1  0  0  0
 61136  1  0  0  0
 61137  1  0  0  0
 62138  1  0  0  0
 62139  1  0  0  0
 62140  1  0  0  0
 63 65  1  0  0  0
 63141  1  0  0  0
 63142  1  0  0  0
 63143  1  0  0  0
 64144  1  0  0  0
 65145  1  0  0  0
 68 83  1  0  0  0
 71 72  2  0  0  0
 71 73  1  0  0  0
 71146  1  0  0  0
 72 74  1  0  0  0
 72147  1  0  0  0
 73 76  2  0  0  0
 73148  1  0  0  0
 74 75  2  0  0  0
 74 80  1  0  0  0
 75 76  1  0  0  0
 75 82  1  0  0  0
 76 86  1  0  0  0
 77 79  2  0  0  0
 77149  1  0  0  0
 77150  1  0  0  0
 78 81  2  0  0  0
 78151  1  0  0  0
 78152  1  0  0  0
 79 82  1  0  0  0
 79153  1  0  0  0
 80 85  2  0  0  0
 81 83  1  0  0  0
 81 84  1  0  0  0
 82154  1  0  0  0
 82155  1  0  0  0
 83156  1  0  0  0
 83157  1  0  0  0
 84 86  1  0  0  0
 84158  1  0  0  0
 84159  1  0  0  0
 85160  1  0  0  0
M  ISO  4   1 100  68 101  80 100  83 101
M  END
> <chiral flag>
0

> <version>
0

> <s_m_source_file>
/data/baiqing/PycharmProjects/Reinvent-master-3.2/result/LINK_invent/BTK/process_docking_weight1_custom_product_contain_oxygen_bond_distance_aromatic_linkinvent_7_9_3/rearranged_h_0131.sdf

> <i_m_source_file_index>
60

> <r_mmod_Potential_Energy-OPLS-2005>
440.884826660156

> <r_mmod_Stretch_Energy-OPLS-2005>
150.244064331055

> <r_mmod_Bend_Energy-OPLS-2005>
191.850311279297

> <r_mmod_Torsional_Energy-OPLS-2005>
276.017822265625

> <r_mmod_Improper_Torsional_Energy-OPLS-2005>
4.01411247253418

> <r_mmod_Van_der_Waal_Energy-OPLS-2005>
141.61213684082

> <r_mmod_Electrostatic_Energy-OPLS-2005>
-218.158264160156

> <r_mmod_Solvation_Energy-OPLS-2005>
-189.004470825195

> <b_mmod_Minimization_Converged-OPLS-2005>
0

> <r_mmod_RMS_Derivative-OPLS-2005>
11.3466911315918

$$$$
60
                    3D
 Structure written by MMmdl.
164172  0  0  1  0            999 V2000
  -30.7084  -14.5251   20.6485 C   0  0  0  0  0  0
  -30.4245  -12.3766   19.4253 C   0  0  0  0  0  0
  -29.4924  -12.5417   18.2083 C   0  0  0  0  0  0
  -28.0169  -12.3765   18.6198 C   0  0  0  0  0  0
  -27.6590  -13.2124   19.8760 C   0  0  2  0  0  0
  -28.7011  -12.9891   20.9914 C   0  0  0  0  0  0
  -25.2561  -13.8160   20.5652 C   0  0  0  0  0  0
  -24.1827  -13.0432   20.9161 C   0  0  0  0  0  0
  -24.6397  -11.6905   20.8732 C   0  0  0  0  0  0
  -23.9064  -10.4291   21.0404 C   0  0  0  0  0  0
  -24.3616   -9.4207   21.9183 C   0  0  0  0  0  0
  -23.6291   -8.2244   22.0755 C   0  0  0  0  0  0
  -22.4273   -8.0281   21.3546 C   0  0  0  0  0  0
  -21.9907   -9.0254   20.4648 C   0  0  0  0  0  0
  -22.7236  -10.2133   20.3056 C   0  0  0  0  0  0
  -21.6854   -6.0734   22.5278 C   0  0  0  0  0  0
  -21.4015   -6.5639   23.8211 C   0  0  0  0  0  0
  -21.3659   -5.6792   24.9173 C   0  0  0  0  0  0
  -21.6045   -4.3055   24.7225 C   0  0  0  0  0  0
  -21.8819   -3.8146   23.4346 C   0  0  0  0  0  0
  -21.9193   -4.6962   22.3401 C   0  0  0  0  0  0
  -22.7854  -13.5232   21.1836 C   0  0  0  0  0  0
  -22.1662   -4.2147   21.0980 F   0  0  0  0  0  0
  -21.5628   -3.4539   25.7738 F   0  0  0  0  0  0
  -30.0207  -13.3525   20.4598 N   0  0  0  0  0  0
  -26.3015  -12.9348   20.3378 N   0  0  0  0  0  0
  -25.9331  -11.6502   20.5779 N   0  0  0  0  0  0
  -22.0504  -12.8227   22.0402 N   0  0  0  0  0  0
  -25.4245  -15.1868   20.4034 N   0  0  0  0  0  0
  -31.7445  -14.7719   20.0190 O   0  0  0  0  0  0
  -21.6640   -6.8876   21.4240 O   0  0  0  0  0  0
  -22.3532  -14.5537   20.6690 O   0  0  0  0  0  0
  -24.6199  -31.8618   23.2029 C   0  0  0  0  0  0
  -25.9067  -32.4786   23.8348 C   0  0  1  0  0  0
  -27.2392  -27.3708   20.0972 C   0  0  0  0  0  0
  -25.5901  -33.8586   24.2284 N   0  0  0  0  0  0
  -23.4108  -30.4822   21.5450 C   0  0  2  0  0  0
  -24.8563  -28.9344   20.1127 C   0  0  0  0  0  0
  -22.7435  -29.4626   22.4965 C   0  0  0  0  0  0
  -18.0276  -28.1376   22.8491 C   0  0  0  0  0  0
  -24.1486  -36.7301   23.2640 C   0  0  0  0  0  0
  -25.9441  -30.8074   21.3630 C   0  0  0  0  0  0
  -26.0184  -29.4363   20.7085 C   0  0  0  0  0  0
  -27.2069  -28.6625   20.6934 C   0  0  0  0  0  0
  -26.0479  -26.8870   19.5151 C   0  0  0  0  0  0
  -24.8687  -27.6619   19.5133 C   0  0  0  0  0  0
  -23.6209  -29.8089   20.1615 C   0  0  0  0  0  0
  -25.4110  -36.3089   24.0331 C   0  0  1  0  0  0
  -20.5870  -28.3667   23.1309 C   0  0  2  0  0  0
  -20.6764  -26.9399   22.5418 C   0  0  0  0  0  0
  -19.5744  -26.6382   21.5213 C   0  0  0  0  0  0
  -18.1922  -26.7923   22.1622 C   0  0  0  0  0  0
  -19.1526  -28.8839   23.2897 C   0  0  0  0  0  0
  -18.9452  -30.1445   23.8906 C   0  0  0  0  0  0
  -17.6454  -30.6582   24.0563 C   0  0  0  0  0  0
  -25.9041  -34.9456   23.5110 C   0  0  0  0  0  0
  -16.5345  -29.9083   23.6327 C   0  0  0  0  0  0
  -16.7265  -28.6500   23.0350 C   0  0  0  0  0  0
  -26.4476  -31.6589   25.0705 C   0  0  0  0  0  0
  -25.3729  -31.3705   26.1447 C   0  0  0  0  0  0
  -27.0319  -30.3026   24.6120 C   0  0  0  0  0  0
  -27.6047  -32.4319   25.7466 C   0  0  0  0  0  0
  -27.5580  -37.1801   24.8464 C   0  0  0  0  0  0
  -21.4156  -29.3027   22.3709 N   0  0  0  0  0  0
  -26.4292  -37.3779   23.9407 N   0  0  0  0  0  0
  -24.6770  -31.0667   22.0950 N   0  0  0  0  0  0
  -23.4182  -28.8182   23.3040 O   0  0  0  0  0  0
  -28.4275  -26.6461   20.1418 O   0  0  0  0  0  0
  -26.5614  -34.8920   22.4678 O   0  0  0  0  0  0
  -23.5379  -32.1397   23.7392 O   0  0  0  0  0  0
  -27.1711  -17.7030   22.2050 C   0  0  0  0  0  0
  -27.5114  -18.8531   21.4830 C   0  0  0  0  0  0
  -29.6185  -17.8104   20.8824 C   0  0  0  0  0  0
  -29.2976  -16.6141   21.6167 C   0  0  0  0  0  0
  -28.0659  -16.6233   22.3494 C   0  0  0  0  0  0
  -28.7676  -18.9676   20.8512 C   0  0  0  0  0  0
  -30.3072  -15.4832   21.8032 C   0  0  0  0  0  0
  -27.3107  -16.1114   24.7491 C   0  0  0  0  0  0
  -28.5329  -25.4187   17.9744 C   0  0  0  0  0  0
  -27.6479  -15.5462   23.3596 C   0  0  0  0  0  0
  -28.9209  -22.7091   19.8412 C   0  0  0  0  0  0
  -28.1229  -24.0389   20.1642 C   0  0  0  0  0  0
  -28.3676  -21.3770   20.4630 C   0  0  0  0  0  0
  -28.6848  -25.3553   19.5049 C   0  0  2  0  0  0
  -30.8792  -15.3561   22.9289 N   0  0  0  0  0  0
  -29.1653  -20.1695   20.2423 O   0  0  0  0  0  0
  -31.4653  -12.4964   19.1200 H   0  0  0  0  0  0
  -30.3558  -11.3624   19.8220 H   0  0  0  0  0  0
  -29.7488  -11.8169   17.4346 H   0  0  0  0  0  0
  -29.6412  -13.5280   17.7662 H   0  0  0  0  0  0
  -27.8423  -11.3181   18.8176 H   0  0  0  0  0  0
  -27.3610  -12.6429   17.7901 H   0  0  0  0  0  0
  -27.7022  -14.2629   19.5866 H   0  0  0  0  0  0
  -28.7027  -11.9445   21.3064 H   0  0  0  0  0  0
  -28.4334  -13.5461   21.8749 H   0  0  0  0  0  0
  -25.2762   -9.5684   22.4755 H   0  0  0  0  0  0
  -24.0000   -7.4637   22.7476 H   0  0  0  0  0  0
  -21.0837   -8.8773   19.8956 H   0  0  0  0  0  0
  -22.3694  -10.9672   19.6164 H   0  0  0  0  0  0
  -21.2010   -7.6147   23.9713 H   0  0  0  0  0  0
  -21.1481   -6.0523   25.9076 H   0  0  0  0  0  0
  -22.0599   -2.7608   23.2848 H   0  0  0  0  0  0
  -22.4122  -11.9884   22.4781 H   0  0  0  0  0  0
  -21.1127  -13.1259   22.2620 H   0  0  0  0  0  0
  -24.6627  -15.8426   20.5319 H   0  0  0  0  0  0
  -26.2952  -15.6383   20.1545 H   0  0  0  0  0  0
  -26.7134  -32.5468   23.1101 H   0  0  0  0  0  0
  -25.0048  -33.9735   25.0428 H   0  0  0  0  0  0
  -22.7024  -31.3004   21.4013 H   0  0  0  0  0  0
  -23.3744  -35.9637   23.3308 H   0  0  0  0  0  0
  -24.3579  -36.8916   22.2054 H   0  0  0  0  0  0
  -23.7247  -37.6507   23.6659 H   0  0  0  0  0  0
  -26.0644  -31.5711   20.5934 H   0  0  0  0  0  0
  -26.8290  -30.8601   21.9857 H   0  0  0  0  0  0
  -28.1054  -29.0493   21.1539 H   0  0  0  0  0  0
  -26.0033  -25.9014   19.0805 H   0  0  0  0  0  0
  -23.9707  -27.2636   19.0615 H   0  0  0  0  0  0
  -23.7321  -30.5811   19.3994 H   0  0  0  0  0  0
  -22.7431  -29.2309   19.8667 H   0  0  0  0  0  0
  -25.1291  -36.1947   25.0824 H   0  0  0  0  0  0
  -20.9958  -28.3236   24.1431 H   0  0  0  0  0  0
  -20.5666  -26.2274   23.3608 H   0  0  0  0  0  0
  -21.6635  -26.7436   22.1213 H   0  0  0  0  0  0
  -19.6905  -25.6296   21.1237 H   0  0  0  0  0  0
  -19.6685  -27.3198   20.6747 H   0  0  0  0  0  0
  -17.4194  -26.6672   21.4022 H   0  0  0  0  0  0
  -18.0321  -26.0061   22.9013 H   0  0  0  0  0  0
  -19.7928  -30.7259   24.2280 H   0  0  0  0  0  0
  -17.5008  -31.6265   24.5161 H   0  0  0  0  0  0
  -15.5346  -30.2988   23.7644 H   0  0  0  0  0  0
  -15.8664  -28.0822   22.7060 H   0  0  0  0  0  0
  -24.5904  -30.7052   25.7779 H   0  0  0  0  0  0
  -24.8917  -32.2862   26.4893 H   0  0  0  0  0  0
  -25.8072  -30.8875   27.0209 H   0  0  0  0  0  0
  -26.2877  -29.6773   24.1174 H   0  0  0  0  0  0
  -27.4077  -29.7278   25.4596 H   0  0  0  0  0  0
  -27.8714  -30.4335   23.9288 H   0  0  0  0  0  0
  -27.2668  -33.3615   26.2057 H   0  0  0  0  0  0
  -28.3844  -32.6887   25.0283 H   0  0  0  0  0  0
  -28.0731  -31.8439   26.5370 H   0  0  0  0  0  0
  -28.2598  -38.0098   24.7514 H   0  0  0  0  0  0
  -28.1076  -36.2631   24.6287 H   0  0  0  0  0  0
  -27.2300  -37.1452   25.8867 H   0  0  0  0  0  0
  -20.9324  -29.8743   21.6920 H   0  0  0  0  0  0
  -26.0176  -38.2855   24.1408 H   0  0  0  0  0  0
  -26.2154  -17.6854   22.7092 H   0  0  0  0  0  0
  -26.7882  -19.6543   21.4734 H   0  0  0  0  0  0
  -30.5804  -17.8701   20.3928 H   0  0  0  0  0  0
  -27.0772  -15.3042   25.4437 H   0  0  0  0  0  0
  -26.4478  -16.7762   24.7325 H   0  0  0  0  0  0
  -28.1546  -16.6650   25.1620 H   0  0  0  0  0  0
  -29.0416  -24.5810   17.4981 H   0  0  0  0  0  0
  -28.9804  -26.3308   17.5790 H   0  0  0  0  0  0
  -27.4975  -25.3866   17.6440 H   0  0  0  0  0  0
  -28.4195  -14.8038   23.5336 H   0  0  0  0  0  0
  -26.7858  -15.0084   22.9638 H   0  0  0  0  0  0
  -29.9521  -22.8375   20.1713 H   0  0  0  0  0  0
  -28.9722  -22.5784   18.7605 H   0  0  0  0  0  0
  -28.1277  -24.1746   21.2462 H   0  0  0  0  0  0
  -27.0754  -23.9129   19.8899 H   0  0  0  0  0  0
  -27.3687  -21.2198   20.0546 H   0  0  0  0  0  0
  -28.2544  -21.5258   21.5381 H   0  0  0  0  0  0
  -29.7613  -25.2760   19.6599 H   0  0  0  0  0  0
  -30.5434  -16.0577   23.5779 H   0  0  0  0  0  0
  1 25  1  0  0  0
  1 30  2  0  0  0
  1 77  1  0  0  0
  2  3  1  0  0  0
  2 25  1  0  0  0
  2 87  1  0  0  0
  2 88  1  0  0  0
  3  4  1  0  0  0
  3 89  1  0  0  0
  3 90  1  0  0  0
  4  5  1  0  0  0
  4 91  1  0  0  0
  4 92  1  0  0  0
  5  6  1  0  0  0
  5 26  1  0  0  0
  5 93  1  0  0  0
  6 25  1  0  0  0
  6 94  1  0  0  0
  6 95  1  0  0  0
  7  8  2  0  0  0
  7 26  1  0  0  0
  7 29  1  0  0  0
  8  9  1  0  0  0
  8 22  1  0  0  0
  9 10  1  0  0  0
  9 27  2  0  0  0
 10 11  2  0  0  0
 10 15  1  0  0  0
 11 12  1  0  0  0
 11 96  1  0  0  0
 12 13  2  0  0  0
 12 97  1  0  0  0
 13 14  1  0  0  0
 13 31  1  0  0  0
 14 15  2  0  0  0
 14 98  1  0  0  0
 15 99  1  0  0  0
 16 17  2  0  0  0
 16 21  1  0  0  0
 16 31  1  0  0  0
 17 18  1  0  0  0
 17100  1  0  0  0
 18 19  2  0  0  0
 18101  1  0  0  0
 19 20  1  0  0  0
 19 24  1  0  0  0
 20 21  2  0  0  0
 20102  1  0  0  0
 21 23  1  0  0  0
 22 28  1  0  0  0
 22 32  2  0  0  0
 26 27  1  0  0  0
 28103  1  0  0  0
 28104  1  0  0  0
 29105  1  0  0  0
 29106  1  0  0  0
 33 34  1  0  0  0
 33 66  1  0  0  0
 33 70  2  0  0  0
 34 36  1  0  0  0
 34 59  1  0  0  0
 34107  1  0  0  0
 35 44  2  0  0  0
 35 45  1  0  0  0
 35 68  1  0  0  0
 36 56  1  0  0  0
 36108  1  0  0  0
 37 39  1  0  0  0
 37 47  1  0  0  0
 37 66  1  0  0  0
 37109  1  0  0  0
 38 43  2  0  0  0
 38 46  1  0  0  0
 38 47  1  0  0  0
 39 64  1  0  0  0
 39 67  2  0  0  0
 40 52  1  0  0  0
 40 53  2  0  0  0
 40 58  1  0  0  0
 41110  1  0  0  0
 41111  1  0  0  0
 41112  1  0  0  0
 41 48  1  0  0  0
 42 43  1  0  0  0
 42 66  1  0  0  0
 42113  1  0  0  0
 42114  1  0  0  0
 43 44  1  0  0  0
 44115  1  0  0  0
 45 46  2  0  0  0
 45116  1  0  0  0
 46117  1  0  0  0
 47118  1  0  0  0
 47119  1  0  0  0
 48 56  1  0  0  0
 48 65  1  0  0  0
 48120  1  0  0  0
 49 50  1  0  0  0
 49 53  1  0  0  0
 49 64  1  0  0  0
 49121  1  0  0  0
 50 51  1  0  0  0
 50122  1  0  0  0
 50123  1  0  0  0
 51 52  1  0  0  0
 51124  1  0  0  0
 51125  1  0  0  0
 52126  1  0  0  0
 52127  1  0  0  0
 53 54  1  0  0  0
 54 55  2  0  0  0
 54128  1  0  0  0
 55 57  1  0  0  0
 55129  1  0  0  0
 56 69  2  0  0  0
 57 58  2  0  0  0
 57130  1  0  0  0
 58131  1  0  0  0
 59 60  1  0  0  0
 59 61  1  0  0  0
 59 62  1  0  0  0
 60132  1  0  0  0
 60133  1  0  0  0
 60134  1  0  0  0
 61135  1  0  0  0
 61136  1  0  0  0
 61137  1  0  0  0
 62138  1  0  0  0
 62139  1  0  0  0
 62140  1  0  0  0
 63 65  1  0  0  0
 63141  1  0  0  0
 63142  1  0  0  0
 63143  1  0  0  0
 64144  1  0  0  0
 65145  1  0  0  0
 68 84  1  0  0  0
 71 72  2  0  0  0
 71 75  1  0  0  0
 71146  1  0  0  0
 72 76  1  0  0  0
 72147  1  0  0  0
 73 74  1  0  0  0
 73 76  2  0  0  0
 73148  1  0  0  0
 74 75  2  0  0  0
 74 77  1  0  0  0
 75 80  1  0  0  0
 76 86  1  0  0  0
 77 85  2  0  0  0
 78 80  1  0  0  0
 78149  1  0  0  0
 78150  1  0  0  0
 78151  1  0  0  0
 79152  1  0  0  0
 79153  1  0  0  0
 79154  1  0  0  0
 79 84  1  0  0  0
 80155  1  0  0  0
 80156  1  0  0  0
 81 82  1  0  0  0
 81 83  1  0  0  0
 81157  1  0  0  0
 81158  1  0  0  0
 82 84  1  0  0  0
 82159  1  0  0  0
 82160  1  0  0  0
 83 86  1  0  0  0
 83161  1  0  0  0
 83162  1  0  0  0
 84163  1  0  0  0
 85164  1  0  0  0
M  ISO  4   1 100  68 101  77 100  84 101
M  END
> <chiral flag>
0

> <version>
0

> <s_m_source_file>
/data/baiqing/PycharmProjects/Reinvent-master-3.2/result/LINK_invent/BTK/process_docking_weight1_custom_product_contain_oxygen_bond_distance_aromatic_linkinvent_7_9_3/rearranged_h_0131.sdf

> <i_m_source_file_index>
61

> <r_mmod_Potential_Energy-OPLS-2005>
194.082977294922

> <r_mmod_Stretch_Energy-OPLS-2005>
72.2730484008789

> <r_mmod_Bend_Energy-OPLS-2005>
166.168197631836

> <r_mmod_Torsional_Energy-OPLS-2005>
225.704254150391

> <r_mmod_Improper_Torsional_Energy-OPLS-2005>
4.85196828842163

> <r_mmod_Van_der_Waal_Energy-OPLS-2005>
142.920364379883

> <r_mmod_Electrostatic_Energy-OPLS-2005>
-246.598495483398

> <r_mmod_Solvation_Energy-OPLS-2005>
-193.42756652832

> <b_mmod_Minimization_Converged-OPLS-2005>
0

> <r_mmod_RMS_Derivative-OPLS-2005>
0.311539173126221

$$$$
61
                    3D
 Structure written by MMmdl.
166175  0  0  1  0            999 V2000
  -30.7706  -14.4121   20.6951 C   0  0  0  0  0  0
  -30.4173  -12.3208   19.4110 C   0  0  0  0  0  0
  -29.4895  -12.5337   18.2006 C   0  0  0  0  0  0
  -28.0142  -12.3779   18.6130 C   0  0  0  0  0  0
  -27.6651  -13.2060   19.8769 C   0  0  2  0  0  0
  -28.7019  -12.9647   20.9956 C   0  0  0  0  0  0
  -25.2605  -13.8166   20.5675 C   0  0  0  0  0  0
  -24.1849  -13.0440   20.9166 C   0  0  0  0  0  0
  -24.6398  -11.6905   20.8720 C   0  0  0  0  0  0
  -23.9060  -10.4295   21.0396 C   0  0  0  0  0  0
  -24.3609   -9.4217   21.9182 C   0  0  0  0  0  0
  -23.6287   -8.2254   22.0755 C   0  0  0  0  0  0
  -22.4275   -8.0285   21.3543 C   0  0  0  0  0  0
  -21.9907   -9.0256   20.4643 C   0  0  0  0  0  0
  -22.7233  -10.2135   20.3047 C   0  0  0  0  0  0
  -21.6849   -6.0737   22.5281 C   0  0  0  0  0  0
  -21.4014   -6.5641   23.8216 C   0  0  0  0  0  0
  -21.3660   -5.6794   24.9177 C   0  0  0  0  0  0
  -21.6045   -4.3056   24.7227 C   0  0  0  0  0  0
  -21.8818   -3.8147   23.4349 C   0  0  0  0  0  0
  -21.9193   -4.6965   22.3404 C   0  0  0  0  0  0
  -22.7869  -13.5237   21.1834 C   0  0  0  0  0  0
  -22.1658   -4.2148   21.0980 F   0  0  0  0  0  0
  -21.5630   -3.4542   25.7741 F   0  0  0  0  0  0
  -30.0415  -13.2805   20.4661 N   0  0  0  0  0  0
  -26.3037  -12.9329   20.3353 N   0  0  0  0  0  0
  -25.9323  -11.6483   20.5736 N   0  0  0  0  0  0
  -22.0504  -12.8226   22.0386 N   0  0  0  0  0  0
  -25.4340  -15.1882   20.4103 N   0  0  0  0  0  0
  -31.7641  -14.6700   20.0097 O   0  0  0  0  0  0
  -21.6636   -6.8883   21.4243 O   0  0  0  0  0  0
  -22.3554  -14.5548   20.6691 O   0  0  0  0  0  0
  -24.6158  -31.8675   23.2094 C   0  0  0  0  0  0
  -25.9051  -32.4819   23.8394 C   0  0  1  0  0  0
  -27.2329  -27.4327   20.1002 C   0  0  0  0  0  0
  -25.5909  -33.8615   24.2329 N   0  0  0  0  0  0
  -23.4039  -30.4899   21.5498 C   0  0  2  0  0  0
  -24.8514  -28.9542   20.1154 C   0  0  0  0  0  0
  -22.7413  -29.4656   22.4989 C   0  0  0  0  0  0
  -18.0273  -28.1381   22.8496 C   0  0  0  0  0  0
  -24.1480  -36.7314   23.2637 C   0  0  0  0  0  0
  -25.9318  -30.8346   21.3589 C   0  0  0  0  0  0
  -26.0118  -29.4671   20.7102 C   0  0  0  0  0  0
  -27.2096  -28.7139   20.6976 C   0  0  0  0  0  0
  -26.0595  -26.9357   19.4957 C   0  0  0  0  0  0
  -24.8697  -27.6876   19.5052 C   0  0  0  0  0  0
  -23.6129  -29.8208   20.1651 C   0  0  0  0  0  0
  -25.4103  -36.3108   24.0336 C   0  0  1  0  0  0
  -20.5865  -28.3672   23.1320 C   0  0  2  0  0  0
  -20.6767  -26.9412   22.5415 C   0  0  0  0  0  0
  -19.5746  -26.6401   21.5210 C   0  0  0  0  0  0
  -18.1926  -26.7933   22.1623 C   0  0  0  0  0  0
  -19.1522  -28.8843   23.2907 C   0  0  0  0  0  0
  -18.9452  -30.1447   23.8920 C   0  0  0  0  0  0
  -17.6456  -30.6590   24.0564 C   0  0  0  0  0  0
  -25.9037  -34.9473   23.5129 C   0  0  0  0  0  0
  -16.5346  -29.9096   23.6322 C   0  0  0  0  0  0
  -16.7264  -28.6507   23.0355 C   0  0  0  0  0  0
  -26.4488  -31.6589   25.0711 C   0  0  0  0  0  0
  -25.3759  -31.3662   26.1453 C   0  0  0  0  0  0
  -27.0328  -30.3045   24.6058 C   0  0  0  0  0  0
  -27.6062  -32.4301   25.7485 C   0  0  0  0  0  0
  -27.5581  -37.1810   24.8462 C   0  0  0  0  0  0
  -21.4140  -29.3035   22.3721 N   0  0  0  0  0  0
  -26.4288  -37.3796   23.9412 N   0  0  0  0  0  0
  -24.6691  -31.0777   22.0989 N   0  0  0  0  0  0
  -23.4178  -28.8198   23.3038 O   0  0  0  0  0  0
  -28.3768  -26.6654   20.0937 O   0  0  0  0  0  0
  -26.5598  -34.8932   22.4690 O   0  0  0  0  0  0
  -23.5352  -32.1421   23.7496 O   0  0  0  0  0  0
  -29.3779  -21.3697   21.3435 C   0  0  0  0  0  0
  -29.8481  -20.0738   21.6512 C   0  0  0  0  0  0
  -30.1449  -19.6237   19.2907 C   0  0  0  0  0  0
  -29.2965  -21.8265   20.0057 C   0  0  0  0  0  0
  -30.2633  -19.1918   20.6285 C   0  0  0  0  0  0
  -29.6625  -20.9167   18.9698 C   0  0  0  0  0  0
  -28.7611  -23.2092   19.7250 C   0  0  0  0  0  0
  -32.6919  -16.6134   22.2866 C   0  0  0  0  0  0
  -32.0301  -17.9598   21.9731 C   0  0  0  0  0  0
  -31.6582  -15.5972   22.8054 C   0  0  0  0  0  0
  -29.8452  -16.7637   21.4210 C   0  0  0  0  0  0
  -30.8822  -17.8194   20.9498 C   0  0  1  0  0  0
  -30.4427  -15.3894   21.8646 C   0  0  1  0  0  0
  -29.5813  -21.2952   17.4978 C   0  0  0  0  0  0
  -29.3189  -24.3839   20.5550 C   0  0  0  0  0  0
  -28.2899  -25.4872   20.9161 C   0  0  0  0  0  0
  -27.9373  -23.4409   18.8348 O   0  0  0  0  0  0
  -31.4611  -12.4140   19.1064 H   0  0  0  0  0  0
  -30.3185  -11.3014   19.7885 H   0  0  0  0  0  0
  -29.7336  -11.8242   17.4090 H   0  0  0  0  0  0
  -29.6526  -13.5290   17.7841 H   0  0  0  0  0  0
  -27.8298  -11.3193   18.8007 H   0  0  0  0  0  0
  -27.3600  -12.6585   17.7865 H   0  0  0  0  0  0
  -27.7197  -14.2582   19.5975 H   0  0  0  0  0  0
  -28.6788  -11.9201   21.3100 H   0  0  0  0  0  0
  -28.4090  -13.5255   21.8775 H   0  0  0  0  0  0
  -25.2752   -9.5699   22.4760 H   0  0  0  0  0  0
  -23.9997   -7.4648   22.7479 H   0  0  0  0  0  0
  -21.0842   -8.8770   19.8947 H   0  0  0  0  0  0
  -22.3692  -10.9669   19.6153 H   0  0  0  0  0  0
  -21.2005   -7.6149   23.9720 H   0  0  0  0  0  0
  -21.1481   -6.0523   25.9081 H   0  0  0  0  0  0
  -22.0598   -2.7612   23.2849 H   0  0  0  0  0  0
  -22.4103  -11.9870   22.4759 H   0  0  0  0  0  0
  -21.1124  -13.1255   22.2578 H   0  0  0  0  0  0
  -24.6737  -15.8492   20.5281 H   0  0  0  0  0  0
  -26.2969  -15.6264   20.1133 H   0  0  0  0  0  0
  -26.7122  -32.5537   23.1164 H   0  0  0  0  0  0
  -25.0066  -33.9768   25.0479 H   0  0  0  0  0  0
  -22.6934  -31.3067   21.4091 H   0  0  0  0  0  0
  -23.3753  -35.9634   23.3268 H   0  0  0  0  0  0
  -24.3582  -36.8968   22.2060 H   0  0  0  0  0  0
  -23.7218  -37.6503   23.6676 H   0  0  0  0  0  0
  -26.0357  -31.5970   20.5859 H   0  0  0  0  0  0
  -26.8230  -30.8964   21.9709 H   0  0  0  0  0  0
  -28.1069  -29.1026   21.1584 H   0  0  0  0  0  0
  -26.0662  -25.9630   19.0227 H   0  0  0  0  0  0
  -23.9776  -27.2875   19.0424 H   0  0  0  0  0  0
  -23.7208  -30.5939   19.4037 H   0  0  0  0  0  0
  -22.7373  -29.2397   19.8704 H   0  0  0  0  0  0
  -25.1278  -36.1973   25.0829 H   0  0  0  0  0  0
  -20.9959  -28.3244   24.1438 H   0  0  0  0  0  0
  -20.5691  -26.2279   23.3598 H   0  0  0  0  0  0
  -21.6638  -26.7472   22.1195 H   0  0  0  0  0  0
  -19.6911  -25.6319   21.1228 H   0  0  0  0  0  0
  -19.6684  -27.3212   20.6743 H   0  0  0  0  0  0
  -17.4200  -26.6693   21.4016 H   0  0  0  0  0  0
  -18.0312  -26.0063   22.9003 H   0  0  0  0  0  0
  -19.7925  -30.7253   24.2311 H   0  0  0  0  0  0
  -17.5014  -31.6273   24.5167 H   0  0  0  0  0  0
  -15.5350  -30.3015   23.7631 H   0  0  0  0  0  0
  -15.8658  -28.0833   22.7075 H   0  0  0  0  0  0
  -24.5943  -30.7007   25.7776 H   0  0  0  0  0  0
  -24.8941  -32.2799   26.4936 H   0  0  0  0  0  0
  -25.8127  -30.8807   27.0186 H   0  0  0  0  0  0
  -26.2856  -29.6785   24.1166 H   0  0  0  0  0  0
  -27.4180  -29.7302   25.4494 H   0  0  0  0  0  0
  -27.8649  -30.4389   23.9142 H   0  0  0  0  0  0
  -27.2699  -33.3620   26.2039 H   0  0  0  0  0  0
  -28.3893  -32.6818   25.0321 H   0  0  0  0  0  0
  -28.0691  -31.8423   26.5419 H   0  0  0  0  0  0
  -28.2577  -38.0130   24.7557 H   0  0  0  0  0  0
  -28.1099  -36.2667   24.6232 H   0  0  0  0  0  0
  -27.2301  -37.1389   25.8863 H   0  0  0  0  0  0
  -20.9308  -29.8763   21.6943 H   0  0  0  0  0  0
  -26.0175  -38.2868   24.1436 H   0  0  0  0  0  0
  -29.0689  -22.0100   22.1583 H   0  0  0  0  0  0
  -29.9017  -19.7694   22.6872 H   0  0  0  0  0  0
  -30.4460  -18.9555   18.4950 H   0  0  0  0  0  0
  -33.4719  -16.7554   23.0358 H   0  0  0  0  0  0
  -33.1987  -16.2358   21.3989 H   0  0  0  0  0  0
  -32.7811  -18.6534   21.5920 H   0  0  0  0  0  0
  -31.6631  -18.3889   22.9055 H   0  0  0  0  0  0
  -31.2956  -15.9327   23.7784 H   0  0  0  0  0  0
  -32.1532  -14.6424   22.9935 H   0  0  0  0  0  0
  -29.1031  -16.6071   20.6369 H   0  0  0  0  0  0
  -29.2945  -17.1775   22.2665 H   0  0  0  0  0  0
  -31.3262  -17.4436   20.0264 H   0  0  0  0  0  0
  -29.7026  -14.9267   22.5068 H   0  0  0  0  0  0
  -30.1029  -20.5731   16.8691 H   0  0  0  0  0  0
  -30.0334  -22.2703   17.3148 H   0  0  0  0  0  0
  -28.5412  -21.3272   17.1720 H   0  0  0  0  0  0
  -30.1616  -24.8203   20.0198 H   0  0  0  0  0  0
  -29.7330  -23.9846   21.4790 H   0  0  0  0  0  0
  -28.4713  -25.8036   21.9442 H   0  0  0  0  0  0
  -27.2839  -25.0632   20.9226 H   0  0  0  0  0  0
  1 25  1  0  0  0
  1 30  2  0  0  0
  1 83  1  0  0  0
  2  3  1  0  0  0
  2 25  1  0  0  0
  2 88  1  0  0  0
  2 89  1  0  0  0
  3  4  1  0  0  0
  3 90  1  0  0  0
  3 91  1  0  0  0
  4  5  1  0  0  0
  4 92  1  0  0  0
  4 93  1  0  0  0
  5  6  1  0  0  0
  5 26  1  0  0  0
  5 94  1  0  0  0
  6 25  1  0  0  0
  6 95  1  0  0  0
  6 96  1  0  0  0
  7  8  2  0  0  0
  7 26  1  0  0  0
  7 29  1  0  0  0
  8  9  1  0  0  0
  8 22  1  0  0  0
  9 10  1  0  0  0
  9 27  2  0  0  0
 10 11  2  0  0  0
 10 15  1  0  0  0
 11 12  1  0  0  0
 11 97  1  0  0  0
 12 13  2  0  0  0
 12 98  1  0  0  0
 13 14  1  0  0  0
 13 31  1  0  0  0
 14 15  2  0  0  0
 14 99  1  0  0  0
 15100  1  0  0  0
 16 17  2  0  0  0
 16 21  1  0  0  0
 16 31  1  0  0  0
 17 18  1  0  0  0
 17101  1  0  0  0
 18 19  2  0  0  0
 18102  1  0  0  0
 19 20  1  0  0  0
 19 24  1  0  0  0
 20 21  2  0  0  0
 20103  1  0  0  0
 21 23  1  0  0  0
 22 28  1  0  0  0
 22 32  2  0  0  0
 26 27  1  0  0  0
 28104  1  0  0  0
 28105  1  0  0  0
 29106  1  0  0  0
 29107  1  0  0  0
 33 34  1  0  0  0
 33 66  1  0  0  0
 33 70  2  0  0  0
 34 36  1  0  0  0
 34 59  1  0  0  0
 34108  1  0  0  0
 35 44  2  0  0  0
 35 45  1  0  0  0
 35 68  1  0  0  0
 36 56  1  0  0  0
 36109  1  0  0  0
 37 39  1  0  0  0
 37 47  1  0  0  0
 37 66  1  0  0  0
 37110  1  0  0  0
 38 43  2  0  0  0
 38 46  1  0  0  0
 38 47  1  0  0  0
 39 64  1  0  0  0
 39 67  2  0  0  0
 40 52  1  0  0  0
 40 53  2  0  0  0
 40 58  1  0  0  0
 41111  1  0  0  0
 41112  1  0  0  0
 41113  1  0  0  0
 41 48  1  0  0  0
 42 43  1  0  0  0
 42 66  1  0  0  0
 42114  1  0  0  0
 42115  1  0  0  0
 43 44  1  0  0  0
 44116  1  0  0  0
 45 46  2  0  0  0
 45117  1  0  0  0
 46118  1  0  0  0
 47119  1  0  0  0
 47120  1  0  0  0
 48 56  1  0  0  0
 48 65  1  0  0  0
 48121  1  0  0  0
 49 50  1  0  0  0
 49 53  1  0  0  0
 49 64  1  0  0  0
 49122  1  0  0  0
 50 51  1  0  0  0
 50123  1  0  0  0
 50124  1  0  0  0
 51 52  1  0  0  0
 51125  1  0  0  0
 51126  1  0  0  0
 52127  1  0  0  0
 52128  1  0  0  0
 53 54  1  0  0  0
 54 55  2  0  0  0
 54129  1  0  0  0
 55 57  1  0  0  0
 55130  1  0  0  0
 56 69  2  0  0  0
 57 58  2  0  0  0
 57131  1  0  0  0
 58132  1  0  0  0
 59 60  1  0  0  0
 59 61  1  0  0  0
 59 62  1  0  0  0
 60133  1  0  0  0
 60134  1  0  0  0
 60135  1  0  0  0
 61136  1  0  0  0
 61137  1  0  0  0
 61138  1  0  0  0
 62139  1  0  0  0
 62140  1  0  0  0
 62141  1  0  0  0
 63 65  1  0  0  0
 63142  1  0  0  0
 63143  1  0  0  0
 63144  1  0  0  0
 64145  1  0  0  0
 65146  1  0  0  0
 68 86  1  0  0  0
 71 72  2  0  0  0
 71 74  1  0  0  0
 71147  1  0  0  0
 72 75  1  0  0  0
 72148  1  0  0  0
 73 75  2  0  0  0
 73 76  1  0  0  0
 73149  1  0  0  0
 74 76  2  0  0  0
 74 77  1  0  0  0
 75 82  1  0  0  0
 76 84  1  0  0  0
 77 85  1  0  0  0
 77 87  2  0  0  0
 78 79  1  0  0  0
 78 80  1  0  0  0
 78150  1  0  0  0
 78151  1  0  0  0
 79 82  1  0  0  0
 79152  1  0  0  0
 79153  1  0  0  0
 80 83  1  0  0  0
 80154  1  0  0  0
 80155  1  0  0  0
 81 82  1  0  0  0
 81 83  1  0  0  0
 81156  1  0  0  0
 81157  1  0  0  0
 82158  1  0  0  0
 83159  1  0  0  0
 84160  1  0  0  0
 84161  1  0  0  0
 84162  1  0  0  0
 85 86  1  0  0  0
 85163  1  0  0  0
 85164  1  0  0  0
 86165  1  0  0  0
 86166  1  0  0  0
M  ISO  4   1 100  68 101  83 100  86 101
M  END
> <chiral flag>
0

> <version>
0

> <s_m_source_file>
/data/baiqing/PycharmProjects/Reinvent-master-3.2/result/LINK_invent/BTK/process_docking_weight1_custom_product_contain_oxygen_bond_distance_aromatic_linkinvent_7_9_3/rearranged_h_0131.sdf

> <i_m_source_file_index>
62

> <r_mmod_Potential_Energy-OPLS-2005>
65.1530075073242

> <r_mmod_Stretch_Energy-OPLS-2005>
44.0985794067383

> <r_mmod_Bend_Energy-OPLS-2005>
101.036155700684

> <r_mmod_Torsional_Energy-OPLS-2005>
243.266494750977

> <r_mmod_Improper_Torsional_Energy-OPLS-2005>
2.15547704696655

> <r_mmod_Van_der_Waal_Energy-OPLS-2005>
154.896499633789

> <r_mmod_Electrostatic_Energy-OPLS-2005>
-298.832366943359

> <r_mmod_Solvation_Energy-OPLS-2005>
-191.424743652344

> <b_mmod_Minimization_Converged-OPLS-2005>
0

> <r_mmod_RMS_Derivative-OPLS-2005>
0.990871548652649

$$$$
62
                    3D
 Structure written by MMmdl.
157165  0  0  1  0            999 V2000
  -30.6421  -14.6580   20.3691 C   0  0  0  0  0  0
  -30.4311  -12.3641   19.4602 C   0  0  0  0  0  0
  -29.5050  -12.3852   18.2232 C   0  0  0  0  0  0
  -28.0201  -12.2903   18.6366 C   0  0  0  0  0  0
  -27.6361  -13.2071   19.8308 C   0  0  2  0  0  0
  -28.6906  -13.1568   20.9554 C   0  0  0  0  0  0
  -25.2523  -13.8126   20.5653 C   0  0  0  0  0  0
  -24.1818  -13.0411   20.9219 C   0  0  0  0  0  0
  -24.6381  -11.6876   20.8786 C   0  0  0  0  0  0
  -23.9048  -10.4264   21.0438 C   0  0  0  0  0  0
  -24.3606   -9.4173   21.9196 C   0  0  0  0  0  0
  -23.6287   -8.2208   22.0744 C   0  0  0  0  0  0
  -22.4269   -8.0250   21.3533 C   0  0  0  0  0  0
  -21.9912   -9.0224   20.4634 C   0  0  0  0  0  0
  -22.7235  -10.2106   20.3064 C   0  0  0  0  0  0
  -21.6849   -6.0722   22.5282 C   0  0  0  0  0  0
  -21.4010   -6.5633   23.8212 C   0  0  0  0  0  0
  -21.3667   -5.6788   24.9181 C   0  0  0  0  0  0
  -21.6043   -4.3049   24.7232 C   0  0  0  0  0  0
  -21.8823   -3.8143   23.4357 C   0  0  0  0  0  0
  -21.9184   -4.6955   22.3411 C   0  0  0  0  0  0
  -22.7842  -13.5204   21.1891 C   0  0  0  0  0  0
  -22.1655   -4.2150   21.0991 F   0  0  0  0  0  0
  -21.5633   -3.4533   25.7746 F   0  0  0  0  0  0
  -30.0035  -13.4452   20.3658 N   0  0  0  0  0  0
  -26.2927  -12.9287   20.3247 N   0  0  0  0  0  0
  -25.9299  -11.6469   20.5799 N   0  0  0  0  0  0
  -22.0487  -12.8185   22.0430 N   0  0  0  0  0  0
  -25.4191  -15.1841   20.3987 N   0  0  0  0  0  0
  -31.8728  -14.7208   20.3044 O   0  0  0  0  0  0
  -21.6626   -6.8859   21.4233 O   0  0  0  0  0  0
  -22.3524  -14.5528   20.6762 O   0  0  0  0  0  0
  -24.6212  -31.8615   23.2027 C   0  0  0  0  0  0
  -25.9067  -32.4797   23.8348 C   0  0  1  0  0  0
  -27.2409  -27.3734   20.1009 C   0  0  0  0  0  0
  -25.5911  -33.8597   24.2289 N   0  0  0  0  0  0
  -23.4116  -30.4825   21.5447 C   0  0  2  0  0  0
  -24.8593  -28.9382   20.1110 C   0  0  0  0  0  0
  -22.7431  -29.4619   22.4949 C   0  0  0  0  0  0
  -18.0273  -28.1380   22.8490 C   0  0  0  0  0  0
  -24.1492  -36.7318   23.2639 C   0  0  0  0  0  0
  -25.9454  -30.8117   21.3607 C   0  0  0  0  0  0
  -26.0221  -29.4397   20.7080 C   0  0  0  0  0  0
  -27.2122  -28.6674   20.6917 C   0  0  0  0  0  0
  -26.0539  -26.8964   19.5015 C   0  0  0  0  0  0
  -24.8744  -27.6696   19.5018 C   0  0  0  0  0  0
  -23.6236  -29.8118   20.1611 C   0  0  0  0  0  0
  -25.4114  -36.3100   24.0331 C   0  0  1  0  0  0
  -20.5870  -28.3643   23.1224 C   0  0  2  0  0  0
  -20.6754  -26.9394   22.5280 C   0  0  0  0  0  0
  -19.5651  -26.6342   21.5166 C   0  0  0  0  0  0
  -18.1879  -26.7918   22.1660 C   0  0  0  0  0  0
  -19.1546  -28.8828   23.2854 C   0  0  0  0  0  0
  -18.9514  -30.1443   23.8857 C   0  0  0  0  0  0
  -17.6524  -30.6593   24.0561 C   0  0  0  0  0  0
  -25.9050  -34.9474   23.5109 C   0  0  0  0  0  0
  -16.5393  -29.9120   23.6340 C   0  0  0  0  0  0
  -16.7275  -28.6531   23.0364 C   0  0  0  0  0  0
  -26.4477  -31.6596   25.0710 C   0  0  0  0  0  0
  -25.3712  -31.3717   26.1441 C   0  0  0  0  0  0
  -27.0314  -30.3031   24.6115 C   0  0  0  0  0  0
  -27.6048  -32.4317   25.7481 C   0  0  0  0  0  0
  -27.5579  -37.1813   24.8461 C   0  0  0  0  0  0
  -21.4169  -29.3018   22.3649 N   0  0  0  0  0  0
  -26.4294  -37.3787   23.9403 N   0  0  0  0  0  0
  -24.6781  -31.0660   22.0952 N   0  0  0  0  0  0
  -23.4146  -28.8213   23.3075 O   0  0  0  0  0  0
  -28.4199  -26.6337   20.1421 O   0  0  0  0  0  0
  -26.5614  -34.8936   22.4675 O   0  0  0  0  0  0
  -23.5393  -32.1413   23.7382 O   0  0  0  0  0  0
  -28.3998  -17.8831   19.7063 C   0  0  0  0  0  0
  -28.0745  -19.2388   19.9587 C   0  0  0  0  0  0
  -30.0155  -19.4023   21.3613 C   0  0  0  0  0  0
  -29.5570  -17.2272   20.2297 C   0  0  0  0  0  0
  -28.8879  -20.0390   20.7845 C   0  0  0  0  0  0
  -30.3560  -18.0368   21.0990 C   0  0  0  0  0  0
  -29.8646  -15.8264   19.6521 C   0  0  0  0  0  0
  -31.6147  -17.5063   21.7552 C   0  0  0  0  0  0
  -28.4793  -21.4975   21.1455 C   0  0  0  0  0  0
  -28.7641  -22.6508   20.1165 C   0  0  0  0  0  0
  -28.2660  -24.0824   20.5687 C   0  0  0  0  0  0
  -28.5438  -25.2862   19.5934 C   0  0  0  0  0  0
  -29.5212  -15.6478   18.4420 N   0  0  0  0  0  0
  -31.4742  -12.4740   19.1581 H   0  0  0  0  0  0
  -30.3606  -11.4022   19.9696 H   0  0  0  0  0  0
  -29.7522  -11.5484   17.5677 H   0  0  0  0  0  0
  -29.6808  -13.2720   17.6184 H   0  0  0  0  0  0
  -27.8340  -11.2483   18.9003 H   0  0  0  0  0  0
  -27.3807  -12.5038   17.7794 H   0  0  0  0  0  0
  -27.6060  -14.2180   19.4345 H   0  0  0  0  0  0
  -28.6987  -12.1780   21.4376 H   0  0  0  0  0  0
  -28.4551  -13.8862   21.7313 H   0  0  0  0  0  0
  -25.2756   -9.5663   22.4759 H   0  0  0  0  0  0
  -24.0008   -7.4607   22.7471 H   0  0  0  0  0  0
  -21.0840   -8.8746   19.8937 H   0  0  0  0  0  0
  -22.3704  -10.9647   19.6172 H   0  0  0  0  0  0
  -21.1992   -7.6144   23.9723 H   0  0  0  0  0  0
  -21.1495   -6.0517   25.9089 H   0  0  0  0  0  0
  -22.0596   -2.7605   23.2855 H   0  0  0  0  0  0
  -22.4140  -11.9858   22.4834 H   0  0  0  0  0  0
  -21.1094  -13.1198   22.2646 H   0  0  0  0  0  0
  -24.6408  -15.8295   20.4794 H   0  0  0  0  0  0
  -26.2623  -15.6183   20.0486 H   0  0  0  0  0  0
  -26.7146  -32.5481   23.1115 H   0  0  0  0  0  0
  -25.0051  -33.9754   25.0427 H   0  0  0  0  0  0
  -22.7020  -31.2996   21.4008 H   0  0  0  0  0  0
  -23.3748  -35.9652   23.3305 H   0  0  0  0  0  0
  -24.3576  -36.8940   22.2048 H   0  0  0  0  0  0
  -23.7254  -37.6530   23.6657 H   0  0  0  0  0  0
  -26.0596  -31.5742   20.5884 H   0  0  0  0  0  0
  -26.8323  -30.8680   21.9804 H   0  0  0  0  0  0
  -28.1146  -29.0594   21.1399 H   0  0  0  0  0  0
  -26.0130  -25.9225   19.0380 H   0  0  0  0  0  0
  -23.9814  -27.2767   19.0348 H   0  0  0  0  0  0
  -23.7380  -30.5855   19.4023 H   0  0  0  0  0  0
  -22.7466  -29.2359   19.8613 H   0  0  0  0  0  0
  -25.1290  -36.1966   25.0821 H   0  0  0  0  0  0
  -20.9985  -28.3180   24.1330 H   0  0  0  0  0  0
  -21.6574  -26.7432   22.0973 H   0  0  0  0  0  0
  -20.5750  -26.2250   23.3471 H   0  0  0  0  0  0
  -19.6539  -27.3086   20.6641 H   0  0  0  0  0  0
  -19.6775  -25.6231   21.1238 H   0  0  0  0  0  0
  -17.4085  -26.6615   21.4132 H   0  0  0  0  0  0
  -18.0320  -26.0092   22.9077 H   0  0  0  0  0  0
  -19.8019  -30.7264   24.2148 H   0  0  0  0  0  0
  -17.5119  -31.6287   24.5161 H   0  0  0  0  0  0
  -15.5413  -30.3055   23.7678 H   0  0  0  0  0  0
  -15.8653  -28.0895   22.7095 H   0  0  0  0  0  0
  -24.5885  -30.7083   25.7752 H   0  0  0  0  0  0
  -24.8911  -32.2882   26.4873 H   0  0  0  0  0  0
  -25.8032  -30.8875   27.0208 H   0  0  0  0  0  0
  -26.2873  -29.6788   24.1161 H   0  0  0  0  0  0
  -27.4072  -29.7272   25.4582 H   0  0  0  0  0  0
  -27.8708  -30.4345   23.9284 H   0  0  0  0  0  0
  -27.2667  -33.3609   26.2077 H   0  0  0  0  0  0
  -28.3847  -32.6887   25.0299 H   0  0  0  0  0  0
  -28.0734  -31.8428   26.5382 H   0  0  0  0  0  0
  -28.2603  -38.0108   24.7503 H   0  0  0  0  0  0
  -28.1076  -36.2637   24.6294 H   0  0  0  0  0  0
  -27.2298  -37.1474   25.8868 H   0  0  0  0  0  0
  -20.9409  -29.8644   21.6742 H   0  0  0  0  0  0
  -26.0190  -38.2870   24.1393 H   0  0  0  0  0  0
  -27.7265  -17.3446   19.0546 H   0  0  0  0  0  0
  -27.1784  -19.6535   19.5172 H   0  0  0  0  0  0
  -30.6416  -19.9805   22.0262 H   0  0  0  0  0  0
  -31.3708  -16.6958   22.4409 H   0  0  0  0  0  0
  -32.1229  -18.2785   22.3334 H   0  0  0  0  0  0
  -32.3214  -17.1589   21.0020 H   0  0  0  0  0  0
  -28.9574  -21.7576   22.0900 H   0  0  0  0  0  0
  -27.4091  -21.4921   21.3633 H   0  0  0  0  0  0
  -28.3076  -22.3978   19.1584 H   0  0  0  0  0  0
  -29.8391  -22.6897   19.9333 H   0  0  0  0  0  0
  -28.7415  -24.3073   21.5207 H   0  0  0  0  0  0
  -27.1967  -24.0415   20.7760 H   0  0  0  0  0  0
  -27.9959  -25.1756   18.6579 H   0  0  0  0  0  0
  -29.5909  -25.2126   19.2987 H   0  0  0  0  0  0
  -29.0914  -16.4812   18.0633 H   0  0  0  0  0  0
  1 25  1  0  0  0
  1 30  2  0  0  0
  1 77  1  0  0  0
  2  3  1  0  0  0
  2 25  1  0  0  0
  2 84  1  0  0  0
  2 85  1  0  0  0
  3  4  1  0  0  0
  3 86  1  0  0  0
  3 87  1  0  0  0
  4  5  1  0  0  0
  4 88  1  0  0  0
  4 89  1  0  0  0
  5  6  1  0  0  0
  5 26  1  0  0  0
  5 90  1  0  0  0
  6 25  1  0  0  0
  6 91  1  0  0  0
  6 92  1  0  0  0
  7  8  2  0  0  0
  7 26  1  0  0  0
  7 29  1  0  0  0
  8  9  1  0  0  0
  8 22  1  0  0  0
  9 10  1  0  0  0
  9 27  2  0  0  0
 10 11  2  0  0  0
 10 15  1  0  0  0
 11 12  1  0  0  0
 11 93  1  0  0  0
 12 13  2  0  0  0
 12 94  1  0  0  0
 13 14  1  0  0  0
 13 31  1  0  0  0
 14 15  2  0  0  0
 14 95  1  0  0  0
 15 96  1  0  0  0
 16 17  2  0  0  0
 16 21  1  0  0  0
 16 31  1  0  0  0
 17 18  1  0  0  0
 17 97  1  0  0  0
 18 19  2  0  0  0
 18 98  1  0  0  0
 19 20  1  0  0  0
 19 24  1  0  0  0
 20 21  2  0  0  0
 20 99  1  0  0  0
 21 23  1  0  0  0
 22 28  1  0  0  0
 22 32  2  0  0  0
 26 27  1  0  0  0
 28100  1  0  0  0
 28101  1  0  0  0
 29102  1  0  0  0
 29103  1  0  0  0
 33 34  1  0  0  0
 33 66  1  0  0  0
 33 70  2  0  0  0
 34 36  1  0  0  0
 34 59  1  0  0  0
 34104  1  0  0  0
 35 44  2  0  0  0
 35 45  1  0  0  0
 35 68  1  0  0  0
 36 56  1  0  0  0
 36105  1  0  0  0
 37 39  1  0  0  0
 37 47  1  0  0  0
 37 66  1  0  0  0
 37106  1  0  0  0
 38 43  2  0  0  0
 38 46  1  0  0  0
 38 47  1  0  0  0
 39 64  1  0  0  0
 39 67  2  0  0  0
 40 52  1  0  0  0
 40 53  2  0  0  0
 40 58  1  0  0  0
 41107  1  0  0  0
 41108  1  0  0  0
 41109  1  0  0  0
 41 48  1  0  0  0
 42 43  1  0  0  0
 42 66  1  0  0  0
 42110  1  0  0  0
 42111  1  0  0  0
 43 44  1  0  0  0
 44112  1  0  0  0
 45 46  2  0  0  0
 45113  1  0  0  0
 46114  1  0  0  0
 47115  1  0  0  0
 47116  1  0  0  0
 48 56  1  0  0  0
 48 65  1  0  0  0
 48117  1  0  0  0
 49 50  1  0  0  0
 49 53  1  0  0  0
 49 64  1  0  0  0
 49118  1  0  0  0
 50 51  1  0  0  0
 50119  1  0  0  0
 50120  1  0  0  0
 51 52  1  0  0  0
 51121  1  0  0  0
 51122  1  0  0  0
 52123  1  0  0  0
 52124  1  0  0  0
 53 54  1  0  0  0
 54 55  2  0  0  0
 54125  1  0  0  0
 55 57  1  0  0  0
 55126  1  0  0  0
 56 69  2  0  0  0
 57 58  2  0  0  0
 57127  1  0  0  0
 58128  1  0  0  0
 59 60  1  0  0  0
 59 61  1  0  0  0
 59 62  1  0  0  0
 60129  1  0  0  0
 60130  1  0  0  0
 60131  1  0  0  0
 61132  1  0  0  0
 61133  1  0  0  0
 61134  1  0  0  0
 62135  1  0  0  0
 62136  1  0  0  0
 62137  1  0  0  0
 63 65  1  0  0  0
 63138  1  0  0  0
 63139  1  0  0  0
 63140  1  0  0  0
 64141  1  0  0  0
 65142  1  0  0  0
 68 82  1  0  0  0
 71 72  2  0  0  0
 71 74  1  0  0  0
 71143  1  0  0  0
 72 75  1  0  0  0
 72144  1  0  0  0
 73 75  2  0  0  0
 73 76  1  0  0  0
 73145  1  0  0  0
 74 76  2  0  0  0
 74 77  1  0  0  0
 75 79  1  0  0  0
 76 78  1  0  0  0
 77 83  2  0  0  0
 78146  1  0  0  0
 78147  1  0  0  0
 78148  1  0  0  0
 79 80  1  0  0  0
 79149  1  0  0  0
 79150  1  0  0  0
 80 81  1  0  0  0
 80151  1  0  0  0
 80152  1  0  0  0
 81 82  1  0  0  0
 81153  1  0  0  0
 81154  1  0  0  0
 82155  1  0  0  0
 82156  1  0  0  0
 83157  1  0  0  0
M  ISO  4   1 100  68 101  77 100  82 101
M  END
> <chiral flag>
0

> <version>
0

> <s_m_source_file>
/data/baiqing/PycharmProjects/Reinvent-master-3.2/result/LINK_invent/BTK/process_docking_weight1_custom_product_contain_oxygen_bond_distance_aromatic_linkinvent_7_9_3/rearranged_h_0131.sdf

> <i_m_source_file_index>
63

> <r_mmod_Potential_Energy-OPLS-2005>
303.777618408203

> <r_mmod_Stretch_Energy-OPLS-2005>
71.8166732788086

> <r_mmod_Bend_Energy-OPLS-2005>
153.482482910156

> <r_mmod_Torsional_Energy-OPLS-2005>
242.037704467773

> <r_mmod_Improper_Torsional_Energy-OPLS-2005>
28.5217819213867

> <r_mmod_Van_der_Waal_Energy-OPLS-2005>
147.42073059082

> <r_mmod_Electrostatic_Energy-OPLS-2005>
-206.423538208008

> <r_mmod_Solvation_Energy-OPLS-2005>
-189.872512817383

> <b_mmod_Minimization_Converged-OPLS-2005>
0

> <r_mmod_RMS_Derivative-OPLS-2005>
3.02975988388062

$$$$
63
                    3D
 Structure written by MMmdl.
154162  0  0  1  0            999 V2000
  -30.7774  -14.4376   20.5682 C   0  0  0  0  0  0
  -30.3951  -12.2833   19.4441 C   0  0  0  0  0  0
  -29.4857  -12.4938   18.2192 C   0  0  0  0  0  0
  -28.0049  -12.3760   18.6225 C   0  0  0  0  0  0
  -27.6593  -13.2191   19.8796 C   0  0  2  0  0  0
  -28.7009  -13.0259   21.0062 C   0  0  0  0  0  0
  -25.2565  -13.8206   20.5739 C   0  0  0  0  0  0
  -24.1827  -13.0459   20.9198 C   0  0  0  0  0  0
  -24.6375  -11.6924   20.8730 C   0  0  0  0  0  0
  -23.9049  -10.4300   21.0381 C   0  0  0  0  0  0
  -24.3593   -9.4217   21.9168 C   0  0  0  0  0  0
  -23.6275   -8.2247   22.0730 C   0  0  0  0  0  0
  -22.4262   -8.0259   21.3519 C   0  0  0  0  0  0
  -21.9892   -9.0235   20.4642 C   0  0  0  0  0  0
  -22.7206  -10.2128   20.3048 C   0  0  0  0  0  0
  -21.6859   -6.0735   22.5265 C   0  0  0  0  0  0
  -21.4020   -6.5630   23.8204 C   0  0  0  0  0  0
  -21.3683   -5.6782   24.9166 C   0  0  0  0  0  0
  -21.6042   -4.3045   24.7219 C   0  0  0  0  0  0
  -21.8824   -3.8155   23.4333 C   0  0  0  0  0  0
  -21.9204   -4.6973   22.3386 C   0  0  0  0  0  0
  -22.7856  -13.5248   21.1862 C   0  0  0  0  0  0
  -22.1664   -4.2166   21.0968 F   0  0  0  0  0  0
  -21.5627   -3.4513   25.7726 F   0  0  0  0  0  0
  -30.0354  -13.3000   20.4514 N   0  0  0  0  0  0
  -26.3005  -12.9396   20.3417 N   0  0  0  0  0  0
  -25.9310  -11.6529   20.5797 N   0  0  0  0  0  0
  -22.0499  -12.8234   22.0431 N   0  0  0  0  0  0
  -25.4282  -15.1926   20.4198 N   0  0  0  0  0  0
  -31.8995  -14.5026   20.0548 O   0  0  0  0  0  0
  -21.6624   -6.8862   21.4220 O   0  0  0  0  0  0
  -22.3521  -14.5546   20.6720 O   0  0  0  0  0  0
  -24.6139  -31.8694   23.2136 C   0  0  0  0  0  0
  -25.9038  -32.4835   23.8429 C   0  0  1  0  0  0
  -27.2263  -27.4451   20.1148 C   0  0  0  0  0  0
  -25.5911  -33.8636   24.2364 N   0  0  0  0  0  0
  -23.4012  -30.4940   21.5522 C   0  0  2  0  0  0
  -24.8494  -28.9726   20.1081 C   0  0  0  0  0  0
  -22.7416  -29.4647   22.4980 C   0  0  0  0  0  0
  -18.0274  -28.1357   22.8477 C   0  0  0  0  0  0
  -24.1483  -36.7311   23.2613 C   0  0  0  0  0  0
  -25.9292  -30.8433   21.3649 C   0  0  0  0  0  0
  -26.0085  -29.4819   20.7075 C   0  0  0  0  0  0
  -27.2032  -28.7287   20.7023 C   0  0  0  0  0  0
  -26.0552  -26.9578   19.4874 C   0  0  0  0  0  0
  -24.8699  -27.7120   19.4880 C   0  0  0  0  0  0
  -23.6092  -29.8332   20.1639 C   0  0  0  0  0  0
  -25.4084  -36.3115   24.0344 C   0  0  1  0  0  0
  -20.5868  -28.3636   23.1310 C   0  0  2  0  0  0
  -20.6765  -26.9369   22.5402 C   0  0  0  0  0  0
  -19.5744  -26.6368   21.5186 C   0  0  0  0  0  0
  -18.1921  -26.7900   22.1606 C   0  0  0  0  0  0
  -19.1527  -28.8810   23.2892 C   0  0  0  0  0  0
  -18.9449  -30.1415   23.8902 C   0  0  0  0  0  0
  -17.6453  -30.6564   24.0542 C   0  0  0  0  0  0
  -25.9025  -34.9486   23.5148 C   0  0  0  0  0  0
  -16.5340  -29.9060   23.6328 C   0  0  0  0  0  0
  -16.7260  -28.6480   23.0341 C   0  0  0  0  0  0
  -26.4495  -31.6608   25.0747 C   0  0  0  0  0  0
  -25.3780  -31.3676   26.1507 C   0  0  0  0  0  0
  -27.0331  -30.3069   24.6088 C   0  0  0  0  0  0
  -27.6083  -32.4326   25.7494 C   0  0  0  0  0  0
  -27.5621  -37.1733   24.8402 C   0  0  0  0  0  0
  -21.4142  -29.3021   22.3740 N   0  0  0  0  0  0
  -26.4243  -37.3832   23.9484 N   0  0  0  0  0  0
  -24.6657  -31.0822   22.1016 N   0  0  0  0  0  0
  -23.4206  -28.8169   23.2994 O   0  0  0  0  0  0
  -28.3663  -26.6779   20.1978 O   0  0  0  0  0  0
  -26.5585  -34.8938   22.4707 O   0  0  0  0  0  0
  -23.5344  -32.1425   23.7549 O   0  0  0  0  0  0
  -29.3594  -18.4885   22.2708 C   0  0  0  0  0  0
  -31.3427  -19.2066   21.0614 C   0  0  0  0  0  0
  -29.1053  -19.8339   22.6306 C   0  0  0  0  0  0
  -31.0906  -20.5430   21.4147 C   0  0  0  0  0  0
  -30.4787  -18.1669   21.4678 C   0  0  0  0  0  0
  -29.9601  -20.8701   22.1864 C   0  0  0  0  0  0
  -30.8057  -16.8104   20.9936 C   0  0  0  0  0  0
  -30.1847  -15.6210   21.2002 C   0  0  0  0  0  0
  -29.1795  -24.6110   21.2918 C   0  0  0  0  0  0
  -29.6816  -22.3402   22.4796 C   0  0  0  0  0  0
  -29.2428  -23.0818   21.1958 C   0  0  0  0  0  0
  -28.1028  -25.2837   20.4315 C   0  0  0  0  0  0
  -29.9508  -25.2567   22.0105 O   0  0  0  0  0  0
  -31.4418  -12.3248   19.1361 H   0  0  0  0  0  0
  -30.2555  -11.2820   19.8545 H   0  0  0  0  0  0
  -29.7247  -11.7620   17.4465 H   0  0  0  0  0  0
  -29.6696  -13.4777   17.7850 H   0  0  0  0  0  0
  -27.7968  -11.3241   18.8157 H   0  0  0  0  0  0
  -27.3614  -12.6649   17.7908 H   0  0  0  0  0  0
  -27.7051  -14.2646   19.5728 H   0  0  0  0  0  0
  -28.6701  -12.0033   21.3831 H   0  0  0  0  0  0
  -28.4644  -13.6470   21.8684 H   0  0  0  0  0  0
  -25.2723   -9.5700   22.4767 H   0  0  0  0  0  0
  -24.0011   -7.4644   22.7427 H   0  0  0  0  0  0
  -21.0836   -8.8703   19.8953 H   0  0  0  0  0  0
  -22.3602  -10.9643   19.6172 H   0  0  0  0  0  0
  -21.1975   -7.6126   23.9699 H   0  0  0  0  0  0
  -21.1518   -6.0506   25.9067 H   0  0  0  0  0  0
  -22.0595   -2.7610   23.2835 H   0  0  0  0  0  0
  -22.4103  -11.9876   22.4788 H   0  0  0  0  0  0
  -21.1101  -13.1263   22.2632 H   0  0  0  0  0  0
  -24.6623  -15.8477   20.5274 H   0  0  0  0  0  0
  -26.2869  -15.6347   20.1193 H   0  0  0  0  0  0
  -26.7107  -32.5563   23.1193 H   0  0  0  0  0  0
  -25.0124  -33.9809   25.0554 H   0  0  0  0  0  0
  -22.6883  -31.3096   21.4187 H   0  0  0  0  0  0
  -23.3766  -35.9617   23.3222 H   0  0  0  0  0  0
  -24.3614  -36.8971   22.2040 H   0  0  0  0  0  0
  -23.7197  -37.6489   23.6649 H   0  0  0  0  0  0
  -26.0463  -31.6139   20.6012 H   0  0  0  0  0  0
  -26.8159  -30.8918   21.9858 H   0  0  0  0  0  0
  -28.0949  -29.1096   21.1812 H   0  0  0  0  0  0
  -26.0453  -25.9893   19.0067 H   0  0  0  0  0  0
  -23.9825  -27.3195   19.0126 H   0  0  0  0  0  0
  -23.7140  -30.6113   19.4073 H   0  0  0  0  0  0
  -22.7352  -29.2502   19.8678 H   0  0  0  0  0  0
  -25.1217  -36.1956   25.0824 H   0  0  0  0  0  0
  -20.9948  -28.3183   24.1429 H   0  0  0  0  0  0
  -20.5643  -26.2222   23.3566 H   0  0  0  0  0  0
  -21.6642  -26.7404   22.1208 H   0  0  0  0  0  0
  -19.6906  -25.6281   21.1200 H   0  0  0  0  0  0
  -19.6686  -27.3185   20.6717 H   0  0  0  0  0  0
  -17.4180  -26.6627   21.4023 H   0  0  0  0  0  0
  -18.0351  -26.0045   22.9005 H   0  0  0  0  0  0
  -19.7916  -30.7230   24.2283 H   0  0  0  0  0  0
  -17.5000  -31.6253   24.5134 H   0  0  0  0  0  0
  -15.5337  -30.2954   23.7647 H   0  0  0  0  0  0
  -15.8664  -28.0787   22.7067 H   0  0  0  0  0  0
  -24.5965  -30.7006   25.7853 H   0  0  0  0  0  0
  -24.8953  -32.2803   26.5008 H   0  0  0  0  0  0
  -25.8168  -30.8830   27.0233 H   0  0  0  0  0  0
  -26.2858  -29.6819   24.1187 H   0  0  0  0  0  0
  -27.4173  -29.7322   25.4522 H   0  0  0  0  0  0
  -27.8668  -30.4417   23.9193 H   0  0  0  0  0  0
  -27.2702  -33.3572   26.2189 H   0  0  0  0  0  0
  -28.3825  -32.6976   25.0279 H   0  0  0  0  0  0
  -28.0848  -31.8394   26.5309 H   0  0  0  0  0  0
  -28.2406  -38.0258   24.7837 H   0  0  0  0  0  0
  -28.1352  -36.2841   24.5719 H   0  0  0  0  0  0
  -27.2426  -37.0765   25.8794 H   0  0  0  0  0  0
  -20.9285  -29.8762   21.6996 H   0  0  0  0  0  0
  -26.0122  -38.2852   24.1716 H   0  0  0  0  0  0
  -28.6853  -17.7128   22.6031 H   0  0  0  0  0  0
  -32.2108  -18.9924   20.4519 H   0  0  0  0  0  0
  -28.2364  -20.0681   23.2309 H   0  0  0  0  0  0
  -31.7598  -21.3215   21.0742 H   0  0  0  0  0  0
  -31.6895  -16.8096   20.3687 H   0  0  0  0  0  0
  -29.2967  -15.5730   21.8067 H   0  0  0  0  0  0
  -30.5846  -22.7909   22.8950 H   0  0  0  0  0  0
  -28.9150  -22.4287   23.2510 H   0  0  0  0  0  0
  -29.9383  -22.8564   20.3873 H   0  0  0  0  0  0
  -28.2682  -22.7116   20.8767 H   0  0  0  0  0  0
  -27.1652  -25.1623   20.9765 H   0  0  0  0  0  0
  -28.0022  -24.7537   19.4842 H   0  0  0  0  0  0
  1 25  1  0  0  0
  1 30  2  0  0  0
  1 78  1  0  0  0
  2  3  1  0  0  0
  2 25  1  0  0  0
  2 84  1  0  0  0
  2 85  1  0  0  0
  3  4  1  0  0  0
  3 86  1  0  0  0
  3 87  1  0  0  0
  4  5  1  0  0  0
  4 88  1  0  0  0
  4 89  1  0  0  0
  5  6  1  0  0  0
  5 26  1  0  0  0
  5 90  1  0  0  0
  6 25  1  0  0  0
  6 91  1  0  0  0
  6 92  1  0  0  0
  7  8  2  0  0  0
  7 26  1  0  0  0
  7 29  1  0  0  0
  8  9  1  0  0  0
  8 22  1  0  0  0
  9 10  1  0  0  0
  9 27  2  0  0  0
 10 11  2  0  0  0
 10 15  1  0  0  0
 11 12  1  0  0  0
 11 93  1  0  0  0
 12 13  2  0  0  0
 12 94  1  0  0  0
 13 14  1  0  0  0
 13 31  1  0  0  0
 14 15  2  0  0  0
 14 95  1  0  0  0
 15 96  1  0  0  0
 16 17  2  0  0  0
 16 21  1  0  0  0
 16 31  1  0  0  0
 17 18  1  0  0  0
 17 97  1  0  0  0
 18 19  2  0  0  0
 18 98  1  0  0  0
 19 20  1  0  0  0
 19 24  1  0  0  0
 20 21  2  0  0  0
 20 99  1  0  0  0
 21 23  1  0  0  0
 22 28  1  0  0  0
 22 32  2  0  0  0
 26 27  1  0  0  0
 28100  1  0  0  0
 28101  1  0  0  0
 29102  1  0  0  0
 29103  1  0  0  0
 33 34  1  0  0  0
 33 66  1  0  0  0
 33 70  2  0  0  0
 34 36  1  0  0  0
 34 59  1  0  0  0
 34104  1  0  0  0
 35 44  2  0  0  0
 35 45  1  0  0  0
 35 68  1  0  0  0
 36 56  1  0  0  0
 36105  1  0  0  0
 37 39  1  0  0  0
 37 47  1  0  0  0
 37 66  1  0  0  0
 37106  1  0  0  0
 38 43  2  0  0  0
 38 46  1  0  0  0
 38 47  1  0  0  0
 39 64  1  0  0  0
 39 67  2  0  0  0
 40 52  1  0  0  0
 40 53  2  0  0  0
 40 58  1  0  0  0
 41107  1  0  0  0
 41108  1  0  0  0
 41109  1  0  0  0
 41 48  1  0  0  0
 42 43  1  0  0  0
 42 66  1  0  0  0
 42110  1  0  0  0
 42111  1  0  0  0
 43 44  1  0  0  0
 44112  1  0  0  0
 45 46  2  0  0  0
 45113  1  0  0  0
 46114  1  0  0  0
 47115  1  0  0  0
 47116  1  0  0  0
 48 56  1  0  0  0
 48 65  1  0  0  0
 48117  1  0  0  0
 49 50  1  0  0  0
 49 53  1  0  0  0
 49 64  1  0  0  0
 49118  1  0  0  0
 50 51  1  0  0  0
 50119  1  0  0  0
 50120  1  0  0  0
 51 52  1  0  0  0
 51121  1  0  0  0
 51122  1  0  0  0
 52123  1  0  0  0
 52124  1  0  0  0
 53 54  1  0  0  0
 54 55  2  0  0  0
 54125  1  0  0  0
 55 57  1  0  0  0
 55126  1  0  0  0
 56 69  2  0  0  0
 57 58  2  0  0  0
 57127  1  0  0  0
 58128  1  0  0  0
 59 60  1  0  0  0
 59 61  1  0  0  0
 59 62  1  0  0  0
 60129  1  0  0  0
 60130  1  0  0  0
 60131  1  0  0  0
 61132  1  0  0  0
 61133  1  0  0  0
 61134  1  0  0  0
 62135  1  0  0  0
 62136  1  0  0  0
 62137  1  0  0  0
 63 65  1  0  0  0
 63138  1  0  0  0
 63139  1  0  0  0
 63140  1  0  0  0
 64141  1  0  0  0
 65142  1  0  0  0
 68 82  1  0  0  0
 71 73  2  0  0  0
 71 75  1  0  0  0
 71143  1  0  0  0
 72 74  1  0  0  0
 72 75  2  0  0  0
 72144  1  0  0  0
 73 76  1  0  0  0
 73145  1  0  0  0
 74 76  2  0  0  0
 74146  1  0  0  0
 75 77  1  0  0  0
 76 80  1  0  0  0
 77 78  2  0  0  0
 77147  1  0  0  0
 78148  1  0  0  0
 79 81  1  0  0  0
 79 82  1  0  0  0
 79 83  2  0  0  0
 80 81  1  0  0  0
 80149  1  0  0  0
 80150  1  0  0  0
 81151  1  0  0  0
 81152  1  0  0  0
 82153  1  0  0  0
 82154  1  0  0  0
M  ISO  4   1 100  68 101  78 100  82 101
M  END
> <chiral flag>
0

> <version>
0

> <s_m_source_file>
/data/baiqing/PycharmProjects/Reinvent-master-3.2/result/LINK_invent/BTK/process_docking_weight1_custom_product_contain_oxygen_bond_distance_aromatic_linkinvent_7_9_3/rearranged_h_0131.sdf

> <i_m_source_file_index>
64

> <r_mmod_Potential_Energy-OPLS-2005>
-33.3215370178223

> <r_mmod_Stretch_Energy-OPLS-2005>
35.4354095458984

> <r_mmod_Bend_Energy-OPLS-2005>
104.666915893555

> <r_mmod_Torsional_Energy-OPLS-2005>
182.476760864258

> <r_mmod_Improper_Torsional_Energy-OPLS-2005>
2.61797785758972

> <r_mmod_Van_der_Waal_Energy-OPLS-2005>
165.396759033203

> <r_mmod_Electrostatic_Energy-OPLS-2005>
-330.596618652344

> <r_mmod_Solvation_Energy-OPLS-2005>
-211.991546630859

> <b_mmod_Minimization_Converged-OPLS-2005>
0

> <r_mmod_RMS_Derivative-OPLS-2005>
3.39333081245422

$$$$
64
                    3D
 Structure written by MMmdl.
162170  0  0  1  0            999 V2000
  -30.5627  -14.8918   20.3957 C   0  0  0  0  0  0
  -30.4324  -12.5412   19.4398 C   0  0  0  0  0  0
  -29.4905  -12.5136   18.2116 C   0  0  0  0  0  0
  -28.0130  -12.3461   18.6228 C   0  0  0  0  0  0
  -27.6259  -13.2263   19.8368 C   0  0  2  0  0  0
  -28.6951  -13.2136   20.9511 C   0  0  0  0  0  0
  -25.2441  -13.7924   20.5930 C   0  0  0  0  0  0
  -24.1775  -13.0238   20.9339 C   0  0  0  0  0  0
  -24.6408  -11.6750   20.8826 C   0  0  0  0  0  0
  -23.9128  -10.4132   21.0455 C   0  0  0  0  0  0
  -24.3663   -9.4047   21.9244 C   0  0  0  0  0  0
  -23.6299   -8.2118   22.0809 C   0  0  0  0  0  0
  -22.4294   -8.0199   21.3561 C   0  0  0  0  0  0
  -21.9925   -9.0210   20.4720 C   0  0  0  0  0  0
  -22.7301  -10.2046   20.3114 C   0  0  0  0  0  0
  -21.6852   -6.0679   22.5273 C   0  0  0  0  0  0
  -21.4030   -6.5611   23.8200 C   0  0  0  0  0  0
  -21.3652   -5.6796   24.9164 C   0  0  0  0  0  0
  -21.6008   -4.3037   24.7245 C   0  0  0  0  0  0
  -21.8823   -3.8115   23.4365 C   0  0  0  0  0  0
  -21.9190   -4.6901   22.3417 C   0  0  0  0  0  0
  -22.7806  -13.5061   21.1956 C   0  0  0  0  0  0
  -22.1651   -4.2065   21.1000 F   0  0  0  0  0  0
  -21.5570   -3.4552   25.7762 F   0  0  0  0  0  0
  -29.9736  -13.6276   20.3471 N   0  0  0  0  0  0
  -26.2902  -12.9246   20.3367 N   0  0  0  0  0  0
  -25.9327  -11.6362   20.5746 N   0  0  0  0  0  0
  -22.0481  -12.8023   22.0442 N   0  0  0  0  0  0
  -25.4000  -15.1618   20.4481 N   0  0  0  0  0  0
  -31.7685  -14.9879   20.1288 O   0  0  0  0  0  0
  -21.6633   -6.8823   21.4243 O   0  0  0  0  0  0
  -22.3536  -14.5416   20.6810 O   0  0  0  0  0  0
  -24.6437  -31.8368   23.1733 C   0  0  0  0  0  0
  -25.9240  -32.4627   23.8141 C   0  0  1  0  0  0
  -27.2660  -27.1986   20.1063 C   0  0  0  0  0  0
  -25.5971  -33.8417   24.2063 N   0  0  0  0  0  0
  -23.4432  -30.4381   21.5267 C   0  0  2  0  0  0
  -24.9020  -28.8488   20.1236 C   0  0  0  0  0  0
  -22.7563  -29.4522   22.5007 C   0  0  0  0  0  0
  -18.0389  -28.1328   22.8511 C   0  0  0  0  0  0
  -24.1488  -36.7192   23.2632 C   0  0  0  0  0  0
  -25.9967  -30.7359   21.3480 C   0  0  0  0  0  0
  -26.0822  -29.3501   20.6845 C   0  0  0  0  0  0
  -27.2720  -28.5421   20.6397 C   0  0  0  0  0  0
  -26.0465  -26.7508   19.5552 C   0  0  0  0  0  0
  -24.8832  -27.5598   19.5596 C   0  0  0  0  0  0
  -23.6606  -29.7193   20.1677 C   0  0  0  0  0  0
  -25.4131  -36.2946   24.0282 C   0  0  1  0  0  0
  -20.5933  -28.3715   23.1358 C   0  0  2  0  0  0
  -20.6867  -26.9412   22.5537 C   0  0  0  0  0  0
  -19.5976  -26.6532   21.5173 C   0  0  0  0  0  0
  -18.2171  -26.7875   22.1644 C   0  0  0  0  0  0
  -19.1597  -28.8842   23.2913 C   0  0  0  0  0  0
  -18.9453  -30.1470   23.8827 C   0  0  0  0  0  0
  -17.6447  -30.6595   24.0435 C   0  0  0  0  0  0
  -25.9122  -34.9348   23.5001 C   0  0  0  0  0  0
  -16.5372  -29.9043   23.6183 C   0  0  0  0  0  0
  -16.7361  -28.6426   23.0283 C   0  0  0  0  0  0
  -26.4519  -31.6548   25.0647 C   0  0  0  0  0  0
  -25.3675  -31.3813   26.1345 C   0  0  0  0  0  0
  -27.0372  -30.2915   24.6312 C   0  0  0  0  0  0
  -27.6043  -32.4320   25.7489 C   0  0  0  0  0  0
  -27.5553  -37.1745   24.8473 C   0  0  0  0  0  0
  -21.4271  -29.3037   22.3753 N   0  0  0  0  0  0
  -26.4256  -37.3709   23.9412 N   0  0  0  0  0  0
  -24.7130  -31.0275   22.0698 N   0  0  0  0  0  0
  -23.4217  -28.8128   23.3212 O   0  0  0  0  0  0
  -28.3723  -26.3127   20.2458 O   0  0  0  0  0  0
  -26.5763  -34.8873   22.4615 O   0  0  0  0  0  0
  -23.5585  -32.1207   23.7023 O   0  0  0  0  0  0
  -30.6769  -19.9127   20.5479 C   0  0  0  0  0  0
  -30.8251  -18.4648   20.6277 C   0  0  0  0  0  0
  -28.4375  -19.6878   19.8854 C   0  0  0  0  0  0
  -29.4768  -20.6184   20.1817 C   0  0  0  0  0  0
  -28.5731  -18.2382   19.9453 C   0  0  0  0  0  0
  -29.7676  -17.5387   20.3397 C   0  0  0  0  0  0
  -26.5471  -17.9540   18.4314 C   0  0  0  0  0  0
  -27.5137  -22.9305   18.5778 C   0  0  0  0  0  0
  -27.2085  -23.4504   21.0159 C   0  0  0  0  0  0
  -29.4276  -22.2744   20.2119 C   0  0  0  0  0  0
  -27.3543  -17.4039   19.6012 C   0  0  0  0  0  0
  -28.6666  -24.9913   19.5419 C   0  0  0  0  0  0
  -28.2326  -23.4019   19.8644 C   0  0  0  0  0  0
  -29.7375  -16.0212   20.5453 N   0  0  0  0  0  0
  -31.4604  -12.6978   19.1074 H   0  0  0  0  0  0
  -30.4145  -11.5725   19.9429 H   0  0  0  0  0  0
  -29.7721  -11.7076   17.5345 H   0  0  0  0  0  0
  -29.5984  -13.4367   17.6372 H   0  0  0  0  0  0
  -27.8259  -11.2967   18.8473 H   0  0  0  0  0  0
  -27.3743  -12.5782   17.7699 H   0  0  0  0  0  0
  -27.5854  -14.2349   19.4403 H   0  0  0  0  0  0
  -28.7779  -12.2182   21.3901 H   0  0  0  0  0  0
  -28.4236  -13.8875   21.7622 H   0  0  0  0  0  0
  -25.2831   -9.5427   22.4811 H   0  0  0  0  0  0
  -23.9963   -7.4490   22.7537 H   0  0  0  0  0  0
  -21.0817   -8.8772   19.9090 H   0  0  0  0  0  0
  -22.3821  -10.9599   19.6211 H   0  0  0  0  0  0
  -21.2067   -7.6145   23.9629 H   0  0  0  0  0  0
  -21.1491   -6.0576   25.9050 H   0  0  0  0  0  0
  -22.0643   -2.7577   23.2923 H   0  0  0  0  0  0
  -22.4245  -11.9709   22.4737 H   0  0  0  0  0  0
  -21.1069  -13.0906   22.2740 H   0  0  0  0  0  0
  -24.6105  -15.7935   20.5001 H   0  0  0  0  0  0
  -26.2294  -15.5793   20.0548 H   0  0  0  0  0  0
  -26.7330  -32.5179   23.0889 H   0  0  0  0  0  0
  -24.9989  -33.9513   25.0115 H   0  0  0  0  0  0
  -22.7335  -31.2473   21.3409 H   0  0  0  0  0  0
  -23.3740  -35.9537   23.3312 H   0  0  0  0  0  0
  -24.3508  -36.8840   22.2033 H   0  0  0  0  0  0
  -23.7266  -37.6384   23.6704 H   0  0  0  0  0  0
  -26.1576  -31.4902   20.5730 H   0  0  0  0  0  0
  -26.8634  -30.7795   21.9992 H   0  0  0  0  0  0
  -28.1965  -28.9344   21.0458 H   0  0  0  0  0  0
  -25.9836  -25.7193   19.2238 H   0  0  0  0  0  0
  -23.9381  -27.1622   19.2065 H   0  0  0  0  0  0
  -23.7790  -30.4531   19.3738 H   0  0  0  0  0  0
  -22.7845  -29.1270   19.8878 H   0  0  0  0  0  0
  -25.1309  -36.1714   25.0764 H   0  0  0  0  0  0
  -20.9993  -28.3351   24.1489 H   0  0  0  0  0  0
  -20.5692  -26.2200   23.3657 H   0  0  0  0  0  0
  -21.6772  -26.7543   22.1382 H   0  0  0  0  0  0
  -19.6885  -27.3628   20.6928 H   0  0  0  0  0  0
  -19.7263  -25.6611   21.0852 H   0  0  0  0  0  0
  -17.4484  -26.6447   21.4040 H   0  0  0  0  0  0
  -18.0798  -25.9996   22.9058 H   0  0  0  0  0  0
  -19.7913  -30.7314   24.2151 H   0  0  0  0  0  0
  -17.5002  -31.6291   24.4999 H   0  0  0  0  0  0
  -15.5355  -30.2910   23.7388 H   0  0  0  0  0  0
  -15.8854  -28.0646   22.6937 H   0  0  0  0  0  0
  -24.5882  -30.7125   25.7672 H   0  0  0  0  0  0
  -24.8829  -32.3021   26.4599 H   0  0  0  0  0  0
  -25.7916  -30.9097   27.0224 H   0  0  0  0  0  0
  -26.2982  -29.6660   24.1302 H   0  0  0  0  0  0
  -27.3878  -29.7257   25.4962 H   0  0  0  0  0  0
  -27.8927  -30.4050   23.9658 H   0  0  0  0  0  0
  -27.2600  -33.3644   26.1984 H   0  0  0  0  0  0
  -28.3931  -32.6858   25.0389 H   0  0  0  0  0  0
  -28.0643  -31.8507   26.5498 H   0  0  0  0  0  0
  -28.2572  -38.0048   24.7474 H   0  0  0  0  0  0
  -28.1051  -36.2556   24.6330 H   0  0  0  0  0  0
  -27.2269  -37.1407   25.8888 H   0  0  0  0  0  0
  -20.9572  -29.8494   21.6664 H   0  0  0  0  0  0
  -26.0101  -38.2770   24.1410 H   0  0  0  0  0  0
  -31.5258  -20.5175   20.8469 H   0  0  0  0  0  0
  -31.7691  -18.0672   20.9700 H   0  0  0  0  0  0
  -27.4703  -20.0937   19.6444 H   0  0  0  0  0  0
  -25.8472  -17.2095   18.0575 H   0  0  0  0  0  0
  -27.2134  -18.2386   17.6187 H   0  0  0  0  0  0
  -25.9694  -18.8244   18.7246 H   0  0  0  0  0  0
  -27.3787  -21.8550   18.5028 H   0  0  0  0  0  0
  -28.1170  -23.2286   17.7213 H   0  0  0  0  0  0
  -26.5304  -23.3896   18.4487 H   0  0  0  0  0  0
  -27.0495  -22.4752   21.4759 H   0  0  0  0  0  0
  -26.2329  -23.7803   20.6597 H   0  0  0  0  0  0
  -27.5035  -24.1679   21.7870 H   0  0  0  0  0  0
  -30.2586  -22.5570   19.5711 H   0  0  0  0  0  0
  -29.7817  -22.5300   21.2089 H   0  0  0  0  0  0
  -26.7461  -17.3359   20.5062 H   0  0  0  0  0  0
  -27.6323  -16.3941   19.3017 H   0  0  0  0  0  0
  -28.5217  -25.2170   18.4813 H   0  0  0  0  0  0
  -29.7548  -24.9717   19.6321 H   0  0  0  0  0  0
  -28.7942  -15.6988   20.6958 H   0  0  0  0  0  0
  1 25  1  0  0  0
  1 30  2  0  0  0
  1 84  1  0  0  0
  2  3  1  0  0  0
  2 25  1  0  0  0
  2 85  1  0  0  0
  2 86  1  0  0  0
  3  4  1  0  0  0
  3 87  1  0  0  0
  3 88  1  0  0  0
  4  5  1  0  0  0
  4 89  1  0  0  0
  4 90  1  0  0  0
  5  6  1  0  0  0
  5 26  1  0  0  0
  5 91  1  0  0  0
  6 25  1  0  0  0
  6 92  1  0  0  0
  6 93  1  0  0  0
  7  8  2  0  0  0
  7 26  1  0  0  0
  7 29  1  0  0  0
  8  9  1  0  0  0
  8 22  1  0  0  0
  9 10  1  0  0  0
  9 27  2  0  0  0
 10 11  2  0  0  0
 10 15  1  0  0  0
 11 12  1  0  0  0
 11 94  1  0  0  0
 12 13  2  0  0  0
 12 95  1  0  0  0
 13 14  1  0  0  0
 13 31  1  0  0  0
 14 15  2  0  0  0
 14 96  1  0  0  0
 15 97  1  0  0  0
 16 17  2  0  0  0
 16 21  1  0  0  0
 16 31  1  0  0  0
 17 18  1  0  0  0
 17 98  1  0  0  0
 18 19  2  0  0  0
 18 99  1  0  0  0
 19 20  1  0  0  0
 19 24  1  0  0  0
 20 21  2  0  0  0
 20100  1  0  0  0
 21 23  1  0  0  0
 22 28  1  0  0  0
 22 32  2  0  0  0
 26 27  1  0  0  0
 28101  1  0  0  0
 28102  1  0  0  0
 29103  1  0  0  0
 29104  1  0  0  0
 33 34  1  0  0  0
 33 66  1  0  0  0
 33 70  2  0  0  0
 34 36  1  0  0  0
 34 59  1  0  0  0
 34105  1  0  0  0
 35 44  2  0  0  0
 35 45  1  0  0  0
 35 68  1  0  0  0
 36 56  1  0  0  0
 36106  1  0  0  0
 37 39  1  0  0  0
 37 47  1  0  0  0
 37 66  1  0  0  0
 37107  1  0  0  0
 38 43  2  0  0  0
 38 46  1  0  0  0
 38 47  1  0  0  0
 39 64  1  0  0  0
 39 67  2  0  0  0
 40 52  1  0  0  0
 40 53  2  0  0  0
 40 58  1  0  0  0
 41108  1  0  0  0
 41109  1  0  0  0
 41110  1  0  0  0
 41 48  1  0  0  0
 42 43  1  0  0  0
 42 66  1  0  0  0
 42111  1  0  0  0
 42112  1  0  0  0
 43 44  1  0  0  0
 44113  1  0  0  0
 45 46  2  0  0  0
 45114  1  0  0  0
 46115  1  0  0  0
 47116  1  0  0  0
 47117  1  0  0  0
 48 56  1  0  0  0
 48 65  1  0  0  0
 48118  1  0  0  0
 49 50  1  0  0  0
 49 53  1  0  0  0
 49 64  1  0  0  0
 49119  1  0  0  0
 50 51  1  0  0  0
 50120  1  0  0  0
 50121  1  0  0  0
 51 52  1  0  0  0
 51122  1  0  0  0
 51123  1  0  0  0
 52124  1  0  0  0
 52125  1  0  0  0
 53 54  1  0  0  0
 54 55  2  0  0  0
 54126  1  0  0  0
 55 57  1  0  0  0
 55127  1  0  0  0
 56 69  2  0  0  0
 57 58  2  0  0  0
 57128  1  0  0  0
 58129  1  0  0  0
 59 60  1  0  0  0
 59 61  1  0  0  0
 59 62  1  0  0  0
 60130  1  0  0  0
 60131  1  0  0  0
 60132  1  0  0  0
 61133  1  0  0  0
 61134  1  0  0  0
 61135  1  0  0  0
 62136  1  0  0  0
 62137  1  0  0  0
 62138  1  0  0  0
 63 65  1  0  0  0
 63139  1  0  0  0
 63140  1  0  0  0
 63141  1  0  0  0
 64142  1  0  0  0
 65143  1  0  0  0
 68 82  1  0  0  0
 71 72  2  0  0  0
 71 74  1  0  0  0
 71144  1  0  0  0
 72 76  1  0  0  0
 72145  1  0  0  0
 73 74  2  0  0  0
 73 75  1  0  0  0
 73146  1  0  0  0
 74 80  1  0  0  0
 75 76  2  0  0  0
 75 81  1  0  0  0
 76 84  1  0  0  0
 77 81  1  0  0  0
 77147  1  0  0  0
 77148  1  0  0  0
 77149  1  0  0  0
 78150  1  0  0  0
 78151  1  0  0  0
 78152  1  0  0  0
 78 83  1  0  0  0
 79 83  1  0  0  0
 79153  1  0  0  0
 79154  1  0  0  0
 79155  1  0  0  0
 80 83  1  0  0  0
 80156  1  0  0  0
 80157  1  0  0  0
 81158  1  0  0  0
 81159  1  0  0  0
 82 83  1  0  0  0
 82160  1  0  0  0
 82161  1  0  0  0
 84162  1  0  0  0
M  ISO  4   1 100  68 101  82 101  84 100
M  END
> <chiral flag>
0

> <version>
0

> <s_m_source_file>
/data/baiqing/PycharmProjects/Reinvent-master-3.2/result/LINK_invent/BTK/process_docking_weight1_custom_product_contain_oxygen_bond_distance_aromatic_linkinvent_7_9_3/rearranged_h_0131.sdf

> <i_m_source_file_index>
65

> <r_mmod_Potential_Energy-OPLS-2005>
503.7451171875

> <r_mmod_Stretch_Energy-OPLS-2005>
211.662414550781

> <r_mmod_Bend_Energy-OPLS-2005>
316.226135253906

> <r_mmod_Torsional_Energy-OPLS-2005>
250.04573059082

> <r_mmod_Improper_Torsional_Energy-OPLS-2005>
6.71389389038086

> <r_mmod_Van_der_Waal_Energy-OPLS-2005>
135.692123413086

> <r_mmod_Electrostatic_Energy-OPLS-2005>
-371.905792236328

> <r_mmod_Solvation_Energy-OPLS-2005>
-196.077026367188

> <b_mmod_Minimization_Converged-OPLS-2005>
0

> <r_mmod_RMS_Derivative-OPLS-2005>
10.3665599822998

$$$$
65
                    3D
 Structure written by MMmdl.
150158  0  0  1  0            999 V2000
  -30.5306  -14.9513   20.4251 C   0  0  0  0  0  0
  -30.4537  -12.5872   19.5085 C   0  0  0  0  0  0
  -29.5290  -12.5282   18.2677 C   0  0  0  0  0  0
  -28.0547  -12.3250   18.6728 C   0  0  0  0  0  0
  -27.6367  -13.2384   19.8527 C   0  0  2  0  0  0
  -28.6820  -13.2119   20.9851 C   0  0  0  0  0  0
  -25.2514  -13.8180   20.5821 C   0  0  0  0  0  0
  -24.1800  -13.0422   20.9220 C   0  0  0  0  0  0
  -24.6380  -11.6879   20.8730 C   0  0  0  0  0  0
  -23.9038  -10.4274   21.0412 C   0  0  0  0  0  0
  -24.3605   -9.4198   21.9193 C   0  0  0  0  0  0
  -23.6304   -8.2221   22.0745 C   0  0  0  0  0  0
  -22.4285   -8.0271   21.3532 C   0  0  0  0  0  0
  -21.9904   -9.0225   20.4632 C   0  0  0  0  0  0
  -22.7202  -10.2117   20.3062 C   0  0  0  0  0  0
  -21.6837   -6.0736   22.5285 C   0  0  0  0  0  0
  -21.4001   -6.5640   23.8220 C   0  0  0  0  0  0
  -21.3663   -5.6790   24.9176 C   0  0  0  0  0  0
  -21.6074   -4.3060   24.7221 C   0  0  0  0  0  0
  -21.8820   -3.8137   23.4335 C   0  0  0  0  0  0
  -21.9175   -4.6960   22.3387 C   0  0  0  0  0  0
  -22.7819  -13.5197   21.1872 C   0  0  0  0  0  0
  -22.1648   -4.2150   21.0958 F   0  0  0  0  0  0
  -21.5632   -3.4545   25.7730 F   0  0  0  0  0  0
  -29.9580  -13.6696   20.4102 N   0  0  0  0  0  0
  -26.2916  -12.9391   20.3317 N   0  0  0  0  0  0
  -25.9314  -11.6511   20.5719 N   0  0  0  0  0  0
  -22.0460  -12.8240   22.0467 N   0  0  0  0  0  0
  -25.4280  -15.1927   20.4440 N   0  0  0  0  0  0
  -31.7263  -15.0173   20.1136 O   0  0  0  0  0  0
  -21.6615   -6.8892   21.4260 O   0  0  0  0  0  0
  -22.3494  -14.5474   20.6657 O   0  0  0  0  0  0
  -24.6417  -31.8481   23.1898 C   0  0  0  0  0  0
  -25.9182  -32.4718   23.8314 C   0  0  1  0  0  0
  -27.2214  -27.1492   20.1591 C   0  0  0  0  0  0
  -25.5937  -33.8524   24.2250 N   0  0  0  0  0  0
  -23.4470  -30.4661   21.5359 C   0  0  2  0  0  0
  -24.8975  -28.8950   20.1133 C   0  0  0  0  0  0
  -22.7571  -29.4557   22.4864 C   0  0  0  0  0  0
  -18.0312  -28.1412   22.8517 C   0  0  0  0  0  0
  -24.1484  -36.7264   23.2642 C   0  0  0  0  0  0
  -26.0019  -30.7243   21.3894 C   0  0  0  0  0  0
  -26.0731  -29.3359   20.7323 C   0  0  0  0  0  0
  -27.2351  -28.4786   20.7389 C   0  0  0  0  0  0
  -26.0184  -26.8084   19.5004 C   0  0  0  0  0  0
  -24.8817  -27.6442   19.4822 C   0  0  0  0  0  0
  -23.6736  -29.7962   20.1566 C   0  0  0  0  0  0
  -25.4117  -36.3063   24.0334 C   0  0  1  0  0  0
  -20.5930  -28.3733   23.1248 C   0  0  2  0  0  0
  -20.6788  -26.9425   22.5425 C   0  0  0  0  0  0
  -19.5761  -26.6390   21.5242 C   0  0  0  0  0  0
  -18.1942  -26.7963   22.1641 C   0  0  0  0  0  0
  -19.1574  -28.8895   23.2878 C   0  0  0  0  0  0
  -18.9493  -30.1495   23.8897 C   0  0  0  0  0  0
  -17.6487  -30.6612   24.0581 C   0  0  0  0  0  0
  -25.9066  -34.9429   23.5105 C   0  0  0  0  0  0
  -16.5382  -29.9117   23.6348 C   0  0  0  0  0  0
  -16.7303  -28.6535   23.0368 C   0  0  0  0  0  0
  -26.4517  -31.6568   25.0738 C   0  0  0  0  0  0
  -25.3707  -31.3721   26.1433 C   0  0  0  0  0  0
  -27.0375  -30.2978   24.6266 C   0  0  0  0  0  0
  -27.6083  -32.4319   25.7492 C   0  0  0  0  0  0
  -27.5580  -37.1794   24.8479 C   0  0  0  0  0  0
  -21.4261  -29.3056   22.3619 N   0  0  0  0  0  0
  -26.4305  -37.3762   23.9407 N   0  0  0  0  0  0
  -24.7166  -31.0347   22.0932 N   0  0  0  0  0  0
  -23.4211  -28.8096   23.3002 O   0  0  0  0  0  0
  -28.2776  -26.1718   20.2235 O   0  0  0  0  0  0
  -26.5642  -34.8915   22.4671 O   0  0  0  0  0  0
  -23.5534  -32.1346   23.7115 O   0  0  0  0  0  0
  -31.7321  -19.5149   19.5207 C   0  0  0  0  0  0
  -31.3364  -18.1890   19.8345 C   0  0  0  0  0  0
  -30.8935  -20.6379   19.7095 C   0  0  0  0  0  0
  -29.2227  -19.1050   20.5484 C   0  0  0  0  0  0
  -30.0586  -17.8834   20.3612 C   0  0  0  0  0  0
  -29.5943  -20.5083   20.2377 C   0  0  0  0  0  0
  -29.6213  -16.3504   20.6601 C   0  0  0  0  0  0
  -29.0432  -23.4489   20.3164 C   0  0  0  0  0  0
  -28.6306  -21.8427   20.3642 C   0  0  0  0  0  0
  -27.9262  -24.6579   20.2204 C   0  0  0  0  0  0
  -28.4332  -16.2472   21.0920 N   0  0  0  0  0  0
  -30.2389  -23.7633   20.3643 O   0  0  0  0  0  0
  -31.4814  -12.7618   19.1840 H   0  0  0  0  0  0
  -30.4770  -11.6277   20.0281 H   0  0  0  0  0  0
  -29.8464  -11.7257   17.6007 H   0  0  0  0  0  0
  -29.6262  -13.4541   17.6999 H   0  0  0  0  0  0
  -27.9294  -11.2784   18.9545 H   0  0  0  0  0  0
  -27.3978  -12.4913   17.8198 H   0  0  0  0  0  0
  -27.6103  -14.2494   19.4469 H   0  0  0  0  0  0
  -28.7764  -12.2048   21.3926 H   0  0  0  0  0  0
  -28.3821  -13.8351   21.8263 H   0  0  0  0  0  0
  -25.2755   -9.5698   22.4773 H   0  0  0  0  0  0
  -24.0010   -7.4610   22.7474 H   0  0  0  0  0  0
  -21.0821   -8.8729   19.8959 H   0  0  0  0  0  0
  -22.3650  -10.9653   19.6179 H   0  0  0  0  0  0
  -21.1996   -7.6143   23.9738 H   0  0  0  0  0  0
  -21.1499   -6.0503   25.9084 H   0  0  0  0  0  0
  -22.0602   -2.7595   23.2806 H   0  0  0  0  0  0
  -22.3970  -11.9870   22.4876 H   0  0  0  0  0  0
  -21.1066  -13.1281   22.2557 H   0  0  0  0  0  0
  -24.7114  -15.8535   20.7256 H   0  0  0  0  0  0
  -26.3580  -15.6015   20.4098 H   0  0  0  0  0  0
  -26.7245  -32.5342   23.1043 H   0  0  0  0  0  0
  -25.0090  -33.9668   25.0404 H   0  0  0  0  0  0
  -22.7492  -31.2914   21.3799 H   0  0  0  0  0  0
  -23.3767  -35.9580   23.3316 H   0  0  0  0  0  0
  -24.3574  -36.8861   22.2053 H   0  0  0  0  0  0
  -23.7224  -37.6460   23.6655 H   0  0  0  0  0  0
  -26.1529  -31.4724   20.6118 H   0  0  0  0  0  0
  -26.8750  -30.7815   22.0263 H   0  0  0  0  0  0
  -28.1274  -28.8070   21.2515 H   0  0  0  0  0  0
  -25.9156  -25.8575   19.0012 H   0  0  0  0  0  0
  -23.9833  -27.3036   18.9871 H   0  0  0  0  0  0
  -23.8083  -30.5686   19.3998 H   0  0  0  0  0  0
  -22.7889  -29.2344   19.8477 H   0  0  0  0  0  0
  -25.1298  -36.1920   25.0833 H   0  0  0  0  0  0
  -21.0049  -28.3304   24.1362 H   0  0  0  0  0  0
  -20.5696  -26.2337   23.3649 H   0  0  0  0  0  0
  -21.6654  -26.7454   22.1208 H   0  0  0  0  0  0
  -19.6909  -25.6321   21.1260 H   0  0  0  0  0  0
  -19.6678  -27.3195   20.6770 H   0  0  0  0  0  0
  -17.4214  -26.6726   21.4050 H   0  0  0  0  0  0
  -18.0321  -26.0113   22.9030 H   0  0  0  0  0  0
  -19.7970  -30.7315   24.2250 H   0  0  0  0  0  0
  -17.5048  -31.6277   24.5209 H   0  0  0  0  0  0
  -15.5390  -30.2999   23.7685 H   0  0  0  0  0  0
  -15.8703  -28.0836   22.7088 H   0  0  0  0  0  0
  -24.5911  -30.7049   25.7739 H   0  0  0  0  0  0
  -24.8873  -32.2887   26.4828 H   0  0  0  0  0  0
  -25.8012  -30.8911   27.0232 H   0  0  0  0  0  0
  -26.2982  -29.6709   24.1273 H   0  0  0  0  0  0
  -27.4014  -29.7254   25.4812 H   0  0  0  0  0  0
  -27.8881  -30.4245   23.9570 H   0  0  0  0  0  0
  -27.2718  -33.3651   26.2019 H   0  0  0  0  0  0
  -28.3899  -32.6815   25.0303 H   0  0  0  0  0  0
  -28.0742  -31.8467   26.5422 H   0  0  0  0  0  0
  -28.2619  -38.0069   24.7501 H   0  0  0  0  0  0
  -28.1061  -36.2601   24.6351 H   0  0  0  0  0  0
  -27.2296  -37.1488   25.8884 H   0  0  0  0  0  0
  -20.9471  -29.8796   21.6825 H   0  0  0  0  0  0
  -26.0183  -38.2845   24.1380 H   0  0  0  0  0  0
  -32.7163  -19.6794   19.1014 H   0  0  0  0  0  0
  -32.0465  -17.4002   19.6386 H   0  0  0  0  0  0
  -31.2616  -21.6123   19.4168 H   0  0  0  0  0  0
  -28.2260  -18.9622   20.9386 H   0  0  0  0  0  0
  -28.0668  -21.7164   21.2877 H   0  0  0  0  0  0
  -27.8954  -21.7322   19.5686 H   0  0  0  0  0  0
  -27.2308  -24.4948   21.0457 H   0  0  0  0  0  0
  -27.3664  -24.4351   19.3147 H   0  0  0  0  0  0
  -28.0061  -17.1607   21.1796 H   0  0  0  0  0  0
  1 25  1  0  0  0
  1 30  2  0  0  0
  1 77  1  0  0  0
  2  3  1  0  0  0
  2 25  1  0  0  0
  2 83  1  0  0  0
  2 84  1  0  0  0
  3  4  1  0  0  0
  3 85  1  0  0  0
  3 86  1  0  0  0
  4  5  1  0  0  0
  4 87  1  0  0  0
  4 88  1  0  0  0
  5  6  1  0  0  0
  5 26  1  0  0  0
  5 89  1  0  0  0
  6 25  1  0  0  0
  6 90  1  0  0  0
  6 91  1  0  0  0
  7  8  2  0  0  0
  7 26  1  0  0  0
  7 29  1  0  0  0
  8  9  1  0  0  0
  8 22  1  0  0  0
  9 10  1  0  0  0
  9 27  2  0  0  0
 10 11  2  0  0  0
 10 15  1  0  0  0
 11 12  1  0  0  0
 11 92  1  0  0  0
 12 13  2  0  0  0
 12 93  1  0  0  0
 13 14  1  0  0  0
 13 31  1  0  0  0
 14 15  2  0  0  0
 14 94  1  0  0  0
 15 95  1  0  0  0
 16 17  2  0  0  0
 16 21  1  0  0  0
 16 31  1  0  0  0
 17 18  1  0  0  0
 17 96  1  0  0  0
 18 19  2  0  0  0
 18 97  1  0  0  0
 19 20  1  0  0  0
 19 24  1  0  0  0
 20 21  2  0  0  0
 20 98  1  0  0  0
 21 23  1  0  0  0
 22 28  1  0  0  0
 22 32  2  0  0  0
 26 27  1  0  0  0
 28 99  1  0  0  0
 28100  1  0  0  0
 29101  1  0  0  0
 29102  1  0  0  0
 33 34  1  0  0  0
 33 66  1  0  0  0
 33 70  2  0  0  0
 34 36  1  0  0  0
 34 59  1  0  0  0
 34103  1  0  0  0
 35 44  2  0  0  0
 35 45  1  0  0  0
 35 68  1  0  0  0
 36 56  1  0  0  0
 36104  1  0  0  0
 37 39  1  0  0  0
 37 47  1  0  0  0
 37 66  1  0  0  0
 37105  1  0  0  0
 38 43  2  0  0  0
 38 46  1  0  0  0
 38 47  1  0  0  0
 39 64  1  0  0  0
 39 67  2  0  0  0
 40 52  1  0  0  0
 40 53  2  0  0  0
 40 58  1  0  0  0
 41106  1  0  0  0
 41107  1  0  0  0
 41108  1  0  0  0
 41 48  1  0  0  0
 42 43  1  0  0  0
 42 66  1  0  0  0
 42109  1  0  0  0
 42110  1  0  0  0
 43 44  1  0  0  0
 44111  1  0  0  0
 45 46  2  0  0  0
 45112  1  0  0  0
 46113  1  0  0  0
 47114  1  0  0  0
 47115  1  0  0  0
 48 56  1  0  0  0
 48 65  1  0  0  0
 48116  1  0  0  0
 49 50  1  0  0  0
 49 53  1  0  0  0
 49 64  1  0  0  0
 49117  1  0  0  0
 50 51  1  0  0  0
 50118  1  0  0  0
 50119  1  0  0  0
 51 52  1  0  0  0
 51120  1  0  0  0
 51121  1  0  0  0
 52122  1  0  0  0
 52123  1  0  0  0
 53 54  1  0  0  0
 54 55  2  0  0  0
 54124  1  0  0  0
 55 57  1  0  0  0
 55125  1  0  0  0
 56 69  2  0  0  0
 57 58  2  0  0  0
 57126  1  0  0  0
 58127  1  0  0  0
 59 60  1  0  0  0
 59 61  1  0  0  0
 59 62  1  0  0  0
 60128  1  0  0  0
 60129  1  0  0  0
 60130  1  0  0  0
 61131  1  0  0  0
 61132  1  0  0  0
 61133  1  0  0  0
 62134  1  0  0  0
 62135  1  0  0  0
 62136  1  0  0  0
 63 65  1  0  0  0
 63137  1  0  0  0
 63138  1  0  0  0
 63139  1  0  0  0
 64140  1  0  0  0
 65141  1  0  0  0
 68 80  1  0  0  0
 71 72  2  0  0  0
 71 73  1  0  0  0
 71142  1  0  0  0
 72 75  1  0  0  0
 72143  1  0  0  0
 73 76  2  0  0  0
 73144  1  0  0  0
 74 75  2  0  0  0
 74 76  1  0  0  0
 74145  1  0  0  0
 75 77  1  0  0  0
 76 79  1  0  0  0
 77 81  2  0  0  0
 78 79  1  0  0  0
 78 80  1  0  0  0
 78 82  2  0  0  0
 79146  1  0  0  0
 79147  1  0  0  0
 80148  1  0  0  0
 80149  1  0  0  0
 81150  1  0  0  0
M  ISO  4   1 100  68 101  77 100  80 101
M  END
> <chiral flag>
0

> <version>
0

> <s_m_source_file>
/data/baiqing/PycharmProjects/Reinvent-master-3.2/result/LINK_invent/BTK/process_docking_weight1_custom_product_contain_oxygen_bond_distance_aromatic_linkinvent_7_9_3/rearranged_h_0131.sdf

> <i_m_source_file_index>
66

> <r_mmod_Potential_Energy-OPLS-2005>
617.19873046875

> <r_mmod_Stretch_Energy-OPLS-2005>
271.768341064453

> <r_mmod_Bend_Energy-OPLS-2005>
240.69873046875

> <r_mmod_Torsional_Energy-OPLS-2005>
184.449752807617

> <r_mmod_Improper_Torsional_Energy-OPLS-2005>
4.89257574081421

> <r_mmod_Van_der_Waal_Energy-OPLS-2005>
141.066543579102

> <r_mmod_Electrostatic_Energy-OPLS-2005>
-189.304595947266

> <r_mmod_Solvation_Energy-OPLS-2005>
-218.39567565918

> <b_mmod_Minimization_Converged-OPLS-2005>
0

> <r_mmod_RMS_Derivative-OPLS-2005>
3.8295202255249

$$$$
66
                    3D
 Structure written by MMmdl.
151159  0  0  1  0            999 V2000
  -30.6604  -14.4927   20.4770 C   0  0  0  0  0  0
  -30.3979  -12.2897   19.4294 C   0  0  0  0  0  0
  -29.4961  -12.5304   18.1993 C   0  0  0  0  0  0
  -28.0011  -12.4370   18.5800 C   0  0  0  0  0  0
  -27.6488  -13.2300   19.8699 C   0  0  2  0  0  0
  -28.6922  -13.0012   20.9867 C   0  0  0  0  0  0
  -25.2456  -13.8137   20.5737 C   0  0  0  0  0  0
  -24.1729  -13.0409   20.9164 C   0  0  0  0  0  0
  -24.6324  -11.6907   20.8661 C   0  0  0  0  0  0
  -23.9023  -10.4277   21.0337 C   0  0  0  0  0  0
  -24.3605   -9.4223   21.9136 C   0  0  0  0  0  0
  -23.6285   -8.2241   22.0713 C   0  0  0  0  0  0
  -22.4230   -8.0271   21.3558 C   0  0  0  0  0  0
  -21.9854   -9.0245   20.4691 C   0  0  0  0  0  0
  -22.7164  -10.2129   20.3045 C   0  0  0  0  0  0
  -21.6859   -6.0733   22.5259 C   0  0  0  0  0  0
  -21.4046   -6.5635   23.8203 C   0  0  0  0  0  0
  -21.3687   -5.6800   24.9161 C   0  0  0  0  0  0
  -21.6011   -4.3051   24.7206 C   0  0  0  0  0  0
  -21.8828   -3.8149   23.4339 C   0  0  0  0  0  0
  -21.9186   -4.6979   22.3411 C   0  0  0  0  0  0
  -22.7767  -13.5221   21.1841 C   0  0  0  0  0  0
  -22.1660   -4.2178   21.0973 F   0  0  0  0  0  0
  -21.5611   -3.4531   25.7730 F   0  0  0  0  0  0
  -30.0246  -13.2851   20.4424 N   0  0  0  0  0  0
  -26.2922  -12.9404   20.3323 N   0  0  0  0  0  0
  -25.9248  -11.6541   20.5620 N   0  0  0  0  0  0
  -22.0430  -12.8281   22.0472 N   0  0  0  0  0  0
  -25.4157  -15.1845   20.4310 N   0  0  0  0  0  0
  -31.8434  -14.6234   20.1482 O   0  0  0  0  0  0
  -21.6621   -6.8863   21.4216 O   0  0  0  0  0  0
  -22.3484  -14.5486   20.6669 O   0  0  0  0  0  0
  -24.6228  -31.8656   23.2060 C   0  0  0  0  0  0
  -25.9112  -32.4793   23.8369 C   0  0  1  0  0  0
  -27.2073  -27.3772   20.0741 C   0  0  0  0  0  0
  -25.5940  -33.8593   24.2285 N   0  0  0  0  0  0
  -23.4088  -30.4946   21.5500 C   0  0  2  0  0  0
  -24.8456  -28.9571   20.1157 C   0  0  0  0  0  0
  -22.7444  -29.4667   22.4953 C   0  0  0  0  0  0
  -18.0303  -28.1392   22.8475 C   0  0  0  0  0  0
  -24.1475  -36.7273   23.2636 C   0  0  0  0  0  0
  -25.9481  -30.8058   21.3757 C   0  0  0  0  0  0
  -26.0158  -29.4412   20.7135 C   0  0  0  0  0  0
  -27.2030  -28.6604   20.6889 C   0  0  0  0  0  0
  -26.0212  -26.9448   19.4407 C   0  0  0  0  0  0
  -24.8430  -27.7067   19.4812 C   0  0  0  0  0  0
  -23.6152  -29.8351   20.1653 C   0  0  0  0  0  0
  -25.4105  -36.3067   24.0317 C   0  0  1  0  0  0
  -20.5895  -28.3684   23.1298 C   0  0  2  0  0  0
  -20.6774  -26.9406   22.5455 C   0  0  0  0  0  0
  -19.5759  -26.6353   21.5239 C   0  0  0  0  0  0
  -18.1926  -26.7928   22.1618 C   0  0  0  0  0  0
  -19.1549  -28.8852   23.2873 C   0  0  0  0  0  0
  -18.9472  -30.1453   23.8884 C   0  0  0  0  0  0
  -17.6470  -30.6599   24.0552 C   0  0  0  0  0  0
  -25.9050  -34.9456   23.5083 C   0  0  0  0  0  0
  -16.5364  -29.9092   23.6344 C   0  0  0  0  0  0
  -16.7273  -28.6525   23.0340 C   0  0  0  0  0  0
  -26.4488  -31.6623   25.0723 C   0  0  0  0  0  0
  -25.3741  -31.3836   26.1488 C   0  0  0  0  0  0
  -27.0304  -30.3020   24.6230 C   0  0  0  0  0  0
  -27.6057  -32.4344   25.7490 C   0  0  0  0  0  0
  -27.5571  -37.1780   24.8451 C   0  0  0  0  0  0
  -21.4175  -29.3040   22.3693 N   0  0  0  0  0  0
  -26.4274  -37.3771   23.9408 N   0  0  0  0  0  0
  -24.6771  -31.0739   22.0980 N   0  0  0  0  0  0
  -23.4215  -28.8228   23.3024 O   0  0  0  0  0  0
  -28.3294  -26.5556   20.0764 O   0  0  0  0  0  0
  -26.5634  -34.8921   22.4663 O   0  0  0  0  0  0
  -23.5406  -32.1444   23.7450 O   0  0  0  0  0  0
  -27.7531  -18.1409   20.0228 C   0  0  0  0  0  0
  -27.5792  -19.5576   19.9099 C   0  0  0  0  0  0
  -29.0844  -17.8979   19.7824 C   0  0  0  0  0  0
  -28.8198  -20.1065   19.6716 C   0  0  0  0  0  0
  -29.8944  -16.7177   19.8397 C   0  0  0  0  0  0
  -29.7753  -15.6427   20.6576 C   0  0  0  0  0  0
  -28.9827  -24.1442   19.5663 C   0  0  0  0  0  0
  -29.4109  -21.5179   19.6385 C   0  0  0  0  0  0
  -28.4443  -22.7048   19.3060 C   0  0  0  0  0  0
  -28.0654  -25.1365   20.3365 C   0  0  0  0  0  0
  -30.0914  -24.4923   19.1470 O   0  0  0  0  0  0
  -29.7297  -19.0882   19.5558 O   0  0  0  0  0  0
  -31.4536  -12.3428   19.1628 H   0  0  0  0  0  0
  -30.2366  -11.2845   19.8161 H   0  0  0  0  0  0
  -29.7325  -11.8224   17.4065 H   0  0  0  0  0  0
  -29.7054  -13.5183   17.7826 H   0  0  0  0  0  0
  -27.7349  -11.3862   18.7004 H   0  0  0  0  0  0
  -27.3933  -12.8145   17.7555 H   0  0  0  0  0  0
  -27.6878  -14.2845   19.5952 H   0  0  0  0  0  0
  -28.6526  -11.9702   21.3448 H   0  0  0  0  0  0
  -28.4776  -13.6161   21.8597 H   0  0  0  0  0  0
  -25.2791   -9.5726   22.4673 H   0  0  0  0  0  0
  -24.0084   -7.4605   22.7381 H   0  0  0  0  0  0
  -21.0788   -8.8728   19.8999 H   0  0  0  0  0  0
  -22.3581  -10.9660   19.6152 H   0  0  0  0  0  0
  -21.2072   -7.6160   23.9732 H   0  0  0  0  0  0
  -21.1486   -6.0518   25.9084 H   0  0  0  0  0  0
  -22.0582   -2.7622   23.2793 H   0  0  0  0  0  0
  -22.4103  -12.0068   22.5035 H   0  0  0  0  0  0
  -21.1041  -13.1287   22.2636 H   0  0  0  0  0  0
  -24.6526  -15.8438   20.5473 H   0  0  0  0  0  0
  -26.2964  -15.6258   20.2022 H   0  0  0  0  0  0
  -26.7188  -32.5445   23.1111 H   0  0  0  0  0  0
  -25.0063  -33.9736   25.0408 H   0  0  0  0  0  0
  -22.6999  -31.3122   21.4144 H   0  0  0  0  0  0
  -23.3744  -35.9599   23.3308 H   0  0  0  0  0  0
  -24.3570  -36.8901   22.2052 H   0  0  0  0  0  0
  -23.7229  -37.6469   23.6673 H   0  0  0  0  0  0
  -26.0958  -31.5747   20.6167 H   0  0  0  0  0  0
  -26.8256  -30.8362   22.0096 H   0  0  0  0  0  0
  -28.1039  -29.0251   21.1632 H   0  0  0  0  0  0
  -25.9837  -26.0149   18.8939 H   0  0  0  0  0  0
  -23.9447  -27.3332   19.0084 H   0  0  0  0  0  0
  -23.7368  -30.6103   19.4079 H   0  0  0  0  0  0
  -22.7341  -29.2652   19.8628 H   0  0  0  0  0  0
  -25.1282  -36.1897   25.0808 H   0  0  0  0  0  0
  -20.9983  -28.3285   24.1403 H   0  0  0  0  0  0
  -20.5652  -26.2300   23.3656 H   0  0  0  0  0  0
  -21.6649  -26.7399   22.1268 H   0  0  0  0  0  0
  -19.6909  -25.6247   21.1288 H   0  0  0  0  0  0
  -19.6729  -27.3138   20.6748 H   0  0  0  0  0  0
  -17.4208  -26.6684   21.4007 H   0  0  0  0  0  0
  -18.0310  -26.0095   22.9030 H   0  0  0  0  0  0
  -19.7951  -30.7269   24.2249 H   0  0  0  0  0  0
  -17.5036  -31.6272   24.5140 H   0  0  0  0  0  0
  -15.5371  -30.2972   23.7672 H   0  0  0  0  0  0
  -15.8669  -28.0812   22.7055 H   0  0  0  0  0  0
  -24.5804  -30.7302   25.7842 H   0  0  0  0  0  0
  -24.9061  -32.3064   26.4942 H   0  0  0  0  0  0
  -25.8038  -30.8964   27.0247 H   0  0  0  0  0  0
  -26.2887  -29.6818   24.1176 H   0  0  0  0  0  0
  -27.3893  -29.7241   25.4757 H   0  0  0  0  0  0
  -27.8815  -30.4278   23.9524 H   0  0  0  0  0  0
  -27.2668  -33.3641   26.2092 H   0  0  0  0  0  0
  -28.3845  -32.6951   25.0298 H   0  0  0  0  0  0
  -28.0766  -31.8474   26.5385 H   0  0  0  0  0  0
  -28.2585  -38.0076   24.7482 H   0  0  0  0  0  0
  -28.1056  -36.2602   24.6259 H   0  0  0  0  0  0
  -27.2306  -37.1435   25.8863 H   0  0  0  0  0  0
  -20.9343  -29.8779   21.6910 H   0  0  0  0  0  0
  -26.0136  -38.2830   24.1467 H   0  0  0  0  0  0
  -26.9958  -17.3969   20.2604 H   0  0  0  0  0  0
  -26.6458  -20.0873   20.0486 H   0  0  0  0  0  0
  -30.6737  -16.6891   19.0866 H   0  0  0  0  0  0
  -29.0150  -15.6550   21.4242 H   0  0  0  0  0  0
  -30.2568  -21.5220   18.9471 H   0  0  0  0  0  0
  -29.8465  -21.7050   20.6219 H   0  0  0  0  0  0
  -28.1547  -22.6621   18.2562 H   0  0  0  0  0  0
  -27.5290  -22.5902   19.8832 H   0  0  0  0  0  0
  -28.1710  -24.9670   21.4086 H   0  0  0  0  0  0
  -27.0480  -24.8340   20.1026 H   0  0  0  0  0  0
  1 25  1  0  0  0
  1 30  2  0  0  0
  1 76  1  0  0  0
  2  3  1  0  0  0
  2 25  1  0  0  0
  2 83  1  0  0  0
  2 84  1  0  0  0
  3  4  1  0  0  0
  3 85  1  0  0  0
  3 86  1  0  0  0
  4  5  1  0  0  0
  4 87  1  0  0  0
  4 88  1  0  0  0
  5  6  1  0  0  0
  5 26  1  0  0  0
  5 89  1  0  0  0
  6 25  1  0  0  0
  6 90  1  0  0  0
  6 91  1  0  0  0
  7  8  2  0  0  0
  7 26  1  0  0  0
  7 29  1  0  0  0
  8  9  1  0  0  0
  8 22  1  0  0  0
  9 10  1  0  0  0
  9 27  2  0  0  0
 10 11  2  0  0  0
 10 15  1  0  0  0
 11 12  1  0  0  0
 11 92  1  0  0  0
 12 13  2  0  0  0
 12 93  1  0  0  0
 13 14  1  0  0  0
 13 31  1  0  0  0
 14 15  2  0  0  0
 14 94  1  0  0  0
 15 95  1  0  0  0
 16 17  2  0  0  0
 16 21  1  0  0  0
 16 31  1  0  0  0
 17 18  1  0  0  0
 17 96  1  0  0  0
 18 19  2  0  0  0
 18 97  1  0  0  0
 19 20  1  0  0  0
 19 24  1  0  0  0
 20 21  2  0  0  0
 20 98  1  0  0  0
 21 23  1  0  0  0
 22 28  1  0  0  0
 22 32  2  0  0  0
 26 27  1  0  0  0
 28 99  1  0  0  0
 28100  1  0  0  0
 29101  1  0  0  0
 29102  1  0  0  0
 33 34  1  0  0  0
 33 66  1  0  0  0
 33 70  2  0  0  0
 34 36  1  0  0  0
 34 59  1  0  0  0
 34103  1  0  0  0
 35 44  2  0  0  0
 35 45  1  0  0  0
 35 68  1  0  0  0
 36 56  1  0  0  0
 36104  1  0  0  0
 37 39  1  0  0  0
 37 47  1  0  0  0
 37 66  1  0  0  0
 37105  1  0  0  0
 38 43  2  0  0  0
 38 46  1  0  0  0
 38 47  1  0  0  0
 39 64  1  0  0  0
 39 67  2  0  0  0
 40 52  1  0  0  0
 40 53  2  0  0  0
 40 58  1  0  0  0
 41106  1  0  0  0
 41107  1  0  0  0
 41108  1  0  0  0
 41 48  1  0  0  0
 42 43  1  0  0  0
 42 66  1  0  0  0
 42109  1  0  0  0
 42110  1  0  0  0
 43 44  1  0  0  0
 44111  1  0  0  0
 45 46  2  0  0  0
 45112  1  0  0  0
 46113  1  0  0  0
 47114  1  0  0  0
 47115  1  0  0  0
 48 56  1  0  0  0
 48 65  1  0  0  0
 48116  1  0  0  0
 49 50  1  0  0  0
 49 53  1  0  0  0
 49 64  1  0  0  0
 49117  1  0  0  0
 50 51  1  0  0  0
 50118  1  0  0  0
 50119  1  0  0  0
 51 52  1  0  0  0
 51120  1  0  0  0
 51121  1  0  0  0
 52122  1  0  0  0
 52123  1  0  0  0
 53 54  1  0  0  0
 54 55  2  0  0  0
 54124  1  0  0  0
 55 57  1  0  0  0
 55125  1  0  0  0
 56 69  2  0  0  0
 57 58  2  0  0  0
 57126  1  0  0  0
 58127  1  0  0  0
 59 60  1  0  0  0
 59 61  1  0  0  0
 59 62  1  0  0  0
 60128  1  0  0  0
 60129  1  0  0  0
 60130  1  0  0  0
 61131  1  0  0  0
 61132  1  0  0  0
 61133  1  0  0  0
 62134  1  0  0  0
 62135  1  0  0  0
 62136  1  0  0  0
 63 65  1  0  0  0
 63137  1  0  0  0
 63138  1  0  0  0
 63139  1  0  0  0
 64140  1  0  0  0
 65141  1  0  0  0
 68 80  1  0  0  0
 71 72  1  0  0  0
 71 73  2  0  0  0
 71142  1  0  0  0
 72 74  2  0  0  0
 72143  1  0  0  0
 73 75  1  0  0  0
 73 82  1  0  0  0
 74 78  1  0  0  0
 74 82  1  0  0  0
 75 76  2  0  0  0
 75144  1  0  0  0
 76145  1  0  0  0
 77 79  1  0  0  0
 77 80  1  0  0  0
 77 81  2  0  0  0
 78 79  1  0  0  0
 78146  1  0  0  0
 78147  1  0  0  0
 79148  1  0  0  0
 79149  1  0  0  0
 80150  1  0  0  0
 80151  1  0  0  0
M  ISO  4   1 100  68 101  76 100  80 101
M  END
> <chiral flag>
0

> <version>
0

> <s_m_source_file>
/data/baiqing/PycharmProjects/Reinvent-master-3.2/result/LINK_invent/BTK/process_docking_weight1_custom_product_contain_oxygen_bond_distance_aromatic_linkinvent_7_9_3/rearranged_h_0131.sdf

> <i_m_source_file_index>
67

> <r_mmod_Potential_Energy-OPLS-2005>
-37.4646034240723

> <r_mmod_Stretch_Energy-OPLS-2005>
45.2319107055664

> <r_mmod_Bend_Energy-OPLS-2005>
96.653923034668

> <r_mmod_Torsional_Energy-OPLS-2005>
224.829223632812

> <r_mmod_Improper_Torsional_Energy-OPLS-2005>
7.1965184211731

> <r_mmod_Van_der_Waal_Energy-OPLS-2005>
130.938461303711

> <r_mmod_Electrostatic_Energy-OPLS-2005>
-345.483703613281

> <r_mmod_Solvation_Energy-OPLS-2005>
-222.824676513672

> <b_mmod_Minimization_Converged-OPLS-2005>
0

> <r_mmod_RMS_Derivative-OPLS-2005>
8.69717597961426

$$$$
67
                    3D
 Structure written by MMmdl.
158166  0  0  1  0            999 V2000
  -30.5966  -14.6758   20.4967 C   0  0  0  0  0  0
  -30.4208  -12.4006   19.4985 C   0  0  0  0  0  0
  -29.5260  -12.5232   18.2486 C   0  0  0  0  0  0
  -28.0533  -12.3177   18.6531 C   0  0  0  0  0  0
  -27.6538  -13.2086   19.8624 C   0  0  2  0  0  0
  -28.6752  -13.0640   21.0070 C   0  0  0  0  0  0
  -25.2566  -13.8089   20.5466 C   0  0  0  0  0  0
  -24.1867  -13.0435   20.9019 C   0  0  0  0  0  0
  -24.6442  -11.6871   20.8670 C   0  0  0  0  0  0
  -23.9156  -10.4280   21.0421 C   0  0  0  0  0  0
  -24.3731   -9.4220   21.9227 C   0  0  0  0  0  0
  -23.6378   -8.2278   22.0808 C   0  0  0  0  0  0
  -22.4335   -8.0351   21.3596 C   0  0  0  0  0  0
  -21.9994   -9.0328   20.4687 C   0  0  0  0  0  0
  -22.7344  -10.2177   20.3074 C   0  0  0  0  0  0
  -21.6891   -6.0823   22.5295 C   0  0  0  0  0  0
  -21.4036   -6.5714   23.8227 C   0  0  0  0  0  0
  -21.3613   -5.6848   24.9173 C   0  0  0  0  0  0
  -21.6005   -4.3111   24.7198 C   0  0  0  0  0  0
  -21.8818   -3.8228   23.4325 C   0  0  0  0  0  0
  -21.9236   -4.7058   22.3400 C   0  0  0  0  0  0
  -22.7929  -13.5309   21.1733 C   0  0  0  0  0  0
  -22.1699   -4.2265   21.0976 F   0  0  0  0  0  0
  -21.5578   -3.4565   25.7690 F   0  0  0  0  0  0
  -29.9934  -13.4367   20.4658 N   0  0  0  0  0  0
  -26.2994  -12.9290   20.3179 N   0  0  0  0  0  0
  -25.9351  -11.6449   20.5635 N   0  0  0  0  0  0
  -22.0612  -12.8305   22.0265 N   0  0  0  0  0  0
  -25.4229  -15.1798   20.3731 N   0  0  0  0  0  0
  -31.7451  -14.8062   20.0611 O   0  0  0  0  0  0
  -21.6678   -6.8975   21.4258 O   0  0  0  0  0  0
  -22.3705  -14.5720   20.6693 O   0  0  0  0  0  0
  -24.6331  -31.8588   23.1990 C   0  0  0  0  0  0
  -25.9158  -32.4779   23.8336 C   0  0  1  0  0  0
  -27.2126  -27.2674   20.1613 C   0  0  0  0  0  0
  -25.5960  -33.8570   24.2265 N   0  0  0  0  0  0
  -23.4278  -30.4784   21.5390 C   0  0  2  0  0  0
  -24.8757  -28.9201   20.1214 C   0  0  0  0  0  0
  -22.7527  -29.4616   22.4913 C   0  0  0  0  0  0
  -18.0325  -28.1364   22.8534 C   0  0  0  0  0  0
  -24.1500  -36.7319   23.2630 C   0  0  0  0  0  0
  -25.9692  -30.7775   21.3718 C   0  0  0  0  0  0
  -26.0438  -29.3949   20.7291 C   0  0  0  0  0  0
  -27.2192  -28.5809   20.7359 C   0  0  0  0  0  0
  -26.0183  -26.8392   19.5499 C   0  0  0  0  0  0
  -24.8648  -27.6511   19.5202 C   0  0  0  0  0  0
  -23.6513  -29.8154   20.1555 C   0  0  0  0  0  0
  -25.4125  -36.3099   24.0335 C   0  0  1  0  0  0
  -20.5929  -28.3610   23.1265 C   0  0  2  0  0  0
  -20.6760  -26.9364   22.5382 C   0  0  0  0  0  0
  -19.5688  -26.6254   21.5322 C   0  0  0  0  0  0
  -18.1940  -26.7807   22.1836 C   0  0  0  0  0  0
  -19.1605  -28.8800   23.2918 C   0  0  0  0  0  0
  -18.9594  -30.1368   23.8977 C   0  0  0  0  0  0
  -17.6606  -30.6523   24.0689 C   0  0  0  0  0  0
  -25.9061  -34.9456   23.5096 C   0  0  0  0  0  0
  -16.5458  -29.9082   23.6463 C   0  0  0  0  0  0
  -16.7335  -28.6536   23.0387 C   0  0  0  0  0  0
  -26.4541  -31.6591   25.0709 C   0  0  0  0  0  0
  -25.3773  -31.3694   26.1422 C   0  0  0  0  0  0
  -27.0361  -30.3024   24.6146 C   0  0  0  0  0  0
  -27.6143  -32.4292   25.7472 C   0  0  0  0  0  0
  -27.5595  -37.1845   24.8465 C   0  0  0  0  0  0
  -21.4247  -29.2942   22.3639 N   0  0  0  0  0  0
  -26.4303  -37.3812   23.9413 N   0  0  0  0  0  0
  -24.6953  -31.0584   22.0930 N   0  0  0  0  0  0
  -23.4225  -28.8254   23.3103 O   0  0  0  0  0  0
  -28.3418  -26.4354   20.0946 O   0  0  0  0  0  0
  -26.5612  -34.8923   22.4646 O   0  0  0  0  0  0
  -23.5493  -32.1401   23.7333 O   0  0  0  0  0  0
  -27.5873  -20.8384   21.6830 C   0  0  0  0  0  0
  -27.2229  -19.5793   22.1821 C   0  0  0  0  0  0
  -29.4832  -19.7800   20.5868 C   0  0  0  0  0  0
  -29.1137  -18.4476   21.0452 C   0  0  0  0  0  0
  -28.7505  -20.9967   20.9161 C   0  0  0  0  0  0
  -27.9767  -18.4138   21.9190 C   0  0  0  0  0  0
  -29.9196  -17.1794   20.6349 C   0  0  0  0  0  0
  -29.7714  -15.8402   20.9609 C   0  0  0  0  0  0
  -27.5205  -17.1854   22.6958 C   0  0  0  0  0  0
  -28.0840  -23.7044   18.6639 C   0  0  0  0  0  0
  -29.2159  -22.4862   20.6182 C   0  0  0  0  0  0
  -28.4270  -25.1384   20.8263 C   0  0  0  0  0  0
  -28.1820  -23.6636   20.1938 C   0  0  1  0  0  0
  -31.4769  -12.4876   19.2457 H   0  0  0  0  0  0
  -30.3029  -11.4062   19.9310 H   0  0  0  0  0  0
  -29.8211  -11.7896   17.4987 H   0  0  0  0  0  0
  -29.6615  -13.5077   17.7967 H   0  0  0  0  0  0
  -27.9341  -11.2654   18.9246 H   0  0  0  0  0  0
  -27.4015  -12.4924   17.7992 H   0  0  0  0  0  0
  -27.6815  -14.2463   19.5281 H   0  0  0  0  0  0
  -28.6786  -12.0283   21.3564 H   0  0  0  0  0  0
  -28.3771  -13.6526   21.8746 H   0  0  0  0  0  0
  -25.2885   -9.5748   22.4817 H   0  0  0  0  0  0
  -24.0122   -7.4640   22.7532 H   0  0  0  0  0  0
  -21.0942   -8.8908   19.8939 H   0  0  0  0  0  0
  -22.3859  -10.9792   19.6230 H   0  0  0  0  0  0
  -21.2001   -7.6224   23.9752 H   0  0  0  0  0  0
  -21.1425   -6.0569   25.9084 H   0  0  0  0  0  0
  -22.0629   -2.7706   23.2752 H   0  0  0  0  0  0
  -22.4412  -11.9986   22.4554 H   0  0  0  0  0  0
  -21.1232  -13.1268   22.2609 H   0  0  0  0  0  0
  -24.6079  -15.7777   20.3513 H   0  0  0  0  0  0
  -26.2510  -15.6247   19.9951 H   0  0  0  0  0  0
  -26.7236  -32.5488   23.1094 H   0  0  0  0  0  0
  -25.0174  -33.9722   25.0451 H   0  0  0  0  0  0
  -22.7196  -31.2937   21.3937 H   0  0  0  0  0  0
  -23.3766  -35.9657   23.3308 H   0  0  0  0  0  0
  -24.3549  -36.8919   22.2034 H   0  0  0  0  0  0
  -23.7245  -37.6539   23.6610 H   0  0  0  0  0  0
  -26.0931  -31.5293   20.5916 H   0  0  0  0  0  0
  -26.8540  -30.8405   21.9938 H   0  0  0  0  0  0
  -28.1175  -28.9419   21.2149 H   0  0  0  0  0  0
  -25.9606  -25.8613   19.0972 H   0  0  0  0  0  0
  -23.9672  -27.2839   19.0450 H   0  0  0  0  0  0
  -23.7970  -30.5986   19.4085 H   0  0  0  0  0  0
  -22.7674  -29.2623   19.8378 H   0  0  0  0  0  0
  -25.1300  -36.1984   25.0841 H   0  0  0  0  0  0
  -21.0059  -28.3093   24.1346 H   0  0  0  0  0  0
  -20.5743  -26.2334   23.3643 H   0  0  0  0  0  0
  -21.6548  -26.7331   22.1069 H   0  0  0  0  0  0
  -19.6830  -25.6085   21.1541 H   0  0  0  0  0  0
  -19.6539  -27.2957   20.6753 H   0  0  0  0  0  0
  -17.4137  -26.6228   21.4372 H   0  0  0  0  0  0
  -18.0579  -26.0061   22.9392 H   0  0  0  0  0  0
  -19.8150  -30.7082   24.2362 H   0  0  0  0  0  0
  -17.5253  -31.6176   24.5352 H   0  0  0  0  0  0
  -15.5454  -30.2988   23.7902 H   0  0  0  0  0  0
  -15.8746  -28.0879   22.7121 H   0  0  0  0  0  0
  -24.6010  -30.6969   25.7738 H   0  0  0  0  0  0
  -24.8876  -32.2819   26.4842 H   0  0  0  0  0  0
  -25.8122  -30.8905   27.0197 H   0  0  0  0  0  0
  -26.2932  -29.6805   24.1141 H   0  0  0  0  0  0
  -27.4013  -29.7262   25.4653 H   0  0  0  0  0  0
  -27.8808  -30.4319   23.9376 H   0  0  0  0  0  0
  -27.2830  -33.3624   26.2044 H   0  0  0  0  0  0
  -28.3964  -32.6797   25.0279 H   0  0  0  0  0  0
  -28.0789  -31.8376   26.5374 H   0  0  0  0  0  0
  -28.2659  -38.0114   24.7492 H   0  0  0  0  0  0
  -28.1047  -36.2637   24.6315 H   0  0  0  0  0  0
  -27.2281  -37.1537   25.8865 H   0  0  0  0  0  0
  -20.9423  -29.8500   21.6726 H   0  0  0  0  0  0
  -26.0197  -38.2911   24.1374 H   0  0  0  0  0  0
  -26.9767  -21.6886   21.9453 H   0  0  0  0  0  0
  -26.3686  -19.5161   22.8429 H   0  0  0  0  0  0
  -30.3776  -19.8676   19.9866 H   0  0  0  0  0  0
  -30.7371  -17.3904   19.9584 H   0  0  0  0  0  0
  -28.9979  -15.5580   21.6303 H   0  0  0  0  0  0
  -28.3186  -16.8692   23.3717 H   0  0  0  0  0  0
  -27.2194  -16.3728   22.0453 H   0  0  0  0  0  0
  -26.6437  -17.3870   23.3114 H   0  0  0  0  0  0
  -27.9190  -22.6976   18.2698 H   0  0  0  0  0  0
  -29.0033  -24.0977   18.2305 H   0  0  0  0  0  0
  -27.2597  -24.3277   18.3237 H   0  0  0  0  0  0
  -30.0608  -22.4886   19.9286 H   0  0  0  0  0  0
  -29.6530  -22.7935   21.5685 H   0  0  0  0  0  0
  -29.4657  -25.1218   21.1624 H   0  0  0  0  0  0
  -27.8674  -25.2199   21.7619 H   0  0  0  0  0  0
  -27.1934  -23.3745   20.5502 H   0  0  0  0  0  0
  1 25  1  0  0  0
  1 30  2  0  0  0
  1 78  1  0  0  0
  2  3  1  0  0  0
  2 25  1  0  0  0
  2 84  1  0  0  0
  2 85  1  0  0  0
  3  4  1  0  0  0
  3 86  1  0  0  0
  3 87  1  0  0  0
  4  5  1  0  0  0
  4 88  1  0  0  0
  4 89  1  0  0  0
  5  6  1  0  0  0
  5 26  1  0  0  0
  5 90  1  0  0  0
  6 25  1  0  0  0
  6 91  1  0  0  0
  6 92  1  0  0  0
  7  8  2  0  0  0
  7 26  1  0  0  0
  7 29  1  0  0  0
  8  9  1  0  0  0
  8 22  1  0  0  0
  9 10  1  0  0  0
  9 27  2  0  0  0
 10 11  2  0  0  0
 10 15  1  0  0  0
 11 12  1  0  0  0
 11 93  1  0  0  0
 12 13  2  0  0  0
 12 94  1  0  0  0
 13 14  1  0  0  0
 13 31  1  0  0  0
 14 15  2  0  0  0
 14 95  1  0  0  0
 15 96  1  0  0  0
 16 17  2  0  0  0
 16 21  1  0  0  0
 16 31  1  0  0  0
 17 18  1  0  0  0
 17 97  1  0  0  0
 18 19  2  0  0  0
 18 98  1  0  0  0
 19 20  1  0  0  0
 19 24  1  0  0  0
 20 21  2  0  0  0
 20 99  1  0  0  0
 21 23  1  0  0  0
 22 28  1  0  0  0
 22 32  2  0  0  0
 26 27  1  0  0  0
 28100  1  0  0  0
 28101  1  0  0  0
 29102  1  0  0  0
 29103  1  0  0  0
 33 34  1  0  0  0
 33 66  1  0  0  0
 33 70  2  0  0  0
 34 36  1  0  0  0
 34 59  1  0  0  0
 34104  1  0  0  0
 35 44  2  0  0  0
 35 45  1  0  0  0
 35 68  1  0  0  0
 36 56  1  0  0  0
 36105  1  0  0  0
 37 39  1  0  0  0
 37 47  1  0  0  0
 37 66  1  0  0  0
 37106  1  0  0  0
 38 43  2  0  0  0
 38 46  1  0  0  0
 38 47  1  0  0  0
 39 64  1  0  0  0
 39 67  2  0  0  0
 40 52  1  0  0  0
 40 53  2  0  0  0
 40 58  1  0  0  0
 41107  1  0  0  0
 41108  1  0  0  0
 41109  1  0  0  0
 41 48  1  0  0  0
 42 43  1  0  0  0
 42 66  1  0  0  0
 42110  1  0  0  0
 42111  1  0  0  0
 43 44  1  0  0  0
 44112  1  0  0  0
 45 46  2  0  0  0
 45113  1  0  0  0
 46114  1  0  0  0
 47115  1  0  0  0
 47116  1  0  0  0
 48 56  1  0  0  0
 48 65  1  0  0  0
 48117  1  0  0  0
 49 50  1  0  0  0
 49 53  1  0  0  0
 49 64  1  0  0  0
 49118  1  0  0  0
 50 51  1  0  0  0
 50119  1  0  0  0
 50120  1  0  0  0
 51 52  1  0  0  0
 51121  1  0  0  0
 51122  1  0  0  0
 52123  1  0  0  0
 52124  1  0  0  0
 53 54  1  0  0  0
 54 55  2  0  0  0
 54125  1  0  0  0
 55 57  1  0  0  0
 55126  1  0  0  0
 56 69  2  0  0  0
 57 58  2  0  0  0
 57127  1  0  0  0
 58128  1  0  0  0
 59 60  1  0  0  0
 59 61  1  0  0  0
 59 62  1  0  0  0
 60129  1  0  0  0
 60130  1  0  0  0
 60131  1  0  0  0
 61132  1  0  0  0
 61133  1  0  0  0
 61134  1  0  0  0
 62135  1  0  0  0
 62136  1  0  0  0
 62137  1  0  0  0
 63 65  1  0  0  0
 63138  1  0  0  0
 63139  1  0  0  0
 63140  1  0  0  0
 64141  1  0  0  0
 65142  1  0  0  0
 68 82  1  0  0  0
 71 72  2  0  0  0
 71 75  1  0  0  0
 71143  1  0  0  0
 72 76  1  0  0  0
 72144  1  0  0  0
 73 74  1  0  0  0
 73 75  2  0  0  0
 73145  1  0  0  0
 74 76  2  0  0  0
 74 77  1  0  0  0
 75 81  1  0  0  0
 76 79  1  0  0  0
 77 78  2  0  0  0
 77146  1  0  0  0
 78147  1  0  0  0
 79148  1  0  0  0
 79149  1  0  0  0
 79150  1  0  0  0
 80151  1  0  0  0
 80152  1  0  0  0
 80153  1  0  0  0
 80 83  1  0  0  0
 81 83  1  0  0  0
 81154  1  0  0  0
 81155  1  0  0  0
 82 83  1  0  0  0
 82156  1  0  0  0
 82157  1  0  0  0
 83158  1  0  0  0
M  ISO  4   1 100  68 101  78 100  82 101
M  END
> <chiral flag>
0

> <version>
0

> <s_m_source_file>
/data/baiqing/PycharmProjects/Reinvent-master-3.2/result/LINK_invent/BTK/process_docking_weight1_custom_product_contain_oxygen_bond_distance_aromatic_linkinvent_7_9_3/rearranged_h_0131.sdf

> <i_m_source_file_index>
68

> <r_mmod_Potential_Energy-OPLS-2005>
207.843124389648

> <r_mmod_Stretch_Energy-OPLS-2005>
117.139091491699

> <r_mmod_Bend_Energy-OPLS-2005>
179.825759887695

> <r_mmod_Torsional_Energy-OPLS-2005>
222.568054199219

> <r_mmod_Improper_Torsional_Energy-OPLS-2005>
4.62107944488525

> <r_mmod_Van_der_Waal_Energy-OPLS-2005>
147.787826538086

> <r_mmod_Electrostatic_Energy-OPLS-2005>
-340.9345703125

> <r_mmod_Solvation_Energy-OPLS-2005>
-185.244979858398

> <b_mmod_Minimization_Converged-OPLS-2005>
0

> <r_mmod_RMS_Derivative-OPLS-2005>
8.89051818847656

$$$$
68
                    3D
 Structure written by MMmdl.
160169  0  0  1  0            999 V2000
  -30.6266  -14.4095   20.7747 C   0  0  0  0  0  0
  -30.3593  -12.3325   19.3293 C   0  0  0  0  0  0
  -29.4093  -12.5496   18.0946 C   0  0  0  0  0  0
  -27.9580  -12.3228   18.5479 C   0  0  0  0  0  0
  -27.6374  -13.1524   19.8336 C   0  0  2  0  0  0
  -28.6640  -12.8745   20.9414 C   0  0  0  0  0  0
  -25.2473  -13.8129   20.5343 C   0  0  0  0  0  0
  -24.1670  -13.0446   20.8344 C   0  0  0  0  0  0
  -24.5835  -11.6775   20.7633 C   0  0  0  0  0  0
  -23.8665  -10.4109   20.9724 C   0  0  0  0  0  0
  -24.3933   -9.3987   21.7975 C   0  0  0  0  0  0
  -23.6851   -8.1812   21.9779 C   0  0  0  0  0  0
  -22.4440   -8.0186   21.3383 C   0  0  0  0  0  0
  -21.9144   -9.0417   20.5724 C   0  0  0  0  0  0
  -22.6296  -10.2238   20.3296 C   0  0  0  0  0  0
  -21.6831   -6.0830   22.5174 C   0  0  0  0  0  0
  -21.4131   -6.5845   23.8114 C   0  0  0  0  0  0
  -21.3368   -5.6865   24.8969 C   0  0  0  0  0  0
  -21.5775   -4.3086   24.7088 C   0  0  0  0  0  0
  -21.8803   -3.8291   23.4158 C   0  0  0  0  0  0
  -21.9248   -4.7221   22.3328 C   0  0  0  0  0  0
  -22.7640  -13.5310   21.1388 C   0  0  0  0  0  0
  -22.1750   -4.2484   21.0985 F   0  0  0  0  0  0
  -21.5427   -3.4540   25.7615 F   0  0  0  0  0  0
  -29.9871  -13.2535   20.4466 N   0  0  0  0  0  0
  -26.2944  -12.9179   20.3114 N   0  0  0  0  0  0
  -25.8870  -11.6301   20.4771 N   0  0  0  0  0  0
  -22.0554  -12.8696   22.0337 N   0  0  0  0  0  0
  -25.4721  -15.2050   20.4264 N   0  0  0  0  0  0
  -31.5702  -14.8035   20.0879 O   0  0  0  0  0  0
  -21.6557   -6.9089   21.4214 O   0  0  0  0  0  0
  -22.3077  -14.5442   20.6247 O   0  0  0  0  0  0
  -24.6404  -31.8571   23.2060 C   0  0  0  0  0  0
  -25.9184  -32.4783   23.8400 C   0  0  1  0  0  0
  -27.0662  -27.0992   20.2554 C   0  0  0  0  0  0
  -25.5945  -33.8580   24.2281 N   0  0  0  0  0  0
  -23.4426  -30.4912   21.5404 C   0  0  2  0  0  0
  -24.8714  -28.9439   20.1039 C   0  0  0  0  0  0
  -22.7562  -29.4607   22.4847 C   0  0  0  0  0  0
  -18.0331  -28.1415   22.8486 C   0  0  0  0  0  0
  -24.1460  -36.7255   23.2648 C   0  0  0  0  0  0
  -26.0050  -30.7267   21.4119 C   0  0  0  0  0  0
  -26.0530  -29.3465   20.7454 C   0  0  0  0  0  0
  -27.1682  -28.4327   20.8056 C   0  0  0  0  0  0
  -25.9258  -26.8581   19.4624 C   0  0  0  0  0  0
  -24.8262  -27.7246   19.4176 C   0  0  0  0  0  0
  -23.6642  -29.8613   20.1504 C   0  0  0  0  0  0
  -25.4106  -36.3100   24.0344 C   0  0  1  0  0  0
  -20.5926  -28.3744   23.1206 C   0  0  2  0  0  0
  -20.6814  -26.9456   22.5414 C   0  0  0  0  0  0
  -19.5786  -26.6369   21.5227 C   0  0  0  0  0  0
  -18.1954  -26.7948   22.1626 C   0  0  0  0  0  0
  -19.1594  -28.8898   23.2824 C   0  0  0  0  0  0
  -18.9498  -30.1482   23.8856 C   0  0  0  0  0  0
  -17.6494  -30.6601   24.0555 C   0  0  0  0  0  0
  -25.9069  -34.9457   23.5128 C   0  0  0  0  0  0
  -16.5377  -29.9084   23.6358 C   0  0  0  0  0  0
  -16.7302  -28.6508   23.0366 C   0  0  0  0  0  0
  -26.4482  -31.6642   25.0843 C   0  0  0  0  0  0
  -25.3618  -31.3867   26.1521 C   0  0  0  0  0  0
  -27.0344  -30.2997   24.6513 C   0  0  0  0  0  0
  -27.6030  -32.4417   25.7627 C   0  0  0  0  0  0
  -27.5571  -37.1800   24.8461 C   0  0  0  0  0  0
  -21.4250  -29.3054   22.3548 N   0  0  0  0  0  0
  -26.4270  -37.3804   23.9430 N   0  0  0  0  0  0
  -24.7156  -31.0430   22.1081 N   0  0  0  0  0  0
  -23.4211  -28.8100   23.2995 O   0  0  0  0  0  0
  -27.8842  -25.9661   20.5336 O   0  0  0  0  0  0
  -26.5638  -34.8916   22.4698 O   0  0  0  0  0  0
  -23.5510  -32.1417   23.7275 O   0  0  0  0  0  0
  -26.3807  -17.3542   23.4792 C   0  0  0  0  0  0
  -27.3110  -16.3715   23.0578 C   0  0  0  0  0  0
  -26.5277  -18.7395   23.1133 C   0  0  0  0  0  0
  -28.7128  -18.1213   22.1870 C   0  0  0  0  0  0
  -28.5414  -16.7476   22.4855 C   0  0  0  0  0  0
  -27.6759  -19.1439   22.3288 C   0  0  0  0  0  0
  -27.3448  -22.0598   21.8803 C   0  0  0  0  0  0
  -27.7022  -23.1539   21.0654 C   0  0  0  0  0  0
  -29.6431  -15.7796   22.7649 C   0  0  0  0  0  0
  -30.4659  -14.8795   22.1555 C   0  0  0  0  0  0
  -28.6255  -22.8742   19.8786 C   0  0  0  0  0  0
  -29.1468  -21.4173   19.7494 C   0  0  0  0  0  0
  -28.0541  -20.4303   20.1850 C   0  0  0  0  0  0
  -27.9585  -20.5989   21.7023 C   0  0  2  0  0  0
  -27.1094  -24.6609   20.9375 C   0  0  0  0  0  0
  -31.4058  -12.4167   18.9824 H   0  0  0  0  0  0
  -30.2678  -11.2692   19.6235 H   0  0  0  0  0  0
  -29.6386  -11.8524   17.2742 H   0  0  0  0  0  0
  -29.4484  -13.5769   17.6713 H   0  0  0  0  0  0
  -27.8052  -11.2414   18.6960 H   0  0  0  0  0  0
  -27.2357  -12.6014   17.7654 H   0  0  0  0  0  0
  -27.7290  -14.2087   19.5729 H   0  0  0  0  0  0
  -28.6927  -11.8179   21.2175 H   0  0  0  0  0  0
  -28.4163  -13.3182   21.9182 H   0  0  0  0  0  0
  -25.3969   -9.4880   22.2330 H   0  0  0  0  0  0
  -24.1235   -7.3556   22.5188 H   0  0  0  0  0  0
  -20.9178   -8.8917   20.2448 H   0  0  0  0  0  0
  -22.1783  -11.0361   19.7276 H   0  0  0  0  0  0
  -21.2140   -7.6380   23.9770 H   0  0  0  0  0  0
  -21.1086   -6.0652   25.8923 H   0  0  0  0  0  0
  -22.0865   -2.7984   23.2285 H   0  0  0  0  0  0
  -22.4571  -12.1016   22.5840 H   0  0  0  0  0  0
  -21.1420  -13.2474   22.2378 H   0  0  0  0  0  0
  -24.7439  -15.8883   20.6538 H   0  0  0  0  0  0
  -26.3470  -15.6415   20.1900 H   0  0  0  0  0  0
  -26.7284  -32.5349   23.1164 H   0  0  0  0  0  0
  -25.0060  -33.9740   25.0401 H   0  0  0  0  0  0
  -22.7453  -31.3168   21.4104 H   0  0  0  0  0  0
  -23.3819  -35.9475   23.3220 H   0  0  0  0  0  0
  -24.3562  -36.8979   22.2077 H   0  0  0  0  0  0
  -23.7078  -37.6360   23.6740 H   0  0  0  0  0  0
  -26.1762  -31.4927   20.6535 H   0  0  0  0  0  0
  -26.8670  -30.7556   22.0671 H   0  0  0  0  0  0
  -28.0426  -28.7060   21.3673 H   0  0  0  0  0  0
  -25.8069  -25.9412   18.9210 H   0  0  0  0  0  0
  -23.9347  -27.4349   18.8766 H   0  0  0  0  0  0
  -23.8255  -30.6491   19.4194 H   0  0  0  0  0  0
  -22.7792  -29.3173   19.8203 H   0  0  0  0  0  0
  -25.1284  -36.1964   25.0833 H   0  0  0  0  0  0
  -21.0038  -28.3382   24.1305 H   0  0  0  0  0  0
  -20.5706  -26.2389   23.3650 H   0  0  0  0  0  0
  -21.6677  -26.7443   22.1215 H   0  0  0  0  0  0
  -19.6949  -25.6251   21.1310 H   0  0  0  0  0  0
  -19.6729  -27.3133   20.6715 H   0  0  0  0  0  0
  -17.4234  -26.6691   21.4010 H   0  0  0  0  0  0
  -18.0341  -26.0087   22.9024 H   0  0  0  0  0  0
  -19.7959  -30.7318   24.2193 H   0  0  0  0  0  0
  -17.5040  -31.6284   24.5167 H   0  0  0  0  0  0
  -15.5375  -30.2972   23.7704 H   0  0  0  0  0  0
  -15.8693  -28.0796   22.7115 H   0  0  0  0  0  0
  -24.5910  -30.7089   25.7871 H   0  0  0  0  0  0
  -24.8676  -32.3032   26.4720 H   0  0  0  0  0  0
  -25.7867  -30.9250   27.0441 H   0  0  0  0  0  0
  -26.2978  -29.6747   24.1478 H   0  0  0  0  0  0
  -27.3802  -29.7340   25.5177 H   0  0  0  0  0  0
  -27.8959  -30.4185   23.9958 H   0  0  0  0  0  0
  -27.2681  -33.3856   26.1942 H   0  0  0  0  0  0
  -28.3960  -32.6732   25.0510 H   0  0  0  0  0  0
  -28.0517  -31.8683   26.5750 H   0  0  0  0  0  0
  -28.2578  -38.0114   24.7582 H   0  0  0  0  0  0
  -28.1089  -36.2660   24.6217 H   0  0  0  0  0  0
  -27.2297  -37.1353   25.8860 H   0  0  0  0  0  0
  -20.9471  -29.8778   21.6720 H   0  0  0  0  0  0
  -26.0163  -38.2870   24.1477 H   0  0  0  0  0  0
  -25.5508  -16.9864   24.0576 H   0  0  0  0  0  0
  -27.1850  -15.3153   23.3122 H   0  0  0  0  0  0
  -25.7500  -19.3959   23.4456 H   0  0  0  0  0  0
  -29.7218  -18.3432   21.8968 H   0  0  0  0  0  0
  -26.5722  -22.1646   22.6473 H   0  0  0  0  0  0
  -29.8510  -15.8216   23.8245 H   0  0  0  0  0  0
  -31.1549  -14.4383   22.8558 H   0  0  0  0  0  0
  -29.4586  -23.5618   19.9246 H   0  0  0  0  0  0
  -28.0570  -23.0843   18.9701 H   0  0  0  0  0  0
  -30.0126  -21.2856   20.4216 H   0  0  0  0  0  0
  -29.5325  -21.1609   18.7399 H   0  0  0  0  0  0
  -28.3069  -19.4041   19.8937 H   0  0  0  0  0  0
  -27.0898  -20.6454   19.7237 H   0  0  0  0  0  0
  -28.9419  -20.7497   22.1260 H   0  0  0  0  0  0
  -26.4014  -24.8488   21.7525 H   0  0  0  0  0  0
  -26.4399  -24.4428   20.1094 H   0  0  0  0  0  0
  1 25  1  0  0  0
  1 30  2  0  0  0
  1 80  1  0  0  0
  2  3  1  0  0  0
  2 25  1  0  0  0
  2 86  1  0  0  0
  2 87  1  0  0  0
  3  4  1  0  0  0
  3 88  1  0  0  0
  3 89  1  0  0  0
  4  5  1  0  0  0
  4 90  1  0  0  0
  4 91  1  0  0  0
  5  6  1  0  0  0
  5 26  1  0  0  0
  5 92  1  0  0  0
  6 25  1  0  0  0
  6 93  1  0  0  0
  6 94  1  0  0  0
  7  8  2  0  0  0
  7 26  1  0  0  0
  7 29  1  0  0  0
  8  9  1  0  0  0
  8 22  1  0  0  0
  9 10  1  0  0  0
  9 27  2  0  0  0
 10 11  2  0  0  0
 10 15  1  0  0  0
 11 12  1  0  0  0
 11 95  1  0  0  0
 12 13  2  0  0  0
 12 96  1  0  0  0
 13 14  1  0  0  0
 13 31  1  0  0  0
 14 15  2  0  0  0
 14 97  1  0  0  0
 15 98  1  0  0  0
 16 17  2  0  0  0
 16 21  1  0  0  0
 16 31  1  0  0  0
 17 18  1  0  0  0
 17 99  1  0  0  0
 18 19  2  0  0  0
 18100  1  0  0  0
 19 20  1  0  0  0
 19 24  1  0  0  0
 20 21  2  0  0  0
 20101  1  0  0  0
 21 23  1  0  0  0
 22 28  1  0  0  0
 22 32  2  0  0  0
 26 27  1  0  0  0
 28102  1  0  0  0
 28103  1  0  0  0
 29104  1  0  0  0
 29105  1  0  0  0
 33 34  1  0  0  0
 33 66  1  0  0  0
 33 70  2  0  0  0
 34 36  1  0  0  0
 34 59  1  0  0  0
 34106  1  0  0  0
 35 44  2  0  0  0
 35 45  1  0  0  0
 35 68  1  0  0  0
 36 56  1  0  0  0
 36107  1  0  0  0
 37 39  1  0  0  0
 37 47  1  0  0  0
 37 66  1  0  0  0
 37108  1  0  0  0
 38 43  2  0  0  0
 38 46  1  0  0  0
 38 47  1  0  0  0
 39 64  1  0  0  0
 39 67  2  0  0  0
 40 52  1  0  0  0
 40 53  2  0  0  0
 40 58  1  0  0  0
 41109  1  0  0  0
 41110  1  0  0  0
 41111  1  0  0  0
 41 48  1  0  0  0
 42 43  1  0  0  0
 42 66  1  0  0  0
 42112  1  0  0  0
 42113  1  0  0  0
 43 44  1  0  0  0
 44114  1  0  0  0
 45 46  2  0  0  0
 45115  1  0  0  0
 46116  1  0  0  0
 47117  1  0  0  0
 47118  1  0  0  0
 48 56  1  0  0  0
 48 65  1  0  0  0
 48119  1  0  0  0
 49 50  1  0  0  0
 49 53  1  0  0  0
 49 64  1  0  0  0
 49120  1  0  0  0
 50 51  1  0  0  0
 50121  1  0  0  0
 50122  1  0  0  0
 51 52  1  0  0  0
 51123  1  0  0  0
 51124  1  0  0  0
 52125  1  0  0  0
 52126  1  0  0  0
 53 54  1  0  0  0
 54 55  2  0  0  0
 54127  1  0  0  0
 55 57  1  0  0  0
 55128  1  0  0  0
 56 69  2  0  0  0
 57 58  2  0  0  0
 57129  1  0  0  0
 58130  1  0  0  0
 59 60  1  0  0  0
 59 61  1  0  0  0
 59 62  1  0  0  0
 60131  1  0  0  0
 60132  1  0  0  0
 60133  1  0  0  0
 61134  1  0  0  0
 61135  1  0  0  0
 61136  1  0  0  0
 62137  1  0  0  0
 62138  1  0  0  0
 62139  1  0  0  0
 63 65  1  0  0  0
 63140  1  0  0  0
 63141  1  0  0  0
 63142  1  0  0  0
 64143  1  0  0  0
 65144  1  0  0  0
 68 85  1  0  0  0
 71 72  2  0  0  0
 71 73  1  0  0  0
 71145  1  0  0  0
 72 75  1  0  0  0
 72146  1  0  0  0
 73 76  2  0  0  0
 73147  1  0  0  0
 74 75  2  0  0  0
 74 76  1  0  0  0
 74148  1  0  0  0
 75 79  1  0  0  0
 76 84  1  0  0  0
 77 78  2  0  0  0
 77 84  1  0  0  0
 77149  1  0  0  0
 78 81  1  0  0  0
 78 85  1  0  0  0
 79 80  2  0  0  0
 79150  1  0  0  0
 80151  1  0  0  0
 81 82  1  0  0  0
 81152  1  0  0  0
 81153  1  0  0  0
 82 83  1  0  0  0
 82154  1  0  0  0
 82155  1  0  0  0
 83 84  1  0  0  0
 83156  1  0  0  0
 83157  1  0  0  0
 84158  1  0  0  0
 85159  1  0  0  0
 85160  1  0  0  0
M  ISO  4   1 100  68 101  80 100  85 101
M  END
> <chiral flag>
0

> <version>
0

> <s_m_source_file>
/data/baiqing/PycharmProjects/Reinvent-master-3.2/result/LINK_invent/BTK/process_docking_weight1_custom_product_contain_oxygen_bond_distance_aromatic_linkinvent_7_9_3/rearranged_h_0131.sdf

> <i_m_source_file_index>
69

> <r_mmod_Potential_Energy-OPLS-2005>
666.681884765625

> <r_mmod_Stretch_Energy-OPLS-2005>
170.204971313477

> <r_mmod_Bend_Energy-OPLS-2005>
332.688568115234

> <r_mmod_Torsional_Energy-OPLS-2005>
306.801635742188

> <r_mmod_Improper_Torsional_Energy-OPLS-2005>
20.7155418395996

> <r_mmod_Van_der_Waal_Energy-OPLS-2005>
148.467025756836

> <r_mmod_Electrostatic_Energy-OPLS-2005>
-330.902465820312

> <r_mmod_Solvation_Energy-OPLS-2005>
-178.572540283203

> <b_mmod_Minimization_Converged-OPLS-2005>
0

> <r_mmod_RMS_Derivative-OPLS-2005>
45.6556205749512

$$$$
69
                    3D
 Structure written by MMmdl.
159167  0  0  1  0            999 V2000
  -30.7127  -14.4948   20.5558 C   0  0  0  0  0  0
  -30.4210  -12.3167   19.4260 C   0  0  0  0  0  0
  -29.4958  -12.4960   18.2051 C   0  0  0  0  0  0
  -28.0163  -12.3593   18.6157 C   0  0  0  0  0  0
  -27.6569  -13.2106   19.8653 C   0  0  2  0  0  0
  -28.7024  -13.0222   20.9891 C   0  0  0  0  0  0
  -25.2560  -13.8126   20.5665 C   0  0  0  0  0  0
  -24.1834  -13.0406   20.9184 C   0  0  0  0  0  0
  -24.6402  -11.6883   20.8729 C   0  0  0  0  0  0
  -23.9062  -10.4287   21.0390 C   0  0  0  0  0  0
  -24.3616   -9.4219   21.9178 C   0  0  0  0  0  0
  -23.6301   -8.2249   22.0734 C   0  0  0  0  0  0
  -22.4278   -8.0288   21.3533 C   0  0  0  0  0  0
  -21.9911   -9.0254   20.4629 C   0  0  0  0  0  0
  -22.7233  -10.2134   20.3040 C   0  0  0  0  0  0
  -21.6873   -6.0749   22.5295 C   0  0  0  0  0  0
  -21.4022   -6.5649   23.8232 C   0  0  0  0  0  0
  -21.3647   -5.6790   24.9190 C   0  0  0  0  0  0
  -21.6042   -4.3055   24.7238 C   0  0  0  0  0  0
  -21.8824   -3.8155   23.4361 C   0  0  0  0  0  0
  -21.9203   -4.6974   22.3421 C   0  0  0  0  0  0
  -22.7869  -13.5213   21.1862 C   0  0  0  0  0  0
  -22.1672   -4.2163   21.0996 F   0  0  0  0  0  0
  -21.5609   -3.4533   25.7742 F   0  0  0  0  0  0
  -30.0298  -13.3230   20.4276 N   0  0  0  0  0  0
  -26.3007  -12.9325   20.3321 N   0  0  0  0  0  0
  -25.9333  -11.6483   20.5740 N   0  0  0  0  0  0
  -22.0516  -12.8190   22.0401 N   0  0  0  0  0  0
  -25.4212  -15.1833   20.4085 N   0  0  0  0  0  0
  -31.8588  -14.6435   20.1239 O   0  0  0  0  0  0
  -21.6645   -6.8888   21.4251 O   0  0  0  0  0  0
  -22.3559  -14.5542   20.6750 O   0  0  0  0  0  0
  -24.6173  -31.8697   23.2114 C   0  0  0  0  0  0
  -25.9055  -32.4836   23.8420 C   0  0  1  0  0  0
  -27.2229  -27.4032   20.0975 C   0  0  0  0  0  0
  -25.5914  -33.8633   24.2350 N   0  0  0  0  0  0
  -23.4052  -30.4938   21.5543 C   0  0  2  0  0  0
  -24.8499  -28.9605   20.1166 C   0  0  0  0  0  0
  -22.7422  -29.4662   22.5003 C   0  0  0  0  0  0
  -18.0294  -28.1359   22.8525 C   0  0  0  0  0  0
  -24.1483  -36.7314   23.2636 C   0  0  0  0  0  0
  -25.9398  -30.8236   21.3709 C   0  0  0  0  0  0
  -26.0145  -29.4557   20.7171 C   0  0  0  0  0  0
  -27.2047  -28.6850   20.7033 C   0  0  0  0  0  0
  -26.0400  -26.9430   19.4720 C   0  0  0  0  0  0
  -24.8586  -27.7047   19.4911 C   0  0  0  0  0  0
  -23.6143  -29.8312   20.1683 C   0  0  0  0  0  0
  -25.4111  -36.3127   24.0338 C   0  0  1  0  0  0
  -20.5888  -28.3649   23.1342 C   0  0  2  0  0  0
  -20.6788  -26.9388   22.5429 C   0  0  0  0  0  0
  -19.5765  -26.6375   21.5231 C   0  0  0  0  0  0
  -18.1941  -26.7915   22.1635 C   0  0  0  0  0  0
  -19.1544  -28.8815   23.2935 C   0  0  0  0  0  0
  -18.9468  -30.1429   23.8935 C   0  0  0  0  0  0
  -17.6466  -30.6577   24.0561 C   0  0  0  0  0  0
  -25.9040  -34.9484   23.5142 C   0  0  0  0  0  0
  -16.5356  -29.9075   23.6327 C   0  0  0  0  0  0
  -16.7279  -28.6480   23.0378 C   0  0  0  0  0  0
  -26.4480  -31.6613   25.0749 C   0  0  0  0  0  0
  -25.3746  -31.3697   26.1493 C   0  0  0  0  0  0
  -27.0303  -30.3053   24.6133 C   0  0  0  0  0  0
  -27.6069  -32.4324   25.7501 C   0  0  0  0  0  0
  -27.5584  -37.1810   24.8469 C   0  0  0  0  0  0
  -21.4151  -29.3031   22.3737 N   0  0  0  0  0  0
  -26.4301  -37.3813   23.9408 N   0  0  0  0  0  0
  -24.6725  -31.0768   22.1034 N   0  0  0  0  0  0
  -23.4196  -28.8201   23.3044 O   0  0  0  0  0  0
  -28.3625  -26.6140   20.1132 O   0  0  0  0  0  0
  -26.5605  -34.8927   22.4703 O   0  0  0  0  0  0
  -23.5361  -32.1464   23.7498 O   0  0  0  0  0  0
  -32.0692  -18.4395   22.1925 C   0  0  0  0  0  0
  -31.5929  -17.1341   21.9876 C   0  0  0  0  0  0
  -31.4183  -19.5353   21.5983 C   0  0  0  0  0  0
  -29.7981  -18.0146   20.5783 C   0  0  0  0  0  0
  -30.4667  -16.8970   21.1700 C   0  0  0  0  0  0
  -30.2673  -19.3478   20.7948 C   0  0  0  0  0  0
  -29.3123  -24.2866   20.1734 C   0  0  0  0  0  0
  -27.2609  -18.0366   20.4248 C   0  0  0  0  0  0
  -28.5814  -17.8040   19.6829 C   0  0  0  0  0  0
  -28.9836  -22.7940   19.9213 C   0  0  0  0  0  0
  -28.1222  -25.2258   20.4633 C   0  0  0  0  0  0
  -30.0000  -21.7682   20.4942 C   0  0  0  0  0  0
  -29.9970  -15.5485   21.0091 N   0  0  0  0  0  0
  -30.4749  -24.7056   20.1440 O   0  0  0  0  0  0
  -29.5827  -20.4143   20.2179 O   0  0  0  0  0  0
  -31.4663  -12.4067   19.1239 H   0  0  0  0  0  0
  -30.3184  -11.3129   19.8394 H   0  0  0  0  0  0
  -29.7371  -11.7542   17.4430 H   0  0  0  0  0  0
  -29.6650  -13.4705   17.7457 H   0  0  0  0  0  0
  -27.8264  -11.3033   18.8135 H   0  0  0  0  0  0
  -27.3690  -12.6248   17.7788 H   0  0  0  0  0  0
  -27.6864  -14.2547   19.5534 H   0  0  0  0  0  0
  -28.6857  -11.9945   21.3522 H   0  0  0  0  0  0
  -28.4659  -13.6442   21.8539 H   0  0  0  0  0  0
  -25.2770   -9.5702   22.4744 H   0  0  0  0  0  0
  -24.0050   -7.4637   22.7423 H   0  0  0  0  0  0
  -21.0860   -8.8758   19.8922 H   0  0  0  0  0  0
  -22.3703  -10.9669   19.6136 H   0  0  0  0  0  0
  -21.2017   -7.6154   23.9757 H   0  0  0  0  0  0
  -21.1455   -6.0504   25.9093 H   0  0  0  0  0  0
  -22.0613   -2.7620   23.2855 H   0  0  0  0  0  0
  -22.4167  -11.9877   22.4810 H   0  0  0  0  0  0
  -21.1109  -13.1185   22.2562 H   0  0  0  0  0  0
  -24.6488  -15.8272   20.5378 H   0  0  0  0  0  0
  -26.2692  -15.6367   20.0974 H   0  0  0  0  0  0
  -26.7118  -32.5528   23.1172 H   0  0  0  0  0  0
  -25.0033  -33.9819   25.0476 H   0  0  0  0  0  0
  -22.6951  -31.3119   21.4171 H   0  0  0  0  0  0
  -23.3757  -35.9633   23.3319 H   0  0  0  0  0  0
  -24.3570  -36.8923   22.2046 H   0  0  0  0  0  0
  -23.7224  -37.6520   23.6640 H   0  0  0  0  0  0
  -26.0594  -31.5887   20.6028 H   0  0  0  0  0  0
  -26.8251  -30.8756   21.9928 H   0  0  0  0  0  0
  -28.1007  -29.0606   21.1760 H   0  0  0  0  0  0
  -26.0085  -25.9984   18.9485 H   0  0  0  0  0  0
  -23.9653  -27.3278   19.0132 H   0  0  0  0  0  0
  -23.7232  -30.6088   19.4116 H   0  0  0  0  0  0
  -22.7371  -29.2569   19.8703 H   0  0  0  0  0  0
  -25.1281  -36.1992   25.0833 H   0  0  0  0  0  0
  -20.9993  -28.3195   24.1461 H   0  0  0  0  0  0
  -20.5716  -26.2242   23.3609 H   0  0  0  0  0  0
  -21.6654  -26.7442   22.1190 H   0  0  0  0  0  0
  -19.6915  -25.6303   21.1226 H   0  0  0  0  0  0
  -19.6692  -27.3211   20.6780 H   0  0  0  0  0  0
  -17.4218  -26.6715   21.4018 H   0  0  0  0  0  0
  -18.0302  -26.0035   22.9008 H   0  0  0  0  0  0
  -19.7941  -30.7244   24.2311 H   0  0  0  0  0  0
  -17.5024  -31.6269   24.5142 H   0  0  0  0  0  0
  -15.5364  -30.2987   23.7633 H   0  0  0  0  0  0
  -15.8688  -28.0797   22.7102 H   0  0  0  0  0  0
  -24.5931  -30.7039   25.7809 H   0  0  0  0  0  0
  -24.8906  -32.2831   26.4958 H   0  0  0  0  0  0
  -25.8100  -30.8844   27.0237 H   0  0  0  0  0  0
  -26.2836  -29.6831   24.1187 H   0  0  0  0  0  0
  -27.4069  -29.7284   25.4590 H   0  0  0  0  0  0
  -27.8680  -30.4377   23.9285 H   0  0  0  0  0  0
  -27.2716  -33.3623   26.2111 H   0  0  0  0  0  0
  -28.3858  -32.6899   25.0308 H   0  0  0  0  0  0
  -28.0768  -31.8427   26.5394 H   0  0  0  0  0  0
  -28.2613  -38.0096   24.7521 H   0  0  0  0  0  0
  -28.1070  -36.2633   24.6286 H   0  0  0  0  0  0
  -27.2296  -37.1449   25.8872 H   0  0  0  0  0  0
  -20.9292  -29.8745   21.6977 H   0  0  0  0  0  0
  -26.0196  -38.2892   24.1416 H   0  0  0  0  0  0
  -32.9380  -18.6010   22.8156 H   0  0  0  0  0  0
  -32.1045  -16.3123   22.4689 H   0  0  0  0  0  0
  -31.8285  -20.5175   21.7826 H   0  0  0  0  0  0
  -26.4105  -17.9116   19.7538 H   0  0  0  0  0  0
  -27.2088  -19.0479   20.8298 H   0  0  0  0  0  0
  -27.1446  -17.3375   21.2525 H   0  0  0  0  0  0
  -28.5911  -16.8074   19.2406 H   0  0  0  0  0  0
  -28.6457  -18.4869   18.8360 H   0  0  0  0  0  0
  -28.9002  -22.6539   18.8443 H   0  0  0  0  0  0
  -27.9968  -22.5825   20.3311 H   0  0  0  0  0  0
  -27.9076  -25.1715   21.5303 H   0  0  0  0  0  0
  -27.2637  -24.8013   19.9486 H   0  0  0  0  0  0
  -30.0779  -21.9196   21.5722 H   0  0  0  0  0  0
  -30.9868  -21.9385   20.0600 H   0  0  0  0  0  0
  -29.0186  -15.3781   21.1759 H   0  0  0  0  0  0
  1 25  1  0  0  0
  1 30  2  0  0  0
  1 83  1  0  0  0
  2  3  1  0  0  0
  2 25  1  0  0  0
  2 86  1  0  0  0
  2 87  1  0  0  0
  3  4  1  0  0  0
  3 88  1  0  0  0
  3 89  1  0  0  0
  4  5  1  0  0  0
  4 90  1  0  0  0
  4 91  1  0  0  0
  5  6  1  0  0  0
  5 26  1  0  0  0
  5 92  1  0  0  0
  6 25  1  0  0  0
  6 93  1  0  0  0
  6 94  1  0  0  0
  7  8  2  0  0  0
  7 26  1  0  0  0
  7 29  1  0  0  0
  8  9  1  0  0  0
  8 22  1  0  0  0
  9 10  1  0  0  0
  9 27  2  0  0  0
 10 11  2  0  0  0
 10 15  1  0  0  0
 11 12  1  0  0  0
 11 95  1  0  0  0
 12 13  2  0  0  0
 12 96  1  0  0  0
 13 14  1  0  0  0
 13 31  1  0  0  0
 14 15  2  0  0  0
 14 97  1  0  0  0
 15 98  1  0  0  0
 16 17  2  0  0  0
 16 21  1  0  0  0
 16 31  1  0  0  0
 17 18  1  0  0  0
 17 99  1  0  0  0
 18 19  2  0  0  0
 18100  1  0  0  0
 19 20  1  0  0  0
 19 24  1  0  0  0
 20 21  2  0  0  0
 20101  1  0  0  0
 21 23  1  0  0  0
 22 28  1  0  0  0
 22 32  2  0  0  0
 26 27  1  0  0  0
 28102  1  0  0  0
 28103  1  0  0  0
 29104  1  0  0  0
 29105  1  0  0  0
 33 34  1  0  0  0
 33 66  1  0  0  0
 33 70  2  0  0  0
 34 36  1  0  0  0
 34 59  1  0  0  0
 34106  1  0  0  0
 35 44  2  0  0  0
 35 45  1  0  0  0
 35 68  1  0  0  0
 36 56  1  0  0  0
 36107  1  0  0  0
 37 39  1  0  0  0
 37 47  1  0  0  0
 37 66  1  0  0  0
 37108  1  0  0  0
 38 43  2  0  0  0
 38 46  1  0  0  0
 38 47  1  0  0  0
 39 64  1  0  0  0
 39 67  2  0  0  0
 40 52  1  0  0  0
 40 53  2  0  0  0
 40 58  1  0  0  0
 41109  1  0  0  0
 41110  1  0  0  0
 41111  1  0  0  0
 41 48  1  0  0  0
 42 43  1  0  0  0
 42 66  1  0  0  0
 42112  1  0  0  0
 42113  1  0  0  0
 43 44  1  0  0  0
 44114  1  0  0  0
 45 46  2  0  0  0
 45115  1  0  0  0
 46116  1  0  0  0
 47117  1  0  0  0
 47118  1  0  0  0
 48 56  1  0  0  0
 48 65  1  0  0  0
 48119  1  0  0  0
 49 50  1  0  0  0
 49 53  1  0  0  0
 49 64  1  0  0  0
 49120  1  0  0  0
 50 51  1  0  0  0
 50121  1  0  0  0
 50122  1  0  0  0
 51 52  1  0  0  0
 51123  1  0  0  0
 51124  1  0  0  0
 52125  1  0  0  0
 52126  1  0  0  0
 53 54  1  0  0  0
 54 55  2  0  0  0
 54127  1  0  0  0
 55 57  1  0  0  0
 55128  1  0  0  0
 56 69  2  0  0  0
 57 58  2  0  0  0
 57129  1  0  0  0
 58130  1  0  0  0
 59 60  1  0  0  0
 59 61  1  0  0  0
 59 62  1  0  0  0
 60131  1  0  0  0
 60132  1  0  0  0
 60133  1  0  0  0
 61134  1  0  0  0
 61135  1  0  0  0
 61136  1  0  0  0
 62137  1  0  0  0
 62138  1  0  0  0
 62139  1  0  0  0
 63 65  1  0  0  0
 63140  1  0  0  0
 63141  1  0  0  0
 63142  1  0  0  0
 64143  1  0  0  0
 65144  1  0  0  0
 68 81  1  0  0  0
 71 72  2  0  0  0
 71 73  1  0  0  0
 71145  1  0  0  0
 72 75  1  0  0  0
 72146  1  0  0  0
 73 76  2  0  0  0
 73147  1  0  0  0
 74 75  2  0  0  0
 74 76  1  0  0  0
 74 79  1  0  0  0
 75 83  1  0  0  0
 76 85  1  0  0  0
 77 80  1  0  0  0
 77 81  1  0  0  0
 77 84  2  0  0  0
 78 79  1  0  0  0
 78148  1  0  0  0
 78149  1  0  0  0
 78150  1  0  0  0
 79151  1  0  0  0
 79152  1  0  0  0
 80 82  1  0  0  0
 80153  1  0  0  0
 80154  1  0  0  0
 81155  1  0  0  0
 81156  1  0  0  0
 82 85  1  0  0  0
 82157  1  0  0  0
 82158  1  0  0  0
 83159  1  0  0  0
M  ISO  4   1 100  68 101  81 101  83 100
M  END
> <chiral flag>
0

> <version>
0

> <s_m_source_file>
/data/baiqing/PycharmProjects/Reinvent-master-3.2/result/LINK_invent/BTK/process_docking_weight1_custom_product_contain_oxygen_bond_distance_aromatic_linkinvent_7_9_3/rearranged_h_0131.sdf

> <i_m_source_file_index>
70

> <r_mmod_Potential_Energy-OPLS-2005>
-31.1215496063232

> <r_mmod_Stretch_Energy-OPLS-2005>
45.9666862487793

> <r_mmod_Bend_Energy-OPLS-2005>
99.1633224487305

> <r_mmod_Torsional_Energy-OPLS-2005>
237.562942504883

> <r_mmod_Improper_Torsional_Energy-OPLS-2005>
4.10788202285767

> <r_mmod_Van_der_Waal_Energy-OPLS-2005>
152.665679931641

> <r_mmod_Electrostatic_Energy-OPLS-2005>
-361.697479248047

> <r_mmod_Solvation_Energy-OPLS-2005>
-227.597793579102

> <b_mmod_Minimization_Converged-OPLS-2005>
0

> <r_mmod_RMS_Derivative-OPLS-2005>
2.55266451835632

$$$$
70
                    3D
 Structure written by MMmdl.
159167  0  0  1  0            999 V2000
  -30.6588  -14.5389   20.4970 C   0  0  0  0  0  0
  -30.4351  -12.3095   19.4634 C   0  0  0  0  0  0
  -29.5112  -12.4194   18.2302 C   0  0  0  0  0  0
  -28.0228  -12.3381   18.6299 C   0  0  0  0  0  0
  -27.6593  -13.2057   19.8662 C   0  0  2  0  0  0
  -28.6980  -13.0320   20.9970 C   0  0  0  0  0  0
  -25.2598  -13.8166   20.5687 C   0  0  0  0  0  0
  -24.1850  -13.0446   20.9195 C   0  0  0  0  0  0
  -24.6390  -11.6913   20.8749 C   0  0  0  0  0  0
  -23.9053  -10.4300   21.0415 C   0  0  0  0  0  0
  -24.3610   -9.4214   21.9190 C   0  0  0  0  0  0
  -23.6285   -8.2248   22.0752 C   0  0  0  0  0  0
  -22.4267   -8.0293   21.3546 C   0  0  0  0  0  0
  -21.9901   -9.0267   20.4647 C   0  0  0  0  0  0
  -22.7227  -10.2147   20.3062 C   0  0  0  0  0  0
  -21.6851   -6.0743   22.5280 C   0  0  0  0  0  0
  -21.4014   -6.5647   23.8215 C   0  0  0  0  0  0
  -21.3657   -5.6799   24.9176 C   0  0  0  0  0  0
  -21.6042   -4.3061   24.7224 C   0  0  0  0  0  0
  -21.8818   -3.8152   23.4343 C   0  0  0  0  0  0
  -21.9188   -4.6969   22.3402 C   0  0  0  0  0  0
  -22.7868  -13.5253   21.1848 C   0  0  0  0  0  0
  -22.1663   -4.2156   21.0977 F   0  0  0  0  0  0
  -21.5620   -3.4540   25.7734 F   0  0  0  0  0  0
  -30.0239  -13.3338   20.4385 N   0  0  0  0  0  0
  -26.3016  -12.9325   20.3331 N   0  0  0  0  0  0
  -25.9314  -11.6494   20.5784 N   0  0  0  0  0  0
  -22.0496  -12.8254   22.0398 N   0  0  0  0  0  0
  -25.4337  -15.1881   20.4099 N   0  0  0  0  0  0
  -31.8299  -14.6879   20.1381 O   0  0  0  0  0  0
  -21.6637   -6.8887   21.4244 O   0  0  0  0  0  0
  -22.3565  -14.5563   20.6690 O   0  0  0  0  0  0
  -24.6177  -31.8673   23.2097 C   0  0  0  0  0  0
  -25.9062  -32.4822   23.8396 C   0  0  1  0  0  0
  -27.2267  -27.4050   20.1151 C   0  0  0  0  0  0
  -25.5913  -33.8621   24.2324 N   0  0  0  0  0  0
  -23.4067  -30.4939   21.5497 C   0  0  2  0  0  0
  -24.8537  -28.9646   20.1088 C   0  0  0  0  0  0
  -22.7431  -29.4664   22.4965 C   0  0  0  0  0  0
  -18.0280  -28.1380   22.8489 C   0  0  0  0  0  0
  -24.1487  -36.7318   23.2638 C   0  0  0  0  0  0
  -25.9396  -30.8281   21.3657 C   0  0  0  0  0  0
  -26.0171  -29.4627   20.7088 C   0  0  0  0  0  0
  -27.2081  -28.6940   20.7045 C   0  0  0  0  0  0
  -26.0459  -26.9436   19.4841 C   0  0  0  0  0  0
  -24.8660  -27.7067   19.4876 C   0  0  0  0  0  0
  -23.6167  -29.8332   20.1620 C   0  0  0  0  0  0
  -25.4107  -36.3113   24.0335 C   0  0  1  0  0  0
  -20.5876  -28.3678   23.1303 C   0  0  2  0  0  0
  -20.6774  -26.9409   22.5417 C   0  0  0  0  0  0
  -19.5753  -26.6383   21.5218 C   0  0  0  0  0  0
  -18.1930  -26.7927   22.1625 C   0  0  0  0  0  0
  -19.1531  -28.8842   23.2899 C   0  0  0  0  0  0
  -18.9459  -30.1445   23.8916 C   0  0  0  0  0  0
  -17.6461  -30.6585   24.0568 C   0  0  0  0  0  0
  -25.9038  -34.9477   23.5128 C   0  0  0  0  0  0
  -16.5350  -29.9090   23.6323 C   0  0  0  0  0  0
  -16.7268  -28.6505   23.0345 C   0  0  0  0  0  0
  -26.4474  -31.6606   25.0731 C   0  0  0  0  0  0
  -25.3736  -31.3730   26.1480 C   0  0  0  0  0  0
  -27.0305  -30.3047   24.6117 C   0  0  0  0  0  0
  -27.6047  -32.4328   25.7489 C   0  0  0  0  0  0
  -27.5581  -37.1813   24.8458 C   0  0  0  0  0  0
  -21.4153  -29.3043   22.3701 N   0  0  0  0  0  0
  -26.4290  -37.3798   23.9407 N   0  0  0  0  0  0
  -24.6733  -31.0768   22.1001 N   0  0  0  0  0  0
  -23.4189  -28.8197   23.3007 O   0  0  0  0  0  0
  -28.3590  -26.6042   20.1932 O   0  0  0  0  0  0
  -26.5605  -34.8928   22.4690 O   0  0  0  0  0  0
  -23.5364  -32.1425   23.7483 O   0  0  0  0  0  0
  -29.9931  -18.4818   18.3262 C   0  0  0  0  0  0
  -29.6859  -18.0663   21.0602 C   0  0  0  0  0  0
  -30.0331  -17.1692   18.8276 C   0  0  0  0  0  0
  -29.7645  -19.5942   19.1558 C   0  0  0  0  0  0
  -29.9125  -16.9335   20.2254 C   0  0  0  0  0  0
  -29.6146  -19.4007   20.5593 C   0  0  0  0  0  0
  -28.7880  -22.8125   21.1207 C   0  0  0  0  0  0
  -30.0900  -16.0566   17.7992 C   0  0  0  0  0  0
  -29.5901  -20.9289   18.4460 C   0  0  0  0  0  0
  -29.2211  -24.2873   20.8922 C   0  0  0  0  0  0
  -29.8762  -21.7330   21.3630 C   0  0  0  0  0  0
  -28.0969  -25.1789   20.2859 C   0  0  0  0  0  0
  -29.8681  -15.6018   20.7911 N   0  0  0  0  0  0
  -27.5930  -22.4985   21.1163 O   0  0  0  0  0  0
  -29.3135  -20.4046   21.4751 O   0  0  0  0  0  0
  -31.4788  -12.4168   19.1629 H   0  0  0  0  0  0
  -30.3576  -11.3186   19.9142 H   0  0  0  0  0  0
  -29.7403  -11.6156   17.5293 H   0  0  0  0  0  0
  -29.7160  -13.3350   17.6843 H   0  0  0  0  0  0
  -27.8083  -11.2910   18.8450 H   0  0  0  0  0  0
  -27.3908  -12.6061   17.7826 H   0  0  0  0  0  0
  -27.6897  -14.2443   19.5394 H   0  0  0  0  0  0
  -28.6812  -12.0099   21.3790 H   0  0  0  0  0  0
  -28.4599  -13.6700   21.8493 H   0  0  0  0  0  0
  -25.2757   -9.5682   22.4769 H   0  0  0  0  0  0
  -23.9995   -7.4631   22.7461 H   0  0  0  0  0  0
  -21.0835   -8.8784   19.8955 H   0  0  0  0  0  0
  -22.3684  -10.9690   19.6177 H   0  0  0  0  0  0
  -21.2016   -7.6155   23.9724 H   0  0  0  0  0  0
  -21.1477   -6.0527   25.9080 H   0  0  0  0  0  0
  -22.0593   -2.7613   23.2844 H   0  0  0  0  0  0
  -22.4086  -11.9916   22.4819 H   0  0  0  0  0  0
  -21.1107  -13.1291   22.2568 H   0  0  0  0  0  0
  -24.6728  -15.8477   20.5316 H   0  0  0  0  0  0
  -26.2832  -15.6242   20.0747 H   0  0  0  0  0  0
  -26.7135  -32.5528   23.1159 H   0  0  0  0  0  0
  -25.0071  -33.9779   25.0475 H   0  0  0  0  0  0
  -22.6972  -31.3129   21.4134 H   0  0  0  0  0  0
  -23.3742  -35.9659   23.3304 H   0  0  0  0  0  0
  -24.3577  -36.8928   22.2051 H   0  0  0  0  0  0
  -23.7247  -37.6526   23.6647 H   0  0  0  0  0  0
  -26.0571  -31.5956   20.5993 H   0  0  0  0  0  0
  -26.8257  -30.8789   21.9866 H   0  0  0  0  0  0
  -28.0995  -29.0702   21.1868 H   0  0  0  0  0  0
  -26.0107  -25.9826   18.9930 H   0  0  0  0  0  0
  -23.9752  -27.3201   19.0122 H   0  0  0  0  0  0
  -23.7274  -30.6130   19.4075 H   0  0  0  0  0  0
  -22.7388  -29.2585   19.8607 H   0  0  0  0  0  0
  -25.1283  -36.1977   25.0829 H   0  0  0  0  0  0
  -20.9978  -28.3254   24.1422 H   0  0  0  0  0  0
  -20.5684  -26.2290   23.3611 H   0  0  0  0  0  0
  -21.6645  -26.7452   22.1212 H   0  0  0  0  0  0
  -19.6921  -25.6300   21.1241 H   0  0  0  0  0  0
  -19.6692  -27.3198   20.6753 H   0  0  0  0  0  0
  -17.4205  -26.6674   21.4025 H   0  0  0  0  0  0
  -18.0327  -26.0064   22.9012 H   0  0  0  0  0  0
  -19.7934  -30.7253   24.2300 H   0  0  0  0  0  0
  -17.5016  -31.6265   24.5168 H   0  0  0  0  0  0
  -15.5354  -30.2999   23.7638 H   0  0  0  0  0  0
  -15.8667  -28.0833   22.7051 H   0  0  0  0  0  0
  -24.5882  -30.7111   25.7809 H   0  0  0  0  0  0
  -24.8968  -32.2904   26.4944 H   0  0  0  0  0  0
  -25.8084  -30.8870   27.0223 H   0  0  0  0  0  0
  -26.2857  -29.6813   24.1158 H   0  0  0  0  0  0
  -27.4056  -29.7280   25.4579 H   0  0  0  0  0  0
  -27.8697  -30.4361   23.9284 H   0  0  0  0  0  0
  -27.2661  -33.3610   26.2101 H   0  0  0  0  0  0
  -28.3835  -32.6922   25.0307 H   0  0  0  0  0  0
  -28.0738  -31.8438   26.5376 H   0  0  0  0  0  0
  -28.2602  -38.0107   24.7504 H   0  0  0  0  0  0
  -28.1073  -36.2641   24.6278 H   0  0  0  0  0  0
  -27.2302  -37.1458   25.8861 H   0  0  0  0  0  0
  -20.9311  -29.8776   21.6932 H   0  0  0  0  0  0
  -26.0179  -38.2875   24.1407 H   0  0  0  0  0  0
  -30.0721  -18.6347   17.2579 H   0  0  0  0  0  0
  -29.5377  -17.9101   22.1198 H   0  0  0  0  0  0
  -29.9981  -16.4367   16.7811 H   0  0  0  0  0  0
  -29.2478  -15.3882   17.9618 H   0  0  0  0  0  0
  -31.0271  -15.5050   17.8518 H   0  0  0  0  0  0
  -29.4548  -20.7889   17.3732 H   0  0  0  0  0  0
  -30.4637  -21.5677   18.5666 H   0  0  0  0  0  0
  -28.6959  -21.4436   18.7897 H   0  0  0  0  0  0
  -30.1022  -24.3026   20.2509 H   0  0  0  0  0  0
  -29.5275  -24.6934   21.8558 H   0  0  0  0  0  0
  -30.3474  -21.9602   22.3193 H   0  0  0  0  0  0
  -30.6743  -21.7885   20.6280 H   0  0  0  0  0  0
  -27.2040  -25.0345   20.8987 H   0  0  0  0  0  0
  -27.8643  -24.8010   19.2892 H   0  0  0  0  0  0
  -29.0181  -15.3697   21.2816 H   0  0  0  0  0  0
  1 25  1  0  0  0
  1 30  2  0  0  0
  1 83  1  0  0  0
  2  3  1  0  0  0
  2 25  1  0  0  0
  2 86  1  0  0  0
  2 87  1  0  0  0
  3  4  1  0  0  0
  3 88  1  0  0  0
  3 89  1  0  0  0
  4  5  1  0  0  0
  4 90  1  0  0  0
  4 91  1  0  0  0
  5  6  1  0  0  0
  5 26  1  0  0  0
  5 92  1  0  0  0
  6 25  1  0  0  0
  6 93  1  0  0  0
  6 94  1  0  0  0
  7  8  2  0  0  0
  7 26  1  0  0  0
  7 29  1  0  0  0
  8  9  1  0  0  0
  8 22  1  0  0  0
  9 10  1  0  0  0
  9 27  2  0  0  0
 10 11  2  0  0  0
 10 15  1  0  0  0
 11 12  1  0  0  0
 11 95  1  0  0  0
 12 13  2  0  0  0
 12 96  1  0  0  0
 13 14  1  0  0  0
 13 31  1  0  0  0
 14 15  2  0  0  0
 14 97  1  0  0  0
 15 98  1  0  0  0
 16 17  2  0  0  0
 16 21  1  0  0  0
 16 31  1  0  0  0
 17 18  1  0  0  0
 17 99  1  0  0  0
 18 19  2  0  0  0
 18100  1  0  0  0
 19 20  1  0  0  0
 19 24  1  0  0  0
 20 21  2  0  0  0
 20101  1  0  0  0
 21 23  1  0  0  0
 22 28  1  0  0  0
 22 32  2  0  0  0
 26 27  1  0  0  0
 28102  1  0  0  0
 28103  1  0  0  0
 29104  1  0  0  0
 29105  1  0  0  0
 33 34  1  0  0  0
 33 66  1  0  0  0
 33 70  2  0  0  0
 34 36  1  0  0  0
 34 59  1  0  0  0
 34106  1  0  0  0
 35 44  2  0  0  0
 35 45  1  0  0  0
 35 68  1  0  0  0
 36 56  1  0  0  0
 36107  1  0  0  0
 37 39  1  0  0  0
 37 47  1  0  0  0
 37 66  1  0  0  0
 37108  1  0  0  0
 38 43  2  0  0  0
 38 46  1  0  0  0
 38 47  1  0  0  0
 39 64  1  0  0  0
 39 67  2  0  0  0
 40 52  1  0  0  0
 40 53  2  0  0  0
 40 58  1  0  0  0
 41109  1  0  0  0
 41110  1  0  0  0
 41111  1  0  0  0
 41 48  1  0  0  0
 42 43  1  0  0  0
 42 66  1  0  0  0
 42112  1  0  0  0
 42113  1  0  0  0
 43 44  1  0  0  0
 44114  1  0  0  0
 45 46  2  0  0  0
 45115  1  0  0  0
 46116  1  0  0  0
 47117  1  0  0  0
 47118  1  0  0  0
 48 56  1  0  0  0
 48 65  1  0  0  0
 48119  1  0  0  0
 49 50  1  0  0  0
 49 53  1  0  0  0
 49 64  1  0  0  0
 49120  1  0  0  0
 50 51  1  0  0  0
 50121  1  0  0  0
 50122  1  0  0  0
 51 52  1  0  0  0
 51123  1  0  0  0
 51124  1  0  0  0
 52125  1  0  0  0
 52126  1  0  0  0
 53 54  1  0  0  0
 54 55  2  0  0  0
 54127  1  0  0  0
 55 57  1  0  0  0
 55128  1  0  0  0
 56 69  2  0  0  0
 57 58  2  0  0  0
 57129  1  0  0  0
 58130  1  0  0  0
 59 60  1  0  0  0
 59 61  1  0  0  0
 59 62  1  0  0  0
 60131  1  0  0  0
 60132  1  0  0  0
 60133  1  0  0  0
 61134  1  0  0  0
 61135  1  0  0  0
 61136  1  0  0  0
 62137  1  0  0  0
 62138  1  0  0  0
 62139  1  0  0  0
 63 65  1  0  0  0
 63140  1  0  0  0
 63141  1  0  0  0
 63142  1  0  0  0
 64143  1  0  0  0
 65144  1  0  0  0
 68 82  1  0  0  0
 71 73  2  0  0  0
 71 74  1  0  0  0
 71145  1  0  0  0
 72 75  2  0  0  0
 72 76  1  0  0  0
 72146  1  0  0  0
 73 75  1  0  0  0
 73 78  1  0  0  0
 74 76  2  0  0  0
 74 79  1  0  0  0
 75 83  1  0  0  0
 76 85  1  0  0  0
 77 80  1  0  0  0
 77 81  1  0  0  0
 77 84  2  0  0  0
 78147  1  0  0  0
 78148  1  0  0  0
 78149  1  0  0  0
 79150  1  0  0  0
 79151  1  0  0  0
 79152  1  0  0  0
 80 82  1  0  0  0
 80153  1  0  0  0
 80154  1  0  0  0
 81 85  1  0  0  0
 81155  1  0  0  0
 81156  1  0  0  0
 82157  1  0  0  0
 82158  1  0  0  0
 83159  1  0  0  0
M  ISO  4   1 100  68 101  82 101  83 100
M  END
> <chiral flag>
0

> <version>
0

> <s_m_source_file>
/data/baiqing/PycharmProjects/Reinvent-master-3.2/result/LINK_invent/BTK/process_docking_weight1_custom_product_contain_oxygen_bond_distance_aromatic_linkinvent_7_9_3/rearranged_h_0131.sdf

> <i_m_source_file_index>
71

> <r_mmod_Potential_Energy-OPLS-2005>
1.1240941286087

> <r_mmod_Stretch_Energy-OPLS-2005>
49.929515838623

> <r_mmod_Bend_Energy-OPLS-2005>
117.354438781738

> <r_mmod_Torsional_Energy-OPLS-2005>
256.295623779297

> <r_mmod_Improper_Torsional_Energy-OPLS-2005>
6.20018291473389

> <r_mmod_Van_der_Waal_Energy-OPLS-2005>
164.412582397461

> <r_mmod_Electrostatic_Energy-OPLS-2005>
-390.139373779297

> <r_mmod_Solvation_Energy-OPLS-2005>
-229.741104125977

> <b_mmod_Minimization_Converged-OPLS-2005>
0

> <r_mmod_RMS_Derivative-OPLS-2005>
1.39406931400299

$$$$
71
                    3D
 Structure written by MMmdl.
162170  0  0  1  0            999 V2000
  -30.6856  -14.4698   20.5953 C   0  0  0  0  0  0
  -30.4371  -12.3153   19.4091 C   0  0  0  0  0  0
  -29.4978  -12.5119   18.1997 C   0  0  0  0  0  0
  -28.0187  -12.3687   18.6135 C   0  0  0  0  0  0
  -27.6675  -13.1978   19.8769 C   0  0  2  0  0  0
  -28.7096  -12.9508   20.9912 C   0  0  0  0  0  0
  -25.2629  -13.8137   20.5672 C   0  0  0  0  0  0
  -24.1863  -13.0432   20.9155 C   0  0  0  0  0  0
  -24.6401  -11.6894   20.8726 C   0  0  0  0  0  0
  -23.9057  -10.4291   21.0410 C   0  0  0  0  0  0
  -24.3613   -9.4205   21.9191 C   0  0  0  0  0  0
  -23.6286   -8.2242   22.0758 C   0  0  0  0  0  0
  -22.4271   -8.0281   21.3544 C   0  0  0  0  0  0
  -21.9899   -9.0261   20.4653 C   0  0  0  0  0  0
  -22.7225  -10.2141   20.3065 C   0  0  0  0  0  0
  -21.6855   -6.0733   22.5271 C   0  0  0  0  0  0
  -21.4014   -6.5639   23.8207 C   0  0  0  0  0  0
  -21.3656   -5.6792   24.9169 C   0  0  0  0  0  0
  -21.6042   -4.3052   24.7222 C   0  0  0  0  0  0
  -21.8826   -3.8142   23.4344 C   0  0  0  0  0  0
  -21.9195   -4.6958   22.3399 C   0  0  0  0  0  0
  -22.7888  -13.5250   21.1817 C   0  0  0  0  0  0
  -22.1665   -4.2143   21.0977 F   0  0  0  0  0  0
  -21.5626   -3.4540   25.7735 F   0  0  0  0  0  0
  -30.0439  -13.2768   20.4507 N   0  0  0  0  0  0
  -26.3059  -12.9286   20.3363 N   0  0  0  0  0  0
  -25.9324  -11.6457   20.5745 N   0  0  0  0  0  0
  -22.0517  -12.8266   22.0384 N   0  0  0  0  0  0
  -25.4369  -15.1855   20.4109 N   0  0  0  0  0  0
  -31.7823  -14.7163   20.0826 O   0  0  0  0  0  0
  -21.6640   -6.8875   21.4236 O   0  0  0  0  0  0
  -22.3576  -14.5552   20.6652 O   0  0  0  0  0  0
  -24.6168  -31.8672   23.2100 C   0  0  0  0  0  0
  -25.9056  -32.4820   23.8397 C   0  0  1  0  0  0
  -27.2406  -27.4262   20.0708 C   0  0  0  0  0  0
  -25.5908  -33.8621   24.2326 N   0  0  0  0  0  0
  -23.4049  -30.4929   21.5506 C   0  0  2  0  0  0
  -24.8494  -28.9583   20.1143 C   0  0  0  0  0  0
  -22.7417  -29.4664   22.4974 C   0  0  0  0  0  0
  -18.0279  -28.1391   22.8484 C   0  0  0  0  0  0
  -24.1488  -36.7320   23.2634 C   0  0  0  0  0  0
  -25.9369  -30.8264   21.3667 C   0  0  0  0  0  0
  -26.0118  -29.4610   20.7109 C   0  0  0  0  0  0
  -27.2044  -28.6986   20.6941 C   0  0  0  0  0  0
  -26.0451  -26.9330   19.4948 C   0  0  0  0  0  0
  -24.8601  -27.6910   19.5108 C   0  0  0  0  0  0
  -23.6138  -29.8289   20.1646 C   0  0  0  0  0  0
  -25.4107  -36.3110   24.0333 C   0  0  1  0  0  0
  -20.5867  -28.3681   23.1307 C   0  0  2  0  0  0
  -20.6769  -26.9413   22.5420 C   0  0  0  0  0  0
  -19.5756  -26.6388   21.5211 C   0  0  0  0  0  0
  -18.1930  -26.7939   22.1609 C   0  0  0  0  0  0
  -19.1527  -28.8849   23.2896 C   0  0  0  0  0  0
  -18.9455  -30.1451   23.8915 C   0  0  0  0  0  0
  -17.6457  -30.6589   24.0573 C   0  0  0  0  0  0
  -25.9032  -34.9474   23.5123 C   0  0  0  0  0  0
  -16.5350  -29.9096   23.6325 C   0  0  0  0  0  0
  -16.7269  -28.6515   23.0342 C   0  0  0  0  0  0
  -26.4470  -31.6611   25.0735 C   0  0  0  0  0  0
  -25.3735  -31.3757   26.1492 C   0  0  0  0  0  0
  -27.0281  -30.3042   24.6129 C   0  0  0  0  0  0
  -27.6061  -32.4326   25.7477 C   0  0  0  0  0  0
  -27.5592  -37.1801   24.8452 C   0  0  0  0  0  0
  -21.4145  -29.3044   22.3707 N   0  0  0  0  0  0
  -26.4292  -37.3796   23.9413 N   0  0  0  0  0  0
  -24.6713  -31.0763   22.1008 N   0  0  0  0  0  0
  -23.4180  -28.8203   23.3020 O   0  0  0  0  0  0
  -28.4187  -26.6954   20.0959 O   0  0  0  0  0  0
  -26.5592  -34.8923   22.4682 O   0  0  0  0  0  0
  -23.5356  -32.1429   23.7487 O   0  0  0  0  0  0
  -28.7434  -18.7183   20.1841 C   0  0  0  0  0  0
  -28.9790  -17.3272   20.2189 C   0  0  0  0  0  0
  -30.7262  -17.6705   21.8706 C   0  0  0  0  0  0
  -29.4527  -19.6008   21.0292 C   0  0  0  0  0  0
  -30.4845  -19.0677   21.8510 C   0  0  0  0  0  0
  -29.9521  -16.7889   21.0862 C   0  0  0  0  0  0
  -30.7290  -19.9783   24.2031 C   0  0  0  0  0  0
  -28.9737  -21.0592   21.1317 C   0  0  0  0  0  0
  -31.3034  -19.9489   22.7820 C   0  0  0  0  0  0
  -29.6641  -22.1008   20.2195 C   0  0  0  0  0  0
  -28.9347  -23.4747   20.2462 C   0  0  0  0  0  0
  -29.6332  -24.6014   19.4463 C   0  0  0  0  0  0
  -28.7156  -25.7796   19.0263 C   0  0  0  0  0  0
  -29.9993  -15.3826   21.3041 N   0  0  0  0  0  0
  -31.4767  -12.4411   19.1016 H   0  0  0  0  0  0
  -30.3611  -11.2966   19.7930 H   0  0  0  0  0  0
  -29.7364  -11.7886   17.4183 H   0  0  0  0  0  0
  -29.6614  -13.4980   17.7620 H   0  0  0  0  0  0
  -27.8288  -11.3109   18.7998 H   0  0  0  0  0  0
  -27.3683  -12.6509   17.7848 H   0  0  0  0  0  0
  -27.7177  -14.2493   19.5938 H   0  0  0  0  0  0
  -28.6912  -11.9031   21.2951 H   0  0  0  0  0  0
  -28.4580  -13.5107   21.8923 H   0  0  0  0  0  0
  -25.2768   -9.5672   22.4756 H   0  0  0  0  0  0
  -23.9998   -7.4629   22.7476 H   0  0  0  0  0  0
  -21.0825   -8.8779   19.8963 H   0  0  0  0  0  0
  -22.3689  -10.9683   19.6173 H   0  0  0  0  0  0
  -21.2011   -7.6148   23.9710 H   0  0  0  0  0  0
  -21.1469   -6.0520   25.9070 H   0  0  0  0  0  0
  -22.0609   -2.7601   23.2850 H   0  0  0  0  0  0
  -22.4122  -11.9940   22.4802 H   0  0  0  0  0  0
  -21.1138  -13.1316   22.2571 H   0  0  0  0  0  0
  -24.6760  -15.8453   20.5281 H   0  0  0  0  0  0
  -26.2992  -15.6250   20.1157 H   0  0  0  0  0  0
  -26.7129  -32.5521   23.1163 H   0  0  0  0  0  0
  -25.0075  -33.9781   25.0480 H   0  0  0  0  0  0
  -22.6949  -31.3111   21.4125 H   0  0  0  0  0  0
  -23.3740  -35.9661   23.3290 H   0  0  0  0  0  0
  -24.3588  -36.8940   22.2051 H   0  0  0  0  0  0
  -23.7243  -37.6523   23.6652 H   0  0  0  0  0  0
  -26.0532  -31.5928   20.5992 H   0  0  0  0  0  0
  -26.8241  -30.8771   21.9865 H   0  0  0  0  0  0
  -28.1019  -29.0845   21.1570 H   0  0  0  0  0  0
  -25.9823  -25.9517   19.0524 H   0  0  0  0  0  0
  -23.9602  -27.2889   19.0658 H   0  0  0  0  0  0
  -23.7278  -30.6066   19.4086 H   0  0  0  0  0  0
  -22.7355  -29.2548   19.8637 H   0  0  0  0  0  0
  -25.1276  -36.1977   25.0824 H   0  0  0  0  0  0
  -20.9962  -28.3264   24.1425 H   0  0  0  0  0  0
  -20.5663  -26.2297   23.3613 H   0  0  0  0  0  0
  -21.6645  -26.7452   22.1228 H   0  0  0  0  0  0
  -19.6922  -25.6299   21.1242 H   0  0  0  0  0  0
  -19.6706  -27.3193   20.6741 H   0  0  0  0  0  0
  -17.4206  -26.6697   21.4006 H   0  0  0  0  0  0
  -18.0320  -26.0079   22.8998 H   0  0  0  0  0  0
  -19.7927  -30.7264   24.2297 H   0  0  0  0  0  0
  -17.5010  -31.6266   24.5180 H   0  0  0  0  0  0
  -15.5353  -30.3007   23.7635 H   0  0  0  0  0  0
  -15.8669  -28.0846   22.7038 H   0  0  0  0  0  0
  -24.5897  -30.7103   25.7852 H   0  0  0  0  0  0
  -24.8938  -32.2931   26.4918 H   0  0  0  0  0  0
  -25.8083  -30.8951   27.0265 H   0  0  0  0  0  0
  -26.2823  -29.6819   24.1169 H   0  0  0  0  0  0
  -27.4015  -29.7273   25.4601 H   0  0  0  0  0  0
  -27.8680  -30.4341   23.9300 H   0  0  0  0  0  0
  -27.2693  -33.3614   26.2094 H   0  0  0  0  0  0
  -28.3840  -32.6908   25.0278 H   0  0  0  0  0  0
  -28.0763  -31.8429   26.5355 H   0  0  0  0  0  0
  -28.2598  -38.0110   24.7517 H   0  0  0  0  0  0
  -28.1096  -36.2645   24.6238 H   0  0  0  0  0  0
  -27.2321  -37.1406   25.8856 H   0  0  0  0  0  0
  -20.9306  -29.8774   21.6933 H   0  0  0  0  0  0
  -26.0181  -38.2869   24.1429 H   0  0  0  0  0  0
  -27.9560  -19.0987   19.5481 H   0  0  0  0  0  0
  -28.3664  -16.6764   19.6118 H   0  0  0  0  0  0
  -31.4665  -17.2689   22.5488 H   0  0  0  0  0  0
  -31.3320  -20.6144   24.8518 H   0  0  0  0  0  0
  -30.7119  -18.9802   24.6415 H   0  0  0  0  0  0
  -29.7095  -20.3645   24.2135 H   0  0  0  0  0  0
  -29.0360  -21.3890   22.1686 H   0  0  0  0  0  0
  -27.9053  -21.0629   20.9101 H   0  0  0  0  0  0
  -31.3804  -20.9608   22.3862 H   0  0  0  0  0  0
  -32.3268  -19.5720   22.8114 H   0  0  0  0  0  0
  -29.6798  -21.7261   19.1949 H   0  0  0  0  0  0
  -30.7060  -22.2216   20.5176 H   0  0  0  0  0  0
  -28.8056  -23.8079   21.2767 H   0  0  0  0  0  0
  -27.9272  -23.3319   19.8527 H   0  0  0  0  0  0
  -30.0313  -24.1639   18.5297 H   0  0  0  0  0  0
  -30.4996  -24.9736   19.9944 H   0  0  0  0  0  0
  -27.8504  -25.3597   18.5214 H   0  0  0  0  0  0
  -29.2323  -26.3613   18.2624 H   0  0  0  0  0  0
  -29.1609  -14.9933   21.7075 H   0  0  0  0  0  0
  1 25  1  0  0  0
  1 30  2  0  0  0
  1 84  1  0  0  0
  2  3  1  0  0  0
  2 25  1  0  0  0
  2 85  1  0  0  0
  2 86  1  0  0  0
  3  4  1  0  0  0
  3 87  1  0  0  0
  3 88  1  0  0  0
  4  5  1  0  0  0
  4 89  1  0  0  0
  4 90  1  0  0  0
  5  6  1  0  0  0
  5 26  1  0  0  0
  5 91  1  0  0  0
  6 25  1  0  0  0
  6 92  1  0  0  0
  6 93  1  0  0  0
  7  8  2  0  0  0
  7 26  1  0  0  0
  7 29  1  0  0  0
  8  9  1  0  0  0
  8 22  1  0  0  0
  9 10  1  0  0  0
  9 27  2  0  0  0
 10 11  2  0  0  0
 10 15  1  0  0  0
 11 12  1  0  0  0
 11 94  1  0  0  0
 12 13  2  0  0  0
 12 95  1  0  0  0
 13 14  1  0  0  0
 13 31  1  0  0  0
 14 15  2  0  0  0
 14 96  1  0  0  0
 15 97  1  0  0  0
 16 17  2  0  0  0
 16 21  1  0  0  0
 16 31  1  0  0  0
 17 18  1  0  0  0
 17 98  1  0  0  0
 18 19  2  0  0  0
 18 99  1  0  0  0
 19 20  1  0  0  0
 19 24  1  0  0  0
 20 21  2  0  0  0
 20100  1  0  0  0
 21 23  1  0  0  0
 22 28  1  0  0  0
 22 32  2  0  0  0
 26 27  1  0  0  0
 28101  1  0  0  0
 28102  1  0  0  0
 29103  1  0  0  0
 29104  1  0  0  0
 33 34  1  0  0  0
 33 66  1  0  0  0
 33 70  2  0  0  0
 34 36  1  0  0  0
 34 59  1  0  0  0
 34105  1  0  0  0
 35 44  2  0  0  0
 35 45  1  0  0  0
 35 68  1  0  0  0
 36 56  1  0  0  0
 36106  1  0  0  0
 37 39  1  0  0  0
 37 47  1  0  0  0
 37 66  1  0  0  0
 37107  1  0  0  0
 38 43  2  0  0  0
 38 46  1  0  0  0
 38 47  1  0  0  0
 39 64  1  0  0  0
 39 67  2  0  0  0
 40 52  1  0  0  0
 40 53  2  0  0  0
 40 58  1  0  0  0
 41108  1  0  0  0
 41109  1  0  0  0
 41110  1  0  0  0
 41 48  1  0  0  0
 42 43  1  0  0  0
 42 66  1  0  0  0
 42111  1  0  0  0
 42112  1  0  0  0
 43 44  1  0  0  0
 44113  1  0  0  0
 45 46  2  0  0  0
 45114  1  0  0  0
 46115  1  0  0  0
 47116  1  0  0  0
 47117  1  0  0  0
 48 56  1  0  0  0
 48 65  1  0  0  0
 48118  1  0  0  0
 49 50  1  0  0  0
 49 53  1  0  0  0
 49 64  1  0  0  0
 49119  1  0  0  0
 50 51  1  0  0  0
 50120  1  0  0  0
 50121  1  0  0  0
 51 52  1  0  0  0
 51122  1  0  0  0
 51123  1  0  0  0
 52124  1  0  0  0
 52125  1  0  0  0
 53 54  1  0  0  0
 54 55  2  0  0  0
 54126  1  0  0  0
 55 57  1  0  0  0
 55127  1  0  0  0
 56 69  2  0  0  0
 57 58  2  0  0  0
 57128  1  0  0  0
 58129  1  0  0  0
 59 60  1  0  0  0
 59 61  1  0  0  0
 59 62  1  0  0  0
 60130  1  0  0  0
 60131  1  0  0  0
 60132  1  0  0  0
 61133  1  0  0  0
 61134  1  0  0  0
 61135  1  0  0  0
 62136  1  0  0  0
 62137  1  0  0  0
 62138  1  0  0  0
 63 65  1  0  0  0
 63139  1  0  0  0
 63140  1  0  0  0
 63141  1  0  0  0
 64142  1  0  0  0
 65143  1  0  0  0
 68 83  1  0  0  0
 71 72  2  0  0  0
 71 74  1  0  0  0
 71144  1  0  0  0
 72 76  1  0  0  0
 72145  1  0  0  0
 73 75  1  0  0  0
 73 76  2  0  0  0
 73146  1  0  0  0
 74 75  2  0  0  0
 74 78  1  0  0  0
 75 79  1  0  0  0
 76 84  1  0  0  0
 77 79  1  0  0  0
 77147  1  0  0  0
 77148  1  0  0  0
 77149  1  0  0  0
 78 80  1  0  0  0
 78150  1  0  0  0
 78151  1  0  0  0
 79152  1  0  0  0
 79153  1  0  0  0
 80 81  1  0  0  0
 80154  1  0  0  0
 80155  1  0  0  0
 81 82  1  0  0  0
 81156  1  0  0  0
 81157  1  0  0  0
 82 83  1  0  0  0
 82158  1  0  0  0
 82159  1  0  0  0
 83160  1  0  0  0
 83161  1  0  0  0
 84162  1  0  0  0
M  ISO  4   1 100  68 101  83 101  84 100
M  END
> <chiral flag>
0

> <version>
0

> <s_m_source_file>
/data/baiqing/PycharmProjects/Reinvent-master-3.2/result/LINK_invent/BTK/process_docking_weight1_custom_product_contain_oxygen_bond_distance_aromatic_linkinvent_7_9_3/rearranged_h_0131.sdf

> <i_m_source_file_index>
72

> <r_mmod_Potential_Energy-OPLS-2005>
-12.747579574585

> <r_mmod_Stretch_Energy-OPLS-2005>
39.0817680358887

> <r_mmod_Bend_Energy-OPLS-2005>
104.248268127441

> <r_mmod_Torsional_Energy-OPLS-2005>
249.775802612305

> <r_mmod_Improper_Torsional_Energy-OPLS-2005>
5.85020971298218

> <r_mmod_Van_der_Waal_Energy-OPLS-2005>
145.062637329102

> <r_mmod_Electrostatic_Energy-OPLS-2005>
-368.777648925781

> <r_mmod_Solvation_Energy-OPLS-2005>
-200.805206298828

> <b_mmod_Minimization_Converged-OPLS-2005>
0

> <r_mmod_RMS_Derivative-OPLS-2005>
1.21830809116364

$$$$
72
                    3D
 Structure written by MMmdl.
161170  0  0  1  0            999 V2000
  -30.6871  -14.5037   20.4988 C   0  0  0  0  0  0
  -30.4182  -12.2989   19.4501 C   0  0  0  0  0  0
  -29.5033  -12.4825   18.2211 C   0  0  0  0  0  0
  -28.0226  -12.3500   18.6264 C   0  0  0  0  0  0
  -27.6578  -13.2111   19.8671 C   0  0  2  0  0  0
  -28.6963  -13.0341   20.9995 C   0  0  0  0  0  0
  -25.2578  -13.8185   20.5637 C   0  0  0  0  0  0
  -24.1827  -13.0461   20.9141 C   0  0  0  0  0  0
  -24.6386  -11.6921   20.8701 C   0  0  0  0  0  0
  -23.9050  -10.4308   21.0388 C   0  0  0  0  0  0
  -24.3610   -9.4222   21.9174 C   0  0  0  0  0  0
  -23.6288   -8.2260   22.0761 C   0  0  0  0  0  0
  -22.4277   -8.0291   21.3549 C   0  0  0  0  0  0
  -21.9888   -9.0258   20.4651 C   0  0  0  0  0  0
  -22.7214  -10.2143   20.3046 C   0  0  0  0  0  0
  -21.6858   -6.0724   22.5264 C   0  0  0  0  0  0
  -21.4029   -6.5621   23.8200 C   0  0  0  0  0  0
  -21.3650   -5.6771   24.9157 C   0  0  0  0  0  0
  -21.6041   -4.3031   24.7205 C   0  0  0  0  0  0
  -21.8826   -3.8130   23.4324 C   0  0  0  0  0  0
  -21.9202   -4.6949   22.3386 C   0  0  0  0  0  0
  -22.7862  -13.5270   21.1816 C   0  0  0  0  0  0
  -22.1680   -4.2139   21.0956 F   0  0  0  0  0  0
  -21.5608   -3.4511   25.7716 F   0  0  0  0  0  0
  -30.0289  -13.3136   20.4445 N   0  0  0  0  0  0
  -26.3003  -12.9356   20.3304 N   0  0  0  0  0  0
  -25.9310  -11.6511   20.5731 N   0  0  0  0  0  0
  -22.0494  -12.8279   22.0378 N   0  0  0  0  0  0
  -25.4322  -15.1904   20.4037 N   0  0  0  0  0  0
  -31.8532  -14.6322   20.1186 O   0  0  0  0  0  0
  -21.6651   -6.8876   21.4235 O   0  0  0  0  0  0
  -22.3547  -14.5577   20.6662 O   0  0  0  0  0  0
  -24.6173  -31.8664   23.2095 C   0  0  0  0  0  0
  -25.9055  -32.4814   23.8388 C   0  0  1  0  0  0
  -27.2325  -27.4072   20.0825 C   0  0  0  0  0  0
  -25.5907  -33.8613   24.2328 N   0  0  0  0  0  0
  -23.4052  -30.4915   21.5517 C   0  0  2  0  0  0
  -24.8478  -28.9583   20.1131 C   0  0  0  0  0  0
  -22.7415  -29.4656   22.4986 C   0  0  0  0  0  0
  -18.0277  -28.1388   22.8481 C   0  0  0  0  0  0
  -24.1489  -36.7307   23.2635 C   0  0  0  0  0  0
  -25.9381  -30.8227   21.3665 C   0  0  0  0  0  0
  -26.0111  -29.4563   20.7109 C   0  0  0  0  0  0
  -27.2003  -28.6861   20.6960 C   0  0  0  0  0  0
  -26.0378  -26.9314   19.4868 C   0  0  0  0  0  0
  -24.8580  -27.6964   19.5016 C   0  0  0  0  0  0
  -23.6109  -29.8266   20.1658 C   0  0  0  0  0  0
  -25.4108  -36.3108   24.0342 C   0  0  1  0  0  0
  -20.5865  -28.3676   23.1308 C   0  0  2  0  0  0
  -20.6765  -26.9405   22.5424 C   0  0  0  0  0  0
  -19.5751  -26.6388   21.5211 C   0  0  0  0  0  0
  -18.1924  -26.7941   22.1608 C   0  0  0  0  0  0
  -19.1522  -28.8851   23.2895 C   0  0  0  0  0  0
  -18.9451  -30.1454   23.8905 C   0  0  0  0  0  0
  -17.6450  -30.6588   24.0572 C   0  0  0  0  0  0
  -25.9034  -34.9473   23.5135 C   0  0  0  0  0  0
  -16.5347  -29.9086   23.6331 C   0  0  0  0  0  0
  -16.7263  -28.6513   23.0342 C   0  0  0  0  0  0
  -26.4475  -31.6597   25.0720 C   0  0  0  0  0  0
  -25.3747  -31.3716   26.1480 C   0  0  0  0  0  0
  -27.0290  -30.3035   24.6097 C   0  0  0  0  0  0
  -27.6060  -32.4317   25.7457 C   0  0  0  0  0  0
  -27.5594  -37.1794   24.8453 C   0  0  0  0  0  0
  -21.4142  -29.3041   22.3717 N   0  0  0  0  0  0
  -26.4293  -37.3795   23.9415 N   0  0  0  0  0  0
  -24.6724  -31.0736   22.1010 N   0  0  0  0  0  0
  -23.4174  -28.8194   23.3039 O   0  0  0  0  0  0
  -28.4163  -26.6815   20.1267 O   0  0  0  0  0  0
  -26.5592  -34.8921   22.4692 O   0  0  0  0  0  0
  -23.5363  -32.1425   23.7478 O   0  0  0  0  0  0
  -30.3563  -18.1527   18.0670 C   0  0  0  0  0  0
  -29.9056  -19.3214   18.7031 C   0  0  0  0  0  0
  -30.3916  -16.9330   18.7653 C   0  0  0  0  0  0
  -29.5222  -18.0479   20.7495 C   0  0  0  0  0  0
  -29.4987  -19.2910   20.0537 C   0  0  0  0  0  0
  -29.9761  -16.8552   20.1184 C   0  0  0  0  0  0
  -29.1258  -23.0313   19.8391 C   0  0  0  0  0  0
  -29.3178  -24.3429   20.1277 C   0  0  0  0  0  0
  -30.3054  -24.7803   21.2020 C   0  0  0  0  0  0
  -31.2763  -23.6582   21.6205 C   0  0  0  0  0  0
  -30.5572  -22.3126   21.8028 C   0  0  0  0  0  0
  -29.8661  -21.8579   20.5018 C   0  0  1  0  0  0
  -28.9827  -20.5815   20.7143 C   0  0  0  0  0  0
  -28.5960  -25.4645   19.3662 C   0  0  0  0  0  0
  -29.9359  -15.5883   20.8017 N   0  0  0  0  0  0
  -31.4678  -12.3755   19.1595 H   0  0  0  0  0  0
  -30.3010  -11.2985   19.8703 H   0  0  0  0  0  0
  -29.7466  -11.7411   17.4591 H   0  0  0  0  0  0
  -29.6784  -13.4587   17.7653 H   0  0  0  0  0  0
  -27.8371  -11.2959   18.8408 H   0  0  0  0  0  0
  -27.3776  -12.6056   17.7849 H   0  0  0  0  0  0
  -27.6896  -14.2516   19.5430 H   0  0  0  0  0  0
  -28.6679  -12.0157   21.3889 H   0  0  0  0  0  0
  -28.4667  -13.6819   21.8473 H   0  0  0  0  0  0
  -25.2766   -9.5690   22.4729 H   0  0  0  0  0  0
  -23.9999   -7.4655   22.7476 H   0  0  0  0  0  0
  -21.0819   -8.8765   19.8964 H   0  0  0  0  0  0
  -22.3670  -10.9676   19.6141 H   0  0  0  0  0  0
  -21.2049   -7.6138   23.9710 H   0  0  0  0  0  0
  -21.1454   -6.0492   25.9056 H   0  0  0  0  0  0
  -22.0614   -2.7587   23.2829 H   0  0  0  0  0  0
  -22.4106  -11.9944   22.4770 H   0  0  0  0  0  0
  -21.1124  -13.1339   22.2591 H   0  0  0  0  0  0
  -24.6698  -15.8527   20.5093 H   0  0  0  0  0  0
  -26.2858  -15.6211   20.0706 H   0  0  0  0  0  0
  -26.7118  -32.5515   23.1140 H   0  0  0  0  0  0
  -25.0080  -33.9771   25.0492 H   0  0  0  0  0  0
  -22.6958  -31.3108   21.4148 H   0  0  0  0  0  0
  -23.3754  -35.9637   23.3287 H   0  0  0  0  0  0
  -24.3590  -36.8927   22.2052 H   0  0  0  0  0  0
  -23.7229  -37.6504   23.6653 H   0  0  0  0  0  0
  -26.0546  -31.5892   20.5993 H   0  0  0  0  0  0
  -26.8264  -30.8739   21.9851 H   0  0  0  0  0  0
  -28.0985  -29.0676   21.1612 H   0  0  0  0  0  0
  -25.9555  -25.9680   19.0130 H   0  0  0  0  0  0
  -23.9609  -27.3037   19.0415 H   0  0  0  0  0  0
  -23.7149  -30.6030   19.4069 H   0  0  0  0  0  0
  -22.7330  -29.2475   19.8717 H   0  0  0  0  0  0
  -25.1275  -36.1978   25.0833 H   0  0  0  0  0  0
  -20.9956  -28.3259   24.1430 H   0  0  0  0  0  0
  -20.5659  -26.2282   23.3611 H   0  0  0  0  0  0
  -21.6641  -26.7443   22.1230 H   0  0  0  0  0  0
  -19.6912  -25.6303   21.1230 H   0  0  0  0  0  0
  -19.6706  -27.3202   20.6749 H   0  0  0  0  0  0
  -17.4199  -26.6705   21.3999 H   0  0  0  0  0  0
  -18.0304  -26.0081   22.8992 H   0  0  0  0  0  0
  -19.7922  -30.7280   24.2270 H   0  0  0  0  0  0
  -17.5000  -31.6262   24.5181 H   0  0  0  0  0  0
  -15.5345  -30.2990   23.7659 H   0  0  0  0  0  0
  -15.8663  -28.0845   22.7038 H   0  0  0  0  0  0
  -24.5917  -30.7055   25.7832 H   0  0  0  0  0  0
  -24.8949  -32.2882   26.4925 H   0  0  0  0  0  0
  -25.8121  -30.8893   27.0235 H   0  0  0  0  0  0
  -26.2822  -29.6794   24.1175 H   0  0  0  0  0  0
  -27.4076  -29.7272   25.4547 H   0  0  0  0  0  0
  -27.8655  -30.4341   23.9228 H   0  0  0  0  0  0
  -27.2689  -33.3603   26.2076 H   0  0  0  0  0  0
  -28.3832  -32.6906   25.0251 H   0  0  0  0  0  0
  -28.0771  -31.8420   26.5331 H   0  0  0  0  0  0
  -28.2596  -38.0110   24.7537 H   0  0  0  0  0  0
  -28.1109  -36.2646   24.6225 H   0  0  0  0  0  0
  -27.2323  -37.1372   25.8857 H   0  0  0  0  0  0
  -20.9301  -29.8765   21.6942 H   0  0  0  0  0  0
  -26.0184  -38.2867   24.1447 H   0  0  0  0  0  0
  -30.6639  -18.1873   17.0313 H   0  0  0  0  0  0
  -29.8656  -20.2430   18.1383 H   0  0  0  0  0  0
  -30.7199  -16.0543   18.2287 H   0  0  0  0  0  0
  -29.1787  -18.0137   21.7741 H   0  0  0  0  0  0
  -28.4404  -22.7673   19.0454 H   0  0  0  0  0  0
  -29.7324  -25.1222   22.0646 H   0  0  0  0  0  0
  -30.8752  -25.6402   20.8474 H   0  0  0  0  0  0
  -31.7921  -23.9400   22.5393 H   0  0  0  0  0  0
  -32.0510  -23.5487   20.8595 H   0  0  0  0  0  0
  -29.8247  -22.4033   22.6058 H   0  0  0  0  0  0
  -31.2713  -21.5510   22.1213 H   0  0  0  0  0  0
  -30.6637  -21.6169   19.7991 H   0  0  0  0  0  0
  -28.8387  -20.3992   21.7805 H   0  0  0  0  0  0
  -27.9797  -20.7573   20.3243 H   0  0  0  0  0  0
  -27.7027  -25.0327   18.9297 H   0  0  0  0  0  0
  -29.2307  -25.7306   18.5203 H   0  0  0  0  0  0
  -29.0972  -15.4031   21.3312 H   0  0  0  0  0  0
  1 25  1  0  0  0
  1 30  2  0  0  0
  1 85  1  0  0  0
  2  3  1  0  0  0
  2 25  1  0  0  0
  2 86  1  0  0  0
  2 87  1  0  0  0
  3  4  1  0  0  0
  3 88  1  0  0  0
  3 89  1  0  0  0
  4  5  1  0  0  0
  4 90  1  0  0  0
  4 91  1  0  0  0
  5  6  1  0  0  0
  5 26  1  0  0  0
  5 92  1  0  0  0
  6 25  1  0  0  0
  6 93  1  0  0  0
  6 94  1  0  0  0
  7  8  2  0  0  0
  7 26  1  0  0  0
  7 29  1  0  0  0
  8  9  1  0  0  0
  8 22  1  0  0  0
  9 10  1  0  0  0
  9 27  2  0  0  0
 10 11  2  0  0  0
 10 15  1  0  0  0
 11 12  1  0  0  0
 11 95  1  0  0  0
 12 13  2  0  0  0
 12 96  1  0  0  0
 13 14  1  0  0  0
 13 31  1  0  0  0
 14 15  2  0  0  0
 14 97  1  0  0  0
 15 98  1  0  0  0
 16 17  2  0  0  0
 16 21  1  0  0  0
 16 31  1  0  0  0
 17 18  1  0  0  0
 17 99  1  0  0  0
 18 19  2  0  0  0
 18100  1  0  0  0
 19 20  1  0  0  0
 19 24  1  0  0  0
 20 21  2  0  0  0
 20101  1  0  0  0
 21 23  1  0  0  0
 22 28  1  0  0  0
 22 32  2  0  0  0
 26 27  1  0  0  0
 28102  1  0  0  0
 28103  1  0  0  0
 29104  1  0  0  0
 29105  1  0  0  0
 33 34  1  0  0  0
 33 66  1  0  0  0
 33 70  2  0  0  0
 34 36  1  0  0  0
 34 59  1  0  0  0
 34106  1  0  0  0
 35 44  2  0  0  0
 35 45  1  0  0  0
 35 68  1  0  0  0
 36 56  1  0  0  0
 36107  1  0  0  0
 37 39  1  0  0  0
 37 47  1  0  0  0
 37 66  1  0  0  0
 37108  1  0  0  0
 38 43  2  0  0  0
 38 46  1  0  0  0
 38 47  1  0  0  0
 39 64  1  0  0  0
 39 67  2  0  0  0
 40 52  1  0  0  0
 40 53  2  0  0  0
 40 58  1  0  0  0
 41109  1  0  0  0
 41110  1  0  0  0
 41111  1  0  0  0
 41 48  1  0  0  0
 42 43  1  0  0  0
 42 66  1  0  0  0
 42112  1  0  0  0
 42113  1  0  0  0
 43 44  1  0  0  0
 44114  1  0  0  0
 45 46  2  0  0  0
 45115  1  0  0  0
 46116  1  0  0  0
 47117  1  0  0  0
 47118  1  0  0  0
 48 56  1  0  0  0
 48 65  1  0  0  0
 48119  1  0  0  0
 49 50  1  0  0  0
 49 53  1  0  0  0
 49 64  1  0  0  0
 49120  1  0  0  0
 50 51  1  0  0  0
 50121  1  0  0  0
 50122  1  0  0  0
 51 52  1  0  0  0
 51123  1  0  0  0
 51124  1  0  0  0
 52125  1  0  0  0
 52126  1  0  0  0
 53 54  1  0  0  0
 54 55  2  0  0  0
 54127  1  0  0  0
 55 57  1  0  0  0
 55128  1  0  0  0
 56 69  2  0  0  0
 57 58  2  0  0  0
 57129  1  0  0  0
 58130  1  0  0  0
 59 60  1  0  0  0
 59 61  1  0  0  0
 59 62  1  0  0  0
 60131  1  0  0  0
 60132  1  0  0  0
 60133  1  0  0  0
 61134  1  0  0  0
 61135  1  0  0  0
 61136  1  0  0  0
 62137  1  0  0  0
 62138  1  0  0  0
 62139  1  0  0  0
 63 65  1  0  0  0
 63140  1  0  0  0
 63141  1  0  0  0
 63142  1  0  0  0
 64143  1  0  0  0
 65144  1  0  0  0
 68 84  1  0  0  0
 71 72  2  0  0  0
 71 73  1  0  0  0
 71145  1  0  0  0
 72 75  1  0  0  0
 72146  1  0  0  0
 73 76  2  0  0  0
 73147  1  0  0  0
 74 75  2  0  0  0
 74 76  1  0  0  0
 74148  1  0  0  0
 75 83  1  0  0  0
 76 85  1  0  0  0
 77 78  2  0  0  0
 77 82  1  0  0  0
 77149  1  0  0  0
 78 79  1  0  0  0
 78 84  1  0  0  0
 79 80  1  0  0  0
 79150  1  0  0  0
 79151  1  0  0  0
 80 81  1  0  0  0
 80152  1  0  0  0
 80153  1  0  0  0
 81 82  1  0  0  0
 81154  1  0  0  0
 81155  1  0  0  0
 82 83  1  0  0  0
 82156  1  0  0  0
 83157  1  0  0  0
 83158  1  0  0  0
 84159  1  0  0  0
 84160  1  0  0  0
 85161  1  0  0  0
M  ISO  4   1 100  68 101  84 101  85 100
M  END
> <chiral flag>
0

> <version>
0

> <s_m_source_file>
/data/baiqing/PycharmProjects/Reinvent-master-3.2/result/LINK_invent/BTK/process_docking_weight1_custom_product_contain_oxygen_bond_distance_aromatic_linkinvent_7_9_3/rearranged_h_0131.sdf

> <i_m_source_file_index>
73

> <r_mmod_Potential_Energy-OPLS-2005>
27.8287754058838

> <r_mmod_Stretch_Energy-OPLS-2005>
44.9477920532227

> <r_mmod_Bend_Energy-OPLS-2005>
108.299057006836

> <r_mmod_Torsional_Energy-OPLS-2005>
232.22412109375

> <r_mmod_Improper_Torsional_Energy-OPLS-2005>
5.88471794128418

> <r_mmod_Van_der_Waal_Energy-OPLS-2005>
163.008270263672

> <r_mmod_Electrostatic_Energy-OPLS-2005>
-345.501739501953

> <r_mmod_Solvation_Energy-OPLS-2005>
-201.009887695312

> <b_mmod_Minimization_Converged-OPLS-2005>
0

> <r_mmod_RMS_Derivative-OPLS-2005>
1.90299570560455

$$$$
73
                    3D
 Structure written by MMmdl.
158166  0  0  1  0            999 V2000
  -30.7622  -14.4136   20.5303 C   0  0  0  0  0  0
  -30.4024  -12.2585   19.4221 C   0  0  0  0  0  0
  -29.4930  -12.5173   18.2039 C   0  0  0  0  0  0
  -28.0046  -12.4129   18.6028 C   0  0  0  0  0  0
  -27.6650  -13.2236   19.8835 C   0  0  2  0  0  0
  -28.7116  -13.0027   20.9979 C   0  0  0  0  0  0
  -25.2598  -13.8198   20.5721 C   0  0  0  0  0  0
  -24.1859  -13.0462   20.9177 C   0  0  0  0  0  0
  -24.6450  -11.6922   20.8766 C   0  0  0  0  0  0
  -23.9133  -10.4294   21.0419 C   0  0  0  0  0  0
  -24.3669   -9.4194   21.9186 C   0  0  0  0  0  0
  -23.6327   -8.2247   22.0772 C   0  0  0  0  0  0
  -22.4296   -8.0322   21.3583 C   0  0  0  0  0  0
  -21.9947   -9.0288   20.4665 C   0  0  0  0  0  0
  -22.7309  -10.2145   20.3059 C   0  0  0  0  0  0
  -21.6849   -6.0766   22.5264 C   0  0  0  0  0  0
  -21.4026   -6.5675   23.8198 C   0  0  0  0  0  0
  -21.3645   -5.6842   24.9158 C   0  0  0  0  0  0
  -21.6033   -4.3107   24.7220 C   0  0  0  0  0  0
  -21.8813   -3.8177   23.4360 C   0  0  0  0  0  0
  -21.9193   -4.6993   22.3414 C   0  0  0  0  0  0
  -22.7875  -13.5230   21.1819 C   0  0  0  0  0  0
  -22.1651   -4.2177   21.0996 F   0  0  0  0  0  0
  -21.5635   -3.4593   25.7742 F   0  0  0  0  0  0
  -30.0474  -13.2579   20.4437 N   0  0  0  0  0  0
  -26.3080  -12.9386   20.3465 N   0  0  0  0  0  0
  -25.9389  -11.6525   20.5835 N   0  0  0  0  0  0
  -22.0533  -12.8207   22.0381 N   0  0  0  0  0  0
  -25.4311  -15.1893   20.4083 N   0  0  0  0  0  0
  -31.9264  -14.4868   20.1272 O   0  0  0  0  0  0
  -21.6677   -6.8907   21.4231 O   0  0  0  0  0  0
  -22.3552  -14.5527   20.6676 O   0  0  0  0  0  0
  -24.6108  -31.8719   23.2118 C   0  0  0  0  0  0
  -25.9020  -32.4843   23.8418 C   0  0  1  0  0  0
  -27.2312  -27.4580   20.1377 C   0  0  0  0  0  0
  -25.5876  -33.8634   24.2343 N   0  0  0  0  0  0
  -23.3977  -30.4978   21.5458 C   0  0  2  0  0  0
  -24.8500  -28.9710   20.1126 C   0  0  0  0  0  0
  -22.7387  -29.4686   22.4931 C   0  0  0  0  0  0
  -18.0286  -28.1363   22.8517 C   0  0  0  0  0  0
  -24.1478  -36.7299   23.2633 C   0  0  0  0  0  0
  -25.9229  -30.8524   21.3600 C   0  0  0  0  0  0
  -26.0064  -29.4892   20.7095 C   0  0  0  0  0  0
  -27.2022  -28.7395   20.7215 C   0  0  0  0  0  0
  -26.0690  -26.9638   19.4999 C   0  0  0  0  0  0
  -24.8751  -27.7043   19.5050 C   0  0  0  0  0  0
  -23.6087  -29.8303   20.1596 C   0  0  0  0  0  0
  -25.4087  -36.3105   24.0336 C   0  0  1  0  0  0
  -20.5884  -28.3637   23.1337 C   0  0  2  0  0  0
  -20.6764  -26.9367   22.5438 C   0  0  0  0  0  0
  -19.5729  -26.6358   21.5244 C   0  0  0  0  0  0
  -18.1913  -26.7917   22.1644 C   0  0  0  0  0  0
  -19.1543  -28.8810   23.2941 C   0  0  0  0  0  0
  -18.9466  -30.1429   23.8928 C   0  0  0  0  0  0
  -17.6465  -30.6573   24.0561 C   0  0  0  0  0  0
  -25.9014  -34.9479   23.5130 C   0  0  0  0  0  0
  -16.5352  -29.9068   23.6343 C   0  0  0  0  0  0
  -16.7270  -28.6495   23.0346 C   0  0  0  0  0  0
  -26.4467  -31.6601   25.0720 C   0  0  0  0  0  0
  -25.3735  -31.3748   26.1477 C   0  0  0  0  0  0
  -27.0266  -30.3033   24.6091 C   0  0  0  0  0  0
  -27.6095  -32.4256   25.7460 C   0  0  0  0  0  0
  -27.5573  -37.1796   24.8452 C   0  0  0  0  0  0
  -21.4110  -29.3026   22.3707 N   0  0  0  0  0  0
  -26.4270  -37.3790   23.9415 N   0  0  0  0  0  0
  -24.6608  -31.0866   22.0987 N   0  0  0  0  0  0
  -23.4193  -28.8215   23.2938 O   0  0  0  0  0  0
  -28.3474  -26.6668   20.2775 O   0  0  0  0  0  0
  -26.5584  -34.8937   22.4701 O   0  0  0  0  0  0
  -23.5309  -32.1447   23.7539 O   0  0  0  0  0  0
  -29.6375  -18.7392   18.9166 C   0  0  0  0  0  0
  -29.5302  -18.7621   21.3543 C   0  0  0  0  0  0
  -28.9527  -20.7616   20.0631 C   0  0  0  0  0  0
  -29.7822  -18.0692   20.1479 C   0  0  0  0  0  0
  -29.2228  -20.0784   18.8666 C   0  0  0  0  0  0
  -29.1798  -20.1356   21.3148 C   0  0  0  0  0  0
  -30.2560  -16.6841   20.0721 C   0  0  0  0  0  0
  -30.0379  -15.6280   20.8847 C   0  0  0  0  0  0
  -28.5905  -23.4187   22.2525 C   0  0  0  0  0  0
  -29.4941  -22.4267   22.3273 C   0  0  0  0  0  0
  -28.9396  -24.7738   21.7988 C   0  0  0  0  0  0
  -29.1381  -20.8030   17.5376 C   0  0  0  0  0  0
  -29.1360  -20.9701   22.5917 C   0  0  0  0  0  0
  -27.9958  -25.3480   20.7353 C   0  0  0  0  0  0
  -29.9165  -25.4104   22.2121 O   0  0  0  0  0  0
  -31.4514  -12.2989   19.1212 H   0  0  0  0  0  0
  -30.2515  -11.2482   19.8024 H   0  0  0  0  0  0
  -29.7242  -11.8114   17.4035 H   0  0  0  0  0  0
  -29.6940  -13.5106   17.8003 H   0  0  0  0  0  0
  -27.7600  -11.3598   18.7402 H   0  0  0  0  0  0
  -27.3775  -12.7639   17.7806 H   0  0  0  0  0  0
  -27.7048  -14.2773   19.6065 H   0  0  0  0  0  0
  -28.6689  -11.9738   21.3552 H   0  0  0  0  0  0
  -28.5082  -13.6264   21.8682 H   0  0  0  0  0  0
  -25.2800   -9.5691   22.4794 H   0  0  0  0  0  0
  -24.0028   -7.4658   22.7511 H   0  0  0  0  0  0
  -21.0875   -8.8811   19.8980 H   0  0  0  0  0  0
  -22.3746  -10.9714   19.6217 H   0  0  0  0  0  0
  -21.2011   -7.6194   23.9700 H   0  0  0  0  0  0
  -21.1482   -6.0589   25.9059 H   0  0  0  0  0  0
  -22.0611   -2.7658   23.2839 H   0  0  0  0  0  0
  -22.4188  -11.9844   22.4710 H   0  0  0  0  0  0
  -21.1149  -13.1199   22.2627 H   0  0  0  0  0  0
  -24.6704  -15.8501   20.5122 H   0  0  0  0  0  0
  -26.3021  -15.6248   20.1252 H   0  0  0  0  0  0
  -26.7094  -32.5582   23.1193 H   0  0  0  0  0  0
  -25.0016  -33.9812   25.0486 H   0  0  0  0  0  0
  -22.6874  -31.3141   21.4066 H   0  0  0  0  0  0
  -23.3768  -35.9601   23.3230 H   0  0  0  0  0  0
  -24.3613  -36.8981   22.2067 H   0  0  0  0  0  0
  -23.7203  -37.6461   23.6712 H   0  0  0  0  0  0
  -26.0266  -31.6216   20.5933 H   0  0  0  0  0  0
  -26.8122  -30.9139   21.9740 H   0  0  0  0  0  0
  -28.0801  -29.1161   21.2278 H   0  0  0  0  0  0
  -26.0716  -25.9880   19.0365 H   0  0  0  0  0  0
  -23.9834  -27.2913   19.0553 H   0  0  0  0  0  0
  -23.7214  -30.6044   19.4010 H   0  0  0  0  0  0
  -22.7371  -29.2472   19.8575 H   0  0  0  0  0  0
  -25.1279  -36.1940   25.0831 H   0  0  0  0  0  0
  -21.0027  -28.3189   24.1432 H   0  0  0  0  0  0
  -20.5664  -26.2231   23.3612 H   0  0  0  0  0  0
  -21.6626  -26.7391   22.1215 H   0  0  0  0  0  0
  -19.6861  -25.6278   21.1238 H   0  0  0  0  0  0
  -19.6670  -27.3199   20.6804 H   0  0  0  0  0  0
  -17.4187  -26.6708   21.4034 H   0  0  0  0  0  0
  -18.0269  -26.0056   22.9032 H   0  0  0  0  0  0
  -19.7943  -30.7266   24.2254 H   0  0  0  0  0  0
  -17.5017  -31.6277   24.5117 H   0  0  0  0  0  0
  -15.5353  -30.2958   23.7674 H   0  0  0  0  0  0
  -15.8673  -28.0827   22.7020 H   0  0  0  0  0  0
  -24.5806  -30.7241   25.7764 H   0  0  0  0  0  0
  -24.9079  -32.2954   26.5020 H   0  0  0  0  0  0
  -25.8048  -30.8770   27.0177 H   0  0  0  0  0  0
  -26.2798  -29.6785   24.1177 H   0  0  0  0  0  0
  -27.4058  -29.7290   25.4559 H   0  0  0  0  0  0
  -27.8638  -30.4320   23.9219 H   0  0  0  0  0  0
  -27.2841  -33.3656   26.1931 H   0  0  0  0  0  0
  -28.3995  -32.6599   25.0305 H   0  0  0  0  0  0
  -28.0638  -31.8385   26.5457 H   0  0  0  0  0  0
  -28.2552  -38.0132   24.7550 H   0  0  0  0  0  0
  -28.1119  -36.2676   24.6199 H   0  0  0  0  0  0
  -27.2331  -37.1320   25.8865 H   0  0  0  0  0  0
  -20.9185  -29.8792   21.7016 H   0  0  0  0  0  0
  -26.0146  -38.2852   24.1468 H   0  0  0  0  0  0
  -29.8705  -18.2196   17.9954 H   0  0  0  0  0  0
  -29.6862  -18.2695   22.3071 H   0  0  0  0  0  0
  -28.6366  -21.7936   20.0077 H   0  0  0  0  0  0
  -30.9097  -16.5312   19.2205 H   0  0  0  0  0  0
  -29.3911  -15.6858   21.7500 H   0  0  0  0  0  0
  -27.5508  -23.2216   22.4741 H   0  0  0  0  0  0
  -30.5372  -22.6278   22.1145 H   0  0  0  0  0  0
  -28.6163  -20.2112   16.7855 H   0  0  0  0  0  0
  -30.1446  -20.9988   17.1686 H   0  0  0  0  0  0
  -28.6252  -21.7610   17.6365 H   0  0  0  0  0  0
  -29.8522  -20.5735   23.3136 H   0  0  0  0  0  0
  -28.1460  -20.8910   23.0402 H   0  0  0  0  0  0
  -27.0052  -25.3450   21.1969 H   0  0  0  0  0  0
  -27.9513  -24.6644   19.8865 H   0  0  0  0  0  0
  1 25  1  0  0  0
  1 30  2  0  0  0
  1 78  1  0  0  0
  2  3  1  0  0  0
  2 25  1  0  0  0
  2 86  1  0  0  0
  2 87  1  0  0  0
  3  4  1  0  0  0
  3 88  1  0  0  0
  3 89  1  0  0  0
  4  5  1  0  0  0
  4 90  1  0  0  0
  4 91  1  0  0  0
  5  6  1  0  0  0
  5 26  1  0  0  0
  5 92  1  0  0  0
  6 25  1  0  0  0
  6 93  1  0  0  0
  6 94  1  0  0  0
  7  8  2  0  0  0
  7 26  1  0  0  0
  7 29  1  0  0  0
  8  9  1  0  0  0
  8 22  1  0  0  0
  9 10  1  0  0  0
  9 27  2  0  0  0
 10 11  2  0  0  0
 10 15  1  0  0  0
 11 12  1  0  0  0
 11 95  1  0  0  0
 12 13  2  0  0  0
 12 96  1  0  0  0
 13 14  1  0  0  0
 13 31  1  0  0  0
 14 15  2  0  0  0
 14 97  1  0  0  0
 15 98  1  0  0  0
 16 17  2  0  0  0
 16 21  1  0  0  0
 16 31  1  0  0  0
 17 18  1  0  0  0
 17 99  1  0  0  0
 18 19  2  0  0  0
 18100  1  0  0  0
 19 20  1  0  0  0
 19 24  1  0  0  0
 20 21  2  0  0  0
 20101  1  0  0  0
 21 23  1  0  0  0
 22 28  1  0  0  0
 22 32  2  0  0  0
 26 27  1  0  0  0
 28102  1  0  0  0
 28103  1  0  0  0
 29104  1  0  0  0
 29105  1  0  0  0
 33 34  1  0  0  0
 33 66  1  0  0  0
 33 70  2  0  0  0
 34 36  1  0  0  0
 34 59  1  0  0  0
 34106  1  0  0  0
 35 44  2  0  0  0
 35 45  1  0  0  0
 35 68  1  0  0  0
 36 56  1  0  0  0
 36107  1  0  0  0
 37 39  1  0  0  0
 37 47  1  0  0  0
 37 66  1  0  0  0
 37108  1  0  0  0
 38 43  2  0  0  0
 38 46  1  0  0  0
 38 47  1  0  0  0
 39 64  1  0  0  0
 39 67  2  0  0  0
 40 52  1  0  0  0
 40 53  2  0  0  0
 40 58  1  0  0  0
 41109  1  0  0  0
 41110  1  0  0  0
 41111  1  0  0  0
 41 48  1  0  0  0
 42 43  1  0  0  0
 42 66  1  0  0  0
 42112  1  0  0  0
 42113  1  0  0  0
 43 44  1  0  0  0
 44114  1  0  0  0
 45 46  2  0  0  0
 45115  1  0  0  0
 46116  1  0  0  0
 47117  1  0  0  0
 47118  1  0  0  0
 48 56  1  0  0  0
 48 65  1  0  0  0
 48119  1  0  0  0
 49 50  1  0  0  0
 49 53  1  0  0  0
 49 64  1  0  0  0
 49120  1  0  0  0
 50 51  1  0  0  0
 50121  1  0  0  0
 50122  1  0  0  0
 51 52  1  0  0  0
 51123  1  0  0  0
 51124  1  0  0  0
 52125  1  0  0  0
 52126  1  0  0  0
 53 54  1  0  0  0
 54 55  2  0  0  0
 54127  1  0  0  0
 55 57  1  0  0  0
 55128  1  0  0  0
 56 69  2  0  0  0
 57 58  2  0  0  0
 57129  1  0  0  0
 58130  1  0  0  0
 59 60  1  0  0  0
 59 61  1  0  0  0
 59 62  1  0  0  0
 60131  1  0  0  0
 60132  1  0  0  0
 60133  1  0  0  0
 61134  1  0  0  0
 61135  1  0  0  0
 61136  1  0  0  0
 62137  1  0  0  0
 62138  1  0  0  0
 62139  1  0  0  0
 63 65  1  0  0  0
 63140  1  0  0  0
 63141  1  0  0  0
 63142  1  0  0  0
 64143  1  0  0  0
 65144  1  0  0  0
 68 84  1  0  0  0
 71 74  2  0  0  0
 71 75  1  0  0  0
 71145  1  0  0  0
 72 74  1  0  0  0
 72 76  2  0  0  0
 72146  1  0  0  0
 73 75  2  0  0  0
 73 76  1  0  0  0
 73147  1  0  0  0
 74 77  1  0  0  0
 75 82  1  0  0  0
 76 83  1  0  0  0
 77 78  2  0  0  0
 77148  1  0  0  0
 78149  1  0  0  0
 79 80  2  0  0  0
 79 81  1  0  0  0
 79150  1  0  0  0
 80 83  1  0  0  0
 80151  1  0  0  0
 81 84  1  0  0  0
 81 85  2  0  0  0
 82152  1  0  0  0
 82153  1  0  0  0
 82154  1  0  0  0
 83155  1  0  0  0
 83156  1  0  0  0
 84157  1  0  0  0
 84158  1  0  0  0
M  ISO  4   1 100  68 101  78 100  84 101
M  END
> <chiral flag>
0

> <version>
0

> <s_m_source_file>
/data/baiqing/PycharmProjects/Reinvent-master-3.2/result/LINK_invent/BTK/process_docking_weight1_custom_product_contain_oxygen_bond_distance_aromatic_linkinvent_7_9_3/rearranged_h_0131.sdf

> <i_m_source_file_index>
74

> <r_mmod_Potential_Energy-OPLS-2005>
37.6890258789062

> <r_mmod_Stretch_Energy-OPLS-2005>
33.8145904541016

> <r_mmod_Bend_Energy-OPLS-2005>
101.65209197998

> <r_mmod_Torsional_Energy-OPLS-2005>
240.137649536133

> <r_mmod_Improper_Torsional_Energy-OPLS-2005>
7.45595407485962

> <r_mmod_Van_der_Waal_Energy-OPLS-2005>
163.557815551758

> <r_mmod_Electrostatic_Energy-OPLS-2005>
-319.283508300781

> <r_mmod_Solvation_Energy-OPLS-2005>
-212.190933227539

> <b_mmod_Minimization_Converged-OPLS-2005>
0

> <r_mmod_RMS_Derivative-OPLS-2005>
5.13198900222778

$$$$
74
                    3D
 Structure written by MMmdl.
163171  0  0  1  0            999 V2000
  -30.6575  -14.5133   20.5752 C   0  0  0  0  0  0
  -30.4284  -12.3248   19.4347 C   0  0  0  0  0  0
  -29.5003  -12.5101   18.2144 C   0  0  0  0  0  0
  -28.0195  -12.3593   18.6226 C   0  0  0  0  0  0
  -27.6568  -13.2037   19.8732 C   0  0  2  0  0  0
  -28.6962  -13.0021   20.9969 C   0  0  0  0  0  0
  -25.2569  -13.8159   20.5673 C   0  0  0  0  0  0
  -24.1829  -13.0443   20.9204 C   0  0  0  0  0  0
  -24.6380  -11.6904   20.8730 C   0  0  0  0  0  0
  -23.9047  -10.4292   21.0408 C   0  0  0  0  0  0
  -24.3603   -9.4209   21.9182 C   0  0  0  0  0  0
  -23.6283   -8.2240   22.0746 C   0  0  0  0  0  0
  -22.4265   -8.0282   21.3543 C   0  0  0  0  0  0
  -21.9906   -9.0248   20.4639 C   0  0  0  0  0  0
  -22.7223  -10.2138   20.3054 C   0  0  0  0  0  0
  -21.6854   -6.0731   22.5262 C   0  0  0  0  0  0
  -21.4017   -6.5632   23.8190 C   0  0  0  0  0  0
  -21.3662   -5.6783   24.9147 C   0  0  0  0  0  0
  -21.6055   -4.3047   24.7195 C   0  0  0  0  0  0
  -21.8826   -3.8147   23.4313 C   0  0  0  0  0  0
  -21.9190   -4.6966   22.3381 C   0  0  0  0  0  0
  -22.7856  -13.5241   21.1881 C   0  0  0  0  0  0
  -22.1666   -4.2158   21.0959 F   0  0  0  0  0  0
  -21.5635   -3.4537   25.7708 F   0  0  0  0  0  0
  -30.0248  -13.3118   20.4502 N   0  0  0  0  0  0
  -26.2989  -12.9310   20.3350 N   0  0  0  0  0  0
  -25.9303  -11.6483   20.5765 N   0  0  0  0  0  0
  -22.0490  -12.8206   22.0416 N   0  0  0  0  0  0
  -25.4372  -15.1861   20.4078 N   0  0  0  0  0  0
  -31.8024  -14.6841   20.1371 O   0  0  0  0  0  0
  -21.6645   -6.8878   21.4222 O   0  0  0  0  0  0
  -22.3545  -14.5557   20.6746 O   0  0  0  0  0  0
  -24.6184  -31.8686   23.2123 C   0  0  0  0  0  0
  -25.9042  -32.4805   23.8402 C   0  0  1  0  0  0
  -27.2216  -27.3944   20.1042 C   0  0  0  0  0  0
  -25.5902  -33.8616   24.2314 N   0  0  0  0  0  0
  -23.4078  -30.4948   21.5493 C   0  0  2  0  0  0
  -24.8544  -28.9646   20.1074 C   0  0  0  0  0  0
  -22.7444  -29.4650   22.4953 C   0  0  0  0  0  0
  -18.0299  -28.1333   22.8494 C   0  0  0  0  0  0
  -24.1516  -36.7317   23.2638 C   0  0  0  0  0  0
  -25.9454  -30.8210   21.3737 C   0  0  0  0  0  0
  -26.0198  -29.4563   20.7119 C   0  0  0  0  0  0
  -27.2046  -28.6772   20.7081 C   0  0  0  0  0  0
  -26.0363  -26.9413   19.4754 C   0  0  0  0  0  0
  -24.8600  -27.7102   19.4806 C   0  0  0  0  0  0
  -23.6196  -29.8371   20.1612 C   0  0  0  0  0  0
  -25.4134  -36.3118   24.0341 C   0  0  1  0  0  0
  -20.5908  -28.3628   23.1303 C   0  0  2  0  0  0
  -20.6813  -26.9357   22.5413 C   0  0  0  0  0  0
  -19.5779  -26.6356   21.5227 C   0  0  0  0  0  0
  -18.1943  -26.7882   22.1609 C   0  0  0  0  0  0
  -19.1548  -28.8794   23.2890 C   0  0  0  0  0  0
  -18.9466  -30.1409   23.8891 C   0  0  0  0  0  0
  -17.6464  -30.6540   24.0539 C   0  0  0  0  0  0
  -25.9057  -34.9477   23.5130 C   0  0  0  0  0  0
  -16.5351  -29.9048   23.6313 C   0  0  0  0  0  0
  -16.7287  -28.6465   23.0339 C   0  0  0  0  0  0
  -26.4466  -31.6603   25.0730 C   0  0  0  0  0  0
  -25.3738  -31.3702   26.1474 C   0  0  0  0  0  0
  -27.0308  -30.3071   24.6079 C   0  0  0  0  0  0
  -27.6043  -32.4324   25.7486 C   0  0  0  0  0  0
  -27.5590  -37.1815   24.8453 C   0  0  0  0  0  0
  -21.4166  -29.3020   22.3705 N   0  0  0  0  0  0
  -26.4318  -37.3796   23.9393 N   0  0  0  0  0  0
  -24.6747  -31.0765   22.1024 N   0  0  0  0  0  0
  -23.4241  -28.8158   23.2947 O   0  0  0  0  0  0
  -28.3573  -26.5987   20.1544 O   0  0  0  0  0  0
  -26.5612  -34.8923   22.4683 O   0  0  0  0  0  0
  -23.5367  -32.1407   23.7517 O   0  0  0  0  0  0
  -29.8186  -19.3139   23.8572 C   0  0  0  0  0  0
  -30.3065  -19.3310   21.1131 C   0  0  0  0  0  0
  -29.8245  -20.5505   23.1774 C   0  0  0  0  0  0
  -30.0749  -18.0909   23.1982 C   0  0  0  0  0  0
  -30.0915  -20.5716   21.7824 C   0  0  0  0  0  0
  -30.3029  -18.0812   21.7961 C   0  0  0  0  0  0
  -29.3266  -24.2897   20.4776 C   0  0  0  0  0  0
  -30.1966  -16.8483   24.0650 C   0  0  0  0  0  0
  -28.3639  -21.8512   24.8461 C   0  0  0  0  0  0
  -29.6508  -21.8242   24.0083 C   0  0  0  0  0  0
  -30.3187  -21.9066   21.0369 C   0  0  0  0  0  0
  -29.0607  -22.7790   20.7338 C   0  0  0  0  0  0
  -28.1076  -25.1673   20.1099 C   0  0  0  0  0  0
  -29.8743  -15.7501   21.1178 C   0  0  0  0  0  0
  -30.4609  -24.7714   20.5530 O   0  0  0  0  0  0
  -30.6893  -16.9449   21.0907 O   0  0  0  0  0  0
  -31.4727  -12.4336   19.1368 H   0  0  0  0  0  0
  -30.3367  -11.3135   19.8356 H   0  0  0  0  0  0
  -29.7460  -11.7833   17.4388 H   0  0  0  0  0  0
  -29.6642  -13.4960   17.7712 H   0  0  0  0  0  0
  -27.8336  -11.3024   18.8229 H   0  0  0  0  0  0
  -27.3691  -12.6285   17.7900 H   0  0  0  0  0  0
  -27.6936  -14.2477   19.5648 H   0  0  0  0  0  0
  -28.6809  -11.9706   21.3531 H   0  0  0  0  0  0
  -28.4434  -13.6054   21.8673 H   0  0  0  0  0  0
  -25.2748   -9.5687   22.4750 H   0  0  0  0  0  0
  -24.0000   -7.4629   22.7448 H   0  0  0  0  0  0
  -21.0853   -8.8754   19.8926 H   0  0  0  0  0  0
  -22.3679  -10.9673   19.6159 H   0  0  0  0  0  0
  -21.2019   -7.6145   23.9693 H   0  0  0  0  0  0
  -21.1486   -6.0516   25.9053 H   0  0  0  0  0  0
  -22.0615   -2.7613   23.2798 H   0  0  0  0  0  0
  -22.4111  -11.9844   22.4752 H   0  0  0  0  0  0
  -21.1112  -13.1213   22.2656 H   0  0  0  0  0  0
  -24.6814  -15.8531   20.5201 H   0  0  0  0  0  0
  -26.2951  -15.6130   20.0816 H   0  0  0  0  0  0
  -26.7099  -32.5502   23.1148 H   0  0  0  0  0  0
  -25.0072  -33.9749   25.0473 H   0  0  0  0  0  0
  -22.6963  -31.3130   21.4126 H   0  0  0  0  0  0
  -23.3775  -35.9660   23.3316 H   0  0  0  0  0  0
  -24.3598  -36.8923   22.2047 H   0  0  0  0  0  0
  -23.7274  -37.6520   23.6648 H   0  0  0  0  0  0
  -26.0705  -31.5893   20.6109 H   0  0  0  0  0  0
  -26.8276  -30.8614   22.0010 H   0  0  0  0  0  0
  -28.0978  -29.0386   21.1959 H   0  0  0  0  0  0
  -25.9917  -25.9905   18.9688 H   0  0  0  0  0  0
  -23.9699  -27.3352   18.9932 H   0  0  0  0  0  0
  -23.7370  -30.6178   19.4109 H   0  0  0  0  0  0
  -22.7413  -29.2665   19.8549 H   0  0  0  0  0  0
  -25.1322  -36.1981   25.0837 H   0  0  0  0  0  0
  -20.9990  -28.3192   24.1417 H   0  0  0  0  0  0
  -20.5761  -26.2200   23.3587 H   0  0  0  0  0  0
  -21.6664  -26.7429   22.1132 H   0  0  0  0  0  0
  -19.6946  -25.6293   21.1199 H   0  0  0  0  0  0
  -19.6720  -27.3203   20.6796 H   0  0  0  0  0  0
  -17.4223  -26.6661   21.3990 H   0  0  0  0  0  0
  -18.0286  -26.0011   22.8982 H   0  0  0  0  0  0
  -19.7954  -30.7228   24.2231 H   0  0  0  0  0  0
  -17.5030  -31.6225   24.5135 H   0  0  0  0  0  0
  -15.5343  -30.2935   23.7659 H   0  0  0  0  0  0
  -15.8693  -28.0801   22.7025 H   0  0  0  0  0  0
  -24.5919  -30.7024   25.7830 H   0  0  0  0  0  0
  -24.8902  -32.2847   26.4934 H   0  0  0  0  0  0
  -25.8102  -30.8880   27.0235 H   0  0  0  0  0  0
  -26.2842  -29.6828   24.1156 H   0  0  0  0  0  0
  -27.4115  -29.7296   25.4505 H   0  0  0  0  0  0
  -27.8656  -30.4413   23.9192 H   0  0  0  0  0  0
  -27.2657  -33.3621   26.2069 H   0  0  0  0  0  0
  -28.3840  -32.6881   25.0296 H   0  0  0  0  0  0
  -28.0714  -31.8445   26.5382 H   0  0  0  0  0  0
  -28.2594  -38.0131   24.7526 H   0  0  0  0  0  0
  -28.1096  -36.2652   24.6272 H   0  0  0  0  0  0
  -27.2284  -37.1456   25.8849 H   0  0  0  0  0  0
  -20.9311  -29.8792   21.6978 H   0  0  0  0  0  0
  -26.0211  -38.2875   24.1411 H   0  0  0  0  0  0
  -29.6830  -19.3095   24.9305 H   0  0  0  0  0  0
  -30.5491  -19.3345   20.0592 H   0  0  0  0  0  0
  -30.5286  -17.1030   25.0718 H   0  0  0  0  0  0
  -30.9373  -16.1583   23.6628 H   0  0  0  0  0  0
  -29.2364  -16.3369   24.1550 H   0  0  0  0  0  0
  -28.3244  -22.7665   25.4385 H   0  0  0  0  0  0
  -28.3085  -21.0190   25.5498 H   0  0  0  0  0  0
  -27.4760  -21.8222   24.2141 H   0  0  0  0  0  0
  -29.6700  -22.7239   23.3980 H   0  0  0  0  0  0
  -30.5120  -21.9207   24.6723 H   0  0  0  0  0  0
  -30.8261  -21.6999   20.0942 H   0  0  0  0  0  0
  -31.0440  -22.4779   21.6168 H   0  0  0  0  0  0
  -28.5327  -22.3679   19.8728 H   0  0  0  0  0  0
  -28.3652  -22.7206   21.5687 H   0  0  0  0  0  0
  -27.2998  -24.9133   20.8007 H   0  0  0  0  0  0
  -27.7918  -24.8806   19.1062 H   0  0  0  0  0  0
  -29.0238  -15.9322   20.4632 H   0  0  0  0  0  0
  -29.4571  -15.5230   22.0922 H   0  0  0  0  0  0
  1 25  1  0  0  0
  1 30  2  0  0  0
  1 84  1  0  0  0
  2  3  1  0  0  0
  2 25  1  0  0  0
  2 87  1  0  0  0
  2 88  1  0  0  0
  3  4  1  0  0  0
  3 89  1  0  0  0
  3 90  1  0  0  0
  4  5  1  0  0  0
  4 91  1  0  0  0
  4 92  1  0  0  0
  5  6  1  0  0  0
  5 26  1  0  0  0
  5 93  1  0  0  0
  6 25  1  0  0  0
  6 94  1  0  0  0
  6 95  1  0  0  0
  7  8  2  0  0  0
  7 26  1  0  0  0
  7 29  1  0  0  0
  8  9  1  0  0  0
  8 22  1  0  0  0
  9 10  1  0  0  0
  9 27  2  0  0  0
 10 11  2  0  0  0
 10 15  1  0  0  0
 11 12  1  0  0  0
 11 96  1  0  0  0
 12 13  2  0  0  0
 12 97  1  0  0  0
 13 14  1  0  0  0
 13 31  1  0  0  0
 14 15  2  0  0  0
 14 98  1  0  0  0
 15 99  1  0  0  0
 16 17  2  0  0  0
 16 21  1  0  0  0
 16 31  1  0  0  0
 17 18  1  0  0  0
 17100  1  0  0  0
 18 19  2  0  0  0
 18101  1  0  0  0
 19 20  1  0  0  0
 19 24  1  0  0  0
 20 21  2  0  0  0
 20102  1  0  0  0
 21 23  1  0  0  0
 22 28  1  0  0  0
 22 32  2  0  0  0
 26 27  1  0  0  0
 28103  1  0  0  0
 28104  1  0  0  0
 29105  1  0  0  0
 29106  1  0  0  0
 33 34  1  0  0  0
 33 66  1  0  0  0
 33 70  2  0  0  0
 34 36  1  0  0  0
 34 59  1  0  0  0
 34107  1  0  0  0
 35 44  2  0  0  0
 35 45  1  0  0  0
 35 68  1  0  0  0
 36 56  1  0  0  0
 36108  1  0  0  0
 37 39  1  0  0  0
 37 47  1  0  0  0
 37 66  1  0  0  0
 37109  1  0  0  0
 38 43  2  0  0  0
 38 46  1  0  0  0
 38 47  1  0  0  0
 39 64  1  0  0  0
 39 67  2  0  0  0
 40 52  1  0  0  0
 40 53  2  0  0  0
 40 58  1  0  0  0
 41110  1  0  0  0
 41111  1  0  0  0
 41112  1  0  0  0
 41 48  1  0  0  0
 42 43  1  0  0  0
 42 66  1  0  0  0
 42113  1  0  0  0
 42114  1  0  0  0
 43 44  1  0  0  0
 44115  1  0  0  0
 45 46  2  0  0  0
 45116  1  0  0  0
 46117  1  0  0  0
 47118  1  0  0  0
 47119  1  0  0  0
 48 56  1  0  0  0
 48 65  1  0  0  0
 48120  1  0  0  0
 49 50  1  0  0  0
 49 53  1  0  0  0
 49 64  1  0  0  0
 49121  1  0  0  0
 50 51  1  0  0  0
 50122  1  0  0  0
 50123  1  0  0  0
 51 52  1  0  0  0
 51124  1  0  0  0
 51125  1  0  0  0
 52126  1  0  0  0
 52127  1  0  0  0
 53 54  1  0  0  0
 54 55  2  0  0  0
 54128  1  0  0  0
 55 57  1  0  0  0
 55129  1  0  0  0
 56 69  2  0  0  0
 57 58  2  0  0  0
 57130  1  0  0  0
 58131  1  0  0  0
 59 60  1  0  0  0
 59 61  1  0  0  0
 59 62  1  0  0  0
 60132  1  0  0  0
 60133  1  0  0  0
 60134  1  0  0  0
 61135  1  0  0  0
 61136  1  0  0  0
 61137  1  0  0  0
 62138  1  0  0  0
 62139  1  0  0  0
 62140  1  0  0  0
 63 65  1  0  0  0
 63141  1  0  0  0
 63142  1  0  0  0
 63143  1  0  0  0
 64144  1  0  0  0
 65145  1  0  0  0
 68 83  1  0  0  0
 71 73  2  0  0  0
 71 74  1  0  0  0
 71146  1  0  0  0
 72 75  2  0  0  0
 72 76  1  0  0  0
 72147  1  0  0  0
 73 75  1  0  0  0
 73 80  1  0  0  0
 74 76  2  0  0  0
 74 78  1  0  0  0
 75 81  1  0  0  0
 76 86  1  0  0  0
 77 82  1  0  0  0
 77 83  1  0  0  0
 77 85  2  0  0  0
 78148  1  0  0  0
 78149  1  0  0  0
 78150  1  0  0  0
 79 80  1  0  0  0
 79151  1  0  0  0
 79152  1  0  0  0
 79153  1  0  0  0
 80154  1  0  0  0
 80155  1  0  0  0
 81 82  1  0  0  0
 81156  1  0  0  0
 81157  1  0  0  0
 82158  1  0  0  0
 82159  1  0  0  0
 83160  1  0  0  0
 83161  1  0  0  0
 84 86  1  0  0  0
 84162  1  0  0  0
 84163  1  0  0  0
M  ISO  4   1 100  68 101  83 101  84 100
M  END
> <chiral flag>
0

> <version>
0

> <s_m_source_file>
/data/baiqing/PycharmProjects/Reinvent-master-3.2/result/LINK_invent/BTK/process_docking_weight1_custom_product_contain_oxygen_bond_distance_aromatic_linkinvent_7_9_3/rearranged_h_0131.sdf

> <i_m_source_file_index>
75

> <r_mmod_Potential_Energy-OPLS-2005>
12.8679056167603

> <r_mmod_Stretch_Energy-OPLS-2005>
49.8327102661133

> <r_mmod_Bend_Energy-OPLS-2005>
107.469100952148

> <r_mmod_Torsional_Energy-OPLS-2005>
200.619812011719

> <r_mmod_Improper_Torsional_Energy-OPLS-2005>
5.40083169937134

> <r_mmod_Van_der_Waal_Energy-OPLS-2005>
157.777893066406

> <r_mmod_Electrostatic_Energy-OPLS-2005>
-303.125854492188

> <r_mmod_Solvation_Energy-OPLS-2005>
-226.07942199707

> <b_mmod_Minimization_Converged-OPLS-2005>
0

> <r_mmod_RMS_Derivative-OPLS-2005>
4.1916356086731

$$$$
75
                    3D
 Structure written by MMmdl.
163171  0  0  1  0            999 V2000
  -30.7367  -14.5219   20.5945 C   0  0  0  0  0  0
  -30.4010  -12.3537   19.4614 C   0  0  0  0  0  0
  -29.5021  -12.5153   18.2251 C   0  0  0  0  0  0
  -28.0212  -12.3752   18.6220 C   0  0  0  0  0  0
  -27.6459  -13.2251   19.8676 C   0  0  2  0  0  0
  -28.6762  -13.0431   20.9968 C   0  0  0  0  0  0
  -25.2502  -13.8214   20.5641 C   0  0  0  0  0  0
  -24.1778  -13.0452   20.9103 C   0  0  0  0  0  0
  -24.6337  -11.6922   20.8611 C   0  0  0  0  0  0
  -23.8998  -10.4306   21.0295 C   0  0  0  0  0  0
  -24.3576   -9.4272   21.9101 C   0  0  0  0  0  0
  -23.6283   -8.2293   22.0730 C   0  0  0  0  0  0
  -22.4257   -8.0281   21.3541 C   0  0  0  0  0  0
  -21.9854   -9.0225   20.4627 C   0  0  0  0  0  0
  -22.7150  -10.2117   20.2993 C   0  0  0  0  0  0
  -21.6880   -6.0711   22.5265 C   0  0  0  0  0  0
  -21.4036   -6.5627   23.8193 C   0  0  0  0  0  0
  -21.3670   -5.6790   24.9163 C   0  0  0  0  0  0
  -21.6042   -4.3045   24.7214 C   0  0  0  0  0  0
  -21.8840   -3.8125   23.4343 C   0  0  0  0  0  0
  -21.9214   -4.6937   22.3396 C   0  0  0  0  0  0
  -22.7834  -13.5257   21.1883 C   0  0  0  0  0  0
  -22.1685   -4.2132   21.0966 F   0  0  0  0  0  0
  -21.5619   -3.4529   25.7719 F   0  0  0  0  0  0
  -29.9989  -13.3776   20.4542 N   0  0  0  0  0  0
  -26.2912  -12.9398   20.3265 N   0  0  0  0  0  0
  -25.9252  -11.6520   20.5633 N   0  0  0  0  0  0
  -22.0510  -12.8179   22.0435 N   0  0  0  0  0  0
  -25.4253  -15.1903   20.4105 N   0  0  0  0  0  0
  -31.8530  -14.6078   20.0799 O   0  0  0  0  0  0
  -21.6686   -6.8842   21.4215 O   0  0  0  0  0  0
  -22.3509  -14.5604   20.6827 O   0  0  0  0  0  0
  -24.6166  -31.8688   23.2170 C   0  0  0  0  0  0
  -25.9040  -32.4825   23.8453 C   0  0  1  0  0  0
  -27.1814  -27.3764   20.1106 C   0  0  0  0  0  0
  -25.5885  -33.8632   24.2349 N   0  0  0  0  0  0
  -23.4008  -30.4957   21.5626 C   0  0  2  0  0  0
  -24.8333  -28.9750   20.1062 C   0  0  0  0  0  0
  -22.7417  -29.4680   22.5074 C   0  0  0  0  0  0
  -18.0341  -28.1251   22.8431 C   0  0  0  0  0  0
  -24.1479  -36.7294   23.2641 C   0  0  0  0  0  0
  -25.9375  -30.8189   21.3725 C   0  0  0  0  0  0
  -26.0037  -29.4560   20.7102 C   0  0  0  0  0  0
  -27.1820  -28.6639   20.7066 C   0  0  0  0  0  0
  -25.9968  -26.9540   19.4513 C   0  0  0  0  0  0
  -24.8282  -27.7298   19.4701 C   0  0  0  0  0  0
  -23.5970  -29.8398   20.1743 C   0  0  0  0  0  0
  -25.4112  -36.3127   24.0349 C   0  0  1  0  0  0
  -20.5874  -28.3604   23.1286 C   0  0  2  0  0  0
  -20.6838  -26.9334   22.5312 C   0  0  0  0  0  0
  -19.5844  -26.6279   21.5114 C   0  0  0  0  0  0
  -18.2057  -26.7795   22.1563 C   0  0  0  0  0  0
  -19.1535  -28.8755   23.2826 C   0  0  0  0  0  0
  -18.9411  -30.1321   23.8895 C   0  0  0  0  0  0
  -17.6393  -30.6475   24.0520 C   0  0  0  0  0  0
  -25.9037  -34.9488   23.5166 C   0  0  0  0  0  0
  -16.5352  -29.8968   23.6185 C   0  0  0  0  0  0
  -16.7298  -28.6382   23.0213 C   0  0  0  0  0  0
  -26.4458  -31.6572   25.0762 C   0  0  0  0  0  0
  -25.3729  -31.3618   26.1510 C   0  0  0  0  0  0
  -27.0267  -30.3024   24.6093 C   0  0  0  0  0  0
  -27.6074  -32.4272   25.7480 C   0  0  0  0  0  0
  -27.5588  -37.1812   24.8478 C   0  0  0  0  0  0
  -21.4162  -29.2933   22.3702 N   0  0  0  0  0  0
  -26.4310  -37.3798   23.9408 N   0  0  0  0  0  0
  -24.6718  -31.0760   22.1088 N   0  0  0  0  0  0
  -23.4199  -28.8315   23.3203 O   0  0  0  0  0  0
  -28.3073  -26.5649   20.2018 O   0  0  0  0  0  0
  -26.5648  -34.8949   22.4754 O   0  0  0  0  0  0
  -23.5360  -32.1467   23.7554 O   0  0  0  0  0  0
  -27.3667  -16.6266   23.2780 C   0  0  0  0  0  0
  -26.8987  -17.7652   22.6082 C   0  0  0  0  0  0
  -28.4719  -15.9156   22.7864 C   0  0  0  0  0  0
  -27.5488  -18.2495   21.4538 C   0  0  0  0  0  0
  -28.6551  -17.5089   20.9347 C   0  0  0  0  0  0
  -29.0936  -16.3046   21.5827 C   0  0  0  0  0  0
  -26.8688  -19.3735   20.7591 C   0  0  0  0  0  0
  -27.0406  -20.7195   20.7820 C   0  0  0  0  0  0
  -30.5960  -18.9039   20.0373 C   0  0  0  0  0  0
  -29.3828  -18.0209   19.6928 C   0  0  0  0  0  0
  -28.0476  -21.6239   21.4959 C   0  0  0  0  0  0
  -28.6719  -22.6667   20.5143 C   0  0  0  0  0  0
  -28.8105  -24.1603   20.9662 C   0  0  0  0  0  0
  -28.1577  -25.1390   19.9505 C   0  0  0  0  0  0
  -30.3213  -15.6677   21.1977 N   0  0  0  0  0  0
  -31.4503  -12.4247   19.1664 H   0  0  0  0  0  0
  -30.2900  -11.3525   19.8796 H   0  0  0  0  0  0
  -29.7608  -11.7674   17.4721 H   0  0  0  0  0  0
  -29.6869  -13.4859   17.7618 H   0  0  0  0  0  0
  -27.8349  -11.3229   18.8214 H   0  0  0  0  0  0
  -27.3841  -12.6345   17.7763 H   0  0  0  0  0  0
  -27.6801  -14.2719   19.5625 H   0  0  0  0  0  0
  -28.6648  -12.0146   21.3554 H   0  0  0  0  0  0
  -28.4000  -13.6236   21.8636 H   0  0  0  0  0  0
  -25.2702   -9.5836   22.4680 H   0  0  0  0  0  0
  -24.0033   -7.4719   22.7457 H   0  0  0  0  0  0
  -21.0798   -8.8684   19.8935 H   0  0  0  0  0  0
  -22.3532  -10.9633   19.6121 H   0  0  0  0  0  0
  -21.2054   -7.6141   23.9694 H   0  0  0  0  0  0
  -21.1462   -6.0509   25.9066 H   0  0  0  0  0  0
  -22.0609   -2.7583   23.2837 H   0  0  0  0  0  0
  -22.4154  -11.9772   22.4674 H   0  0  0  0  0  0
  -21.1164  -13.1195   22.2754 H   0  0  0  0  0  0
  -24.6777  -15.8557   20.5722 H   0  0  0  0  0  0
  -26.3201  -15.6285   20.2212 H   0  0  0  0  0  0
  -26.7083  -32.5480   23.1186 H   0  0  0  0  0  0
  -24.9901  -33.9729   25.0408 H   0  0  0  0  0  0
  -22.6906  -31.3172   21.4379 H   0  0  0  0  0  0
  -23.3766  -35.9593   23.3334 H   0  0  0  0  0  0
  -24.3551  -36.8881   22.2041 H   0  0  0  0  0  0
  -23.7208  -37.6507   23.6622 H   0  0  0  0  0  0
  -26.0519  -31.5844   20.6015 H   0  0  0  0  0  0
  -26.8269  -30.8619   21.9926 H   0  0  0  0  0  0
  -28.0772  -29.0266   21.1922 H   0  0  0  0  0  0
  -25.9243  -26.0234   18.9116 H   0  0  0  0  0  0
  -23.9315  -27.3625   18.9873 H   0  0  0  0  0  0
  -23.6906  -30.6188   19.4198 H   0  0  0  0  0  0
  -22.7148  -29.2586   19.8848 H   0  0  0  0  0  0
  -25.1285  -36.2025   25.0842 H   0  0  0  0  0  0
  -20.9873  -28.3118   24.1440 H   0  0  0  0  0  0
  -20.5896  -26.2168   23.3492 H   0  0  0  0  0  0
  -21.6669  -26.7504   22.0978 H   0  0  0  0  0  0
  -19.7068  -25.6173   21.1195 H   0  0  0  0  0  0
  -19.6788  -27.3070   20.6620 H   0  0  0  0  0  0
  -17.4332  -26.6429   21.3970 H   0  0  0  0  0  0
  -18.0674  -25.9933   22.8936 H   0  0  0  0  0  0
  -19.7835  -30.7089   24.2384 H   0  0  0  0  0  0
  -17.4902  -31.6143   24.5162 H   0  0  0  0  0  0
  -15.5331  -30.2777   23.7536 H   0  0  0  0  0  0
  -15.8724  -28.0686   22.6866 H   0  0  0  0  0  0
  -24.5955  -30.6890   25.7852 H   0  0  0  0  0  0
  -24.8833  -32.2702   26.5019 H   0  0  0  0  0  0
  -25.8122  -30.8786   27.0240 H   0  0  0  0  0  0
  -26.2783  -29.6856   24.1094 H   0  0  0  0  0  0
  -27.3966  -29.7196   25.4538 H   0  0  0  0  0  0
  -27.8658  -30.4366   23.9266 H   0  0  0  0  0  0
  -27.2741  -33.3590   26.2062 H   0  0  0  0  0  0
  -28.3844  -32.6797   25.0248 H   0  0  0  0  0  0
  -28.0753  -31.8382   26.5371 H   0  0  0  0  0  0
  -28.2666  -38.0065   24.7547 H   0  0  0  0  0  0
  -28.1052  -36.2624   24.6312 H   0  0  0  0  0  0
  -27.2293  -37.1448   25.8879 H   0  0  0  0  0  0
  -20.9382  -29.8265   21.6615 H   0  0  0  0  0  0
  -26.0238  -38.2892   24.1412 H   0  0  0  0  0  0
  -26.8757  -16.3077   24.1845 H   0  0  0  0  0  0
  -26.0266  -18.2731   22.9958 H   0  0  0  0  0  0
  -28.8432  -15.0887   23.3772 H   0  0  0  0  0  0
  -26.0561  -19.0404   20.1251 H   0  0  0  0  0  0
  -26.3287  -21.2771   20.1875 H   0  0  0  0  0  0
  -30.3292  -19.7457   20.6686 H   0  0  0  0  0  0
  -31.0540  -19.3104   19.1344 H   0  0  0  0  0  0
  -31.3584  -18.3320   20.5648 H   0  0  0  0  0  0
  -29.7068  -17.1733   19.0925 H   0  0  0  0  0  0
  -28.6968  -18.5736   19.0506 H   0  0  0  0  0  0
  -28.8210  -21.0274   21.9880 H   0  0  0  0  0  0
  -27.5160  -22.1503   22.2917 H   0  0  0  0  0  0
  -28.1025  -22.6444   19.5864 H   0  0  0  0  0  0
  -29.6520  -22.2959   20.2190 H   0  0  0  0  0  0
  -28.3631  -24.3143   21.9483 H   0  0  0  0  0  0
  -29.8681  -24.4058   21.0854 H   0  0  0  0  0  0
  -27.1225  -24.8086   19.9536 H   0  0  0  0  0  0
  -28.5501  -24.9478   18.9532 H   0  0  0  0  0  0
  -31.0555  -16.3458   21.0686 H   0  0  0  0  0  0
  1 25  1  0  0  0
  1 30  2  0  0  0
  1 85  1  0  0  0
  2  3  1  0  0  0
  2 25  1  0  0  0
  2 86  1  0  0  0
  2 87  1  0  0  0
  3  4  1  0  0  0
  3 88  1  0  0  0
  3 89  1  0  0  0
  4  5  1  0  0  0
  4 90  1  0  0  0
  4 91  1  0  0  0
  5  6  1  0  0  0
  5 26  1  0  0  0
  5 92  1  0  0  0
  6 25  1  0  0  0
  6 93  1  0  0  0
  6 94  1  0  0  0
  7  8  2  0  0  0
  7 26  1  0  0  0
  7 29  1  0  0  0
  8  9  1  0  0  0
  8 22  1  0  0  0
  9 10  1  0  0  0
  9 27  2  0  0  0
 10 11  2  0  0  0
 10 15  1  0  0  0
 11 12  1  0  0  0
 11 95  1  0  0  0
 12 13  2  0  0  0
 12 96  1  0  0  0
 13 14  1  0  0  0
 13 31  1  0  0  0
 14 15  2  0  0  0
 14 97  1  0  0  0
 15 98  1  0  0  0
 16 17  2  0  0  0
 16 21  1  0  0  0
 16 31  1  0  0  0
 17 18  1  0  0  0
 17 99  1  0  0  0
 18 19  2  0  0  0
 18100  1  0  0  0
 19 20  1  0  0  0
 19 24  1  0  0  0
 20 21  2  0  0  0
 20101  1  0  0  0
 21 23  1  0  0  0
 22 28  1  0  0  0
 22 32  2  0  0  0
 26 27  1  0  0  0
 28102  1  0  0  0
 28103  1  0  0  0
 29104  1  0  0  0
 29105  1  0  0  0
 33 34  1  0  0  0
 33 66  1  0  0  0
 33 70  2  0  0  0
 34 36  1  0  0  0
 34 59  1  0  0  0
 34106  1  0  0  0
 35 44  2  0  0  0
 35 45  1  0  0  0
 35 68  1  0  0  0
 36 56  1  0  0  0
 36107  1  0  0  0
 37 39  1  0  0  0
 37 47  1  0  0  0
 37 66  1  0  0  0
 37108  1  0  0  0
 38 43  2  0  0  0
 38 46  1  0  0  0
 38 47  1  0  0  0
 39 64  1  0  0  0
 39 67  2  0  0  0
 40 52  1  0  0  0
 40 53  2  0  0  0
 40 58  1  0  0  0
 41109  1  0  0  0
 41110  1  0  0  0
 41111  1  0  0  0
 41 48  1  0  0  0
 42 43  1  0  0  0
 42 66  1  0  0  0
 42112  1  0  0  0
 42113  1  0  0  0
 43 44  1  0  0  0
 44114  1  0  0  0
 45 46  2  0  0  0
 45115  1  0  0  0
 46116  1  0  0  0
 47117  1  0  0  0
 47118  1  0  0  0
 48 56  1  0  0  0
 48 65  1  0  0  0
 48119  1  0  0  0
 49 50  1  0  0  0
 49 53  1  0  0  0
 49 64  1  0  0  0
 49120  1  0  0  0
 50 51  1  0  0  0
 50121  1  0  0  0
 50122  1  0  0  0
 51 52  1  0  0  0
 51123  1  0  0  0
 51124  1  0  0  0
 52125  1  0  0  0
 52126  1  0  0  0
 53 54  1  0  0  0
 54 55  2  0  0  0
 54127  1  0  0  0
 55 57  1  0  0  0
 55128  1  0  0  0
 56 69  2  0  0  0
 57 58  2  0  0  0
 57129  1  0  0  0
 58130  1  0  0  0
 59 60  1  0  0  0
 59 61  1  0  0  0
 59 62  1  0  0  0
 60131  1  0  0  0
 60132  1  0  0  0
 60133  1  0  0  0
 61134  1  0  0  0
 61135  1  0  0  0
 61136  1  0  0  0
 62137  1  0  0  0
 62138  1  0  0  0
 62139  1  0  0  0
 63 65  1  0  0  0
 63140  1  0  0  0
 63141  1  0  0  0
 63142  1  0  0  0
 64143  1  0  0  0
 65144  1  0  0  0
 68 84  1  0  0  0
 71 72  2  0  0  0
 71 73  1  0  0  0
 71145  1  0  0  0
 72 74  1  0  0  0
 72146  1  0  0  0
 73 76  2  0  0  0
 73147  1  0  0  0
 74 75  2  0  0  0
 74 77  1  0  0  0
 75 76  1  0  0  0
 75 80  1  0  0  0
 76 85  1  0  0  0
 77 78  2  0  0  0
 77148  1  0  0  0
 78 81  1  0  0  0
 78149  1  0  0  0
 79 80  1  0  0  0
 79150  1  0  0  0
 79151  1  0  0  0
 79152  1  0  0  0
 80153  1  0  0  0
 80154  1  0  0  0
 81 82  1  0  0  0
 81155  1  0  0  0
 81156  1  0  0  0
 82 83  1  0  0  0
 82157  1  0  0  0
 82158  1  0  0  0
 83 84  1  0  0  0
 83159  1  0  0  0
 83160  1  0  0  0
 84161  1  0  0  0
 84162  1  0  0  0
 85163  1  0  0  0
M  ISO  4   1 100  68 101  84 101  85 100
M  END
> <chiral flag>
0

> <version>
0

> <s_m_source_file>
/data/baiqing/PycharmProjects/Reinvent-master-3.2/result/LINK_invent/BTK/process_docking_weight1_custom_product_contain_oxygen_bond_distance_aromatic_linkinvent_7_9_3/rearranged_h_0131.sdf

> <i_m_source_file_index>
76

> <r_mmod_Potential_Energy-OPLS-2005>
147.495941162109

> <r_mmod_Stretch_Energy-OPLS-2005>
49.3834419250488

> <r_mmod_Bend_Energy-OPLS-2005>
192.92887878418

> <r_mmod_Torsional_Energy-OPLS-2005>
283.598358154297

> <r_mmod_Improper_Torsional_Energy-OPLS-2005>
6.53214645385742

> <r_mmod_Van_der_Waal_Energy-OPLS-2005>
144.827987670898

> <r_mmod_Electrostatic_Energy-OPLS-2005>
-379.914489746094

> <r_mmod_Solvation_Energy-OPLS-2005>
-179.604309082031

> <b_mmod_Minimization_Converged-OPLS-2005>
0

> <r_mmod_RMS_Derivative-OPLS-2005>
7.63815402984619

$$$$
76
                    3D
 Structure written by MMmdl.
158166  0  0  1  0            999 V2000
  -30.6977  -14.5254   20.5309 C   0  0  0  0  0  0
  -30.4223  -12.3242   19.4518 C   0  0  0  0  0  0
  -29.5019  -12.4953   18.2231 C   0  0  0  0  0  0
  -28.0213  -12.3603   18.6272 C   0  0  0  0  0  0
  -27.6583  -13.2120   19.8715 C   0  0  2  0  0  0
  -28.6984  -13.0334   21.0009 C   0  0  0  0  0  0
  -25.2606  -13.8161   20.5692 C   0  0  0  0  0  0
  -24.1838  -13.0440   20.9157 C   0  0  0  0  0  0
  -24.6383  -11.6913   20.8719 C   0  0  0  0  0  0
  -23.9033  -10.4304   21.0372 C   0  0  0  0  0  0
  -24.3600   -9.4237   21.9165 C   0  0  0  0  0  0
  -23.6291   -8.2266   22.0748 C   0  0  0  0  0  0
  -22.4279   -8.0277   21.3537 C   0  0  0  0  0  0
  -21.9892   -9.0233   20.4640 C   0  0  0  0  0  0
  -22.7200  -10.2130   20.3041 C   0  0  0  0  0  0
  -21.6865   -6.0731   22.5264 C   0  0  0  0  0  0
  -21.4000   -6.5621   23.8195 C   0  0  0  0  0  0
  -21.3675   -5.6777   24.9162 C   0  0  0  0  0  0
  -21.6066   -4.3044   24.7223 C   0  0  0  0  0  0
  -21.8824   -3.8135   23.4337 C   0  0  0  0  0  0
  -21.9187   -4.6952   22.3386 C   0  0  0  0  0  0
  -22.7865  -13.5248   21.1813 C   0  0  0  0  0  0
  -22.1665   -4.2126   21.0974 F   0  0  0  0  0  0
  -21.5658   -3.4535   25.7744 F   0  0  0  0  0  0
  -30.0274  -13.3368   20.4507 N   0  0  0  0  0  0
  -26.3016  -12.9327   20.3336 N   0  0  0  0  0  0
  -25.9309  -11.6483   20.5758 N   0  0  0  0  0  0
  -22.0481  -12.8245   22.0360 N   0  0  0  0  0  0
  -25.4333  -15.1881   20.4155 N   0  0  0  0  0  0
  -31.8238  -14.6497   20.0418 O   0  0  0  0  0  0
  -21.6670   -6.8869   21.4227 O   0  0  0  0  0  0
  -22.3572  -14.5541   20.6636 O   0  0  0  0  0  0
  -24.6187  -31.8671   23.2075 C   0  0  0  0  0  0
  -25.9064  -32.4823   23.8386 C   0  0  1  0  0  0
  -27.2395  -27.4109   20.0807 C   0  0  0  0  0  0
  -25.5909  -33.8620   24.2306 N   0  0  0  0  0  0
  -23.4079  -30.4903   21.5488 C   0  0  2  0  0  0
  -24.8532  -28.9531   20.1148 C   0  0  0  0  0  0
  -22.7427  -29.4664   22.4968 C   0  0  0  0  0  0
  -18.0278  -28.1391   22.8502 C   0  0  0  0  0  0
  -24.1500  -36.7333   23.2633 C   0  0  0  0  0  0
  -25.9393  -30.8224   21.3654 C   0  0  0  0  0  0
  -26.0141  -29.4524   20.7150 C   0  0  0  0  0  0
  -27.2031  -28.6834   20.7079 C   0  0  0  0  0  0
  -26.0559  -26.9393   19.4681 C   0  0  0  0  0  0
  -24.8683  -27.6934   19.4955 C   0  0  0  0  0  0
  -23.6185  -29.8248   20.1631 C   0  0  0  0  0  0
  -25.4117  -36.3112   24.0327 C   0  0  1  0  0  0
  -20.5874  -28.3691   23.1304 C   0  0  2  0  0  0
  -20.6784  -26.9422   22.5421 C   0  0  0  0  0  0
  -19.5758  -26.6391   21.5228 C   0  0  0  0  0  0
  -18.1930  -26.7938   22.1627 C   0  0  0  0  0  0
  -19.1533  -28.8848   23.2904 C   0  0  0  0  0  0
  -18.9456  -30.1451   23.8922 C   0  0  0  0  0  0
  -17.6455  -30.6590   24.0568 C   0  0  0  0  0  0
  -25.9042  -34.9476   23.5110 C   0  0  0  0  0  0
  -16.5345  -29.9091   23.6331 C   0  0  0  0  0  0
  -16.7272  -28.6509   23.0356 C   0  0  0  0  0  0
  -26.4462  -31.6614   25.0727 C   0  0  0  0  0  0
  -25.3709  -31.3767   26.1464 C   0  0  0  0  0  0
  -27.0288  -30.3049   24.6135 C   0  0  0  0  0  0
  -27.6034  -32.4338   25.7496 C   0  0  0  0  0  0
  -27.5587  -37.1818   24.8455 C   0  0  0  0  0  0
  -21.4147  -29.3048   22.3706 N   0  0  0  0  0  0
  -26.4301  -37.3795   23.9392 N   0  0  0  0  0  0
  -24.6736  -31.0747   22.0984 N   0  0  0  0  0  0
  -23.4186  -28.8200   23.3020 O   0  0  0  0  0  0
  -28.4055  -26.6599   20.1250 O   0  0  0  0  0  0
  -26.5601  -34.8927   22.4676 O   0  0  0  0  0  0
  -23.5361  -32.1435   23.7440 O   0  0  0  0  0  0
  -29.0658  -19.7011   22.9056 C   0  0  0  0  0  0
  -29.4529  -18.4387   22.4127 C   0  0  0  0  0  0
  -28.7758  -20.7595   22.0229 C   0  0  0  0  0  0
  -29.2849  -19.2960   20.1447 C   0  0  0  0  0  0
  -29.5991  -18.2211   21.0255 C   0  0  0  0  0  0
  -28.8615  -20.5683   20.6282 C   0  0  0  0  0  0
  -30.0770  -16.9020   20.5149 C   0  0  0  0  0  0
  -30.0062  -15.6823   21.1213 C   0  0  0  0  0  0
  -27.5525  -23.8525   17.7797 C   0  0  0  0  0  0
  -28.3802  -21.6744   19.6677 C   0  0  0  0  0  0
  -28.9251  -23.1335   19.8467 C   0  0  0  0  0  0
  -28.6845  -25.6787   19.1033 C   0  0  0  0  0  0
  -28.0309  -24.2521   19.1960 C   0  0  1  0  0  0
  -31.4685  -12.4047   19.1510 H   0  0  0  0  0  0
  -30.3213  -11.3221   19.8687 H   0  0  0  0  0  0
  -29.7461  -11.7548   17.4596 H   0  0  0  0  0  0
  -29.6749  -13.4733   17.7685 H   0  0  0  0  0  0
  -27.8273  -11.3063   18.8295 H   0  0  0  0  0  0
  -27.3776  -12.6262   17.7889 H   0  0  0  0  0  0
  -27.6951  -14.2559   19.5586 H   0  0  0  0  0  0
  -28.6818  -12.0091   21.3733 H   0  0  0  0  0  0
  -28.4483  -13.6596   21.8572 H   0  0  0  0  0  0
  -25.2750   -9.5736   22.4737 H   0  0  0  0  0  0
  -24.0011   -7.4671   22.7456 H   0  0  0  0  0  0
  -21.0830   -8.8729   19.8940 H   0  0  0  0  0  0
  -22.3626  -10.9661   19.6159 H   0  0  0  0  0  0
  -21.1974   -7.6118   23.9679 H   0  0  0  0  0  0
  -21.1508   -6.0516   25.9060 H   0  0  0  0  0  0
  -22.0594   -2.7581   23.2843 H   0  0  0  0  0  0
  -22.4111  -11.9947   22.4799 H   0  0  0  0  0  0
  -21.1095  -13.1263   22.2525 H   0  0  0  0  0  0
  -24.6744  -15.8491   20.5489 H   0  0  0  0  0  0
  -26.3013  -15.6267   20.1340 H   0  0  0  0  0  0
  -26.7142  -32.5521   23.1159 H   0  0  0  0  0  0
  -25.0056  -33.9799   25.0448 H   0  0  0  0  0  0
  -22.6993  -31.3091   21.4080 H   0  0  0  0  0  0
  -23.3744  -35.9683   23.3297 H   0  0  0  0  0  0
  -24.3594  -36.8949   22.2047 H   0  0  0  0  0  0
  -23.7278  -37.6548   23.6652 H   0  0  0  0  0  0
  -26.0517  -31.5865   20.5946 H   0  0  0  0  0  0
  -26.8271  -30.8803   21.9830 H   0  0  0  0  0  0
  -28.0960  -29.0642   21.1836 H   0  0  0  0  0  0
  -26.0184  -25.9823   18.9755 H   0  0  0  0  0  0
  -23.9737  -27.2984   19.0345 H   0  0  0  0  0  0
  -23.7324  -30.6021   19.4063 H   0  0  0  0  0  0
  -22.7412  -29.2497   19.8636 H   0  0  0  0  0  0
  -25.1302  -36.1971   25.0818 H   0  0  0  0  0  0
  -20.9982  -28.3265   24.1417 H   0  0  0  0  0  0
  -20.5717  -26.2296   23.3611 H   0  0  0  0  0  0
  -21.6647  -26.7478   22.1186 H   0  0  0  0  0  0
  -19.6918  -25.6302   21.1256 H   0  0  0  0  0  0
  -19.6694  -27.3208   20.6757 H   0  0  0  0  0  0
  -17.4209  -26.6712   21.4009 H   0  0  0  0  0  0
  -18.0299  -26.0068   22.9004 H   0  0  0  0  0  0
  -19.7928  -30.7267   24.2304 H   0  0  0  0  0  0
  -17.5007  -31.6276   24.5168 H   0  0  0  0  0  0
  -15.5350  -30.3000   23.7638 H   0  0  0  0  0  0
  -15.8672  -28.0833   22.7060 H   0  0  0  0  0  0
  -24.5846  -30.7162   25.7794 H   0  0  0  0  0  0
  -24.8942  -32.2947   26.4907 H   0  0  0  0  0  0
  -25.8017  -30.8915   27.0232 H   0  0  0  0  0  0
  -26.2846  -29.6826   24.1148 H   0  0  0  0  0  0
  -27.3995  -29.7269   25.4613 H   0  0  0  0  0  0
  -27.8706  -30.4347   23.9331 H   0  0  0  0  0  0
  -27.2646  -33.3616   26.2122 H   0  0  0  0  0  0
  -28.3822  -32.6946   25.0318 H   0  0  0  0  0  0
  -28.0736  -31.8443   26.5381 H   0  0  0  0  0  0
  -28.2601  -38.0115   24.7488 H   0  0  0  0  0  0
  -28.1083  -36.2646   24.6291 H   0  0  0  0  0  0
  -27.2299  -37.1481   25.8854 H   0  0  0  0  0  0
  -20.9309  -29.8774   21.6929 H   0  0  0  0  0  0
  -26.0190  -38.2875   24.1373 H   0  0  0  0  0  0
  -28.9842  -19.8537   23.9724 H   0  0  0  0  0  0
  -29.6737  -17.6477   23.1162 H   0  0  0  0  0  0
  -28.4510  -21.7073   22.4287 H   0  0  0  0  0  0
  -29.3467  -19.1375   19.0772 H   0  0  0  0  0  0
  -30.5871  -16.9560   19.5622 H   0  0  0  0  0  0
  -29.4814  -15.5781   22.0572 H   0  0  0  0  0  0
  -26.9581  -22.9413   17.7757 H   0  0  0  0  0  0
  -28.3930  -23.7048   17.0999 H   0  0  0  0  0  0
  -26.9144  -24.6224   17.3448 H   0  0  0  0  0  0
  -27.2943  -21.6964   19.7663 H   0  0  0  0  0  0
  -28.5723  -21.3541   18.6423 H   0  0  0  0  0  0
  -29.9415  -23.1780   19.4513 H   0  0  0  0  0  0
  -29.0102  -23.3733   20.9069 H   0  0  0  0  0  0
  -28.4446  -26.1457   18.1469 H   0  0  0  0  0  0
  -29.7685  -25.5597   19.0695 H   0  0  0  0  0  0
  -27.1400  -24.3247   19.8198 H   0  0  0  0  0  0
  1 25  1  0  0  0
  1 30  2  0  0  0
  1 78  1  0  0  0
  2  3  1  0  0  0
  2 25  1  0  0  0
  2 84  1  0  0  0
  2 85  1  0  0  0
  3  4  1  0  0  0
  3 86  1  0  0  0
  3 87  1  0  0  0
  4  5  1  0  0  0
  4 88  1  0  0  0
  4 89  1  0  0  0
  5  6  1  0  0  0
  5 26  1  0  0  0
  5 90  1  0  0  0
  6 25  1  0  0  0
  6 91  1  0  0  0
  6 92  1  0  0  0
  7  8  2  0  0  0
  7 26  1  0  0  0
  7 29  1  0  0  0
  8  9  1  0  0  0
  8 22  1  0  0  0
  9 10  1  0  0  0
  9 27  2  0  0  0
 10 11  2  0  0  0
 10 15  1  0  0  0
 11 12  1  0  0  0
 11 93  1  0  0  0
 12 13  2  0  0  0
 12 94  1  0  0  0
 13 14  1  0  0  0
 13 31  1  0  0  0
 14 15  2  0  0  0
 14 95  1  0  0  0
 15 96  1  0  0  0
 16 17  2  0  0  0
 16 21  1  0  0  0
 16 31  1  0  0  0
 17 18  1  0  0  0
 17 97  1  0  0  0
 18 19  2  0  0  0
 18 98  1  0  0  0
 19 20  1  0  0  0
 19 24  1  0  0  0
 20 21  2  0  0  0
 20 99  1  0  0  0
 21 23  1  0  0  0
 22 28  1  0  0  0
 22 32  2  0  0  0
 26 27  1  0  0  0
 28100  1  0  0  0
 28101  1  0  0  0
 29102  1  0  0  0
 29103  1  0  0  0
 33 34  1  0  0  0
 33 66  1  0  0  0
 33 70  2  0  0  0
 34 36  1  0  0  0
 34 59  1  0  0  0
 34104  1  0  0  0
 35 44  2  0  0  0
 35 45  1  0  0  0
 35 68  1  0  0  0
 36 56  1  0  0  0
 36105  1  0  0  0
 37 39  1  0  0  0
 37 47  1  0  0  0
 37 66  1  0  0  0
 37106  1  0  0  0
 38 43  2  0  0  0
 38 46  1  0  0  0
 38 47  1  0  0  0
 39 64  1  0  0  0
 39 67  2  0  0  0
 40 52  1  0  0  0
 40 53  2  0  0  0
 40 58  1  0  0  0
 41107  1  0  0  0
 41108  1  0  0  0
 41109  1  0  0  0
 41 48  1  0  0  0
 42 43  1  0  0  0
 42 66  1  0  0  0
 42110  1  0  0  0
 42111  1  0  0  0
 43 44  1  0  0  0
 44112  1  0  0  0
 45 46  2  0  0  0
 45113  1  0  0  0
 46114  1  0  0  0
 47115  1  0  0  0
 47116  1  0  0  0
 48 56  1  0  0  0
 48 65  1  0  0  0
 48117  1  0  0  0
 49 50  1  0  0  0
 49 53  1  0  0  0
 49 64  1  0  0  0
 49118  1  0  0  0
 50 51  1  0  0  0
 50119  1  0  0  0
 50120  1  0  0  0
 51 52  1  0  0  0
 51121  1  0  0  0
 51122  1  0  0  0
 52123  1  0  0  0
 52124  1  0  0  0
 53 54  1  0  0  0
 54 55  2  0  0  0
 54125  1  0  0  0
 55 57  1  0  0  0
 55126  1  0  0  0
 56 69  2  0  0  0
 57 58  2  0  0  0
 57127  1  0  0  0
 58128  1  0  0  0
 59 60  1  0  0  0
 59 61  1  0  0  0
 59 62  1  0  0  0
 60129  1  0  0  0
 60130  1  0  0  0
 60131  1  0  0  0
 61132  1  0  0  0
 61133  1  0  0  0
 61134  1  0  0  0
 62135  1  0  0  0
 62136  1  0  0  0
 62137  1  0  0  0
 63 65  1  0  0  0
 63138  1  0  0  0
 63139  1  0  0  0
 63140  1  0  0  0
 64141  1  0  0  0
 65142  1  0  0  0
 68 82  1  0  0  0
 71 72  2  0  0  0
 71 73  1  0  0  0
 71143  1  0  0  0
 72 75  1  0  0  0
 72144  1  0  0  0
 73 76  2  0  0  0
 73145  1  0  0  0
 74 75  2  0  0  0
 74 76  1  0  0  0
 74146  1  0  0  0
 75 77  1  0  0  0
 76 80  1  0  0  0
 77 78  2  0  0  0
 77147  1  0  0  0
 78148  1  0  0  0
 79149  1  0  0  0
 79150  1  0  0  0
 79151  1  0  0  0
 79 83  1  0  0  0
 80 81  1  0  0  0
 80152  1  0  0  0
 80153  1  0  0  0
 81 83  1  0  0  0
 81154  1  0  0  0
 81155  1  0  0  0
 82 83  1  0  0  0
 82156  1  0  0  0
 82157  1  0  0  0
 83158  1  0  0  0
M  ISO  4   1 100  68 101  78 100  82 101
M  END
> <chiral flag>
0

> <version>
0

> <s_m_source_file>
/data/baiqing/PycharmProjects/Reinvent-master-3.2/result/LINK_invent/BTK/process_docking_weight1_custom_product_contain_oxygen_bond_distance_aromatic_linkinvent_7_9_3/rearranged_h_0131.sdf

> <i_m_source_file_index>
77

> <r_mmod_Potential_Energy-OPLS-2005>
31.2036571502686

> <r_mmod_Stretch_Energy-OPLS-2005>
48.0015411376953

> <r_mmod_Bend_Energy-OPLS-2005>
117.962120056152

> <r_mmod_Torsional_Energy-OPLS-2005>
204.246276855469

> <r_mmod_Improper_Torsional_Energy-OPLS-2005>
3.49095726013184

> <r_mmod_Van_der_Waal_Energy-OPLS-2005>
152.931091308594

> <r_mmod_Electrostatic_Energy-OPLS-2005>
-328.474792480469

> <r_mmod_Solvation_Energy-OPLS-2005>
-186.45246887207

> <b_mmod_Minimization_Converged-OPLS-2005>
0

> <r_mmod_RMS_Derivative-OPLS-2005>
3.23317074775696

$$$$
77
                    3D
 Structure written by MMmdl.
154162  0  0  1  0            999 V2000
  -29.6355  -14.2423   21.3174 C   0  0  0  0  0  0
  -30.5935  -12.5550   19.5690 C   0  0  0  0  0  0
  -29.7902  -12.5719   18.2024 C   0  0  0  0  0  0
  -28.2895  -12.2269   18.3070 C   0  0  0  0  0  0
  -27.8663  -12.8653   19.5805 C   0  0  2  0  0  0
  -28.6385  -12.2078   20.7267 C   0  0  0  0  0  0
  -25.7363  -13.9497   19.7896 C   0  0  0  0  0  0
  -24.7132  -13.6365   20.5796 C   0  0  0  0  0  0
  -24.8142  -12.0054   20.3608 C   0  0  0  0  0  0
  -24.0241  -10.6394   20.7514 C   0  0  0  0  0  0
  -24.4345   -9.6498   21.7286 C   0  0  0  0  0  0
  -23.7080   -8.4384   22.0111 C   0  0  0  0  0  0
  -22.4992   -8.1426   21.3329 C   0  0  0  0  0  0
  -22.0717   -9.0916   20.3871 C   0  0  0  0  0  0
  -22.8148  -10.2665   20.0985 C   0  0  0  0  0  0
  -21.7469   -6.1333   22.5294 C   0  0  0  0  0  0
  -21.4463   -6.6002   23.8276 C   0  0  0  0  0  0
  -21.3831   -5.7009   24.9130 C   0  0  0  0  0  0
  -21.6053   -4.3258   24.7089 C   0  0  0  0  0  0
  -21.8776   -3.8473   23.4156 C   0  0  0  0  0  0
  -21.9386   -4.7440   22.3312 C   0  0  0  0  0  0
  -23.0417  -14.9299   22.2952 C   0  0  0  0  0  0
  -22.1715   -4.2583   21.0884 F   0  0  0  0  0  0
  -21.5534   -3.4645   25.7537 F   0  0  0  0  0  0
  -29.7781  -13.0090   20.7513 N   0  0  0  0  0  0
  -26.5181  -12.8469   19.8140 N   0  0  0  0  0  0
  -26.0197  -11.6782   20.1499 N   0  0  0  0  0  0
  -22.1478  -14.2885   23.1526 N   0  0  0  0  0  0
  -26.2180  -15.1195   19.2587 N   0  0  0  0  0  0
  -30.6320  -14.9545   20.9775 O   0  0  0  0  0  0
  -21.7466   -6.9758   21.4358 O   0  0  0  0  0  0
  -22.2837  -15.8663   22.0327 O   0  0  0  0  0  0
  -24.6885  -31.7999   23.1606 C   0  0  0  0  0  0
  -25.9516  -32.4384   23.8051 C   0  0  1  0  0  0
  -26.6876  -26.4987   20.2405 C   0  0  0  0  0  0
  -25.6108  -33.8235   24.1903 N   0  0  0  0  0  0
  -23.4833  -30.4445   21.5250 C   0  0  2  0  0  0
  -24.8444  -28.8104   20.0651 C   0  0  0  0  0  0
  -22.7669  -29.4393   22.4674 C   0  0  0  0  0  0
  -18.0306  -28.1407   22.8450 C   0  0  0  0  0  0
  -24.1536  -36.7119   23.2640 C   0  0  0  0  0  0
  -26.0671  -30.4532   21.4469 C   0  0  0  0  0  0
  -26.0318  -29.0216   20.7728 C   0  0  0  0  0  0
  -26.9846  -27.8727   20.8337 C   0  0  0  0  0  0
  -25.6084  -26.5802   19.3744 C   0  0  0  0  0  0
  -24.6958  -27.6424   19.3194 C   0  0  0  0  0  0
  -23.7042  -29.8165   20.1272 C   0  0  0  0  0  0
  -25.4184  -36.2835   24.0255 C   0  0  1  0  0  0
  -20.5936  -28.3760   23.1132 C   0  0  2  0  0  0
  -20.6791  -26.9429   22.5389 C   0  0  0  0  0  0
  -19.5782  -26.6368   21.5191 C   0  0  0  0  0  0
  -18.1953  -26.7930   22.1599 C   0  0  0  0  0  0
  -19.1573  -28.8904   23.2780 C   0  0  0  0  0  0
  -18.9491  -30.1482   23.8838 C   0  0  0  0  0  0
  -17.6494  -30.6601   24.0553 C   0  0  0  0  0  0
  -25.9191  -34.9235   23.4905 C   0  0  0  0  0  0
  -16.5376  -29.9097   23.6356 C   0  0  0  0  0  0
  -16.7288  -28.6512   23.0375 C   0  0  0  0  0  0
  -26.4646  -31.6438   25.0699 C   0  0  0  0  0  0
  -25.3694  -31.3808   26.1296 C   0  0  0  0  0  0
  -27.0541  -30.2721   24.6736 C   0  0  0  0  0  0
  -27.6089  -32.4310   25.7488 C   0  0  0  0  0  0
  -27.5577  -37.1712   24.8457 C   0  0  0  0  0  0
  -21.4327  -29.3028   22.3435 N   0  0  0  0  0  0
  -26.4288  -37.3615   23.9394 N   0  0  0  0  0  0
  -24.7763  -30.9401   22.0904 N   0  0  0  0  0  0
  -23.4182  -28.7904   23.2904 O   0  0  0  0  0  0
  -27.1646  -25.0293   20.3300 O   0  0  0  0  0  0
  -26.5821  -34.8827   22.4518 O   0  0  0  0  0  0
  -23.5936  -32.1196   23.6569 O   0  0  0  0  0  0
  -22.5961  -13.0809   20.9744 C   0  0  0  0  0  0
  -23.9823  -12.7862   22.5228 C   0  0  0  0  0  0
  -22.8626  -14.7805   19.9290 C   0  0  0  0  0  0
  -25.3092  -15.6493   21.7825 C   0  0  0  0  0  0
  -25.3900  -14.1345   22.7035 C   0  0  0  0  0  0
  -24.1990  -16.1136   20.4745 C   0  0  0  0  0  0
  -27.1255  -13.9451   22.6449 C   0  0  0  0  0  0
  -24.6219  -17.9213   19.9500 C   0  0  0  0  0  0
  -25.1362  -19.7624   20.5877 C   0  0  0  0  0  0
  -25.9929  -21.5139   20.0557 C   0  0  0  0  0  0
  -26.2345  -23.4635   20.5310 C   0  0  0  0  0  0
  -28.2231  -14.6086   21.9800 N   0  0  0  0  0  0
  -31.4984  -13.1570   19.4672 H   0  0  0  0  0  0
  -30.9587  -11.5468   19.7683 H   0  0  0  0  0  0
  -30.2725  -11.9183   17.4745 H   0  0  0  0  0  0
  -29.8759  -13.5774   17.7864 H   0  0  0  0  0  0
  -28.1246  -11.1477   18.3253 H   0  0  0  0  0  0
  -27.7398  -12.6242   17.4521 H   0  0  0  0  0  0
  -28.1555  -13.8945   19.3922 H   0  0  0  0  0  0
  -28.8898  -11.1791   20.4585 H   0  0  0  0  0  0
  -28.1627  -11.9900   21.6654 H   0  0  0  0  0  0
  -25.3567   -9.8265   22.2621 H   0  0  0  0  0  0
  -24.1035   -7.7402   22.7359 H   0  0  0  0  0  0
  -21.1696   -8.8939   19.8249 H   0  0  0  0  0  0
  -22.4402  -10.9076   19.3133 H   0  0  0  0  0  0
  -21.2606   -7.6511   23.9944 H   0  0  0  0  0  0
  -21.1640   -6.0646   25.9061 H   0  0  0  0  0  0
  -22.0328   -2.7924   23.2519 H   0  0  0  0  0  0
  -22.2609  -13.3072   23.3557 H   0  0  0  0  0  0
  -21.3849  -14.8120   23.5505 H   0  0  0  0  0  0
  -25.6725  -15.9651   19.3632 H   0  0  0  0  0  0
  -27.0267  -15.2118   18.6581 H   0  0  0  0  0  0
  -26.7546  -32.4711   23.0686 H   0  0  0  0  0  0
  -25.0105  -33.9269   24.9947 H   0  0  0  0  0  0
  -22.8087  -31.2915   21.3828 H   0  0  0  0  0  0
  -23.3818  -35.9427   23.3214 H   0  0  0  0  0  0
  -24.3619  -36.8890   22.2077 H   0  0  0  0  0  0
  -23.7295  -37.6264   23.6798 H   0  0  0  0  0  0
  -26.3307  -31.1744   20.6715 H   0  0  0  0  0  0
  -26.9124  -30.4610   22.1215 H   0  0  0  0  0  0
  -27.8653  -27.9811   21.4514 H   0  0  0  0  0  0
  -25.3383  -25.6926   18.8194 H   0  0  0  0  0  0
  -23.8070  -27.5153   18.7161 H   0  0  0  0  0  0
  -23.9176  -30.6051   19.4043 H   0  0  0  0  0  0
  -22.7800  -29.3466   19.7836 H   0  0  0  0  0  0
  -25.1404  -36.1564   25.0746 H   0  0  0  0  0  0
  -21.0027  -28.3404   24.1252 H   0  0  0  0  0  0
  -20.5667  -26.2373   23.3635 H   0  0  0  0  0  0
  -21.6654  -26.7406   22.1195 H   0  0  0  0  0  0
  -19.6975  -25.6264   21.1264 H   0  0  0  0  0  0
  -19.6749  -27.3139   20.6689 H   0  0  0  0  0  0
  -17.4216  -26.6620   21.4013 H   0  0  0  0  0  0
  -18.0401  -26.0083   22.9020 H   0  0  0  0  0  0
  -19.7972  -30.7294   24.2193 H   0  0  0  0  0  0
  -17.5061  -31.6282   24.5154 H   0  0  0  0  0  0
  -15.5384  -30.3004   23.7727 H   0  0  0  0  0  0
  -15.8661  -28.0826   22.7160 H   0  0  0  0  0  0
  -24.5936  -30.7069   25.7637 H   0  0  0  0  0  0
  -24.8815  -32.3034   26.4439 H   0  0  0  0  0  0
  -25.7882  -30.9182   27.0237 H   0  0  0  0  0  0
  -26.3220  -29.6269   24.1867 H   0  0  0  0  0  0
  -27.3954  -29.7258   25.5539 H   0  0  0  0  0  0
  -27.9251  -30.3709   24.0256 H   0  0  0  0  0  0
  -27.2635  -33.3714   26.1783 H   0  0  0  0  0  0
  -28.4038  -32.6692   25.0408 H   0  0  0  0  0  0
  -28.0593  -31.8614   26.5622 H   0  0  0  0  0  0
  -28.2521  -38.0072   24.7533 H   0  0  0  0  0  0
  -28.1150  -36.2594   24.6258 H   0  0  0  0  0  0
  -27.2288  -37.1298   25.8854 H   0  0  0  0  0  0
  -20.9559  -29.8713   21.6570 H   0  0  0  0  0  0
  -26.0091  -38.2649   24.1417 H   0  0  0  0  0  0
  -21.7660  -12.4189   20.7793 H   0  0  0  0  0  0
  -24.0134  -11.8709   23.0979 H   0  0  0  0  0  0
  -22.1720  -15.0214   19.1333 H   0  0  0  0  0  0
  -26.1215  -16.3436   21.9371 H   0  0  0  0  0  0
  -27.3924  -13.0510   23.2097 H   0  0  0  0  0  0
  -23.7917  -18.1323   19.2766 H   0  0  0  0  0  0
  -25.4432  -17.7232   19.2637 H   0  0  0  0  0  0
  -25.7091  -19.5212   21.4838 H   0  0  0  0  0  0
  -24.1838  -20.1047   20.9946 H   0  0  0  0  0  0
  -25.6640  -21.5961   19.0203 H   0  0  0  0  0  0
  -27.0322  -21.1964   19.9536 H   0  0  0  0  0  0
  -26.3857  -23.3599   21.6050 H   0  0  0  0  0  0
  -25.2111  -23.8313   20.4684 H   0  0  0  0  0  0
  1 25  1  0  0  0
  1 30  2  0  0  0
  1 82  1  0  0  0
  2  3  1  0  0  0
  2 25  1  0  0  0
  2 83  1  0  0  0
  2 84  1  0  0  0
  3  4  1  0  0  0
  3 85  1  0  0  0
  3 86  1  0  0  0
  4  5  1  0  0  0
  4 87  1  0  0  0
  4 88  1  0  0  0
  5  6  1  0  0  0
  5 26  1  0  0  0
  5 89  1  0  0  0
  6 25  1  0  0  0
  6 90  1  0  0  0
  6 91  1  0  0  0
  7  8  2  0  0  0
  7 26  1  0  0  0
  7 29  1  0  0  0
  8  9  1  0  0  0
  8 22  1  0  0  0
  9 10  1  0  0  0
  9 27  2  0  0  0
 10 11  2  0  0  0
 10 15  1  0  0  0
 11 12  1  0  0  0
 11 92  1  0  0  0
 12 13  2  0  0  0
 12 93  1  0  0  0
 13 14  1  0  0  0
 13 31  1  0  0  0
 14 15  2  0  0  0
 14 94  1  0  0  0
 15 95  1  0  0  0
 16 17  2  0  0  0
 16 21  1  0  0  0
 16 31  1  0  0  0
 17 18  1  0  0  0
 17 96  1  0  0  0
 18 19  2  0  0  0
 18 97  1  0  0  0
 19 20  1  0  0  0
 19 24  1  0  0  0
 20 21  2  0  0  0
 20 98  1  0  0  0
 21 23  1  0  0  0
 22 28  1  0  0  0
 22 32  2  0  0  0
 26 27  1  0  0  0
 28 99  1  0  0  0
 28100  1  0  0  0
 29101  1  0  0  0
 29102  1  0  0  0
 33 34  1  0  0  0
 33 66  1  0  0  0
 33 70  2  0  0  0
 34 36  1  0  0  0
 34 59  1  0  0  0
 34103  1  0  0  0
 35 44  2  0  0  0
 35 45  1  0  0  0
 35 68  1  0  0  0
 36 56  1  0  0  0
 36104  1  0  0  0
 37 39  1  0  0  0
 37 47  1  0  0  0
 37 66  1  0  0  0
 37105  1  0  0  0
 38 43  2  0  0  0
 38 46  1  0  0  0
 38 47  1  0  0  0
 39 64  1  0  0  0
 39 67  2  0  0  0
 40 52  1  0  0  0
 40 53  2  0  0  0
 40 58  1  0  0  0
 41106  1  0  0  0
 41107  1  0  0  0
 41108  1  0  0  0
 41 48  1  0  0  0
 42 43  1  0  0  0
 42 66  1  0  0  0
 42109  1  0  0  0
 42110  1  0  0  0
 43 44  1  0  0  0
 44111  1  0  0  0
 45 46  2  0  0  0
 45112  1  0  0  0
 46113  1  0  0  0
 47114  1  0  0  0
 47115  1  0  0  0
 48 56  1  0  0  0
 48 65  1  0  0  0
 48116  1  0  0  0
 49 50  1  0  0  0
 49 53  1  0  0  0
 49 64  1  0  0  0
 49117  1  0  0  0
 50 51  1  0  0  0
 50118  1  0  0  0
 50119  1  0  0  0
 51 52  1  0  0  0
 51120  1  0  0  0
 51121  1  0  0  0
 52122  1  0  0  0
 52123  1  0  0  0
 53 54  1  0  0  0
 54 55  2  0  0  0
 54124  1  0  0  0
 55 57  1  0  0  0
 55125  1  0  0  0
 56 69  2  0  0  0
 57 58  2  0  0  0
 57126  1  0  0  0
 58127  1  0  0  0
 59 60  1  0  0  0
 59 61  1  0  0  0
 59 62  1  0  0  0
 60128  1  0  0  0
 60129  1  0  0  0
 60130  1  0  0  0
 61131  1  0  0  0
 61132  1  0  0  0
 61133  1  0  0  0
 62134  1  0  0  0
 62135  1  0  0  0
 62136  1  0  0  0
 63 65  1  0  0  0
 63137  1  0  0  0
 63138  1  0  0  0
 63139  1  0  0  0
 64140  1  0  0  0
 65141  1  0  0  0
 68 81  1  0  0  0
 71 72  2  0  0  0
 71 73  1  0  0  0
 71142  1  0  0  0
 72 75  1  0  0  0
 72143  1  0  0  0
 73 76  2  0  0  0
 73144  1  0  0  0
 74 75  2  0  0  0
 74 76  1  0  0  0
 74145  1  0  0  0
 75 77  1  0  0  0
 76 78  1  0  0  0
 77 82  2  0  0  0
 77146  1  0  0  0
 78 79  1  0  0  0
 78147  1  0  0  0
 78148  1  0  0  0
 79 80  1  0  0  0
 79149  1  0  0  0
 79150  1  0  0  0
 80 81  1  0  0  0
 80151  1  0  0  0
 80152  1  0  0  0
 81153  1  0  0  0
 81154  1  0  0  0
M  ISO  4   1 100  68 101  81 101  82 100
M  END
> <chiral flag>
0

> <version>
0

> <s_m_source_file>
/data/baiqing/PycharmProjects/Reinvent-master-3.2/result/LINK_invent/BTK/process_docking_weight1_custom_product_contain_oxygen_bond_distance_aromatic_linkinvent_7_9_3/rearranged_h_0131.sdf

> <i_m_source_file_index>
78

> <r_mmod_Potential_Energy-OPLS-2005>
14935.1982421875

> <r_mmod_Stretch_Energy-OPLS-2005>
7927.36376953125

> <r_mmod_Bend_Energy-OPLS-2005>
1088.72387695312

> <r_mmod_Torsional_Energy-OPLS-2005>
352.968719482422

> <r_mmod_Improper_Torsional_Energy-OPLS-2005>
64.7408294677734

> <r_mmod_Van_der_Waal_Energy-OPLS-2005>
3154.138671875

> <r_mmod_Electrostatic_Energy-OPLS-2005>
-354.003265380859

> <r_mmod_Solvation_Energy-OPLS-2005>
-181.103851318359

> <b_mmod_Minimization_Converged-OPLS-2005>
0

> <r_mmod_RMS_Derivative-OPLS-2005>
4.71299982070923

$$$$
78
                    3D
 Structure written by MMmdl.
160168  0  0  1  0            999 V2000
  -30.6623  -14.5405   20.5870 C   0  0  0  0  0  0
  -30.4393  -12.3569   19.4232 C   0  0  0  0  0  0
  -29.5005  -12.5253   18.2085 C   0  0  0  0  0  0
  -28.0212  -12.3738   18.6202 C   0  0  0  0  0  0
  -27.6650  -13.2079   19.8802 C   0  0  2  0  0  0
  -28.7111  -12.9712   20.9919 C   0  0  0  0  0  0
  -25.2605  -13.8160   20.5681 C   0  0  0  0  0  0
  -24.1845  -13.0438   20.9156 C   0  0  0  0  0  0
  -24.6400  -11.6904   20.8719 C   0  0  0  0  0  0
  -23.9061  -10.4293   21.0397 C   0  0  0  0  0  0
  -24.3614   -9.4211   21.9176 C   0  0  0  0  0  0
  -23.6290   -8.2248   22.0754 C   0  0  0  0  0  0
  -22.4271   -8.0284   21.3547 C   0  0  0  0  0  0
  -21.9900   -9.0256   20.4648 C   0  0  0  0  0  0
  -22.7232  -10.2134   20.3051 C   0  0  0  0  0  0
  -21.6854   -6.0734   22.5279 C   0  0  0  0  0  0
  -21.4016   -6.5636   23.8212 C   0  0  0  0  0  0
  -21.3656   -5.6789   24.9172 C   0  0  0  0  0  0
  -21.6044   -4.3055   24.7223 C   0  0  0  0  0  0
  -21.8819   -3.8145   23.4346 C   0  0  0  0  0  0
  -21.9192   -4.6961   22.3402 C   0  0  0  0  0  0
  -22.7865  -13.5238   21.1825 C   0  0  0  0  0  0
  -22.1662   -4.2147   21.0981 F   0  0  0  0  0  0
  -21.5627   -3.4538   25.7737 F   0  0  0  0  0  0
  -30.0290  -13.3353   20.4466 N   0  0  0  0  0  0
  -26.3052  -12.9331   20.3396 N   0  0  0  0  0  0
  -25.9333  -11.6488   20.5762 N   0  0  0  0  0  0
  -22.0506  -12.8239   22.0390 N   0  0  0  0  0  0
  -25.4340  -15.1880   20.4114 N   0  0  0  0  0  0
  -31.7721  -14.7376   20.0827 O   0  0  0  0  0  0
  -21.6644   -6.8877   21.4241 O   0  0  0  0  0  0
  -22.3548  -14.5544   20.6677 O   0  0  0  0  0  0
  -24.6211  -31.8656   23.2087 C   0  0  0  0  0  0
  -25.9084  -32.4811   23.8391 C   0  0  1  0  0  0
  -27.2247  -27.3796   20.0950 C   0  0  0  0  0  0
  -25.5923  -33.8610   24.2319 N   0  0  0  0  0  0
  -23.4109  -30.4925   21.5508 C   0  0  2  0  0  0
  -24.8550  -28.9585   20.1140 C   0  0  0  0  0  0
  -22.7444  -29.4659   22.4964 C   0  0  0  0  0  0
  -18.0281  -28.1385   22.8488 C   0  0  0  0  0  0
  -24.1491  -36.7308   23.2638 C   0  0  0  0  0  0
  -25.9483  -30.8142   21.3715 C   0  0  0  0  0  0
  -26.0233  -29.4474   20.7119 C   0  0  0  0  0  0
  -27.2125  -28.6691   20.6945 C   0  0  0  0  0  0
  -26.0307  -26.9307   19.4801 C   0  0  0  0  0  0
  -24.8570  -27.7019   19.4934 C   0  0  0  0  0  0
  -23.6218  -29.8325   20.1645 C   0  0  0  0  0  0
  -25.4113  -36.3104   24.0334 C   0  0  1  0  0  0
  -20.5877  -28.3684   23.1297 C   0  0  2  0  0  0
  -20.6775  -26.9415   22.5410 C   0  0  0  0  0  0
  -19.5751  -26.6390   21.5212 C   0  0  0  0  0  0
  -18.1930  -26.7930   22.1625 C   0  0  0  0  0  0
  -19.1532  -28.8849   23.2891 C   0  0  0  0  0  0
  -18.9459  -30.1451   23.8906 C   0  0  0  0  0  0
  -17.6460  -30.6587   24.0567 C   0  0  0  0  0  0
  -25.9042  -34.9469   23.5120 C   0  0  0  0  0  0
  -16.5351  -29.9089   23.6329 C   0  0  0  0  0  0
  -16.7270  -28.6507   23.0349 C   0  0  0  0  0  0
  -26.4490  -31.6599   25.0735 C   0  0  0  0  0  0
  -25.3744  -31.3719   26.1474 C   0  0  0  0  0  0
  -27.0324  -30.3033   24.6146 C   0  0  0  0  0  0
  -27.6059  -32.4324   25.7498 C   0  0  0  0  0  0
  -27.5581  -37.1811   24.8466 C   0  0  0  0  0  0
  -21.4165  -29.3048   22.3697 N   0  0  0  0  0  0
  -26.4297  -37.3790   23.9405 N   0  0  0  0  0  0
  -24.6787  -31.0721   22.1012 N   0  0  0  0  0  0
  -23.4195  -28.8187   23.3013 O   0  0  0  0  0  0
  -28.3602  -26.5724   20.1155 O   0  0  0  0  0  0
  -26.5600  -34.8924   22.4680 O   0  0  0  0  0  0
  -23.5388  -32.1428   23.7448 O   0  0  0  0  0  0
  -33.2715  -21.0826   20.6466 C   0  0  0  0  0  0
  -31.9836  -21.6179   20.4981 C   0  0  0  0  0  0
  -32.3344  -18.8492   20.5019 C   0  0  0  0  0  0
  -31.0155  -19.3565   20.3555 C   0  0  0  0  0  0
  -33.4508  -19.6925   20.6432 C   0  0  0  0  0  0
  -30.8434  -20.7927   20.3529 C   0  0  0  0  0  0
  -29.8747  -18.3763   20.2061 C   0  0  0  0  0  0
  -29.6515  -17.0740   20.5866 C   0  0  0  0  0  0
  -29.3564  -24.2280   20.2357 C   0  0  0  0  0  0
  -34.8420  -19.1061   20.7693 C   0  0  0  0  0  0
  -29.4932  -21.5240   20.1456 C   0  0  0  0  0  0
  -29.9912  -15.7451   21.3296 C   0  0  0  0  0  0
  -29.2567  -22.8521   20.9624 C   0  0  0  0  0  0
  -28.0985  -25.1385   20.2224 C   0  0  0  0  0  0
  -30.4020  -24.5830   19.6836 O   0  0  0  0  0  0
  -31.4786  -12.4847   19.1163 H   0  0  0  0  0  0
  -30.3741  -11.3441   19.8232 H   0  0  0  0  0  0
  -29.7515  -11.7976   17.4361 H   0  0  0  0  0  0
  -29.6540  -13.5100   17.7638 H   0  0  0  0  0  0
  -27.8393  -11.3162   18.8156 H   0  0  0  0  0  0
  -27.3670  -12.6456   17.7906 H   0  0  0  0  0  0
  -27.7128  -14.2590   19.5944 H   0  0  0  0  0  0
  -28.7156  -11.9184   21.2771 H   0  0  0  0  0  0
  -28.4573  -13.4918   21.9126 H   0  0  0  0  0  0
  -25.2762   -9.5690   22.4744 H   0  0  0  0  0  0
  -24.0002   -7.4642   22.7478 H   0  0  0  0  0  0
  -21.0828   -8.8777   19.8958 H   0  0  0  0  0  0
  -22.3693  -10.9670   19.6159 H   0  0  0  0  0  0
  -21.2019   -7.6145   23.9714 H   0  0  0  0  0  0
  -21.1474   -6.0520   25.9074 H   0  0  0  0  0  0
  -22.0603   -2.7608   23.2847 H   0  0  0  0  0  0
  -22.4124  -11.9900   22.4776 H   0  0  0  0  0  0
  -21.1130  -13.1281   22.2608 H   0  0  0  0  0  0
  -24.6732  -15.8480   20.5275 H   0  0  0  0  0  0
  -26.3007  -15.6276   20.1260 H   0  0  0  0  0  0
  -26.7152  -32.5502   23.1147 H   0  0  0  0  0  0
  -25.0088  -33.9770   25.0476 H   0  0  0  0  0  0
  -22.7024  -31.3119   21.4130 H   0  0  0  0  0  0
  -23.3748  -35.9646   23.3312 H   0  0  0  0  0  0
  -24.3582  -36.8911   22.2050 H   0  0  0  0  0  0
  -23.7249  -37.6519   23.6645 H   0  0  0  0  0  0
  -26.0728  -31.5818   20.6063 H   0  0  0  0  0  0
  -26.8318  -30.8612   21.9966 H   0  0  0  0  0  0
  -28.1114  -29.0422   21.1653 H   0  0  0  0  0  0
  -25.9700  -25.9823   18.9708 H   0  0  0  0  0  0
  -23.9616  -27.3230   19.0204 H   0  0  0  0  0  0
  -23.7384  -30.6113   19.4099 H   0  0  0  0  0  0
  -22.7426  -29.2607   19.8617 H   0  0  0  0  0  0
  -25.1290  -36.1966   25.0827 H   0  0  0  0  0  0
  -20.9975  -28.3257   24.1417 H   0  0  0  0  0  0
  -20.5690  -26.2293   23.3604 H   0  0  0  0  0  0
  -21.6645  -26.7461   22.1195 H   0  0  0  0  0  0
  -19.6915  -25.6304   21.1239 H   0  0  0  0  0  0
  -19.6687  -27.3206   20.6747 H   0  0  0  0  0  0
  -17.4200  -26.6677   21.4027 H   0  0  0  0  0  0
  -18.0332  -26.0070   22.9020 H   0  0  0  0  0  0
  -19.7934  -30.7265   24.2282 H   0  0  0  0  0  0
  -17.5016  -31.6269   24.5169 H   0  0  0  0  0  0
  -15.5352  -30.2997   23.7647 H   0  0  0  0  0  0
  -15.8670  -28.0832   22.7058 H   0  0  0  0  0  0
  -24.5913  -30.7071   25.7809 H   0  0  0  0  0  0
  -24.8942  -32.2880   26.4922 H   0  0  0  0  0  0
  -25.8088  -30.8885   27.0234 H   0  0  0  0  0  0
  -26.2882  -29.6791   24.1187 H   0  0  0  0  0  0
  -27.4062  -29.7275   25.4623 H   0  0  0  0  0  0
  -27.8734  -30.4335   23.9331 H   0  0  0  0  0  0
  -27.2673  -33.3615   26.2097 H   0  0  0  0  0  0
  -28.3857  -32.6901   25.0318 H   0  0  0  0  0  0
  -28.0743  -31.8438   26.5398 H   0  0  0  0  0  0
  -28.2608  -38.0099   24.7501 H   0  0  0  0  0  0
  -28.1066  -36.2629   24.6306 H   0  0  0  0  0  0
  -27.2296  -37.1480   25.8869 H   0  0  0  0  0  0
  -20.9329  -29.8779   21.6922 H   0  0  0  0  0  0
  -26.0183  -38.2868   24.1399 H   0  0  0  0  0  0
  -34.1200  -21.7463   20.7482 H   0  0  0  0  0  0
  -31.8885  -22.6927   20.4844 H   0  0  0  0  0  0
  -32.5249  -17.7854   20.4749 H   0  0  0  0  0  0
  -29.0494  -18.7906   19.6456 H   0  0  0  0  0  0
  -30.6586  -17.1617   20.9181 H   0  0  0  0  0  0
  -35.4443  -19.6858   21.4692 H   0  0  0  0  0  0
  -35.3431  -19.1114   19.8008 H   0  0  0  0  0  0
  -34.8071  -18.0776   21.1294 H   0  0  0  0  0  0
  -28.6882  -20.8409   20.4130 H   0  0  0  0  0  0
  -29.3707  -21.7168   19.0787 H   0  0  0  0  0  0
  -29.0040  -15.4483   21.6633 H   0  0  0  0  0  0
  -30.5189  -15.8923   22.2801 H   0  0  0  0  0  0
  -28.2389  -22.8079   21.3498 H   0  0  0  0  0  0
  -29.8890  -22.8690   21.8497 H   0  0  0  0  0  0
  -27.5115  -24.9481   21.1219 H   0  0  0  0  0  0
  -27.5173  -24.7878   19.3724 H   0  0  0  0  0  0
  1 25  1  0  0  0
  1 30  2  0  0  0
  1 82  1  0  0  0
  2  3  1  0  0  0
  2 25  1  0  0  0
  2 86  1  0  0  0
  2 87  1  0  0  0
  3  4  1  0  0  0
  3 88  1  0  0  0
  3 89  1  0  0  0
  4  5  1  0  0  0
  4 90  1  0  0  0
  4 91  1  0  0  0
  5  6  1  0  0  0
  5 26  1  0  0  0
  5 92  1  0  0  0
  6 25  1  0  0  0
  6 93  1  0  0  0
  6 94  1  0  0  0
  7  8  2  0  0  0
  7 26  1  0  0  0
  7 29  1  0  0  0
  8  9  1  0  0  0
  8 22  1  0  0  0
  9 10  1  0  0  0
  9 27  2  0  0  0
 10 11  2  0  0  0
 10 15  1  0  0  0
 11 12  1  0  0  0
 11 95  1  0  0  0
 12 13  2  0  0  0
 12 96  1  0  0  0
 13 14  1  0  0  0
 13 31  1  0  0  0
 14 15  2  0  0  0
 14 97  1  0  0  0
 15 98  1  0  0  0
 16 17  2  0  0  0
 16 21  1  0  0  0
 16 31  1  0  0  0
 17 18  1  0  0  0
 17 99  1  0  0  0
 18 19  2  0  0  0
 18100  1  0  0  0
 19 20  1  0  0  0
 19 24  1  0  0  0
 20 21  2  0  0  0
 20101  1  0  0  0
 21 23  1  0  0  0
 22 28  1  0  0  0
 22 32  2  0  0  0
 26 27  1  0  0  0
 28102  1  0  0  0
 28103  1  0  0  0
 29104  1  0  0  0
 29105  1  0  0  0
 33 34  1  0  0  0
 33 66  1  0  0  0
 33 70  2  0  0  0
 34 36  1  0  0  0
 34 59  1  0  0  0
 34106  1  0  0  0
 35 44  2  0  0  0
 35 45  1  0  0  0
 35 68  1  0  0  0
 36 56  1  0  0  0
 36107  1  0  0  0
 37 39  1  0  0  0
 37 47  1  0  0  0
 37 66  1  0  0  0
 37108  1  0  0  0
 38 43  2  0  0  0
 38 46  1  0  0  0
 38 47  1  0  0  0
 39 64  1  0  0  0
 39 67  2  0  0  0
 40 52  1  0  0  0
 40 53  2  0  0  0
 40 58  1  0  0  0
 41109  1  0  0  0
 41110  1  0  0  0
 41111  1  0  0  0
 41 48  1  0  0  0
 42 43  1  0  0  0
 42 66  1  0  0  0
 42112  1  0  0  0
 42113  1  0  0  0
 43 44  1  0  0  0
 44114  1  0  0  0
 45 46  2  0  0  0
 45115  1  0  0  0
 46116  1  0  0  0
 47117  1  0  0  0
 47118  1  0  0  0
 48 56  1  0  0  0
 48 65  1  0  0  0
 48119  1  0  0  0
 49 50  1  0  0  0
 49 53  1  0  0  0
 49 64  1  0  0  0
 49120  1  0  0  0
 50 51  1  0  0  0
 50121  1  0  0  0
 50122  1  0  0  0
 51 52  1  0  0  0
 51123  1  0  0  0
 51124  1  0  0  0
 52125  1  0  0  0
 52126  1  0  0  0
 53 54  1  0  0  0
 54 55  2  0  0  0
 54127  1  0  0  0
 55 57  1  0  0  0
 55128  1  0  0  0
 56 69  2  0  0  0
 57 58  2  0  0  0
 57129  1  0  0  0
 58130  1  0  0  0
 59 60  1  0  0  0
 59 61  1  0  0  0
 59 62  1  0  0  0
 60131  1  0  0  0
 60132  1  0  0  0
 60133  1  0  0  0
 61134  1  0  0  0
 61135  1  0  0  0
 61136  1  0  0  0
 62137  1  0  0  0
 62138  1  0  0  0
 62139  1  0  0  0
 63 65  1  0  0  0
 63140  1  0  0  0
 63141  1  0  0  0
 63142  1  0  0  0
 64143  1  0  0  0
 65144  1  0  0  0
 68 84  1  0  0  0
 71 72  2  0  0  0
 71 75  1  0  0  0
 71145  1  0  0  0
 72 76  1  0  0  0
 72146  1  0  0  0
 73 74  1  0  0  0
 73 75  2  0  0  0
 73147  1  0  0  0
 74 76  2  0  0  0
 74 77  1  0  0  0
 75 80  1  0  0  0
 76 81  1  0  0  0
 77 78  2  0  0  0
 77148  1  0  0  0
 78 82  1  0  0  0
 78149  1  0  0  0
 79 83  1  0  0  0
 79 84  1  0  0  0
 79 85  2  0  0  0
 80150  1  0  0  0
 80151  1  0  0  0
 80152  1  0  0  0
 81 83  1  0  0  0
 81153  1  0  0  0
 81154  1  0  0  0
 82155  1  0  0  0
 82156  1  0  0  0
 83157  1  0  0  0
 83158  1  0  0  0
 84159  1  0  0  0
 84160  1  0  0  0
M  ISO  4   1 100  68 101  82 100  84 101
M  END
> <chiral flag>
0

> <version>
0

> <s_m_source_file>
/data/baiqing/PycharmProjects/Reinvent-master-3.2/result/LINK_invent/BTK/process_docking_weight1_custom_product_contain_oxygen_bond_distance_aromatic_linkinvent_7_9_3/rearranged_h_0131.sdf

> <i_m_source_file_index>
79

> <r_mmod_Potential_Energy-OPLS-2005>
286.041351318359

> <r_mmod_Stretch_Energy-OPLS-2005>
63.3445281982422

> <r_mmod_Bend_Energy-OPLS-2005>
366.642272949219

> <r_mmod_Torsional_Energy-OPLS-2005>
191.777633666992

> <r_mmod_Improper_Torsional_Energy-OPLS-2005>
3.1553258895874

> <r_mmod_Van_der_Waal_Energy-OPLS-2005>
169.03434753418

> <r_mmod_Electrostatic_Energy-OPLS-2005>
-317.112518310547

> <r_mmod_Solvation_Energy-OPLS-2005>
-213.761215209961

> <b_mmod_Minimization_Converged-OPLS-2005>
0

> <r_mmod_RMS_Derivative-OPLS-2005>
0.907423794269562

$$$$
79
                    3D
 Structure written by MMmdl.
157165  0  0  1  0            999 V2000
  -30.6662  -14.6007   20.5170 C   0  0  0  0  0  0
  -30.4284  -12.3761   19.4442 C   0  0  0  0  0  0
  -29.4951  -12.4996   18.2208 C   0  0  0  0  0  0
  -28.0184  -12.3389   18.6352 C   0  0  0  0  0  0
  -27.6473  -13.2172   19.8594 C   0  0  2  0  0  0
  -28.6955  -13.0887   20.9873 C   0  0  0  0  0  0
  -25.2535  -13.8187   20.5700 C   0  0  0  0  0  0
  -24.1803  -13.0450   20.9211 C   0  0  0  0  0  0
  -24.6383  -11.6930   20.8778 C   0  0  0  0  0  0
  -23.9064  -10.4307   21.0435 C   0  0  0  0  0  0
  -24.3628   -9.4214   21.9198 C   0  0  0  0  0  0
  -23.6311   -8.2243   22.0755 C   0  0  0  0  0  0
  -22.4290   -8.0299   21.3550 C   0  0  0  0  0  0
  -21.9927   -9.0268   20.4644 C   0  0  0  0  0  0
  -22.7250  -10.2148   20.3066 C   0  0  0  0  0  0
  -21.6849   -6.0754   22.5280 C   0  0  0  0  0  0
  -21.4006   -6.5648   23.8212 C   0  0  0  0  0  0
  -21.3665   -5.6802   24.9174 C   0  0  0  0  0  0
  -21.6046   -4.3062   24.7215 C   0  0  0  0  0  0
  -21.8816   -3.8158   23.4329 C   0  0  0  0  0  0
  -21.9190   -4.6983   22.3396 C   0  0  0  0  0  0
  -22.7824  -13.5237   21.1878 C   0  0  0  0  0  0
  -22.1659   -4.2169   21.0967 F   0  0  0  0  0  0
  -21.5636   -3.4545   25.7722 F   0  0  0  0  0  0
  -30.0107  -13.4058   20.4092 N   0  0  0  0  0  0
  -26.2962  -12.9362   20.3333 N   0  0  0  0  0  0
  -25.9311  -11.6528   20.5803 N   0  0  0  0  0  0
  -22.0472  -12.8226   22.0431 N   0  0  0  0  0  0
  -25.4220  -15.1904   20.4079 N   0  0  0  0  0  0
  -31.8501  -14.7251   20.1961 O   0  0  0  0  0  0
  -21.6647   -6.8904   21.4249 O   0  0  0  0  0  0
  -22.3511  -14.5552   20.6735 O   0  0  0  0  0  0
  -24.6288  -31.8603   23.2087 C   0  0  0  0  0  0
  -25.9132  -32.4772   23.8393 C   0  0  1  0  0  0
  -27.2282  -27.3581   20.1026 C   0  0  0  0  0  0
  -25.5955  -33.8572   24.2304 N   0  0  0  0  0  0
  -23.4192  -30.4925   21.5475 C   0  0  2  0  0  0
  -24.8625  -28.9536   20.1062 C   0  0  0  0  0  0
  -22.7496  -29.4652   22.4916 C   0  0  0  0  0  0
  -18.0279  -28.1390   22.8461 C   0  0  0  0  0  0
  -24.1477  -36.7318   23.2662 C   0  0  0  0  0  0
  -25.9559  -30.8060   21.3698 C   0  0  0  0  0  0
  -26.0296  -29.4372   20.7103 C   0  0  0  0  0  0
  -27.2146  -28.6492   20.7026 C   0  0  0  0  0  0
  -26.0296  -26.9030   19.5001 C   0  0  0  0  0  0
  -24.8615  -27.6900   19.4944 C   0  0  0  0  0  0
  -23.6349  -29.8414   20.1562 C   0  0  0  0  0  0
  -25.4089  -36.3090   24.0349 C   0  0  1  0  0  0
  -20.5882  -28.3705   23.1267 C   0  0  2  0  0  0
  -20.6773  -26.9420   22.5404 C   0  0  0  0  0  0
  -19.5744  -26.6368   21.5205 C   0  0  0  0  0  0
  -18.1919  -26.7920   22.1606 C   0  0  0  0  0  0
  -19.1534  -28.8851   23.2856 C   0  0  0  0  0  0
  -18.9477  -30.1451   23.8885 C   0  0  0  0  0  0
  -17.6487  -30.6587   24.0581 C   0  0  0  0  0  0
  -25.9040  -34.9449   23.5123 C   0  0  0  0  0  0
  -16.5374  -29.9108   23.6325 C   0  0  0  0  0  0
  -16.7274  -28.6532   23.0312 C   0  0  0  0  0  0
  -26.4496  -31.6606   25.0776 C   0  0  0  0  0  0
  -25.3755  -31.3755   26.1536 C   0  0  0  0  0  0
  -27.0348  -30.3064   24.6166 C   0  0  0  0  0  0
  -27.6052  -32.4361   25.7536 C   0  0  0  0  0  0
  -27.5546  -37.1810   24.8466 C   0  0  0  0  0  0
  -21.4215  -29.3066   22.3681 N   0  0  0  0  0  0
  -26.4256  -37.3790   23.9423 N   0  0  0  0  0  0
  -24.6866  -31.0659   22.1016 N   0  0  0  0  0  0
  -23.4240  -28.8140   23.2944 O   0  0  0  0  0  0
  -28.3433  -26.5180   20.1759 O   0  0  0  0  0  0
  -26.5591  -34.8926   22.4673 O   0  0  0  0  0  0
  -23.5463  -32.1359   23.7469 O   0  0  0  0  0  0
  -31.0912  -18.3830   23.0224 C   0  0  0  0  0  0
  -30.8560  -17.1231   22.4445 C   0  0  0  0  0  0
  -29.8872  -18.2341   20.4994 C   0  0  0  0  0  0
  -30.7449  -19.5771   22.3519 C   0  0  0  0  0  0
  -30.1622  -19.5323   21.0562 C   0  0  0  0  0  0
  -30.2357  -17.0163   21.1833 C   0  0  0  0  0  0
  -28.5117  -25.5268   19.2140 C   0  0  0  0  0  0
  -28.7844  -24.1861   19.3357 C   0  0  0  0  0  0
  -28.9909  -23.3809   20.5931 C   0  0  0  0  0  0
  -31.0286  -20.8973   23.0525 C   0  0  0  0  0  0
  -29.9700  -20.8678   20.2576 C   0  0  0  0  0  0
  -28.7620  -21.8208   20.6150 C   0  0  0  0  0  0
  -29.8744  -15.6962   20.7095 N   0  0  0  0  0  0
  -29.3030  -23.9187   21.6579 O   0  0  0  0  0  0
  -28.9029  -23.4755   18.2041 O   0  0  0  0  0  0
  -31.4683  -12.4936   19.1366 H   0  0  0  0  0  0
  -30.3593  -11.3857   19.8960 H   0  0  0  0  0  0
  -29.7555  -11.7554   17.4677 H   0  0  0  0  0  0
  -29.6306  -13.4755   17.7517 H   0  0  0  0  0  0
  -27.8481  -11.2859   18.8663 H   0  0  0  0  0  0
  -27.3640  -12.5733   17.7937 H   0  0  0  0  0  0
  -27.6619  -14.2488   19.5083 H   0  0  0  0  0  0
  -28.6967  -12.0796   21.4022 H   0  0  0  0  0  0
  -28.4547  -13.7575   21.8157 H   0  0  0  0  0  0
  -25.2779   -9.5686   22.4777 H   0  0  0  0  0  0
  -24.0024   -7.4621   22.7466 H   0  0  0  0  0  0
  -21.0864   -8.8793   19.8938 H   0  0  0  0  0  0
  -22.3727  -10.9697   19.6177 H   0  0  0  0  0  0
  -21.1994   -7.6155   23.9727 H   0  0  0  0  0  0
  -21.1494   -6.0523   25.9077 H   0  0  0  0  0  0
  -22.0594   -2.7624   23.2817 H   0  0  0  0  0  0
  -22.4101  -11.9879   22.4783 H   0  0  0  0  0  0
  -21.1085  -13.1231   22.2655 H   0  0  0  0  0  0
  -24.6535  -15.8431   20.5185 H   0  0  0  0  0  0
  -26.2668  -15.6337   20.0694 H   0  0  0  0  0  0
  -26.7208  -32.5425   23.1163 H   0  0  0  0  0  0
  -25.0173  -33.9669   25.0496 H   0  0  0  0  0  0
  -22.7164  -31.3190   21.4146 H   0  0  0  0  0  0
  -23.3722  -35.9673   23.3332 H   0  0  0  0  0  0
  -24.3630  -36.8911   22.2086 H   0  0  0  0  0  0
  -23.7200  -37.6524   23.6659 H   0  0  0  0  0  0
  -26.0758  -31.5723   20.6023 H   0  0  0  0  0  0
  -26.8420  -30.8564   21.9899 H   0  0  0  0  0  0
  -28.1093  -29.0177   21.1855 H   0  0  0  0  0  0
  -25.9746  -25.9186   19.0575 H   0  0  0  0  0  0
  -23.9613  -27.3102   19.0307 H   0  0  0  0  0  0
  -23.7752  -30.6364   19.4213 H   0  0  0  0  0  0
  -22.7507  -29.2935   19.8279 H   0  0  0  0  0  0
  -25.1240  -36.1992   25.0837 H   0  0  0  0  0  0
  -20.9927  -28.3281   24.1410 H   0  0  0  0  0  0
  -20.5661  -26.2327   23.3617 H   0  0  0  0  0  0
  -21.6637  -26.7418   22.1205 H   0  0  0  0  0  0
  -19.6938  -25.6269   21.1252 H   0  0  0  0  0  0
  -19.6699  -27.3162   20.6728 H   0  0  0  0  0  0
  -17.4186  -26.6666   21.4019 H   0  0  0  0  0  0
  -18.0345  -26.0046   22.8992 H   0  0  0  0  0  0
  -19.7979  -30.7244   24.2242 H   0  0  0  0  0  0
  -17.5073  -31.6255   24.5201 H   0  0  0  0  0  0
  -15.5381  -30.3031   23.7645 H   0  0  0  0  0  0
  -15.8675  -28.0892   22.6980 H   0  0  0  0  0  0
  -24.5921  -30.7080   25.7916 H   0  0  0  0  0  0
  -24.8958  -32.2936   26.4963 H   0  0  0  0  0  0
  -25.8119  -30.8968   27.0318 H   0  0  0  0  0  0
  -26.2904  -29.6841   24.1188 H   0  0  0  0  0  0
  -27.4126  -29.7280   25.4604 H   0  0  0  0  0  0
  -27.8732  -30.4427   23.9331 H   0  0  0  0  0  0
  -27.2639  -33.3673   26.2085 H   0  0  0  0  0  0
  -28.3864  -32.6917   25.0358 H   0  0  0  0  0  0
  -28.0725  -31.8525   26.5476 H   0  0  0  0  0  0
  -28.2556  -38.0110   24.7486 H   0  0  0  0  0  0
  -28.1022  -36.2631   24.6285 H   0  0  0  0  0  0
  -27.2307  -37.1463   25.8885 H   0  0  0  0  0  0
  -20.9420  -29.8905   21.6967 H   0  0  0  0  0  0
  -26.0157  -38.2875   24.1447 H   0  0  0  0  0  0
  -31.5481  -18.4267   24.0027 H   0  0  0  0  0  0
  -31.1277  -16.2373   23.0038 H   0  0  0  0  0  0
  -29.4231  -18.1745   19.5241 H   0  0  0  0  0  0
  -28.3998  -25.9607   18.2306 H   0  0  0  0  0  0
  -30.1476  -21.5382   23.0406 H   0  0  0  0  0  0
  -31.8555  -21.4254   22.5736 H   0  0  0  0  0  0
  -31.2878  -20.7386   24.1016 H   0  0  0  0  0  0
  -29.9183  -20.6191   19.1973 H   0  0  0  0  0  0
  -30.8970  -21.4321   20.3517 H   0  0  0  0  0  0
  -27.9013  -21.5755   19.9928 H   0  0  0  0  0  0
  -28.4380  -21.5902   21.6292 H   0  0  0  0  0  0
  -28.8866  -15.5003   20.6894 H   0  0  0  0  0  0
  -29.1651  -22.5986   18.4491 H   0  0  0  0  0  0
  1 25  1  0  0  0
  1 30  2  0  0  0
  1 83  1  0  0  0
  2  3  1  0  0  0
  2 25  1  0  0  0
  2 86  1  0  0  0
  2 87  1  0  0  0
  3  4  1  0  0  0
  3 88  1  0  0  0
  3 89  1  0  0  0
  4  5  1  0  0  0
  4 90  1  0  0  0
  4 91  1  0  0  0
  5  6  1  0  0  0
  5 26  1  0  0  0
  5 92  1  0  0  0
  6 25  1  0  0  0
  6 93  1  0  0  0
  6 94  1  0  0  0
  7  8  2  0  0  0
  7 26  1  0  0  0
  7 29  1  0  0  0
  8  9  1  0  0  0
  8 22  1  0  0  0
  9 10  1  0  0  0
  9 27  2  0  0  0
 10 11  2  0  0  0
 10 15  1  0  0  0
 11 12  1  0  0  0
 11 95  1  0  0  0
 12 13  2  0  0  0
 12 96  1  0  0  0
 13 14  1  0  0  0
 13 31  1  0  0  0
 14 15  2  0  0  0
 14 97  1  0  0  0
 15 98  1  0  0  0
 16 17  2  0  0  0
 16 21  1  0  0  0
 16 31  1  0  0  0
 17 18  1  0  0  0
 17 99  1  0  0  0
 18 19  2  0  0  0
 18100  1  0  0  0
 19 20  1  0  0  0
 19 24  1  0  0  0
 20 21  2  0  0  0
 20101  1  0  0  0
 21 23  1  0  0  0
 22 28  1  0  0  0
 22 32  2  0  0  0
 26 27  1  0  0  0
 28102  1  0  0  0
 28103  1  0  0  0
 29104  1  0  0  0
 29105  1  0  0  0
 33 34  1  0  0  0
 33 66  1  0  0  0
 33 70  2  0  0  0
 34 36  1  0  0  0
 34 59  1  0  0  0
 34106  1  0  0  0
 35 44  2  0  0  0
 35 45  1  0  0  0
 35 68  1  0  0  0
 36 56  1  0  0  0
 36107  1  0  0  0
 37 39  1  0  0  0
 37 47  1  0  0  0
 37 66  1  0  0  0
 37108  1  0  0  0
 38 43  2  0  0  0
 38 46  1  0  0  0
 38 47  1  0  0  0
 39 64  1  0  0  0
 39 67  2  0  0  0
 40 52  1  0  0  0
 40 53  2  0  0  0
 40 58  1  0  0  0
 41109  1  0  0  0
 41110  1  0  0  0
 41111  1  0  0  0
 41 48  1  0  0  0
 42 43  1  0  0  0
 42 66  1  0  0  0
 42112  1  0  0  0
 42113  1  0  0  0
 43 44  1  0  0  0
 44114  1  0  0  0
 45 46  2  0  0  0
 45115  1  0  0  0
 46116  1  0  0  0
 47117  1  0  0  0
 47118  1  0  0  0
 48 56  1  0  0  0
 48 65  1  0  0  0
 48119  1  0  0  0
 49 50  1  0  0  0
 49 53  1  0  0  0
 49 64  1  0  0  0
 49120  1  0  0  0
 50 51  1  0  0  0
 50121  1  0  0  0
 50122  1  0  0  0
 51 52  1  0  0  0
 51123  1  0  0  0
 51124  1  0  0  0
 52125  1  0  0  0
 52126  1  0  0  0
 53 54  1  0  0  0
 54 55  2  0  0  0
 54127  1  0  0  0
 55 57  1  0  0  0
 55128  1  0  0  0
 56 69  2  0  0  0
 57 58  2  0  0  0
 57129  1  0  0  0
 58130  1  0  0  0
 59 60  1  0  0  0
 59 61  1  0  0  0
 59 62  1  0  0  0
 60131  1  0  0  0
 60132  1  0  0  0
 60133  1  0  0  0
 61134  1  0  0  0
 61135  1  0  0  0
 61136  1  0  0  0
 62137  1  0  0  0
 62138  1  0  0  0
 62139  1  0  0  0
 63 65  1  0  0  0
 63140  1  0  0  0
 63141  1  0  0  0
 63142  1  0  0  0
 64143  1  0  0  0
 65144  1  0  0  0
 68 77  1  0  0  0
 71 72  2  0  0  0
 71 74  1  0  0  0
 71145  1  0  0  0
 72 76  1  0  0  0
 72146  1  0  0  0
 73 75  1  0  0  0
 73 76  2  0  0  0
 73147  1  0  0  0
 74 75  2  0  0  0
 74 80  1  0  0  0
 75 81  1  0  0  0
 76 83  1  0  0  0
 77 78  2  0  0  0
 77148  1  0  0  0
 78 79  1  0  0  0
 78 85  1  0  0  0
 79 82  1  0  0  0
 79 84  2  0  0  0
 80149  1  0  0  0
 80150  1  0  0  0
 80151  1  0  0  0
 81 82  1  0  0  0
 81152  1  0  0  0
 81153  1  0  0  0
 82154  1  0  0  0
 82155  1  0  0  0
 83156  1  0  0  0
 85157  1  0  0  0
M  ISO  4   1 100  68 101  77 101  83 100
M  END
> <chiral flag>
0

> <version>
0

> <s_m_source_file>
/data/baiqing/PycharmProjects/Reinvent-master-3.2/result/LINK_invent/BTK/process_docking_weight1_custom_product_contain_oxygen_bond_distance_aromatic_linkinvent_7_9_3/rearranged_h_0131.sdf

> <i_m_source_file_index>
80

> <r_mmod_Potential_Energy-OPLS-2005>
47.2932586669922

> <r_mmod_Stretch_Energy-OPLS-2005>
65.1706848144531

> <r_mmod_Bend_Energy-OPLS-2005>
130.741226196289

> <r_mmod_Torsional_Energy-OPLS-2005>
256.680419921875

> <r_mmod_Improper_Torsional_Energy-OPLS-2005>
8.30559539794922

> <r_mmod_Van_der_Waal_Energy-OPLS-2005>
140.886001586914

> <r_mmod_Electrostatic_Energy-OPLS-2005>
-362.579895019531

> <r_mmod_Solvation_Energy-OPLS-2005>
-232.479705810547

> <b_mmod_Minimization_Converged-OPLS-2005>
0

> <r_mmod_RMS_Derivative-OPLS-2005>
3.22079133987427

$$$$
80
                    3D
 Structure written by MMmdl.
157165  0  0  1  0            999 V2000
  -30.7205  -14.4290   20.6430 C   0  0  0  0  0  0
  -30.4243  -12.3048   19.4046 C   0  0  0  0  0  0
  -29.4897  -12.5194   18.1980 C   0  0  0  0  0  0
  -28.0129  -12.3740   18.6151 C   0  0  0  0  0  0
  -27.6666  -13.2033   19.8806 C   0  0  2  0  0  0
  -28.7096  -12.9625   20.9955 C   0  0  0  0  0  0
  -25.2613  -13.8154   20.5688 C   0  0  0  0  0  0
  -24.1852  -13.0437   20.9167 C   0  0  0  0  0  0
  -24.6398  -11.6902   20.8728 C   0  0  0  0  0  0
  -23.9059  -10.4291   21.0400 C   0  0  0  0  0  0
  -24.3611   -9.4209   21.9180 C   0  0  0  0  0  0
  -23.6287   -8.2244   22.0754 C   0  0  0  0  0  0
  -22.4270   -8.0280   21.3544 C   0  0  0  0  0  0
  -21.9904   -9.0253   20.4646 C   0  0  0  0  0  0
  -22.7230  -10.2133   20.3052 C   0  0  0  0  0  0
  -21.6852   -6.0734   22.5279 C   0  0  0  0  0  0
  -21.4013   -6.5639   23.8212 C   0  0  0  0  0  0
  -21.3660   -5.6792   24.9174 C   0  0  0  0  0  0
  -21.6045   -4.3055   24.7225 C   0  0  0  0  0  0
  -21.8819   -3.8145   23.4347 C   0  0  0  0  0  0
  -21.9192   -4.6962   22.3403 C   0  0  0  0  0  0
  -22.7874  -13.5239   21.1833 C   0  0  0  0  0  0
  -22.1661   -4.2148   21.0981 F   0  0  0  0  0  0
  -21.5630   -3.4539   25.7737 F   0  0  0  0  0  0
  -30.0408  -13.2671   20.4478 N   0  0  0  0  0  0
  -26.3056  -12.9320   20.3402 N   0  0  0  0  0  0
  -25.9329  -11.6480   20.5772 N   0  0  0  0  0  0
  -22.0513  -12.8235   22.0392 N   0  0  0  0  0  0
  -25.4347  -15.1871   20.4100 N   0  0  0  0  0  0
  -31.7936  -14.6601   20.0757 O   0  0  0  0  0  0
  -21.6637   -6.8876   21.4240 O   0  0  0  0  0  0
  -22.3560  -14.5548   20.6686 O   0  0  0  0  0  0
  -24.6150  -31.8686   23.2118 C   0  0  0  0  0  0
  -25.9045  -32.4823   23.8407 C   0  0  1  0  0  0
  -27.2316  -27.4300   20.0851 C   0  0  0  0  0  0
  -25.5902  -33.8623   24.2336 N   0  0  0  0  0  0
  -23.4019  -30.4945   21.5532 C   0  0  2  0  0  0
  -24.8455  -28.9638   20.1142 C   0  0  0  0  0  0
  -22.7409  -29.4665   22.4996 C   0  0  0  0  0  0
  -18.0270  -28.1375   22.8493 C   0  0  0  0  0  0
  -24.1487  -36.7319   23.2638 C   0  0  0  0  0  0
  -25.9328  -30.8305   21.3678 C   0  0  0  0  0  0
  -26.0071  -29.4660   20.7126 C   0  0  0  0  0  0
  -27.1997  -28.7051   20.6989 C   0  0  0  0  0  0
  -26.0463  -26.9513   19.4736 C   0  0  0  0  0  0
  -24.8601  -27.7050   19.4943 C   0  0  0  0  0  0
  -23.6089  -29.8312   20.1664 C   0  0  0  0  0  0
  -25.4107  -36.3115   24.0338 C   0  0  1  0  0  0
  -20.5861  -28.3662   23.1318 C   0  0  2  0  0  0
  -20.6761  -26.9400   22.5416 C   0  0  0  0  0  0
  -19.5740  -26.6385   21.5212 C   0  0  0  0  0  0
  -18.1918  -26.7921   22.1624 C   0  0  0  0  0  0
  -19.1520  -28.8834   23.2902 C   0  0  0  0  0  0
  -18.9448  -30.1441   23.8911 C   0  0  0  0  0  0
  -17.6451  -30.6583   24.0565 C   0  0  0  0  0  0
  -25.9034  -34.9478   23.5134 C   0  0  0  0  0  0
  -16.5341  -29.9085   23.6325 C   0  0  0  0  0  0
  -16.7259  -28.6501   23.0348 C   0  0  0  0  0  0
  -26.4472  -31.6599   25.0734 C   0  0  0  0  0  0
  -25.3741  -31.3699   26.1483 C   0  0  0  0  0  0
  -27.0304  -30.3042   24.6113 C   0  0  0  0  0  0
  -27.6051  -32.4315   25.7491 C   0  0  0  0  0  0
  -27.5583  -37.1813   24.8464 C   0  0  0  0  0  0
  -21.4138  -29.3033   22.3730 N   0  0  0  0  0  0
  -26.4296  -37.3797   23.9409 N   0  0  0  0  0  0
  -24.6683  -31.0786   22.1024 N   0  0  0  0  0  0
  -23.4182  -28.8202   23.3033 O   0  0  0  0  0  0
  -28.4081  -26.6993   20.1100 O   0  0  0  0  0  0
  -26.5595  -34.8926   22.4695 O   0  0  0  0  0  0
  -23.5343  -32.1443   23.7511 O   0  0  0  0  0  0
  -29.5947  -18.5558   24.7322 C   0  0  0  0  0  0
  -29.4204  -19.8876   24.3205 C   0  0  0  0  0  0
  -30.0518  -17.5921   23.8188 C   0  0  0  0  0  0
  -30.1406  -19.2966   22.0714 C   0  0  0  0  0  0
  -29.6979  -20.2816   22.9939 C   0  0  0  0  0  0
  -30.3190  -17.9465   22.4787 C   0  0  0  0  0  0
  -29.5196  -21.7173   22.6763 C   0  0  0  0  0  0
  -29.7248  -22.3658   21.5087 C   0  0  0  0  0  0
  -29.4980  -23.8306   21.4077 C   0  0  0  0  0  0
  -30.8526  -16.8882   21.5080 C   0  0  0  0  0  0
  -29.6121  -24.5088   20.0351 C   0  0  0  0  0  0
  -30.1217  -15.5160   21.5629 C   0  0  0  0  0  0
  -28.3686  -25.3397   19.6432 C   0  0  0  0  0  0
  -29.2294  -24.5316   22.3888 O   0  0  0  0  0  0
  -31.4669  -12.4094   19.0997 H   0  0  0  0  0  0
  -30.3290  -11.2869   19.7858 H   0  0  0  0  0  0
  -29.7264  -11.8071   17.4066 H   0  0  0  0  0  0
  -29.6564  -13.5121   17.7769 H   0  0  0  0  0  0
  -27.8231  -11.3164   18.8024 H   0  0  0  0  0  0
  -27.3590  -12.6574   17.7897 H   0  0  0  0  0  0
  -27.7190  -14.2548   19.5978 H   0  0  0  0  0  0
  -28.6820  -11.9210   21.3192 H   0  0  0  0  0  0
  -28.4685  -13.5447   21.8844 H   0  0  0  0  0  0
  -25.2757   -9.5685   22.4752 H   0  0  0  0  0  0
  -23.9997   -7.4637   22.7474 H   0  0  0  0  0  0
  -21.0836   -8.8770   19.8952 H   0  0  0  0  0  0
  -22.3688  -10.9670   19.6160 H   0  0  0  0  0  0
  -21.2006   -7.6148   23.9714 H   0  0  0  0  0  0
  -21.1483   -6.0524   25.9077 H   0  0  0  0  0  0
  -22.0599   -2.7608   23.2847 H   0  0  0  0  0  0
  -22.4124  -11.9891   22.4775 H   0  0  0  0  0  0
  -21.1134  -13.1267   22.2601 H   0  0  0  0  0  0
  -24.6736  -15.8476   20.5242 H   0  0  0  0  0  0
  -26.2983  -15.6257   20.1146 H   0  0  0  0  0  0
  -26.7114  -32.5531   23.1169 H   0  0  0  0  0  0
  -25.0053  -33.9786   25.0481 H   0  0  0  0  0  0
  -22.6907  -31.3119   21.4172 H   0  0  0  0  0  0
  -23.3746  -35.9657   23.3308 H   0  0  0  0  0  0
  -24.3582  -36.8927   22.2051 H   0  0  0  0  0  0
  -23.7243  -37.6528   23.6646 H   0  0  0  0  0  0
  -26.0490  -31.5975   20.6009 H   0  0  0  0  0  0
  -26.8198  -30.8800   21.9877 H   0  0  0  0  0  0
  -28.0952  -29.0893   21.1671 H   0  0  0  0  0  0
  -26.0062  -25.9985   18.9677 H   0  0  0  0  0  0
  -23.9679  -27.3141   19.0246 H   0  0  0  0  0  0
  -23.7173  -30.6080   19.4086 H   0  0  0  0  0  0
  -22.7319  -29.2527   19.8703 H   0  0  0  0  0  0
  -25.1282  -36.1984   25.0832 H   0  0  0  0  0  0
  -20.9951  -28.3226   24.1440 H   0  0  0  0  0  0
  -20.5667  -26.2269   23.3602 H   0  0  0  0  0  0
  -21.6633  -26.7447   22.1208 H   0  0  0  0  0  0
  -19.6902  -25.6300   21.1229 H   0  0  0  0  0  0
  -19.6678  -27.3205   20.6750 H   0  0  0  0  0  0
  -17.4190  -26.6671   21.4024 H   0  0  0  0  0  0
  -18.0318  -26.0059   22.9016 H   0  0  0  0  0  0
  -19.7927  -30.7250   24.2287 H   0  0  0  0  0  0
  -17.5010  -31.6265   24.5163 H   0  0  0  0  0  0
  -15.5343  -30.2993   23.7641 H   0  0  0  0  0  0
  -15.8659  -28.0825   22.7055 H   0  0  0  0  0  0
  -24.5915  -30.7044   25.7819 H   0  0  0  0  0  0
  -24.8930  -32.2850   26.4945 H   0  0  0  0  0  0
  -25.8098  -30.8859   27.0233 H   0  0  0  0  0  0
  -26.2850  -29.6802   24.1168 H   0  0  0  0  0  0
  -27.4076  -29.7277   25.4569 H   0  0  0  0  0  0
  -27.8685  -30.4361   23.9265 H   0  0  0  0  0  0
  -27.2676  -33.3606   26.2097 H   0  0  0  0  0  0
  -28.3842  -32.6888   25.0303 H   0  0  0  0  0  0
  -28.0741  -31.8423   26.5382 H   0  0  0  0  0  0
  -28.2603  -38.0108   24.7514 H   0  0  0  0  0  0
  -28.1076  -36.2641   24.6287 H   0  0  0  0  0  0
  -27.2301  -37.1459   25.8867 H   0  0  0  0  0  0
  -20.9294  -29.8763   21.6962 H   0  0  0  0  0  0
  -26.0189  -38.2878   24.1406 H   0  0  0  0  0  0
  -29.3890  -18.2759   25.7562 H   0  0  0  0  0  0
  -29.0794  -20.6139   25.0456 H   0  0  0  0  0  0
  -30.2042  -16.5819   24.1701 H   0  0  0  0  0  0
  -30.3637  -19.5768   21.0516 H   0  0  0  0  0  0
  -29.1800  -22.3121   23.5140 H   0  0  0  0  0  0
  -30.0588  -21.8407   20.6266 H   0  0  0  0  0  0
  -31.9123  -16.7501   21.7279 H   0  0  0  0  0  0
  -30.8035  -17.2802   20.4909 H   0  0  0  0  0  0
  -29.7513  -23.7223   19.2936 H   0  0  0  0  0  0
  -30.5106  -25.1240   20.0018 H   0  0  0  0  0  0
  -29.0758  -15.6745   21.3003 H   0  0  0  0  0  0
  -30.1424  -15.1087   22.5722 H   0  0  0  0  0  0
  -27.4878  -24.8212   20.0267 H   0  0  0  0  0  0
  -28.2821  -25.3523   18.5559 H   0  0  0  0  0  0
  1 25  1  0  0  0
  1 30  2  0  0  0
  1 82  1  0  0  0
  2  3  1  0  0  0
  2 25  1  0  0  0
  2 85  1  0  0  0
  2 86  1  0  0  0
  3  4  1  0  0  0
  3 87  1  0  0  0
  3 88  1  0  0  0
  4  5  1  0  0  0
  4 89  1  0  0  0
  4 90  1  0  0  0
  5  6  1  0  0  0
  5 26  1  0  0  0
  5 91  1  0  0  0
  6 25  1  0  0  0
  6 92  1  0  0  0
  6 93  1  0  0  0
  7  8  2  0  0  0
  7 26  1  0  0  0
  7 29  1  0  0  0
  8  9  1  0  0  0
  8 22  1  0  0  0
  9 10  1  0  0  0
  9 27  2  0  0  0
 10 11  2  0  0  0
 10 15  1  0  0  0
 11 12  1  0  0  0
 11 94  1  0  0  0
 12 13  2  0  0  0
 12 95  1  0  0  0
 13 14  1  0  0  0
 13 31  1  0  0  0
 14 15  2  0  0  0
 14 96  1  0  0  0
 15 97  1  0  0  0
 16 17  2  0  0  0
 16 21  1  0  0  0
 16 31  1  0  0  0
 17 18  1  0  0  0
 17 98  1  0  0  0
 18 19  2  0  0  0
 18 99  1  0  0  0
 19 20  1  0  0  0
 19 24  1  0  0  0
 20 21  2  0  0  0
 20100  1  0  0  0
 21 23  1  0  0  0
 22 28  1  0  0  0
 22 32  2  0  0  0
 26 27  1  0  0  0
 28101  1  0  0  0
 28102  1  0  0  0
 29103  1  0  0  0
 29104  1  0  0  0
 33 34  1  0  0  0
 33 66  1  0  0  0
 33 70  2  0  0  0
 34 36  1  0  0  0
 34 59  1  0  0  0
 34105  1  0  0  0
 35 44  2  0  0  0
 35 45  1  0  0  0
 35 68  1  0  0  0
 36 56  1  0  0  0
 36106  1  0  0  0
 37 39  1  0  0  0
 37 47  1  0  0  0
 37 66  1  0  0  0
 37107  1  0  0  0
 38 43  2  0  0  0
 38 46  1  0  0  0
 38 47  1  0  0  0
 39 64  1  0  0  0
 39 67  2  0  0  0
 40 52  1  0  0  0
 40 53  2  0  0  0
 40 58  1  0  0  0
 41108  1  0  0  0
 41109  1  0  0  0
 41110  1  0  0  0
 41 48  1  0  0  0
 42 43  1  0  0  0
 42 66  1  0  0  0
 42111  1  0  0  0
 42112  1  0  0  0
 43 44  1  0  0  0
 44113  1  0  0  0
 45 46  2  0  0  0
 45114  1  0  0  0
 46115  1  0  0  0
 47116  1  0  0  0
 47117  1  0  0  0
 48 56  1  0  0  0
 48 65  1  0  0  0
 48118  1  0  0  0
 49 50  1  0  0  0
 49 53  1  0  0  0
 49 64  1  0  0  0
 49119  1  0  0  0
 50 51  1  0  0  0
 50120  1  0  0  0
 50121  1  0  0  0
 51 52  1  0  0  0
 51122  1  0  0  0
 51123  1  0  0  0
 52124  1  0  0  0
 52125  1  0  0  0
 53 54  1  0  0  0
 54 55  2  0  0  0
 54126  1  0  0  0
 55 57  1  0  0  0
 55127  1  0  0  0
 56 69  2  0  0  0
 57 58  2  0  0  0
 57128  1  0  0  0
 58129  1  0  0  0
 59 60  1  0  0  0
 59 61  1  0  0  0
 59 62  1  0  0  0
 60130  1  0  0  0
 60131  1  0  0  0
 60132  1  0  0  0
 61133  1  0  0  0
 61134  1  0  0  0
 61135  1  0  0  0
 62136  1  0  0  0
 62137  1  0  0  0
 62138  1  0  0  0
 63 65  1  0  0  0
 63139  1  0  0  0
 63140  1  0  0  0
 63141  1  0  0  0
 64142  1  0  0  0
 65143  1  0  0  0
 68 83  1  0  0  0
 71 72  2  0  0  0
 71 73  1  0  0  0
 71144  1  0  0  0
 72 75  1  0  0  0
 72145  1  0  0  0
 73 76  2  0  0  0
 73146  1  0  0  0
 74 75  2  0  0  0
 74 76  1  0  0  0
 74147  1  0  0  0
 75 77  1  0  0  0
 76 80  1  0  0  0
 77 78  2  0  0  0
 77148  1  0  0  0
 78 79  1  0  0  0
 78149  1  0  0  0
 79 81  1  0  0  0
 79 84  2  0  0  0
 80 82  1  0  0  0
 80150  1  0  0  0
 80151  1  0  0  0
 81 83  1  0  0  0
 81152  1  0  0  0
 81153  1  0  0  0
 82154  1  0  0  0
 82155  1  0  0  0
 83156  1  0  0  0
 83157  1  0  0  0
M  ISO  4   1 100  68 101  82 100  83 101
M  END
> <chiral flag>
0

> <version>
0

> <s_m_source_file>
/data/baiqing/PycharmProjects/Reinvent-master-3.2/result/LINK_invent/BTK/process_docking_weight1_custom_product_contain_oxygen_bond_distance_aromatic_linkinvent_7_9_3/rearranged_h_0131.sdf

> <i_m_source_file_index>
81

> <r_mmod_Potential_Energy-OPLS-2005>
-102.050300598145

> <r_mmod_Stretch_Energy-OPLS-2005>
37.7930564880371

> <r_mmod_Bend_Energy-OPLS-2005>
95.0498962402344

> <r_mmod_Torsional_Energy-OPLS-2005>
159.562561035156

> <r_mmod_Improper_Torsional_Energy-OPLS-2005>
1.84976923465729

> <r_mmod_Van_der_Waal_Energy-OPLS-2005>
160.979187011719

> <r_mmod_Electrostatic_Energy-OPLS-2005>
-352.562835693359

> <r_mmod_Solvation_Energy-OPLS-2005>
-214.978927612305

> <b_mmod_Minimization_Converged-OPLS-2005>
0

> <r_mmod_RMS_Derivative-OPLS-2005>
0.170681685209274

$$$$
81
                    3D
 Structure written by MMmdl.
167175  0  0  1  0            999 V2000
  -30.7495  -14.5627   20.4989 C   0  0  0  0  0  0
  -30.3955  -12.3402   19.4801 C   0  0  0  0  0  0
  -29.5009  -12.4921   18.2352 C   0  0  0  0  0  0
  -28.0200  -12.3583   18.6324 C   0  0  0  0  0  0
  -27.6475  -13.2368   19.8581 C   0  0  2  0  0  0
  -28.6870  -13.1326   20.9973 C   0  0  0  0  0  0
  -25.2519  -13.8230   20.5705 C   0  0  0  0  0  0
  -24.1801  -13.0459   20.9188 C   0  0  0  0  0  0
  -24.6395  -11.6935   20.8715 C   0  0  0  0  0  0
  -23.9068  -10.4303   21.0386 C   0  0  0  0  0  0
  -24.3624   -9.4221   21.9172 C   0  0  0  0  0  0
  -23.6308   -8.2248   22.0737 C   0  0  0  0  0  0
  -22.4285   -8.0280   21.3528 C   0  0  0  0  0  0
  -21.9916   -9.0250   20.4625 C   0  0  0  0  0  0
  -22.7237  -10.2136   20.3041 C   0  0  0  0  0  0
  -21.6855   -6.0738   22.5276 C   0  0  0  0  0  0
  -21.4012   -6.5636   23.8218 C   0  0  0  0  0  0
  -21.3665   -5.6782   24.9177 C   0  0  0  0  0  0
  -21.6053   -4.3049   24.7220 C   0  0  0  0  0  0
  -21.8820   -3.8144   23.4336 C   0  0  0  0  0  0
  -21.9191   -4.6963   22.3395 C   0  0  0  0  0  0
  -22.7823  -13.5219   21.1856 C   0  0  0  0  0  0
  -22.1662   -4.2150   21.0971 F   0  0  0  0  0  0
  -21.5636   -3.4529   25.7732 F   0  0  0  0  0  0
  -30.0141  -13.4073   20.4338 N   0  0  0  0  0  0
  -26.2958  -12.9450   20.3313 N   0  0  0  0  0  0
  -25.9331  -11.6579   20.5750 N   0  0  0  0  0  0
  -22.0458  -12.8220   22.0414 N   0  0  0  0  0  0
  -25.4221  -15.1956   20.4157 N   0  0  0  0  0  0
  -31.9041  -14.5478   20.0668 O   0  0  0  0  0  0
  -21.6639   -6.8884   21.4240 O   0  0  0  0  0  0
  -22.3494  -14.5516   20.6692 O   0  0  0  0  0  0
  -24.6224  -31.8649   23.2097 C   0  0  0  0  0  0
  -25.9096  -32.4810   23.8400 C   0  0  1  0  0  0
  -27.2237  -27.3804   20.1077 C   0  0  0  0  0  0
  -25.5936  -33.8611   24.2331 N   0  0  0  0  0  0
  -23.4118  -30.4868   21.5514 C   0  0  2  0  0  0
  -24.8579  -28.9454   20.1189 C   0  0  0  0  0  0
  -22.7458  -29.4616   22.4990 C   0  0  0  0  0  0
  -18.0289  -28.1367   22.8509 C   0  0  0  0  0  0
  -24.1488  -36.7299   23.2634 C   0  0  0  0  0  0
  -25.9459  -30.8080   21.3761 C   0  0  0  0  0  0
  -26.0209  -29.4353   20.7316 C   0  0  0  0  0  0
  -27.2080  -28.6552   20.7344 C   0  0  0  0  0  0
  -26.0570  -26.9352   19.4613 C   0  0  0  0  0  0
  -24.8717  -27.6931   19.4829 C   0  0  0  0  0  0
  -23.6248  -29.8217   20.1659 C   0  0  0  0  0  0
  -25.4102  -36.3109   24.0351 C   0  0  1  0  0  0
  -20.5887  -28.3653   23.1309 C   0  0  2  0  0  0
  -20.6781  -26.9394   22.5400 C   0  0  0  0  0  0
  -19.5751  -26.6348   21.5233 C   0  0  0  0  0  0
  -18.1946  -26.7907   22.1668 C   0  0  0  0  0  0
  -19.1543  -28.8828   23.2906 C   0  0  0  0  0  0
  -18.9467  -30.1437   23.8909 C   0  0  0  0  0  0
  -17.6465  -30.6569   24.0574 C   0  0  0  0  0  0
  -25.9040  -34.9469   23.5126 C   0  0  0  0  0  0
  -16.5360  -29.9070   23.6318 C   0  0  0  0  0  0
  -16.7280  -28.6489   23.0351 C   0  0  0  0  0  0
  -26.4498  -31.6613   25.0751 C   0  0  0  0  0  0
  -25.3745  -31.3746   26.1492 C   0  0  0  0  0  0
  -27.0336  -30.3050   24.6153 C   0  0  0  0  0  0
  -27.6063  -32.4335   25.7528 C   0  0  0  0  0  0
  -27.5581  -37.1804   24.8458 C   0  0  0  0  0  0
  -21.4179  -29.3034   22.3751 N   0  0  0  0  0  0
  -26.4286  -37.3798   23.9423 N   0  0  0  0  0  0
  -24.6782  -31.0681   22.1044 N   0  0  0  0  0  0
  -23.4215  -28.8146   23.3033 O   0  0  0  0  0  0
  -28.3414  -26.5674   20.0342 O   0  0  0  0  0  0
  -26.5577  -34.8931   22.4678 O   0  0  0  0  0  0
  -23.5404  -32.1442   23.7448 O   0  0  0  0  0  0
  -32.0947  -18.9761   21.3618 C   0  0  0  0  0  0
  -29.7214  -19.3601   21.1263 C   0  0  0  0  0  0
  -30.8201  -18.4499   21.0761 C   0  0  0  0  0  0
  -32.3038  -20.3092   21.7457 C   0  0  0  0  0  0
  -29.9068  -20.7460   21.4777 C   0  0  0  0  0  0
  -31.2011  -21.1889   21.8943 C   0  0  0  0  0  0
  -30.8831  -16.9885   20.7253 C   0  0  0  0  0  0
  -30.1579  -15.8487   20.9696 C   0  0  0  0  0  0
  -33.7463  -20.7416   21.9787 C   0  0  0  0  0  0
  -31.8699  -22.5337   23.9970 C   0  0  0  0  0  0
  -26.5766  -24.2237   21.2789 C   0  0  0  0  0  0
  -28.7009  -21.7272   21.4879 C   0  0  0  0  0  0
  -31.4303  -22.5753   22.5237 C   0  0  0  0  0  0
  -28.8119  -23.0933   20.6853 C   0  0  0  0  0  0
  -28.6759  -25.7778   21.1967 C   0  0  0  0  0  0
  -28.1054  -24.3139   21.3930 C   0  0  1  0  0  0
  -31.4463  -12.3687   19.1894 H   0  0  0  0  0  0
  -30.2512  -11.3597   19.9361 H   0  0  0  0  0  0
  -29.7591  -11.7381   17.4900 H   0  0  0  0  0  0
  -29.6776  -13.4641   17.7714 H   0  0  0  0  0  0
  -27.8379  -11.3081   18.8592 H   0  0  0  0  0  0
  -27.3791  -12.6030   17.7844 H   0  0  0  0  0  0
  -27.6616  -14.2695   19.5086 H   0  0  0  0  0  0
  -28.6701  -12.1355   21.4381 H   0  0  0  0  0  0
  -28.4419  -13.8211   21.8070 H   0  0  0  0  0  0
  -25.2772   -9.5709   22.4747 H   0  0  0  0  0  0
  -24.0022   -7.4636   22.7457 H   0  0  0  0  0  0
  -21.0847   -8.8762   19.8932 H   0  0  0  0  0  0
  -22.3690  -10.9669   19.6147 H   0  0  0  0  0  0
  -21.1998   -7.6143   23.9723 H   0  0  0  0  0  0
  -21.1494   -6.0509   25.9085 H   0  0  0  0  0  0
  -22.0592   -2.7607   23.2826 H   0  0  0  0  0  0
  -22.4076  -11.9896   22.4840 H   0  0  0  0  0  0
  -21.1060  -13.1232   22.2571 H   0  0  0  0  0  0
  -24.6598  -15.8543   20.5313 H   0  0  0  0  0  0
  -26.2851  -15.6346   20.1170 H   0  0  0  0  0  0
  -26.7173  -32.5516   23.1172 H   0  0  0  0  0  0
  -25.0184  -33.9760   25.0539 H   0  0  0  0  0  0
  -22.7034  -31.3060   21.4118 H   0  0  0  0  0  0
  -23.3772  -35.9609   23.3290 H   0  0  0  0  0  0
  -24.3579  -36.8902   22.2045 H   0  0  0  0  0  0
  -23.7212  -37.6494   23.6641 H   0  0  0  0  0  0
  -26.0618  -31.5655   20.5998 H   0  0  0  0  0  0
  -26.8338  -30.8688   21.9935 H   0  0  0  0  0  0
  -28.1066  -29.0236   21.2108 H   0  0  0  0  0  0
  -26.0647  -25.9911   18.9371 H   0  0  0  0  0  0
  -23.9860  -27.3152   18.9898 H   0  0  0  0  0  0
  -23.7442  -30.5976   19.4095 H   0  0  0  0  0  0
  -22.7474  -29.2469   19.8645 H   0  0  0  0  0  0
  -25.1281  -36.1976   25.0846 H   0  0  0  0  0  0
  -20.9989  -28.3173   24.1427 H   0  0  0  0  0  0
  -21.6631  -26.7448   22.1155 H   0  0  0  0  0  0
  -20.5711  -26.2256   23.3587 H   0  0  0  0  0  0
  -19.6893  -25.6239   21.1309 H   0  0  0  0  0  0
  -19.6692  -27.3117   20.6744 H   0  0  0  0  0  0
  -17.4211  -26.6630   21.4085 H   0  0  0  0  0  0
  -18.0377  -26.0052   22.9077 H   0  0  0  0  0  0
  -19.7943  -30.7250   24.2271 H   0  0  0  0  0  0
  -17.5014  -31.6251   24.5172 H   0  0  0  0  0  0
  -15.5356  -30.2973   23.7614 H   0  0  0  0  0  0
  -15.8691  -28.0804   22.7049 H   0  0  0  0  0  0
  -24.5915  -30.7093   25.7845 H   0  0  0  0  0  0
  -24.8953  -32.2917   26.4933 H   0  0  0  0  0  0
  -25.8091  -30.8933   27.0262 H   0  0  0  0  0  0
  -26.2906  -29.6823   24.1163 H   0  0  0  0  0  0
  -27.4049  -29.7283   25.4633 H   0  0  0  0  0  0
  -27.8768  -30.4372   23.9370 H   0  0  0  0  0  0
  -27.2678  -33.3629   26.2128 H   0  0  0  0  0  0
  -28.3885  -32.6896   25.0368 H   0  0  0  0  0  0
  -28.0733  -31.8447   26.5433 H   0  0  0  0  0  0
  -28.2595  -38.0111   24.7546 H   0  0  0  0  0  0
  -28.1091  -36.2644   24.6255 H   0  0  0  0  0  0
  -27.2303  -37.1421   25.8862 H   0  0  0  0  0  0
  -20.9330  -29.8837   21.7057 H   0  0  0  0  0  0
  -26.0182  -38.2877   24.1439 H   0  0  0  0  0  0
  -32.9603  -18.3281   21.2970 H   0  0  0  0  0  0
  -28.7340  -19.0018   20.8727 H   0  0  0  0  0  0
  -31.7716  -16.8387   20.1282 H   0  0  0  0  0  0
  -29.2278  -15.8867   21.5162 H   0  0  0  0  0  0
  -34.4183  -20.1857   21.3237 H   0  0  0  0  0  0
  -34.0537  -20.5427   23.0044 H   0  0  0  0  0  0
  -33.9124  -21.7951   21.7594 H   0  0  0  0  0  0
  -31.9610  -23.5467   24.3894 H   0  0  0  0  0  0
  -32.8340  -22.0525   24.1443 H   0  0  0  0  0  0
  -31.1370  -22.0103   24.6111 H   0  0  0  0  0  0
  -26.2537  -24.1864   20.2405 H   0  0  0  0  0  0
  -26.0890  -25.0716   21.7621 H   0  0  0  0  0  0
  -26.2035  -23.3207   21.7628 H   0  0  0  0  0  0
  -28.5094  -21.9354   22.5398 H   0  0  0  0  0  0
  -27.8080  -21.1992   21.1512 H   0  0  0  0  0  0
  -30.5321  -23.1789   22.5361 H   0  0  0  0  0  0
  -32.1411  -23.1424   21.9228 H   0  0  0  0  0  0
  -28.4206  -22.9547   19.6758 H   0  0  0  0  0  0
  -29.8561  -23.3495   20.5132 H   0  0  0  0  0  0
  -29.7641  -25.7259   21.2322 H   0  0  0  0  0  0
  -28.4106  -26.3621   22.0809 H   0  0  0  0  0  0
  -28.3127  -24.1576   22.4525 H   0  0  0  0  0  0
  1 25  1  0  0  0
  1 30  2  0  0  0
  1 78  1  0  0  0
  2  3  1  0  0  0
  2 25  1  0  0  0
  2 87  1  0  0  0
  2 88  1  0  0  0
  3  4  1  0  0  0
  3 89  1  0  0  0
  3 90  1  0  0  0
  4  5  1  0  0  0
  4 91  1  0  0  0
  4 92  1  0  0  0
  5  6  1  0  0  0
  5 26  1  0  0  0
  5 93  1  0  0  0
  6 25  1  0  0  0
  6 94  1  0  0  0
  6 95  1  0  0  0
  7  8  2  0  0  0
  7 26  1  0  0  0
  7 29  1  0  0  0
  8  9  1  0  0  0
  8 22  1  0  0  0
  9 10  1  0  0  0
  9 27  2  0  0  0
 10 11  2  0  0  0
 10 15  1  0  0  0
 11 12  1  0  0  0
 11 96  1  0  0  0
 12 13  2  0  0  0
 12 97  1  0  0  0
 13 14  1  0  0  0
 13 31  1  0  0  0
 14 15  2  0  0  0
 14 98  1  0  0  0
 15 99  1  0  0  0
 16 17  2  0  0  0
 16 21  1  0  0  0
 16 31  1  0  0  0
 17 18  1  0  0  0
 17100  1  0  0  0
 18 19  2  0  0  0
 18101  1  0  0  0
 19 20  1  0  0  0
 19 24  1  0  0  0
 20 21  2  0  0  0
 20102  1  0  0  0
 21 23  1  0  0  0
 22 28  1  0  0  0
 22 32  2  0  0  0
 26 27  1  0  0  0
 28103  1  0  0  0
 28104  1  0  0  0
 29105  1  0  0  0
 29106  1  0  0  0
 33 34  1  0  0  0
 33 66  1  0  0  0
 33 70  2  0  0  0
 34 36  1  0  0  0
 34 59  1  0  0  0
 34107  1  0  0  0
 35 44  2  0  0  0
 35 45  1  0  0  0
 35 68  1  0  0  0
 36 56  1  0  0  0
 36108  1  0  0  0
 37 39  1  0  0  0
 37 47  1  0  0  0
 37 66  1  0  0  0
 37109  1  0  0  0
 38 43  2  0  0  0
 38 46  1  0  0  0
 38 47  1  0  0  0
 39 64  1  0  0  0
 39 67  2  0  0  0
 40 52  1  0  0  0
 40 53  2  0  0  0
 40 58  1  0  0  0
 41110  1  0  0  0
 41111  1  0  0  0
 41112  1  0  0  0
 41 48  1  0  0  0
 42 43  1  0  0  0
 42 66  1  0  0  0
 42113  1  0  0  0
 42114  1  0  0  0
 43 44  1  0  0  0
 44115  1  0  0  0
 45 46  2  0  0  0
 45116  1  0  0  0
 46117  1  0  0  0
 47118  1  0  0  0
 47119  1  0  0  0
 48 56  1  0  0  0
 48 65  1  0  0  0
 48120  1  0  0  0
 49 50  1  0  0  0
 49 53  1  0  0  0
 49 64  1  0  0  0
 49121  1  0  0  0
 50 51  1  0  0  0
 50122  1  0  0  0
 50123  1  0  0  0
 51 52  1  0  0  0
 51124  1  0  0  0
 51125  1  0  0  0
 52126  1  0  0  0
 52127  1  0  0  0
 53 54  1  0  0  0
 54 55  2  0  0  0
 54128  1  0  0  0
 55 57  1  0  0  0
 55129  1  0  0  0
 56 69  2  0  0  0
 57 58  2  0  0  0
 57130  1  0  0  0
 58131  1  0  0  0
 59 60  1  0  0  0
 59 61  1  0  0  0
 59 62  1  0  0  0
 60132  1  0  0  0
 60133  1  0  0  0
 60134  1  0  0  0
 61135  1  0  0  0
 61136  1  0  0  0
 61137  1  0  0  0
 62138  1  0  0  0
 62139  1  0  0  0
 62140  1  0  0  0
 63 65  1  0  0  0
 63141  1  0  0  0
 63142  1  0  0  0
 63143  1  0  0  0
 64144  1  0  0  0
 65145  1  0  0  0
 68 85  1  0  0  0
 71 73  2  0  0  0
 71 74  1  0  0  0
 71146  1  0  0  0
 72 73  1  0  0  0
 72 75  2  0  0  0
 72147  1  0  0  0
 73 77  1  0  0  0
 74 76  2  0  0  0
 74 79  1  0  0  0
 75 76  1  0  0  0
 75 82  1  0  0  0
 76 83  1  0  0  0
 77 78  2  0  0  0
 77148  1  0  0  0
 78149  1  0  0  0
 79150  1  0  0  0
 79151  1  0  0  0
 79152  1  0  0  0
 80 83  1  0  0  0
 80153  1  0  0  0
 80154  1  0  0  0
 80155  1  0  0  0
 81156  1  0  0  0
 81157  1  0  0  0
 81158  1  0  0  0
 81 86  1  0  0  0
 82 84  1  0  0  0
 82159  1  0  0  0
 82160  1  0  0  0
 83161  1  0  0  0
 83162  1  0  0  0
 84 86  1  0  0  0
 84163  1  0  0  0
 84164  1  0  0  0
 85 86  1  0  0  0
 85165  1  0  0  0
 85166  1  0  0  0
 86167  1  0  0  0
M  ISO  4   1 100  68 101  78 100  85 101
M  END
> <chiral flag>
0

> <version>
0

> <s_m_source_file>
/data/baiqing/PycharmProjects/Reinvent-master-3.2/result/LINK_invent/BTK/process_docking_weight1_custom_product_contain_oxygen_bond_distance_aromatic_linkinvent_7_9_3/rearranged_h_0131.sdf

> <i_m_source_file_index>
82

> <r_mmod_Potential_Energy-OPLS-2005>
141.249069213867

> <r_mmod_Stretch_Energy-OPLS-2005>
65.1509323120117

> <r_mmod_Bend_Energy-OPLS-2005>
179.19953918457

> <r_mmod_Torsional_Energy-OPLS-2005>
238.575088500977

> <r_mmod_Improper_Torsional_Energy-OPLS-2005>
2.92868494987488

> <r_mmod_Van_der_Waal_Energy-OPLS-2005>
162.160690307617

> <r_mmod_Electrostatic_Energy-OPLS-2005>
-356.572631835938

> <r_mmod_Solvation_Energy-OPLS-2005>
-183.780014038086

> <b_mmod_Minimization_Converged-OPLS-2005>
0

> <r_mmod_RMS_Derivative-OPLS-2005>
2.43639206886292

$$$$
82
                    3D
 Structure written by MMmdl.
164172  0  0  1  0            999 V2000
  -30.7070  -14.5123   20.5904 C   0  0  0  0  0  0
  -30.4286  -12.3430   19.4370 C   0  0  0  0  0  0
  -29.5034  -12.5267   18.2131 C   0  0  0  0  0  0
  -28.0210  -12.3769   18.6126 C   0  0  0  0  0  0
  -27.6595  -13.2040   19.8747 C   0  0  2  0  0  0
  -28.6977  -12.9808   20.9933 C   0  0  0  0  0  0
  -25.2605  -13.8149   20.5652 C   0  0  0  0  0  0
  -24.1839  -13.0438   20.9147 C   0  0  0  0  0  0
  -24.6390  -11.6910   20.8702 C   0  0  0  0  0  0
  -23.9052  -10.4290   21.0401 C   0  0  0  0  0  0
  -24.3617   -9.4215   21.9193 C   0  0  0  0  0  0
  -23.6299   -8.2247   22.0767 C   0  0  0  0  0  0
  -22.4278   -8.0284   21.3554 C   0  0  0  0  0  0
  -21.9902   -9.0255   20.4659 C   0  0  0  0  0  0
  -22.7225  -10.2134   20.3050 C   0  0  0  0  0  0
  -21.6853   -6.0727   22.5282 C   0  0  0  0  0  0
  -21.4021   -6.5636   23.8215 C   0  0  0  0  0  0
  -21.3654   -5.6792   24.9174 C   0  0  0  0  0  0
  -21.6035   -4.3052   24.7228 C   0  0  0  0  0  0
  -21.8817   -3.8139   23.4347 C   0  0  0  0  0  0
  -21.9199   -4.6953   22.3402 C   0  0  0  0  0  0
  -22.7858  -13.5249   21.1792 C   0  0  0  0  0  0
  -22.1662   -4.2133   21.0980 F   0  0  0  0  0  0
  -21.5630   -3.4540   25.7748 F   0  0  0  0  0  0
  -30.0321  -13.3257   20.4639 N   0  0  0  0  0  0
  -26.3017  -12.9306   20.3340 N   0  0  0  0  0  0
  -25.9318  -11.6474   20.5721 N   0  0  0  0  0  0
  -22.0495  -12.8254   22.0368 N   0  0  0  0  0  0
  -25.4346  -15.1857   20.4090 N   0  0  0  0  0  0
  -31.7965  -14.7151   20.0437 O   0  0  0  0  0  0
  -21.6643   -6.8877   21.4243 O   0  0  0  0  0  0
  -22.3551  -14.5552   20.6642 O   0  0  0  0  0  0
  -24.6158  -31.8659   23.2088 C   0  0  0  0  0  0
  -25.9050  -32.4801   23.8389 C   0  0  1  0  0  0
  -27.2406  -27.4188   20.0856 C   0  0  0  0  0  0
  -25.5895  -33.8600   24.2321 N   0  0  0  0  0  0
  -23.4030  -30.4894   21.5502 C   0  0  2  0  0  0
  -24.8489  -28.9466   20.1157 C   0  0  0  0  0  0
  -22.7404  -29.4657   22.5002 C   0  0  0  0  0  0
  -18.0281  -28.1376   22.8496 C   0  0  0  0  0  0
  -24.1491  -36.7322   23.2644 C   0  0  0  0  0  0
  -25.9326  -30.8206   21.3696 C   0  0  0  0  0  0
  -26.0079  -29.4545   20.7127 C   0  0  0  0  0  0
  -27.2018  -28.6957   20.6980 C   0  0  0  0  0  0
  -26.0592  -26.9224   19.4918 C   0  0  0  0  0  0
  -24.8707  -27.6819   19.5011 C   0  0  0  0  0  0
  -23.6114  -29.8156   20.1670 C   0  0  0  0  0  0
  -25.4114  -36.3110   24.0336 C   0  0  1  0  0  0
  -20.5860  -28.3677   23.1330 C   0  0  2  0  0  0
  -20.6764  -26.9418   22.5425 C   0  0  0  0  0  0
  -19.5744  -26.6382   21.5226 C   0  0  0  0  0  0
  -18.1922  -26.7930   22.1625 C   0  0  0  0  0  0
  -19.1520  -28.8847   23.2907 C   0  0  0  0  0  0
  -18.9440  -30.1454   23.8929 C   0  0  0  0  0  0
  -17.6435  -30.6593   24.0561 C   0  0  0  0  0  0
  -25.9031  -34.9463   23.5129 C   0  0  0  0  0  0
  -16.5332  -29.9078   23.6327 C   0  0  0  0  0  0
  -16.7266  -28.6484   23.0366 C   0  0  0  0  0  0
  -26.4458  -31.6593   25.0746 C   0  0  0  0  0  0
  -25.3711  -31.3732   26.1486 C   0  0  0  0  0  0
  -27.0290  -30.3024   24.6169 C   0  0  0  0  0  0
  -27.6032  -32.4320   25.7503 C   0  0  0  0  0  0
  -27.5594  -37.1810   24.8459 C   0  0  0  0  0  0
  -21.4136  -29.3031   22.3721 N   0  0  0  0  0  0
  -26.4312  -37.3781   23.9391 N   0  0  0  0  0  0
  -24.6680  -31.0727   22.1007 N   0  0  0  0  0  0
  -23.4173  -28.8220   23.3057 O   0  0  0  0  0  0
  -28.4388  -26.7255   20.1037 O   0  0  0  0  0  0
  -26.5601  -34.8907   22.4699 O   0  0  0  0  0  0
  -23.5346  -32.1411   23.7483 O   0  0  0  0  0  0
  -28.7009  -17.9927   18.6805 C   0  0  0  0  0  0
  -29.1393  -16.8587   19.3849 C   0  0  0  0  0  0
  -28.8525  -19.2723   19.2343 C   0  0  0  0  0  0
  -29.7582  -16.9559   20.6562 C   0  0  0  0  0  0
  -29.9684  -18.2848   21.1825 C   0  0  0  0  0  0
  -29.4817  -19.4377   20.4851 C   0  0  0  0  0  0
  -30.0419  -15.6525   21.3917 C   0  0  0  0  0  0
  -32.9727  -18.9848   23.6004 C   0  0  0  0  0  0
  -30.7216  -18.5389   22.4929 C   0  0  0  0  0  0
  -32.2192  -18.8166   22.2747 C   0  0  0  0  0  0
  -28.1879  -24.2168   20.2703 C   0  0  0  0  0  0
  -29.0611  -22.9394   20.0433 C   0  0  0  0  0  0
  -28.6067  -25.4611   19.4333 C   0  0  0  0  0  0
  -28.6355  -21.7042   20.8847 C   0  0  0  0  0  0
  -29.7409  -15.5068   22.6155 N   0  0  0  0  0  0
  -29.6717  -20.7061   21.0191 O   0  0  0  0  0  0
  -31.4734  -12.4429   19.1364 H   0  0  0  0  0  0
  -30.3377  -11.3321   19.8370 H   0  0  0  0  0  0
  -29.7582  -11.8001   17.4401 H   0  0  0  0  0  0
  -29.6657  -13.5117   17.7725 H   0  0  0  0  0  0
  -27.8304  -11.3179   18.7908 H   0  0  0  0  0  0
  -27.3733  -12.6637   17.7821 H   0  0  0  0  0  0
  -27.6940  -14.2522   19.5894 H   0  0  0  0  0  0
  -28.6898  -11.9349   21.3017 H   0  0  0  0  0  0
  -28.4110  -13.5270   21.8880 H   0  0  0  0  0  0
  -25.2769   -9.5679   22.4762 H   0  0  0  0  0  0
  -24.0007   -7.4627   22.7475 H   0  0  0  0  0  0
  -21.0839   -8.8745   19.8984 H   0  0  0  0  0  0
  -22.3682  -10.9655   19.6139 H   0  0  0  0  0  0
  -21.2025   -7.6145   23.9706 H   0  0  0  0  0  0
  -21.1476   -6.0523   25.9069 H   0  0  0  0  0  0
  -22.0610   -2.7598   23.2842 H   0  0  0  0  0  0
  -22.4123  -11.9925   22.4759 H   0  0  0  0  0  0
  -21.1104  -13.1282   22.2567 H   0  0  0  0  0  0
  -24.6749  -15.8464   20.5322 H   0  0  0  0  0  0
  -26.2995  -15.6284   20.1246 H   0  0  0  0  0  0
  -26.7125  -32.5470   23.1142 H   0  0  0  0  0  0
  -25.0029  -33.9735   25.0459 H   0  0  0  0  0  0
  -22.6934  -31.3088   21.4116 H   0  0  0  0  0  0
  -23.3735  -35.9672   23.3305 H   0  0  0  0  0  0
  -24.3601  -36.8932   22.2064 H   0  0  0  0  0  0
  -23.7238  -37.6526   23.6648 H   0  0  0  0  0  0
  -26.0561  -31.5894   20.6050 H   0  0  0  0  0  0
  -26.8141  -30.8639   21.9973 H   0  0  0  0  0  0
  -28.0961  -29.0882   21.1639 H   0  0  0  0  0  0
  -26.0333  -25.9495   19.0239 H   0  0  0  0  0  0
  -23.9785  -27.2860   19.0350 H   0  0  0  0  0  0
  -23.7206  -30.5851   19.4022 H   0  0  0  0  0  0
  -22.7337  -29.2359   19.8796 H   0  0  0  0  0  0
  -25.1293  -36.1979   25.0828 H   0  0  0  0  0  0
  -20.9957  -28.3247   24.1459 H   0  0  0  0  0  0
  -20.5680  -26.2294   23.3611 H   0  0  0  0  0  0
  -21.6628  -26.7468   22.1211 H   0  0  0  0  0  0
  -19.6881  -25.6291   21.1262 H   0  0  0  0  0  0
  -19.6676  -27.3183   20.6750 H   0  0  0  0  0  0
  -17.4194  -26.6719   21.4022 H   0  0  0  0  0  0
  -18.0305  -26.0066   22.9013 H   0  0  0  0  0  0
  -19.7919  -30.7252   24.2321 H   0  0  0  0  0  0
  -17.4991  -31.6285   24.5147 H   0  0  0  0  0  0
  -15.5325  -30.2971   23.7647 H   0  0  0  0  0  0
  -15.8674  -28.0789   22.7095 H   0  0  0  0  0  0
  -24.5847  -30.7144   25.7782 H   0  0  0  0  0  0
  -24.8978  -32.2925   26.4966 H   0  0  0  0  0  0
  -25.8044  -30.8839   27.0222 H   0  0  0  0  0  0
  -26.2865  -29.6791   24.1184 H   0  0  0  0  0  0
  -27.3979  -29.7267   25.4662 H   0  0  0  0  0  0
  -27.8730  -30.4322   23.9392 H   0  0  0  0  0  0
  -27.2649  -33.3596   26.2147 H   0  0  0  0  0  0
  -28.3808  -32.6926   25.0306 H   0  0  0  0  0  0
  -28.0737  -31.8411   26.5367 H   0  0  0  0  0  0
  -28.2587  -38.0125   24.7502 H   0  0  0  0  0  0
  -28.1109  -36.2649   24.6283 H   0  0  0  0  0  0
  -27.2332  -37.1470   25.8869 H   0  0  0  0  0  0
  -20.9308  -29.8707   21.6902 H   0  0  0  0  0  0
  -26.0206  -38.2869   24.1347 H   0  0  0  0  0  0
  -28.2283  -17.8764   17.7158 H   0  0  0  0  0  0
  -28.9679  -15.8976   18.9259 H   0  0  0  0  0  0
  -28.5034  -20.1282   18.6744 H   0  0  0  0  0  0
  -34.0311  -19.1830   23.4278 H   0  0  0  0  0  0
  -32.9038  -18.0845   24.2118 H   0  0  0  0  0  0
  -32.5692  -19.8143   24.1832 H   0  0  0  0  0  0
  -30.6138  -17.7212   23.1978 H   0  0  0  0  0  0
  -30.2699  -19.3900   23.0058 H   0  0  0  0  0  0
  -32.6732  -17.9989   21.7135 H   0  0  0  0  0  0
  -32.3464  -19.7158   21.6689 H   0  0  0  0  0  0
  -28.2315  -24.4807   21.3277 H   0  0  0  0  0  0
  -27.1413  -23.9899   20.0641 H   0  0  0  0  0  0
  -30.0938  -23.1854   20.2917 H   0  0  0  0  0  0
  -29.0630  -22.6678   18.9862 H   0  0  0  0  0  0
  -29.6771  -25.3915   19.2342 H   0  0  0  0  0  0
  -28.1470  -25.4621   18.4447 H   0  0  0  0  0  0
  -27.6957  -21.2948   20.5093 H   0  0  0  0  0  0
  -28.4069  -22.0408   21.8974 H   0  0  0  0  0  0
  -29.3137  -16.3487   22.9798 H   0  0  0  0  0  0
  1 25  1  0  0  0
  1 30  2  0  0  0
  1 77  1  0  0  0
  2  3  1  0  0  0
  2 25  1  0  0  0
  2 87  1  0  0  0
  2 88  1  0  0  0
  3  4  1  0  0  0
  3 89  1  0  0  0
  3 90  1  0  0  0
  4  5  1  0  0  0
  4 91  1  0  0  0
  4 92  1  0  0  0
  5  6  1  0  0  0
  5 26  1  0  0  0
  5 93  1  0  0  0
  6 25  1  0  0  0
  6 94  1  0  0  0
  6 95  1  0  0  0
  7  8  2  0  0  0
  7 26  1  0  0  0
  7 29  1  0  0  0
  8  9  1  0  0  0
  8 22  1  0  0  0
  9 10  1  0  0  0
  9 27  2  0  0  0
 10 11  2  0  0  0
 10 15  1  0  0  0
 11 12  1  0  0  0
 11 96  1  0  0  0
 12 13  2  0  0  0
 12 97  1  0  0  0
 13 14  1  0  0  0
 13 31  1  0  0  0
 14 15  2  0  0  0
 14 98  1  0  0  0
 15 99  1  0  0  0
 16 17  2  0  0  0
 16 21  1  0  0  0
 16 31  1  0  0  0
 17 18  1  0  0  0
 17100  1  0  0  0
 18 19  2  0  0  0
 18101  1  0  0  0
 19 20  1  0  0  0
 19 24  1  0  0  0
 20 21  2  0  0  0
 20102  1  0  0  0
 21 23  1  0  0  0
 22 28  1  0  0  0
 22 32  2  0  0  0
 26 27  1  0  0  0
 28103  1  0  0  0
 28104  1  0  0  0
 29105  1  0  0  0
 29106  1  0  0  0
 33 34  1  0  0  0
 33 66  1  0  0  0
 33 70  2  0  0  0
 34 36  1  0  0  0
 34 59  1  0  0  0
 34107  1  0  0  0
 35 44  2  0  0  0
 35 45  1  0  0  0
 35 68  1  0  0  0
 36 56  1  0  0  0
 36108  1  0  0  0
 37 39  1  0  0  0
 37 47  1  0  0  0
 37 66  1  0  0  0
 37109  1  0  0  0
 38 43  2  0  0  0
 38 46  1  0  0  0
 38 47  1  0  0  0
 39 64  1  0  0  0
 39 67  2  0  0  0
 40 52  1  0  0  0
 40 53  2  0  0  0
 40 58  1  0  0  0
 41110  1  0  0  0
 41111  1  0  0  0
 41112  1  0  0  0
 41 48  1  0  0  0
 42 43  1  0  0  0
 42 66  1  0  0  0
 42113  1  0  0  0
 42114  1  0  0  0
 43 44  1  0  0  0
 44115  1  0  0  0
 45 46  2  0  0  0
 45116  1  0  0  0
 46117  1  0  0  0
 47118  1  0  0  0
 47119  1  0  0  0
 48 56  1  0  0  0
 48 65  1  0  0  0
 48120  1  0  0  0
 49 50  1  0  0  0
 49 53  1  0  0  0
 49 64  1  0  0  0
 49121  1  0  0  0
 50 51  1  0  0  0
 50122  1  0  0  0
 50123  1  0  0  0
 51 52  1  0  0  0
 51124  1  0  0  0
 51125  1  0  0  0
 52126  1  0  0  0
 52127  1  0  0  0
 53 54  1  0  0  0
 54 55  2  0  0  0
 54128  1  0  0  0
 55 57  1  0  0  0
 55129  1  0  0  0
 56 69  2  0  0  0
 57 58  2  0  0  0
 57130  1  0  0  0
 58131  1  0  0  0
 59 60  1  0  0  0
 59 61  1  0  0  0
 59 62  1  0  0  0
 60132  1  0  0  0
 60133  1  0  0  0
 60134  1  0  0  0
 61135  1  0  0  0
 61136  1  0  0  0
 61137  1  0  0  0
 62138  1  0  0  0
 62139  1  0  0  0
 62140  1  0  0  0
 63 65  1  0  0  0
 63141  1  0  0  0
 63142  1  0  0  0
 63143  1  0  0  0
 64144  1  0  0  0
 65145  1  0  0  0
 68 83  1  0  0  0
 71 72  2  0  0  0
 71 73  1  0  0  0
 71146  1  0  0  0
 72 74  1  0  0  0
 72147  1  0  0  0
 73 76  2  0  0  0
 73148  1  0  0  0
 74 75  2  0  0  0
 74 77  1  0  0  0
 75 76  1  0  0  0
 75 79  1  0  0  0
 76 86  1  0  0  0
 77 85  2  0  0  0
 78 80  1  0  0  0
 78149  1  0  0  0
 78150  1  0  0  0
 78151  1  0  0  0
 79 80  1  0  0  0
 79152  1  0  0  0
 79153  1  0  0  0
 80154  1  0  0  0
 80155  1  0  0  0
 81 82  1  0  0  0
 81 83  1  0  0  0
 81156  1  0  0  0
 81157  1  0  0  0
 82 84  1  0  0  0
 82158  1  0  0  0
 82159  1  0  0  0
 83160  1  0  0  0
 83161  1  0  0  0
 84 86  1  0  0  0
 84162  1  0  0  0
 84163  1  0  0  0
 85164  1  0  0  0
M  ISO  4   1 100  68 101  77 100  83 101
M  END
> <chiral flag>
0

> <version>
0

> <s_m_source_file>
/data/baiqing/PycharmProjects/Reinvent-master-3.2/result/LINK_invent/BTK/process_docking_weight1_custom_product_contain_oxygen_bond_distance_aromatic_linkinvent_7_9_3/rearranged_h_0131.sdf

> <i_m_source_file_index>
83

> <r_mmod_Potential_Energy-OPLS-2005>
161.665878295898

> <r_mmod_Stretch_Energy-OPLS-2005>
55.1078605651855

> <r_mmod_Bend_Energy-OPLS-2005>
126.021537780762

> <r_mmod_Torsional_Energy-OPLS-2005>
224.071197509766

> <r_mmod_Improper_Torsional_Energy-OPLS-2005>
2.39527606964111

> <r_mmod_Van_der_Waal_Energy-OPLS-2005>
152.514038085938

> <r_mmod_Electrostatic_Energy-OPLS-2005>
-221.906188964844

> <r_mmod_Solvation_Energy-OPLS-2005>
-191.904800415039

> <b_mmod_Minimization_Converged-OPLS-2005>
0

> <r_mmod_RMS_Derivative-OPLS-2005>
2.96473836898804

$$$$
83
                    3D
 Structure written by MMmdl.
164172  0  0  1  0            999 V2000
  -30.7316  -14.5721   20.4539 C   0  0  0  0  0  0
  -30.3840  -12.3353   19.4821 C   0  0  0  0  0  0
  -29.4928  -12.4756   18.2327 C   0  0  0  0  0  0
  -28.0155  -12.3290   18.6403 C   0  0  0  0  0  0
  -27.6332  -13.2318   19.8434 C   0  0  2  0  0  0
  -28.6738  -13.1683   20.9821 C   0  0  0  0  0  0
  -25.2453  -13.8192   20.5707 C   0  0  0  0  0  0
  -24.1747  -13.0428   20.9223 C   0  0  0  0  0  0
  -24.6347  -11.6904   20.8741 C   0  0  0  0  0  0
  -23.9033  -10.4274   21.0404 C   0  0  0  0  0  0
  -24.3592   -9.4193   21.9187 C   0  0  0  0  0  0
  -23.6263   -8.2236   22.0776 C   0  0  0  0  0  0
  -22.4234   -8.0288   21.3591 C   0  0  0  0  0  0
  -21.9848   -9.0239   20.4685 C   0  0  0  0  0  0
  -22.7189  -10.2109   20.3080 C   0  0  0  0  0  0
  -21.6845   -6.0723   22.5301 C   0  0  0  0  0  0
  -21.4004   -6.5635   23.8238 C   0  0  0  0  0  0
  -21.3667   -5.6801   24.9201 C   0  0  0  0  0  0
  -21.6058   -4.3076   24.7248 C   0  0  0  0  0  0
  -21.8803   -3.8139   23.4362 C   0  0  0  0  0  0
  -21.9167   -4.6961   22.3427 C   0  0  0  0  0  0
  -22.7777  -13.5214   21.1895 C   0  0  0  0  0  0
  -22.1658   -4.2135   21.0999 F   0  0  0  0  0  0
  -21.5619   -3.4551   25.7762 F   0  0  0  0  0  0
  -29.9983  -13.4189   20.4083 N   0  0  0  0  0  0
  -26.2869  -12.9407   20.3232 N   0  0  0  0  0  0
  -25.9266  -11.6537   20.5712 N   0  0  0  0  0  0
  -22.0415  -12.8218   22.0448 N   0  0  0  0  0  0
  -25.4082  -15.1932   20.4193 N   0  0  0  0  0  0
  -31.9342  -14.5213   20.1845 O   0  0  0  0  0  0
  -21.6642   -6.8862   21.4265 O   0  0  0  0  0  0
  -22.3459  -14.5540   20.6782 O   0  0  0  0  0  0
  -24.6154  -31.8678   23.2089 C   0  0  0  0  0  0
  -25.9066  -32.4810   23.8363 C   0  0  1  0  0  0
  -27.2075  -27.4135   20.1070 C   0  0  0  0  0  0
  -25.5920  -33.8608   24.2286 N   0  0  0  0  0  0
  -23.4010  -30.4950   21.5479 C   0  0  2  0  0  0
  -24.8437  -28.9612   20.1081 C   0  0  0  0  0  0
  -22.7403  -29.4679   22.4953 C   0  0  0  0  0  0
  -18.0277  -28.1396   22.8472 C   0  0  0  0  0  0
  -24.1495  -36.7310   23.2634 C   0  0  0  0  0  0
  -25.9321  -30.8274   21.3642 C   0  0  0  0  0  0
  -26.0052  -29.4620   20.7097 C   0  0  0  0  0  0
  -27.1958  -28.6963   20.7039 C   0  0  0  0  0  0
  -26.0368  -26.9345   19.4887 C   0  0  0  0  0  0
  -24.8551  -27.6985   19.4910 C   0  0  0  0  0  0
  -23.6081  -29.8326   20.1601 C   0  0  0  0  0  0
  -25.4116  -36.3085   24.0314 C   0  0  1  0  0  0
  -20.5862  -28.3688   23.1296 C   0  0  2  0  0  0
  -20.6770  -26.9426   22.5409 C   0  0  0  0  0  0
  -19.5755  -26.6398   21.5205 C   0  0  0  0  0  0
  -18.1930  -26.7941   22.1608 C   0  0  0  0  0  0
  -19.1521  -28.8853   23.2884 C   0  0  0  0  0  0
  -18.9462  -30.1449   23.8917 C   0  0  0  0  0  0
  -17.6470  -30.6592   24.0579 C   0  0  0  0  0  0
  -25.9045  -34.9465   23.5084 C   0  0  0  0  0  0
  -16.5364  -29.9103   23.6331 C   0  0  0  0  0  0
  -16.7265  -28.6523   23.0339 C   0  0  0  0  0  0
  -26.4493  -31.6602   25.0704 C   0  0  0  0  0  0
  -25.3747  -31.3752   26.1446 C   0  0  0  0  0  0
  -27.0349  -30.3034   24.6129 C   0  0  0  0  0  0
  -27.6034  -32.4350   25.7489 C   0  0  0  0  0  0
  -27.5574  -37.1816   24.8451 C   0  0  0  0  0  0
  -21.4129  -29.3044   22.3685 N   0  0  0  0  0  0
  -26.4287  -37.3779   23.9392 N   0  0  0  0  0  0
  -24.6674  -31.0774   22.0989 N   0  0  0  0  0  0
  -23.4174  -28.8226   23.3001 O   0  0  0  0  0  0
  -28.3490  -26.6454   20.0872 O   0  0  0  0  0  0
  -26.5606  -34.8919   22.4649 O   0  0  0  0  0  0
  -23.5351  -32.1463   23.7481 O   0  0  0  0  0  0
  -29.5355  -19.2982   20.4673 C   0  0  0  0  0  0
  -31.9199  -20.5615   19.7201 C   0  0  0  0  0  0
  -30.7239  -18.5036   20.3632 C   0  0  0  0  0  0
  -29.5365  -20.7179   20.2051 C   0  0  0  0  0  0
  -31.9138  -19.1800   19.9592 C   0  0  0  0  0  0
  -30.7636  -21.3379   19.8326 C   0  0  0  0  0  0
  -30.8577  -17.0059   20.5383 C   0  0  0  0  0  0
  -30.0523  -15.8985   20.4989 C   0  0  0  0  0  0
  -33.2461  -18.4697   19.7305 C   0  0  0  0  0  0
  -31.6901  -23.6075   20.5700 C   0  0  0  0  0  0
  -28.2177  -21.5335   20.2141 C   0  0  0  0  0  0
  -30.9390  -22.8156   19.4829 C   0  0  0  0  0  0
  -28.1844  -22.8524   21.0580 C   0  0  0  0  0  0
  -27.7646  -24.1632   20.3031 C   0  0  0  0  0  0
  -28.3365  -25.4736   20.9274 C   0  0  0  0  0  0
  -31.4388  -12.3569   19.2082 H   0  0  0  0  0  0
  -30.2229  -11.3675   19.9598 H   0  0  0  0  0  0
  -29.7523  -11.7202   17.4898 H   0  0  0  0  0  0
  -29.6601  -13.4426   17.7566 H   0  0  0  0  0  0
  -27.8547  -11.2821   18.9001 H   0  0  0  0  0  0
  -27.3610  -12.5361   17.7925 H   0  0  0  0  0  0
  -27.6309  -14.2505   19.4580 H   0  0  0  0  0  0
  -28.6596  -12.1952   21.4759 H   0  0  0  0  0  0
  -28.4429  -13.9095   21.7483 H   0  0  0  0  0  0
  -25.2723   -9.5666   22.4754 H   0  0  0  0  0  0
  -23.9996   -7.4604   22.7447 H   0  0  0  0  0  0
  -21.0804   -8.8731   19.8964 H   0  0  0  0  0  0
  -22.3639  -10.9652   19.6203 H   0  0  0  0  0  0
  -21.2032   -7.6154   23.9736 H   0  0  0  0  0  0
  -21.1514   -6.0548   25.9113 H   0  0  0  0  0  0
  -22.0561   -2.7596   23.2888 H   0  0  0  0  0  0
  -22.4012  -11.9891   22.4895 H   0  0  0  0  0  0
  -21.1048  -13.1277   22.2667 H   0  0  0  0  0  0
  -24.6259  -15.8278   20.5371 H   0  0  0  0  0  0
  -26.2586  -15.6544   20.1202 H   0  0  0  0  0  0
  -26.7138  -32.5521   23.1126 H   0  0  0  0  0  0
  -25.0084  -33.9760   25.0438 H   0  0  0  0  0  0
  -22.6910  -31.3132   21.4123 H   0  0  0  0  0  0
  -23.3736  -35.9663   23.3302 H   0  0  0  0  0  0
  -24.3582  -36.8931   22.2045 H   0  0  0  0  0  0
  -23.7285  -37.6526   23.6667 H   0  0  0  0  0  0
  -26.0505  -31.5952   20.5980 H   0  0  0  0  0  0
  -26.8180  -30.8761   21.9854 H   0  0  0  0  0  0
  -28.0962  -29.0791   21.1635 H   0  0  0  0  0  0
  -26.0354  -25.9759   18.9922 H   0  0  0  0  0  0
  -23.9642  -27.3117   19.0162 H   0  0  0  0  0  0
  -23.7172  -30.6116   19.4041 H   0  0  0  0  0  0
  -22.7302  -29.2554   19.8632 H   0  0  0  0  0  0
  -25.1306  -36.1929   25.0806 H   0  0  0  0  0  0
  -20.9948  -28.3279   24.1419 H   0  0  0  0  0  0
  -20.5675  -26.2317   23.3606 H   0  0  0  0  0  0
  -21.6649  -26.7478   22.1215 H   0  0  0  0  0  0
  -19.6929  -25.6308   21.1241 H   0  0  0  0  0  0
  -19.6695  -27.3208   20.6734 H   0  0  0  0  0  0
  -17.4200  -26.6668   21.4013 H   0  0  0  0  0  0
  -18.0338  -26.0095   22.9015 H   0  0  0  0  0  0
  -19.7935  -30.7247   24.2315 H   0  0  0  0  0  0
  -17.5035  -31.6271   24.5183 H   0  0  0  0  0  0
  -15.5375  -30.3029   23.7643 H   0  0  0  0  0  0
  -15.8653  -28.0868   22.7044 H   0  0  0  0  0  0
  -24.5859  -30.7184   25.7779 H   0  0  0  0  0  0
  -24.9029  -32.2947   26.4917 H   0  0  0  0  0  0
  -25.8060  -30.8875   27.0194 H   0  0  0  0  0  0
  -26.2926  -29.6772   24.1170 H   0  0  0  0  0  0
  -27.4102  -29.7296   25.4616 H   0  0  0  0  0  0
  -27.8760  -30.4340   23.9313 H   0  0  0  0  0  0
  -27.2608  -33.3630   26.2082 H   0  0  0  0  0  0
  -28.3842  -32.6959   25.0333 H   0  0  0  0  0  0
  -28.0718  -31.8491   26.5408 H   0  0  0  0  0  0
  -28.2589  -38.0116   24.7475 H   0  0  0  0  0  0
  -28.1069  -36.2640   24.6294 H   0  0  0  0  0  0
  -27.2286  -37.1481   25.8853 H   0  0  0  0  0  0
  -20.9298  -29.8774   21.6909 H   0  0  0  0  0  0
  -26.0158  -38.2851   24.1391 H   0  0  0  0  0  0
  -28.6105  -18.8087   20.7366 H   0  0  0  0  0  0
  -32.8359  -21.0463   19.4077 H   0  0  0  0  0  0
  -31.8852  -16.7588   20.7344 H   0  0  0  0  0  0
  -28.9816  -15.9899   20.4064 H   0  0  0  0  0  0
  -33.9832  -19.1308   19.2728 H   0  0  0  0  0  0
  -33.1356  -17.6182   19.0582 H   0  0  0  0  0  0
  -33.6631  -18.1291   20.6786 H   0  0  0  0  0  0
  -31.7502  -24.6655   20.3117 H   0  0  0  0  0  0
  -32.7096  -23.2433   20.6916 H   0  0  0  0  0  0
  -31.2091  -23.5373   21.5447 H   0  0  0  0  0  0
  -27.4003  -20.8882   20.5405 H   0  0  0  0  0  0
  -27.9826  -21.7690   19.1755 H   0  0  0  0  0  0
  -29.9989  -23.2852   19.2346 H   0  0  0  0  0  0
  -31.5107  -22.8858   18.5555 H   0  0  0  0  0  0
  -29.1484  -22.9866   21.5364 H   0  0  0  0  0  0
  -27.5121  -22.7129   21.9061 H   0  0  0  0  0  0
  -26.6762  -24.2110   20.2763 H   0  0  0  0  0  0
  -28.0685  -24.1213   19.2574 H   0  0  0  0  0  0
  -29.3830  -25.3063   21.1825 H   0  0  0  0  0  0
  -27.8371  -25.6908   21.8735 H   0  0  0  0  0  0
  1 25  1  0  0  0
  1 30  2  0  0  0
  1 78  1  0  0  0
  2  3  1  0  0  0
  2 25  1  0  0  0
  2 86  1  0  0  0
  2 87  1  0  0  0
  3  4  1  0  0  0
  3 88  1  0  0  0
  3 89  1  0  0  0
  4  5  1  0  0  0
  4 90  1  0  0  0
  4 91  1  0  0  0
  5  6  1  0  0  0
  5 26  1  0  0  0
  5 92  1  0  0  0
  6 25  1  0  0  0
  6 93  1  0  0  0
  6 94  1  0  0  0
  7  8  2  0  0  0
  7 26  1  0  0  0
  7 29  1  0  0  0
  8  9  1  0  0  0
  8 22  1  0  0  0
  9 10  1  0  0  0
  9 27  2  0  0  0
 10 11  2  0  0  0
 10 15  1  0  0  0
 11 12  1  0  0  0
 11 95  1  0  0  0
 12 13  2  0  0  0
 12 96  1  0  0  0
 13 14  1  0  0  0
 13 31  1  0  0  0
 14 15  2  0  0  0
 14 97  1  0  0  0
 15 98  1  0  0  0
 16 17  2  0  0  0
 16 21  1  0  0  0
 16 31  1  0  0  0
 17 18  1  0  0  0
 17 99  1  0  0  0
 18 19  2  0  0  0
 18100  1  0  0  0
 19 20  1  0  0  0
 19 24  1  0  0  0
 20 21  2  0  0  0
 20101  1  0  0  0
 21 23  1  0  0  0
 22 28  1  0  0  0
 22 32  2  0  0  0
 26 27  1  0  0  0
 28102  1  0  0  0
 28103  1  0  0  0
 29104  1  0  0  0
 29105  1  0  0  0
 33 34  1  0  0  0
 33 66  1  0  0  0
 33 70  2  0  0  0
 34 36  1  0  0  0
 34 59  1  0  0  0
 34106  1  0  0  0
 35 44  2  0  0  0
 35 45  1  0  0  0
 35 68  1  0  0  0
 36 56  1  0  0  0
 36107  1  0  0  0
 37 39  1  0  0  0
 37 47  1  0  0  0
 37 66  1  0  0  0
 37108  1  0  0  0
 38 43  2  0  0  0
 38 46  1  0  0  0
 38 47  1  0  0  0
 39 64  1  0  0  0
 39 67  2  0  0  0
 40 52  1  0  0  0
 40 53  2  0  0  0
 40 58  1  0  0  0
 41109  1  0  0  0
 41110  1  0  0  0
 41111  1  0  0  0
 41 48  1  0  0  0
 42 43  1  0  0  0
 42 66  1  0  0  0
 42112  1  0  0  0
 42113  1  0  0  0
 43 44  1  0  0  0
 44114  1  0  0  0
 45 46  2  0  0  0
 45115  1  0  0  0
 46116  1  0  0  0
 47117  1  0  0  0
 47118  1  0  0  0
 48 56  1  0  0  0
 48 65  1  0  0  0
 48119  1  0  0  0
 49 50  1  0  0  0
 49 53  1  0  0  0
 49 64  1  0  0  0
 49120  1  0  0  0
 50 51  1  0  0  0
 50121  1  0  0  0
 50122  1  0  0  0
 51 52  1  0  0  0
 51123  1  0  0  0
 51124  1  0  0  0
 52125  1  0  0  0
 52126  1  0  0  0
 53 54  1  0  0  0
 54 55  2  0  0  0
 54127  1  0  0  0
 55 57  1  0  0  0
 55128  1  0  0  0
 56 69  2  0  0  0
 57 58  2  0  0  0
 57129  1  0  0  0
 58130  1  0  0  0
 59 60  1  0  0  0
 59 61  1  0  0  0
 59 62  1  0  0  0
 60131  1  0  0  0
 60132  1  0  0  0
 60133  1  0  0  0
 61134  1  0  0  0
 61135  1  0  0  0
 61136  1  0  0  0
 62137  1  0  0  0
 62138  1  0  0  0
 62139  1  0  0  0
 63 65  1  0  0  0
 63140  1  0  0  0
 63141  1  0  0  0
 63142  1  0  0  0
 64143  1  0  0  0
 65144  1  0  0  0
 68 85  1  0  0  0
 71 73  2  0  0  0
 71 74  1  0  0  0
 71145  1  0  0  0
 72 75  2  0  0  0
 72 76  1  0  0  0
 72146  1  0  0  0
 73 75  1  0  0  0
 73 77  1  0  0  0
 74 76  2  0  0  0
 74 81  1  0  0  0
 75 79  1  0  0  0
 76 82  1  0  0  0
 77 78  2  0  0  0
 77147  1  0  0  0
 78148  1  0  0  0
 79149  1  0  0  0
 79150  1  0  0  0
 79151  1  0  0  0
 80 82  1  0  0  0
 80152  1  0  0  0
 80153  1  0  0  0
 80154  1  0  0  0
 81 83  1  0  0  0
 81155  1  0  0  0
 81156  1  0  0  0
 82157  1  0  0  0
 82158  1  0  0  0
 83 84  1  0  0  0
 83159  1  0  0  0
 83160  1  0  0  0
 84 85  1  0  0  0
 84161  1  0  0  0
 84162  1  0  0  0
 85163  1  0  0  0
 85164  1  0  0  0
M  ISO  4   1 100  68 101  78 100  85 101
M  END
> <chiral flag>
0

> <version>
0

> <s_m_source_file>
/data/baiqing/PycharmProjects/Reinvent-master-3.2/result/LINK_invent/BTK/process_docking_weight1_custom_product_contain_oxygen_bond_distance_aromatic_linkinvent_7_9_3/rearranged_h_0131.sdf

> <i_m_source_file_index>
84

> <r_mmod_Potential_Energy-OPLS-2005>
112.080657958984

> <r_mmod_Stretch_Energy-OPLS-2005>
57.2657661437988

> <r_mmod_Bend_Energy-OPLS-2005>
147.205749511719

> <r_mmod_Torsional_Energy-OPLS-2005>
235.713165283203

> <r_mmod_Improper_Torsional_Energy-OPLS-2005>
9.36268520355225

> <r_mmod_Van_der_Waal_Energy-OPLS-2005>
168.389556884766

> <r_mmod_Electrostatic_Energy-OPLS-2005>
-359.091339111328

> <r_mmod_Solvation_Energy-OPLS-2005>
-185.144973754883

> <b_mmod_Minimization_Converged-OPLS-2005>
0

> <r_mmod_RMS_Derivative-OPLS-2005>
3.75933575630188

$$$$
84
                    3D
 Structure written by MMmdl.
167175  0  0  1  0            999 V2000
  -30.6792  -14.4143   20.5793 C   0  0  0  0  0  0
  -30.4219  -12.2756   19.4061 C   0  0  0  0  0  0
  -29.4857  -12.5054   18.1983 C   0  0  0  0  0  0
  -28.0012  -12.3810   18.6056 C   0  0  0  0  0  0
  -27.6614  -13.1930   19.8847 C   0  0  2  0  0  0
  -28.6988  -12.8960   20.9873 C   0  0  0  0  0  0
  -25.2583  -13.8151   20.5659 C   0  0  0  0  0  0
  -24.1824  -13.0439   20.9197 C   0  0  0  0  0  0
  -24.6382  -11.6909   20.8779 C   0  0  0  0  0  0
  -23.9095  -10.4290   21.0456 C   0  0  0  0  0  0
  -24.3670   -9.4193   21.9214 C   0  0  0  0  0  0
  -23.6342   -8.2231   22.0761 C   0  0  0  0  0  0
  -22.4307   -8.0283   21.3552 C   0  0  0  0  0  0
  -21.9946   -9.0264   20.4644 C   0  0  0  0  0  0
  -22.7284  -10.2151   20.3086 C   0  0  0  0  0  0
  -21.6851   -6.0753   22.5300 C   0  0  0  0  0  0
  -21.3992   -6.5652   23.8228 C   0  0  0  0  0  0
  -21.3674   -5.6811   24.9195 C   0  0  0  0  0  0
  -21.6074   -4.3070   24.7250 C   0  0  0  0  0  0
  -21.8828   -3.8164   23.4356 C   0  0  0  0  0  0
  -21.9187   -4.6983   22.3409 C   0  0  0  0  0  0
  -22.7844  -13.5226   21.1869 C   0  0  0  0  0  0
  -22.1636   -4.2159   21.0983 F   0  0  0  0  0  0
  -21.5643   -3.4551   25.7761 F   0  0  0  0  0  0
  -30.0281  -13.2268   20.4540 N   0  0  0  0  0  0
  -26.3000  -12.9280   20.3408 N   0  0  0  0  0  0
  -25.9300  -11.6452   20.5830 N   0  0  0  0  0  0
  -22.0500  -12.8203   22.0421 N   0  0  0  0  0  0
  -25.4371  -15.1882   20.4019 N   0  0  0  0  0  0
  -31.8273  -14.5790   20.1473 O   0  0  0  0  0  0
  -21.6634   -6.8902   21.4263 O   0  0  0  0  0  0
  -22.3509  -14.5531   20.6732 O   0  0  0  0  0  0
  -24.6061  -31.8699   23.2151 C   0  0  0  0  0  0
  -25.8995  -32.4831   23.8418 C   0  0  1  0  0  0
  -27.2169  -27.4689   20.0803 C   0  0  0  0  0  0
  -25.5877  -33.8639   24.2324 N   0  0  0  0  0  0
  -23.3931  -30.4960   21.5560 C   0  0  2  0  0  0
  -24.8329  -28.9738   20.1149 C   0  0  0  0  0  0
  -22.7348  -29.4659   22.4999 C   0  0  0  0  0  0
  -18.0265  -28.1363   22.8501 C   0  0  0  0  0  0
  -24.1485  -36.7333   23.2631 C   0  0  0  0  0  0
  -25.9193  -30.8404   21.3724 C   0  0  0  0  0  0
  -25.9917  -29.4816   20.7141 C   0  0  0  0  0  0
  -27.1848  -28.7326   20.6993 C   0  0  0  0  0  0
  -26.0409  -26.9680   19.4738 C   0  0  0  0  0  0
  -24.8508  -27.7153   19.4934 C   0  0  0  0  0  0
  -23.5965  -29.8349   20.1683 C   0  0  0  0  0  0
  -25.4108  -36.3124   24.0321 C   0  0  1  0  0  0
  -20.5845  -28.3631   23.1335 C   0  0  2  0  0  0
  -20.6751  -26.9381   22.5409 C   0  0  0  0  0  0
  -19.5737  -26.6384   21.5196 C   0  0  0  0  0  0
  -18.1910  -26.7926   22.1615 C   0  0  0  0  0  0
  -19.1509  -28.8811   23.2926 C   0  0  0  0  0  0
  -18.9447  -30.1423   23.8935 C   0  0  0  0  0  0
  -17.6442  -30.6571   24.0574 C   0  0  0  0  0  0
  -25.9018  -34.9485   23.5119 C   0  0  0  0  0  0
  -16.5328  -29.9068   23.6336 C   0  0  0  0  0  0
  -16.7249  -28.6495   23.0363 C   0  0  0  0  0  0
  -26.4447  -31.6622   25.0747 C   0  0  0  0  0  0
  -25.3749  -31.3749   26.1531 C   0  0  0  0  0  0
  -27.0233  -30.3045   24.6124 C   0  0  0  0  0  0
  -27.6034  -32.4347   25.7482 C   0  0  0  0  0  0
  -27.5591  -37.1808   24.8443 C   0  0  0  0  0  0
  -21.4085  -29.3025   22.3747 N   0  0  0  0  0  0
  -26.4296  -37.3808   23.9392 N   0  0  0  0  0  0
  -24.6584  -31.0821   22.1062 N   0  0  0  0  0  0
  -23.4138  -28.8195   23.3026 O   0  0  0  0  0  0
  -28.4175  -26.8044   20.0429 O   0  0  0  0  0  0
  -26.5597  -34.8921   22.4686 O   0  0  0  0  0  0
  -23.5279  -32.1458   23.7550 O   0  0  0  0  0  0
  -31.4184  -18.9783   20.9247 C   0  0  0  0  0  0
  -31.4202  -20.3099   20.4877 C   0  0  0  0  0  0
  -29.1394  -18.7201   20.1093 C   0  0  0  0  0  0
  -30.2985  -18.1679   20.7003 C   0  0  0  0  0  0
  -30.3043  -20.8579   19.8202 C   0  0  0  0  0  0
  -29.1286  -20.0626   19.6521 C   0  0  0  0  0  0
  -30.4387  -16.7476   21.0010 C   0  0  0  0  0  0
  -29.8684  -15.5305   21.0579 C   0  0  0  0  0  0
  -30.4941  -22.2416   19.3256 C   0  0  0  0  0  0
  -27.8060  -20.2445   17.4635 C   0  0  0  0  0  0
  -30.9198  -25.5842   20.1054 C   0  0  0  0  0  0
  -29.6162  -24.9553   18.0350 C   0  0  0  0  0  0
  -27.8534  -20.5592   18.9627 C   0  0  0  0  0  0
  -29.7551  -23.3286   20.1096 C   0  0  0  0  0  0
  -28.4009  -25.3895   20.1639 C   0  0  0  0  0  0
  -29.6998  -24.7974   19.5780 C   0  0  0  0  0  0
  -31.3113  -22.4780   18.3862 N   0  0  0  0  0  0
  -31.4650  -12.3909   19.1016 H   0  0  0  0  0  0
  -30.3343  -11.2522   19.7700 H   0  0  0  0  0  0
  -29.7102  -11.7857   17.4090 H   0  0  0  0  0  0
  -29.6633  -13.4990   17.7827 H   0  0  0  0  0  0
  -27.7829  -11.3229   18.7666 H   0  0  0  0  0  0
  -27.3637  -12.6982   17.7802 H   0  0  0  0  0  0
  -27.7281  -14.2478   19.6255 H   0  0  0  0  0  0
  -28.6652  -11.8325   21.2314 H   0  0  0  0  0  0
  -28.4727  -13.3994   21.9257 H   0  0  0  0  0  0
  -25.2819   -9.5650   22.4781 H   0  0  0  0  0  0
  -24.0039   -7.4609   22.7471 H   0  0  0  0  0  0
  -21.0875   -8.8850   19.8933 H   0  0  0  0  0  0
  -22.3790  -10.9726   19.6208 H   0  0  0  0  0  0
  -21.1961   -7.6163   23.9749 H   0  0  0  0  0  0
  -21.1476   -6.0523   25.9107 H   0  0  0  0  0  0
  -22.0595   -2.7613   23.2878 H   0  0  0  0  0  0
  -22.4065  -11.9829   22.4805 H   0  0  0  0  0  0
  -21.1149  -13.1256   22.2682 H   0  0  0  0  0  0
  -24.6892  -15.8636   20.5178 H   0  0  0  0  0  0
  -26.3068  -15.6083   20.1006 H   0  0  0  0  0  0
  -26.7048  -32.5536   23.1163 H   0  0  0  0  0  0
  -25.0012  -33.9824   25.0456 H   0  0  0  0  0  0
  -22.6824  -31.3153   21.4205 H   0  0  0  0  0  0
  -23.3749  -35.9675   23.3313 H   0  0  0  0  0  0
  -24.3583  -36.8931   22.2044 H   0  0  0  0  0  0
  -23.7243  -37.6537   23.6649 H   0  0  0  0  0  0
  -26.0389  -31.6148   20.6142 H   0  0  0  0  0  0
  -26.8041  -30.8789   21.9967 H   0  0  0  0  0  0
  -28.0811  -29.1230   21.1621 H   0  0  0  0  0  0
  -26.0145  -26.0287   18.9451 H   0  0  0  0  0  0
  -23.9646  -27.3282   19.0096 H   0  0  0  0  0  0
  -23.6929  -30.6090   19.4048 H   0  0  0  0  0  0
  -22.7231  -29.2455   19.8791 H   0  0  0  0  0  0
  -25.1288  -36.1994   25.0820 H   0  0  0  0  0  0
  -20.9941  -28.3185   24.1454 H   0  0  0  0  0  0
  -20.5663  -26.2218   23.3578 H   0  0  0  0  0  0
  -21.6623  -26.7427   22.1205 H   0  0  0  0  0  0
  -19.6892  -25.6299   21.1220 H   0  0  0  0  0  0
  -19.6680  -27.3210   20.6747 H   0  0  0  0  0  0
  -17.4167  -26.6662   21.4028 H   0  0  0  0  0  0
  -18.0329  -26.0048   22.9002 H   0  0  0  0  0  0
  -19.7913  -30.7245   24.2307 H   0  0  0  0  0  0
  -17.4993  -31.6284   24.5140 H   0  0  0  0  0  0
  -15.5338  -30.2990   23.7636 H   0  0  0  0  0  0
  -15.8660  -28.0826   22.7062 H   0  0  0  0  0  0
  -24.5847  -30.7175   25.7876 H   0  0  0  0  0  0
  -24.9065  -32.2933   26.5082 H   0  0  0  0  0  0
  -25.8143  -30.8822   27.0213 H   0  0  0  0  0  0
  -26.2741  -29.6844   24.1180 H   0  0  0  0  0  0
  -27.3940  -29.7255   25.4587 H   0  0  0  0  0  0
  -27.8631  -30.4308   23.9296 H   0  0  0  0  0  0
  -27.2629  -33.3582   26.2177 H   0  0  0  0  0  0
  -28.3783  -32.7010   25.0285 H   0  0  0  0  0  0
  -28.0784  -31.8423   26.5304 H   0  0  0  0  0  0
  -28.2580  -38.0127   24.7534 H   0  0  0  0  0  0
  -28.1110  -36.2665   24.6219 H   0  0  0  0  0  0
  -27.2323  -37.1400   25.8845 H   0  0  0  0  0  0
  -20.9183  -29.8777   21.7028 H   0  0  0  0  0  0
  -26.0187  -38.2870   24.1457 H   0  0  0  0  0  0
  -32.3041  -18.5645   21.3881 H   0  0  0  0  0  0
  -32.3103  -20.9037   20.6447 H   0  0  0  0  0  0
  -28.2695  -18.0950   19.9527 H   0  0  0  0  0  0
  -29.7549  -17.0186   21.7924 H   0  0  0  0  0  0
  -28.8461  -15.4022   21.3924 H   0  0  0  0  0  0
  -26.8643  -20.5875   17.0325 H   0  0  0  0  0  0
  -27.8806  -19.1752   17.2685 H   0  0  0  0  0  0
  -28.6179  -20.7459   16.9359 H   0  0  0  0  0  0
  -31.8578  -25.0922   19.8404 H   0  0  0  0  0  0
  -30.8926  -25.6860   21.1912 H   0  0  0  0  0  0
  -30.9593  -26.5921   19.6881 H   0  0  0  0  0  0
  -30.5968  -24.8644   17.5650 H   0  0  0  0  0  0
  -29.2389  -25.9400   17.7497 H   0  0  0  0  0  0
  -28.9600  -24.2147   17.5764 H   0  0  0  0  0  0
  -27.6905  -21.6254   19.0915 H   0  0  0  0  0  0
  -26.9934  -20.0913   19.4451 H   0  0  0  0  0  0
  -30.1715  -23.3332   21.1197 H   0  0  0  0  0  0
  -28.7391  -22.9770   20.2668 H   0  0  0  0  0  0
  -28.2907  -25.1365   21.2204 H   0  0  0  0  0  0
  -27.5694  -24.9110   19.6525 H   0  0  0  0  0  0
  -31.7298  -21.6222   18.0333 H   0  0  0  0  0  0
  1 25  1  0  0  0
  1 30  2  0  0  0
  1 78  1  0  0  0
  2  3  1  0  0  0
  2 25  1  0  0  0
  2 88  1  0  0  0
  2 89  1  0  0  0
  3  4  1  0  0  0
  3 90  1  0  0  0
  3 91  1  0  0  0
  4  5  1  0  0  0
  4 92  1  0  0  0
  4 93  1  0  0  0
  5  6  1  0  0  0
  5 26  1  0  0  0
  5 94  1  0  0  0
  6 25  1  0  0  0
  6 95  1  0  0  0
  6 96  1  0  0  0
  7  8  2  0  0  0
  7 26  1  0  0  0
  7 29  1  0  0  0
  8  9  1  0  0  0
  8 22  1  0  0  0
  9 10  1  0  0  0
  9 27  2  0  0  0
 10 11  2  0  0  0
 10 15  1  0  0  0
 11 12  1  0  0  0
 11 97  1  0  0  0
 12 13  2  0  0  0
 12 98  1  0  0  0
 13 14  1  0  0  0
 13 31  1  0  0  0
 14 15  2  0  0  0
 14 99  1  0  0  0
 15100  1  0  0  0
 16 17  2  0  0  0
 16 21  1  0  0  0
 16 31  1  0  0  0
 17 18  1  0  0  0
 17101  1  0  0  0
 18 19  2  0  0  0
 18102  1  0  0  0
 19 20  1  0  0  0
 19 24  1  0  0  0
 20 21  2  0  0  0
 20103  1  0  0  0
 21 23  1  0  0  0
 22 28  1  0  0  0
 22 32  2  0  0  0
 26 27  1  0  0  0
 28104  1  0  0  0
 28105  1  0  0  0
 29106  1  0  0  0
 29107  1  0  0  0
 33 34  1  0  0  0
 33 66  1  0  0  0
 33 70  2  0  0  0
 34 36  1  0  0  0
 34 59  1  0  0  0
 34108  1  0  0  0
 35 44  2  0  0  0
 35 45  1  0  0  0
 35 68  1  0  0  0
 36 56  1  0  0  0
 36109  1  0  0  0
 37 39  1  0  0  0
 37 47  1  0  0  0
 37 66  1  0  0  0
 37110  1  0  0  0
 38 43  2  0  0  0
 38 46  1  0  0  0
 38 47  1  0  0  0
 39 64  1  0  0  0
 39 67  2  0  0  0
 40 52  1  0  0  0
 40 53  2  0  0  0
 40 58  1  0  0  0
 41111  1  0  0  0
 41112  1  0  0  0
 41113  1  0  0  0
 41 48  1  0  0  0
 42 43  1  0  0  0
 42 66  1  0  0  0
 42114  1  0  0  0
 42115  1  0  0  0
 43 44  1  0  0  0
 44116  1  0  0  0
 45 46  2  0  0  0
 45117  1  0  0  0
 46118  1  0  0  0
 47119  1  0  0  0
 47120  1  0  0  0
 48 56  1  0  0  0
 48 65  1  0  0  0
 48121  1  0  0  0
 49 50  1  0  0  0
 49 53  1  0  0  0
 49 64  1  0  0  0
 49122  1  0  0  0
 50 51  1  0  0  0
 50123  1  0  0  0
 50124  1  0  0  0
 51 52  1  0  0  0
 51125  1  0  0  0
 51126  1  0  0  0
 52127  1  0  0  0
 52128  1  0  0  0
 53 54  1  0  0  0
 54 55  2  0  0  0
 54129  1  0  0  0
 55 57  1  0  0  0
 55130  1  0  0  0
 56 69  2  0  0  0
 57 58  2  0  0  0
 57131  1  0  0  0
 58132  1  0  0  0
 59 60  1  0  0  0
 59 61  1  0  0  0
 59 62  1  0  0  0
 60133  1  0  0  0
 60134  1  0  0  0
 60135  1  0  0  0
 61136  1  0  0  0
 61137  1  0  0  0
 61138  1  0  0  0
 62139  1  0  0  0
 62140  1  0  0  0
 62141  1  0  0  0
 63 65  1  0  0  0
 63142  1  0  0  0
 63143  1  0  0  0
 63144  1  0  0  0
 64145  1  0  0  0
 65146  1  0  0  0
 68 85  1  0  0  0
 71 72  2  0  0  0
 71 74  1  0  0  0
 71147  1  0  0  0
 72 75  1  0  0  0
 72148  1  0  0  0
 73 74  2  0  0  0
 73 76  1  0  0  0
 73149  1  0  0  0
 74 77  1  0  0  0
 75 76  2  0  0  0
 75 79  1  0  0  0
 76 83  1  0  0  0
 77 78  2  0  0  0
 77150  1  0  0  0
 78151  1  0  0  0
 79 84  1  0  0  0
 79 87  2  0  0  0
 80 83  1  0  0  0
 80152  1  0  0  0
 80153  1  0  0  0
 80154  1  0  0  0
 81155  1  0  0  0
 81156  1  0  0  0
 81157  1  0  0  0
 81 86  1  0  0  0
 82 86  1  0  0  0
 82158  1  0  0  0
 82159  1  0  0  0
 82160  1  0  0  0
 83161  1  0  0  0
 83162  1  0  0  0
 84 86  1  0  0  0
 84163  1  0  0  0
 84164  1  0  0  0
 85 86  1  0  0  0
 85165  1  0  0  0
 85166  1  0  0  0
 87167  1  0  0  0
M  ISO  4   1 100  68 101  78 100  85 101
M  END
> <chiral flag>
0

> <version>
0

> <s_m_source_file>
/data/baiqing/PycharmProjects/Reinvent-master-3.2/result/LINK_invent/BTK/process_docking_weight1_custom_product_contain_oxygen_bond_distance_aromatic_linkinvent_7_9_3/rearranged_h_0131.sdf

> <i_m_source_file_index>
85

> <r_mmod_Potential_Energy-OPLS-2005>
329.271728515625

> <r_mmod_Stretch_Energy-OPLS-2005>
35.8790702819824

> <r_mmod_Bend_Energy-OPLS-2005>
285.832794189453

> <r_mmod_Torsional_Energy-OPLS-2005>
292.61767578125

> <r_mmod_Improper_Torsional_Energy-OPLS-2005>
36.0960998535156

> <r_mmod_Van_der_Waal_Energy-OPLS-2005>
177.758010864258

> <r_mmod_Electrostatic_Energy-OPLS-2005>
-314.221343994141

> <r_mmod_Solvation_Energy-OPLS-2005>
-196.52897644043

> <b_mmod_Minimization_Converged-OPLS-2005>
0

> <r_mmod_RMS_Derivative-OPLS-2005>
4.41940069198608

$$$$
85
                    3D
 Structure written by MMmdl.
164172  0  0  1  0            999 V2000
  -30.7044  -14.4737   20.5004 C   0  0  0  0  0  0
  -30.4240  -12.2736   19.4369 C   0  0  0  0  0  0
  -29.4941  -12.4362   18.2157 C   0  0  0  0  0  0
  -28.0058  -12.3680   18.6203 C   0  0  0  0  0  0
  -27.6632  -13.1969   19.8896 C   0  0  2  0  0  0
  -28.7158  -12.9881   21.0030 C   0  0  0  0  0  0
  -25.2623  -13.8124   20.5765 C   0  0  0  0  0  0
  -24.1845  -13.0434   20.9203 C   0  0  0  0  0  0
  -24.6359  -11.6897   20.8775 C   0  0  0  0  0  0
  -23.9012  -10.4291   21.0421 C   0  0  0  0  0  0
  -24.3569   -9.4227   21.9207 C   0  0  0  0  0  0
  -23.6271   -8.2240   22.0768 C   0  0  0  0  0  0
  -22.4273   -8.0269   21.3529 C   0  0  0  0  0  0
  -21.9892   -9.0249   20.4647 C   0  0  0  0  0  0
  -22.7195  -10.2136   20.3056 C   0  0  0  0  0  0
  -21.6860   -6.0721   22.5254 C   0  0  0  0  0  0
  -21.4032   -6.5626   23.8192 C   0  0  0  0  0  0
  -21.3670   -5.6765   24.9147 C   0  0  0  0  0  0
  -21.6046   -4.3025   24.7191 C   0  0  0  0  0  0
  -21.8824   -3.8125   23.4306 C   0  0  0  0  0  0
  -21.9211   -4.6954   22.3373 C   0  0  0  0  0  0
  -22.7859  -13.5297   21.1810 C   0  0  0  0  0  0
  -22.1658   -4.2149   21.0939 F   0  0  0  0  0  0
  -21.5640   -3.4509   25.7697 F   0  0  0  0  0  0
  -30.0431  -13.2853   20.4338 N   0  0  0  0  0  0
  -26.3039  -12.9247   20.3491 N   0  0  0  0  0  0
  -25.9296  -11.6431   20.5866 N   0  0  0  0  0  0
  -22.0447  -12.8369   22.0347 N   0  0  0  0  0  0
  -25.4433  -15.1816   20.4171 N   0  0  0  0  0  0
  -31.8617  -14.6271   20.1020 O   0  0  0  0  0  0
  -21.6651   -6.8852   21.4204 O   0  0  0  0  0  0
  -22.3578  -14.5607   20.6631 O   0  0  0  0  0  0
  -24.6140  -31.8650   23.2062 C   0  0  0  0  0  0
  -25.9027  -32.4813   23.8365 C   0  0  1  0  0  0
  -27.2609  -27.4247   20.1236 C   0  0  0  0  0  0
  -25.5877  -33.8607   24.2304 N   0  0  0  0  0  0
  -23.4039  -30.4848   21.5439 C   0  0  2  0  0  0
  -24.8597  -28.9412   20.1196 C   0  0  0  0  0  0
  -22.7407  -29.4651   22.4973 C   0  0  0  0  0  0
  -18.0276  -28.1389   22.8484 C   0  0  0  0  0  0
  -24.1476  -36.7301   23.2641 C   0  0  0  0  0  0
  -25.9300  -30.8333   21.3539 C   0  0  0  0  0  0
  -26.0151  -29.4617   20.7130 C   0  0  0  0  0  0
  -27.2139  -28.7120   20.7079 C   0  0  0  0  0  0
  -26.0831  -26.9197   19.5194 C   0  0  0  0  0  0
  -24.8888  -27.6706   19.5186 C   0  0  0  0  0  0
  -23.6174  -29.8042   20.1630 C   0  0  0  0  0  0
  -25.4098  -36.3101   24.0336 C   0  0  1  0  0  0
  -20.5858  -28.3678   23.1323 C   0  0  2  0  0  0
  -20.6755  -26.9412   22.5423 C   0  0  0  0  0  0
  -19.5749  -26.6398   21.5200 C   0  0  0  0  0  0
  -18.1924  -26.7945   22.1603 C   0  0  0  0  0  0
  -19.1524  -28.8846   23.2907 C   0  0  0  0  0  0
  -18.9457  -30.1451   23.8925 C   0  0  0  0  0  0
  -17.6464  -30.6603   24.0557 C   0  0  0  0  0  0
  -25.9033  -34.9469   23.5119 C   0  0  0  0  0  0
  -16.5356  -29.9108   23.6316 C   0  0  0  0  0  0
  -16.7265  -28.6517   23.0350 C   0  0  0  0  0  0
  -26.4491  -31.6592   25.0680 C   0  0  0  0  0  0
  -25.3800  -31.3703   26.1467 C   0  0  0  0  0  0
  -27.0302  -30.3039   24.6010 C   0  0  0  0  0  0
  -27.6103  -32.4298   25.7398 C   0  0  0  0  0  0
  -27.5578  -37.1791   24.8467 C   0  0  0  0  0  0
  -21.4124  -29.3052   22.3729 N   0  0  0  0  0  0
  -26.4285  -37.3789   23.9427 N   0  0  0  0  0  0
  -24.6675  -31.0757   22.0941 N   0  0  0  0  0  0
  -23.4172  -28.8198   23.3026 O   0  0  0  0  0  0
  -28.4537  -26.7183   20.1758 O   0  0  0  0  0  0
  -26.5602  -34.8928   22.4688 O   0  0  0  0  0  0
  -23.5330  -32.1403   23.7444 O   0  0  0  0  0  0
  -29.8111  -19.5220   19.3942 C   0  0  0  0  0  0
  -29.6133  -18.4521   18.5133 C   0  0  0  0  0  0
  -30.2643  -17.9489   21.1969 C   0  0  0  0  0  0
  -30.1781  -19.2895   20.7330 C   0  0  0  0  0  0
  -29.7388  -17.1223   18.9557 C   0  0  0  0  0  0
  -30.0268  -16.8540   20.3240 C   0  0  0  0  0  0
  -29.9008  -23.8009   21.6155 C   0  0  0  0  0  0
  -29.5583  -16.0340   17.9137 C   0  0  0  0  0  0
  -32.7411  -21.2057   20.8554 C   0  0  0  0  0  0
  -30.4160  -20.4825   21.6649 C   0  0  0  0  0  0
  -29.7914  -24.5904   20.2904 C   0  0  0  0  0  0
  -31.1754  -22.9616   21.8657 C   0  0  0  0  0  0
  -28.4290  -25.2913   19.9831 C   0  0  0  0  0  0
  -31.2735  -21.6353   21.0586 C   0  0  1  0  0  0
  -29.9507  -15.5283   20.8643 N   0  0  0  0  0  0
  -29.0196  -23.8500   22.4770 O   0  0  0  0  0  0
  -31.4696  -12.3497   19.1322 H   0  0  0  0  0  0
  -30.3161  -11.2747   19.8635 H   0  0  0  0  0  0
  -29.7061  -11.6512   17.4869 H   0  0  0  0  0  0
  -29.7061  -13.3722   17.7078 H   0  0  0  0  0  0
  -27.7624  -11.3195   18.7926 H   0  0  0  0  0  0
  -27.3760  -12.6856   17.7881 H   0  0  0  0  0  0
  -27.6909  -14.2455   19.6160 H   0  0  0  0  0  0
  -28.6916  -11.9549   21.3557 H   0  0  0  0  0  0
  -28.4957  -13.6010   21.8785 H   0  0  0  0  0  0
  -25.2685   -9.5772   22.4808 H   0  0  0  0  0  0
  -24.0006   -7.4659   22.7499 H   0  0  0  0  0  0
  -21.0838   -8.8784   19.8945 H   0  0  0  0  0  0
  -22.3666  -10.9699   19.6181 H   0  0  0  0  0  0
  -21.2019   -7.6126   23.9708 H   0  0  0  0  0  0
  -21.1493   -6.0470   25.9061 H   0  0  0  0  0  0
  -22.0613   -2.7589   23.2790 H   0  0  0  0  0  0
  -22.3998  -12.0033   22.4817 H   0  0  0  0  0  0
  -21.1051  -13.1468   22.2380 H   0  0  0  0  0  0
  -24.6920  -15.8488   20.5496 H   0  0  0  0  0  0
  -26.3001  -15.6135   20.0951 H   0  0  0  0  0  0
  -26.7091  -32.5553   23.1133 H   0  0  0  0  0  0
  -24.9998  -33.9769   25.0427 H   0  0  0  0  0  0
  -22.6911  -31.2991   21.3956 H   0  0  0  0  0  0
  -23.3733  -35.9642   23.3330 H   0  0  0  0  0  0
  -24.3555  -36.8894   22.2051 H   0  0  0  0  0  0
  -23.7248  -37.6514   23.6648 H   0  0  0  0  0  0
  -26.0244  -31.5896   20.5734 H   0  0  0  0  0  0
  -26.8244  -30.9062   21.9602 H   0  0  0  0  0  0
  -28.1049  -29.1114   21.1718 H   0  0  0  0  0  0
  -26.0690  -25.9478   19.0485 H   0  0  0  0  0  0
  -23.9995  -27.2583   19.0622 H   0  0  0  0  0  0
  -23.7254  -30.5703   19.3947 H   0  0  0  0  0  0
  -22.7449  -29.2164   19.8722 H   0  0  0  0  0  0
  -25.1268  -36.1942   25.0824 H   0  0  0  0  0  0
  -20.9951  -28.3250   24.1444 H   0  0  0  0  0  0
  -20.5622  -26.2294   23.3610 H   0  0  0  0  0  0
  -21.6636  -26.7441   22.1254 H   0  0  0  0  0  0
  -19.6910  -25.6307   21.1237 H   0  0  0  0  0  0
  -19.6698  -27.3197   20.6721 H   0  0  0  0  0  0
  -17.4190  -26.6705   21.3999 H   0  0  0  0  0  0
  -18.0321  -26.0085   22.8997 H   0  0  0  0  0  0
  -19.7941  -30.7247   24.2315 H   0  0  0  0  0  0
  -17.5037  -31.6287   24.5161 H   0  0  0  0  0  0
  -15.5362  -30.3031   23.7628 H   0  0  0  0  0  0
  -15.8664  -28.0848   22.7063 H   0  0  0  0  0  0
  -24.5868  -30.7178   25.7794 H   0  0  0  0  0  0
  -24.9134  -32.2883   26.5054 H   0  0  0  0  0  0
  -25.8180  -30.8726   27.0135 H   0  0  0  0  0  0
  -26.2786  -29.6761   24.1202 H   0  0  0  0  0  0
  -27.4246  -29.7307   25.4417 H   0  0  0  0  0  0
  -27.8558  -30.4363   23.9009 H   0  0  0  0  0  0
  -27.2755  -33.3581   26.2035 H   0  0  0  0  0  0
  -28.3863  -32.6884   25.0181 H   0  0  0  0  0  0
  -28.0840  -31.8387   26.5250 H   0  0  0  0  0  0
  -28.2612  -38.0071   24.7486 H   0  0  0  0  0  0
  -28.1047  -36.2601   24.6296 H   0  0  0  0  0  0
  -27.2310  -37.1471   25.8876 H   0  0  0  0  0  0
  -20.9271  -29.8792   21.6974 H   0  0  0  0  0  0
  -26.0158  -38.2859   24.1434 H   0  0  0  0  0  0
  -29.6736  -20.5230   19.0141 H   0  0  0  0  0  0
  -29.3484  -18.6696   17.4878 H   0  0  0  0  0  0
  -30.5017  -17.7591   22.2348 H   0  0  0  0  0  0
  -29.2675  -16.4424   16.9462 H   0  0  0  0  0  0
  -28.7879  -15.3291   18.1990 H   0  0  0  0  0  0
  -30.4944  -15.4976   17.7651 H   0  0  0  0  0  0
  -32.8048  -20.3321   20.2047 H   0  0  0  0  0  0
  -33.2320  -20.9511   21.7955 H   0  0  0  0  0  0
  -33.3219  -21.9971   20.3800 H   0  0  0  0  0  0
  -30.8699  -20.1347   22.5971 H   0  0  0  0  0  0
  -29.4315  -20.8667   21.9383 H   0  0  0  0  0  0
  -29.9864  -23.8732   19.4940 H   0  0  0  0  0  0
  -30.6101  -25.3076   20.2408 H   0  0  0  0  0  0
  -31.2493  -22.7418   22.9320 H   0  0  0  0  0  0
  -32.0332  -23.5946   21.6384 H   0  0  0  0  0  0
  -27.6294  -24.8470   20.5781 H   0  0  0  0  0  0
  -28.1836  -25.0973   18.9381 H   0  0  0  0  0  0
  -30.9003  -21.8725   20.0648 H   0  0  0  0  0  0
  -29.0658  -15.2830   21.2812 H   0  0  0  0  0  0
  1 25  1  0  0  0
  1 30  2  0  0  0
  1 85  1  0  0  0
  2  3  1  0  0  0
  2 25  1  0  0  0
  2 87  1  0  0  0
  2 88  1  0  0  0
  3  4  1  0  0  0
  3 89  1  0  0  0
  3 90  1  0  0  0
  4  5  1  0  0  0
  4 91  1  0  0  0
  4 92  1  0  0  0
  5  6  1  0  0  0
  5 26  1  0  0  0
  5 93  1  0  0  0
  6 25  1  0  0  0
  6 94  1  0  0  0
  6 95  1  0  0  0
  7  8  2  0  0  0
  7 26  1  0  0  0
  7 29  1  0  0  0
  8  9  1  0  0  0
  8 22  1  0  0  0
  9 10  1  0  0  0
  9 27  2  0  0  0
 10 11  2  0  0  0
 10 15  1  0  0  0
 11 12  1  0  0  0
 11 96  1  0  0  0
 12 13  2  0  0  0
 12 97  1  0  0  0
 13 14  1  0  0  0
 13 31  1  0  0  0
 14 15  2  0  0  0
 14 98  1  0  0  0
 15 99  1  0  0  0
 16 17  2  0  0  0
 16 21  1  0  0  0
 16 31  1  0  0  0
 17 18  1  0  0  0
 17100  1  0  0  0
 18 19  2  0  0  0
 18101  1  0  0  0
 19 20  1  0  0  0
 19 24  1  0  0  0
 20 21  2  0  0  0
 20102  1  0  0  0
 21 23  1  0  0  0
 22 28  1  0  0  0
 22 32  2  0  0  0
 26 27  1  0  0  0
 28103  1  0  0  0
 28104  1  0  0  0
 29105  1  0  0  0
 29106  1  0  0  0
 33 34  1  0  0  0
 33 66  1  0  0  0
 33 70  2  0  0  0
 34 36  1  0  0  0
 34 59  1  0  0  0
 34107  1  0  0  0
 35 44  2  0  0  0
 35 45  1  0  0  0
 35 68  1  0  0  0
 36 56  1  0  0  0
 36108  1  0  0  0
 37 39  1  0  0  0
 37 47  1  0  0  0
 37 66  1  0  0  0
 37109  1  0  0  0
 38 43  2  0  0  0
 38 46  1  0  0  0
 38 47  1  0  0  0
 39 64  1  0  0  0
 39 67  2  0  0  0
 40 52  1  0  0  0
 40 53  2  0  0  0
 40 58  1  0  0  0
 41110  1  0  0  0
 41111  1  0  0  0
 41112  1  0  0  0
 41 48  1  0  0  0
 42 43  1  0  0  0
 42 66  1  0  0  0
 42113  1  0  0  0
 42114  1  0  0  0
 43 44  1  0  0  0
 44115  1  0  0  0
 45 46  2  0  0  0
 45116  1  0  0  0
 46117  1  0  0  0
 47118  1  0  0  0
 47119  1  0  0  0
 48 56  1  0  0  0
 48 65  1  0  0  0
 48120  1  0  0  0
 49 50  1  0  0  0
 49 53  1  0  0  0
 49 64  1  0  0  0
 49121  1  0  0  0
 50 51  1  0  0  0
 50122  1  0  0  0
 50123  1  0  0  0
 51 52  1  0  0  0
 51124  1  0  0  0
 51125  1  0  0  0
 52126  1  0  0  0
 52127  1  0  0  0
 53 54  1  0  0  0
 54 55  2  0  0  0
 54128  1  0  0  0
 55 57  1  0  0  0
 55129  1  0  0  0
 56 69  2  0  0  0
 57 58  2  0  0  0
 57130  1  0  0  0
 58131  1  0  0  0
 59 60  1  0  0  0
 59 61  1  0  0  0
 59 62  1  0  0  0
 60132  1  0  0  0
 60133  1  0  0  0
 60134  1  0  0  0
 61135  1  0  0  0
 61136  1  0  0  0
 61137  1  0  0  0
 62138  1  0  0  0
 62139  1  0  0  0
 62140  1  0  0  0
 63 65  1  0  0  0
 63141  1  0  0  0
 63142  1  0  0  0
 63143  1  0  0  0
 64144  1  0  0  0
 65145  1  0  0  0
 68 83  1  0  0  0
 71 72  2  0  0  0
 71 74  1  0  0  0
 71146  1  0  0  0
 72 75  1  0  0  0
 72147  1  0  0  0
 73 74  2  0  0  0
 73 76  1  0  0  0
 73148  1  0  0  0
 74 80  1  0  0  0
 75 76  2  0  0  0
 75 78  1  0  0  0
 76 85  1  0  0  0
 77 81  1  0  0  0
 77 82  1  0  0  0
 77 86  2  0  0  0
 78149  1  0  0  0
 78150  1  0  0  0
 78151  1  0  0  0
 79152  1  0  0  0
 79153  1  0  0  0
 79154  1  0  0  0
 79 84  1  0  0  0
 80 84  1  0  0  0
 80155  1  0  0  0
 80156  1  0  0  0
 81 83  1  0  0  0
 81157  1  0  0  0
 81158  1  0  0  0
 82 84  1  0  0  0
 82159  1  0  0  0
 82160  1  0  0  0
 83161  1  0  0  0
 83162  1  0  0  0
 84163  1  0  0  0
 85164  1  0  0  0
M  ISO  4   1 100  68 101  83 101  85 100
M  END
> <chiral flag>
0

> <version>
0

> <s_m_source_file>
/data/baiqing/PycharmProjects/Reinvent-master-3.2/result/LINK_invent/BTK/process_docking_weight1_custom_product_contain_oxygen_bond_distance_aromatic_linkinvent_7_9_3/rearranged_h_0131.sdf

> <i_m_source_file_index>
86

> <r_mmod_Potential_Energy-OPLS-2005>
-34.0462112426758

> <r_mmod_Stretch_Energy-OPLS-2005>
43.139835357666

> <r_mmod_Bend_Energy-OPLS-2005>
106.04451751709

> <r_mmod_Torsional_Energy-OPLS-2005>
246.627227783203

> <r_mmod_Improper_Torsional_Energy-OPLS-2005>
5.80910301208496

> <r_mmod_Van_der_Waal_Energy-OPLS-2005>
150.908493041992

> <r_mmod_Electrostatic_Energy-OPLS-2005>
-384.333099365234

> <r_mmod_Solvation_Energy-OPLS-2005>
-220.143630981445

> <b_mmod_Minimization_Converged-OPLS-2005>
0

> <r_mmod_RMS_Derivative-OPLS-2005>
4.21157073974609

$$$$
86
                    3D
 Structure written by MMmdl.
171179  0  0  1  0            999 V2000
  -30.7504  -14.4770   20.5990 C   0  0  0  0  0  0
  -30.4098  -12.3302   19.4126 C   0  0  0  0  0  0
  -29.4816  -12.5433   18.2024 C   0  0  0  0  0  0
  -28.0106  -12.3867   18.6217 C   0  0  0  0  0  0
  -27.6633  -13.2214   19.8824 C   0  0  2  0  0  0
  -28.7134  -13.0292   21.0057 C   0  0  0  0  0  0
  -25.2598  -13.8177   20.5702 C   0  0  0  0  0  0
  -24.1843  -13.0433   20.9158 C   0  0  0  0  0  0
  -24.6427  -11.6922   20.8735 C   0  0  0  0  0  0
  -23.9081  -10.4286   21.0372 C   0  0  0  0  0  0
  -24.3615   -9.4197   21.9156 C   0  0  0  0  0  0
  -23.6278   -8.2238   22.0757 C   0  0  0  0  0  0
  -22.4269   -8.0276   21.3544 C   0  0  0  0  0  0
  -21.9909   -9.0243   20.4647 C   0  0  0  0  0  0
  -22.7238  -10.2121   20.3032 C   0  0  0  0  0  0
  -21.6863   -6.0714   22.5268 C   0  0  0  0  0  0
  -21.4033   -6.5626   23.8199 C   0  0  0  0  0  0
  -21.3671   -5.6783   24.9160 C   0  0  0  0  0  0
  -21.6035   -4.3045   24.7217 C   0  0  0  0  0  0
  -21.8832   -3.8123   23.4351 C   0  0  0  0  0  0
  -21.9214   -4.6937   22.3396 C   0  0  0  0  0  0
  -22.7872  -13.5217   21.1819 C   0  0  0  0  0  0
  -22.1679   -4.2115   21.0980 F   0  0  0  0  0  0
  -21.5618   -3.4546   25.7741 F   0  0  0  0  0  0
  -30.0449  -13.3167   20.4484 N   0  0  0  0  0  0
  -26.3059  -12.9387   20.3424 N   0  0  0  0  0  0
  -25.9367  -11.6540   20.5804 N   0  0  0  0  0  0
  -22.0538  -12.8190   22.0378 N   0  0  0  0  0  0
  -25.4315  -15.1885   20.4115 N   0  0  0  0  0  0
  -31.7862  -14.6523   19.9588 O   0  0  0  0  0  0
  -21.6660   -6.8855   21.4231 O   0  0  0  0  0  0
  -22.3548  -14.5523   20.6697 O   0  0  0  0  0  0
  -24.6187  -31.8677   23.2069 C   0  0  0  0  0  0
  -25.9020  -32.4825   23.8429 C   0  0  1  0  0  0
  -27.2340  -27.3896   20.0898 C   0  0  0  0  0  0
  -25.5878  -33.8651   24.2310 N   0  0  0  0  0  0
  -23.4103  -30.4894   21.5526 C   0  0  2  0  0  0
  -24.8563  -28.9594   20.1124 C   0  0  0  0  0  0
  -22.7418  -29.4642   22.4978 C   0  0  0  0  0  0
  -18.0257  -28.1391   22.8493 C   0  0  0  0  0  0
  -24.1484  -36.7320   23.2643 C   0  0  0  0  0  0
  -25.9479  -30.8110   21.3768 C   0  0  0  0  0  0
  -26.0241  -29.4485   20.7130 C   0  0  0  0  0  0
  -27.2151  -28.6734   20.6986 C   0  0  0  0  0  0
  -26.0402  -26.9441   19.4668 C   0  0  0  0  0  0
  -24.8616  -27.7079   19.4851 C   0  0  0  0  0  0
  -23.6215  -29.8296   20.1672 C   0  0  0  0  0  0
  -25.4107  -36.3121   24.0330 C   0  0  1  0  0  0
  -20.5854  -28.3679   23.1293 C   0  0  2  0  0  0
  -20.6761  -26.9418   22.5401 C   0  0  0  0  0  0
  -19.5743  -26.6386   21.5196 C   0  0  0  0  0  0
  -18.1918  -26.7933   22.1614 C   0  0  0  0  0  0
  -19.1508  -28.8841   23.2893 C   0  0  0  0  0  0
  -18.9447  -30.1456   23.8907 C   0  0  0  0  0  0
  -17.6454  -30.6610   24.0568 C   0  0  0  0  0  0
  -25.9043  -34.9487   23.5115 C   0  0  0  0  0  0
  -16.5345  -29.9111   23.6349 C   0  0  0  0  0  0
  -16.7244  -28.6518   23.0368 C   0  0  0  0  0  0
  -26.4464  -31.6638   25.0779 C   0  0  0  0  0  0
  -25.3710  -31.3704   26.1486 C   0  0  0  0  0  0
  -27.0343  -30.3093   24.6217 C   0  0  0  0  0  0
  -27.6040  -32.4382   25.7520 C   0  0  0  0  0  0
  -27.5580  -37.1797   24.8465 C   0  0  0  0  0  0
  -21.4142  -29.3027   22.3702 N   0  0  0  0  0  0
  -26.4297  -37.3794   23.9403 N   0  0  0  0  0  0
  -24.6770  -31.0703   22.1025 N   0  0  0  0  0  0
  -23.4147  -28.8170   23.3048 O   0  0  0  0  0  0
  -28.3801  -26.5920   20.1219 O   0  0  0  0  0  0
  -26.5648  -34.8940   22.4698 O   0  0  0  0  0  0
  -23.5352  -32.1487   23.7386 O   0  0  0  0  0  0
  -30.1684  -18.1359   20.9715 C   0  0  0  0  0  0
  -32.0722  -19.6271   21.0149 C   0  0  0  0  0  0
  -30.9721  -17.0238   21.3512 C   0  0  0  0  0  0
  -32.9141  -18.5546   21.3921 C   0  0  0  0  0  0
  -32.3608  -17.2589   21.6266 C   0  0  0  0  0  0
  -30.6870  -19.4483   20.8354 C   0  0  0  0  0  0
  -29.2696  -24.1859   20.2309 C   0  0  0  0  0  0
  -29.2141  -22.8467   19.9801 C   0  0  0  0  0  0
  -34.9078  -20.2483   21.3249 C   0  0  0  0  0  0
  -34.3686  -15.5970   21.3595 C   0  0  0  0  0  0
  -28.4192  -21.7352   17.8358 C   0  0  0  0  0  0
  -30.2735  -15.6347   21.5350 C   0  0  0  0  0  0
  -34.4175  -18.8091   21.5551 C   0  0  0  0  0  0
  -33.2368  -16.1539   22.2478 C   0  0  0  0  0  0
  -28.1646  -25.1815   19.8463 C   0  0  0  0  0  0
  -28.0359  -22.2088   19.2430 C   0  0  0  0  0  0
  -30.3134  -21.8469   20.4009 C   0  0  0  0  0  0
  -29.8185  -20.4929   20.5399 O   0  0  0  0  0  0
  -31.4520  -12.4045   19.0999 H   0  0  0  0  0  0
  -30.2980  -11.3207   19.8048 H   0  0  0  0  0  0
  -29.7183  -11.8381   17.4053 H   0  0  0  0  0  0
  -29.6389  -13.5413   17.7896 H   0  0  0  0  0  0
  -27.8253  -11.3290   18.8066 H   0  0  0  0  0  0
  -27.3519  -12.6659   17.7990 H   0  0  0  0  0  0
  -27.7007  -14.2677   19.5783 H   0  0  0  0  0  0
  -28.6910  -12.0055   21.3834 H   0  0  0  0  0  0
  -28.4791  -13.6631   21.8627 H   0  0  0  0  0  0
  -25.2774   -9.5678   22.4716 H   0  0  0  0  0  0
  -23.9984   -7.4647   22.7492 H   0  0  0  0  0  0
  -21.0837   -8.8765   19.8951 H   0  0  0  0  0  0
  -22.3689  -10.9654   19.6135 H   0  0  0  0  0  0
  -21.2049   -7.6142   23.9682 H   0  0  0  0  0  0
  -21.1474   -6.0526   25.9056 H   0  0  0  0  0  0
  -22.0614   -2.7588   23.2865 H   0  0  0  0  0  0
  -22.4222  -11.9834   22.4683 H   0  0  0  0  0  0
  -21.1173  -13.1208   22.2665 H   0  0  0  0  0  0
  -24.6653  -15.8477   20.4980 H   0  0  0  0  0  0
  -26.2967  -15.6233   20.1128 H   0  0  0  0  0  0
  -26.7071  -32.5522   23.1185 H   0  0  0  0  0  0
  -24.9965  -33.9879   25.0411 H   0  0  0  0  0  0
  -22.7009  -31.3079   21.4121 H   0  0  0  0  0  0
  -23.3763  -35.9640   23.3334 H   0  0  0  0  0  0
  -24.3548  -36.8936   22.2050 H   0  0  0  0  0  0
  -23.7260  -37.6527   23.6682 H   0  0  0  0  0  0
  -26.0765  -31.5770   20.6114 H   0  0  0  0  0  0
  -26.8280  -30.8508   22.0084 H   0  0  0  0  0  0
  -28.1125  -29.0480   21.1703 H   0  0  0  0  0  0
  -25.9770  -25.9959   18.9563 H   0  0  0  0  0  0
  -23.9677  -27.3229   19.0133 H   0  0  0  0  0  0
  -23.7395  -30.6112   19.4168 H   0  0  0  0  0  0
  -22.7423  -29.2573   19.8648 H   0  0  0  0  0  0
  -25.1291  -36.1975   25.0832 H   0  0  0  0  0  0
  -20.9963  -28.3242   24.1399 H   0  0  0  0  0  0
  -20.5638  -26.2305   23.3592 H   0  0  0  0  0  0
  -21.6639  -26.7436   22.1212 H   0  0  0  0  0  0
  -19.6948  -25.6278   21.1253 H   0  0  0  0  0  0
  -19.6715  -27.3172   20.6700 H   0  0  0  0  0  0
  -17.4196  -26.6668   21.4024 H   0  0  0  0  0  0
  -18.0346  -26.0069   22.8999 H   0  0  0  0  0  0
  -19.7917  -30.7271   24.2310 H   0  0  0  0  0  0
  -17.5012  -31.6308   24.5149 H   0  0  0  0  0  0
  -15.5350  -30.3042   23.7675 H   0  0  0  0  0  0
  -15.8627  -28.0863   22.7103 H   0  0  0  0  0  0
  -24.5900  -30.7067   25.7748 H   0  0  0  0  0  0
  -24.8890  -32.2841   26.4971 H   0  0  0  0  0  0
  -25.8033  -30.8810   27.0222 H   0  0  0  0  0  0
  -26.2941  -29.6794   24.1276 H   0  0  0  0  0  0
  -27.4110  -29.7369   25.4704 H   0  0  0  0  0  0
  -27.8762  -30.4421   23.9422 H   0  0  0  0  0  0
  -27.2683  -33.3675   26.2133 H   0  0  0  0  0  0
  -28.3815  -32.6962   25.0313 H   0  0  0  0  0  0
  -28.0778  -31.8521   26.5404 H   0  0  0  0  0  0
  -28.2584  -38.0102   24.7491 H   0  0  0  0  0  0
  -28.1089  -36.2624   24.6312 H   0  0  0  0  0  0
  -27.2297  -37.1464   25.8871 H   0  0  0  0  0  0
  -20.9325  -29.8742   21.6907 H   0  0  0  0  0  0
  -26.0188  -38.2874   24.1409 H   0  0  0  0  0  0
  -29.1116  -17.9925   20.8088 H   0  0  0  0  0  0
  -32.4915  -20.6106   20.8802 H   0  0  0  0  0  0
  -30.1272  -24.5980   20.7407 H   0  0  0  0  0  0
  -35.9847  -20.3160   21.4868 H   0  0  0  0  0  0
  -34.4307  -20.9510   22.0082 H   0  0  0  0  0  0
  -34.7205  -20.5731   20.2995 H   0  0  0  0  0  0
  -35.2803  -16.1874   21.4218 H   0  0  0  0  0  0
  -34.0840  -15.5343   20.3095 H   0  0  0  0  0  0
  -34.6392  -14.5942   21.6867 H   0  0  0  0  0  0
  -27.5558  -21.3095   17.3244 H   0  0  0  0  0  0
  -29.1925  -20.9675   17.8764 H   0  0  0  0  0  0
  -28.7832  -22.5617   17.2234 H   0  0  0  0  0  0
  -29.2031  -15.7703   21.3835 H   0  0  0  0  0  0
  -30.3798  -15.3127   22.5706 H   0  0  0  0  0  0
  -34.9351  -18.1967   20.8209 H   0  0  0  0  0  0
  -34.7334  -18.4769   22.5438 H   0  0  0  0  0  0
  -32.6250  -15.3160   22.5702 H   0  0  0  0  0  0
  -33.6635  -16.5329   23.1780 H   0  0  0  0  0  0
  -27.2874  -24.8454   20.4054 H   0  0  0  0  0  0
  -27.9605  -25.0539   18.7821 H   0  0  0  0  0  0
  -27.1869  -22.8878   19.1657 H   0  0  0  0  0  0
  -27.6553  -21.3691   19.8250 H   0  0  0  0  0  0
  -30.7621  -22.1818   21.3374 H   0  0  0  0  0  0
  -31.0919  -21.8703   19.6342 H   0  0  0  0  0  0
  1 25  1  0  0  0
  1 30  2  0  0  0
  1 82  1  0  0  0
  2  3  1  0  0  0
  2 25  1  0  0  0
  2 89  1  0  0  0
  2 90  1  0  0  0
  3  4  1  0  0  0
  3 91  1  0  0  0
  3 92  1  0  0  0
  4  5  1  0  0  0
  4 93  1  0  0  0
  4 94  1  0  0  0
  5  6  1  0  0  0
  5 26  1  0  0  0
  5 95  1  0  0  0
  6 25  1  0  0  0
  6 96  1  0  0  0
  6 97  1  0  0  0
  7  8  2  0  0  0
  7 26  1  0  0  0
  7 29  1  0  0  0
  8  9  1  0  0  0
  8 22  1  0  0  0
  9 10  1  0  0  0
  9 27  2  0  0  0
 10 11  2  0  0  0
 10 15  1  0  0  0
 11 12  1  0  0  0
 11 98  1  0  0  0
 12 13  2  0  0  0
 12 99  1  0  0  0
 13 14  1  0  0  0
 13 31  1  0  0  0
 14 15  2  0  0  0
 14100  1  0  0  0
 15101  1  0  0  0
 16 17  2  0  0  0
 16 21  1  0  0  0
 16 31  1  0  0  0
 17 18  1  0  0  0
 17102  1  0  0  0
 18 19  2  0  0  0
 18103  1  0  0  0
 19 20  1  0  0  0
 19 24  1  0  0  0
 20 21  2  0  0  0
 20104  1  0  0  0
 21 23  1  0  0  0
 22 28  1  0  0  0
 22 32  2  0  0  0
 26 27  1  0  0  0
 28105  1  0  0  0
 28106  1  0  0  0
 29107  1  0  0  0
 29108  1  0  0  0
 33 34  1  0  0  0
 33 66  1  0  0  0
 33 70  2  0  0  0
 34 36  1  0  0  0
 34 59  1  0  0  0
 34109  1  0  0  0
 35 44  2  0  0  0
 35 45  1  0  0  0
 35 68  1  0  0  0
 36 56  1  0  0  0
 36110  1  0  0  0
 37 39  1  0  0  0
 37 47  1  0  0  0
 37 66  1  0  0  0
 37111  1  0  0  0
 38 43  2  0  0  0
 38 46  1  0  0  0
 38 47  1  0  0  0
 39 64  1  0  0  0
 39 67  2  0  0  0
 40 52  1  0  0  0
 40 53  2  0  0  0
 40 58  1  0  0  0
 41112  1  0  0  0
 41113  1  0  0  0
 41114  1  0  0  0
 41 48  1  0  0  0
 42 43  1  0  0  0
 42 66  1  0  0  0
 42115  1  0  0  0
 42116  1  0  0  0
 43 44  1  0  0  0
 44117  1  0  0  0
 45 46  2  0  0  0
 45118  1  0  0  0
 46119  1  0  0  0
 47120  1  0  0  0
 47121  1  0  0  0
 48 56  1  0  0  0
 48 65  1  0  0  0
 48122  1  0  0  0
 49 50  1  0  0  0
 49 53  1  0  0  0
 49 64  1  0  0  0
 49123  1  0  0  0
 50 51  1  0  0  0
 50124  1  0  0  0
 50125  1  0  0  0
 51 52  1  0  0  0
 51126  1  0  0  0
 51127  1  0  0  0
 52128  1  0  0  0
 52129  1  0  0  0
 53 54  1  0  0  0
 54 55  2  0  0  0
 54130  1  0  0  0
 55 57  1  0  0  0
 55131  1  0  0  0
 56 69  2  0  0  0
 57 58  2  0  0  0
 57132  1  0  0  0
 58133  1  0  0  0
 59 60  1  0  0  0
 59 61  1  0  0  0
 59 62  1  0  0  0
 60134  1  0  0  0
 60135  1  0  0  0
 60136  1  0  0  0
 61137  1  0  0  0
 61138  1  0  0  0
 61139  1  0  0  0
 62140  1  0  0  0
 62141  1  0  0  0
 62142  1  0  0  0
 63 65  1  0  0  0
 63143  1  0  0  0
 63144  1  0  0  0
 63145  1  0  0  0
 64146  1  0  0  0
 65147  1  0  0  0
 68 85  1  0  0  0
 71 73  2  0  0  0
 71 76  1  0  0  0
 71148  1  0  0  0
 72 74  1  0  0  0
 72 76  2  0  0  0
 72149  1  0  0  0
 73 75  1  0  0  0
 73 82  1  0  0  0
 74 75  2  0  0  0
 74 83  1  0  0  0
 75 84  1  0  0  0
 76 88  1  0  0  0
 77 78  2  0  0  0
 77 85  1  0  0  0
 77150  1  0  0  0
 78 86  1  0  0  0
 78 87  1  0  0  0
 79 83  1  0  0  0
 79151  1  0  0  0
 79152  1  0  0  0
 79153  1  0  0  0
 80 84  1  0  0  0
 80154  1  0  0  0
 80155  1  0  0  0
 80156  1  0  0  0
 81 86  1  0  0  0
 81157  1  0  0  0
 81158  1  0  0  0
 81159  1  0  0  0
 82160  1  0  0  0
 82161  1  0  0  0
 83162  1  0  0  0
 83163  1  0  0  0
 84164  1  0  0  0
 84165  1  0  0  0
 85166  1  0  0  0
 85167  1  0  0  0
 86168  1  0  0  0
 86169  1  0  0  0
 87 88  1  0  0  0
 87170  1  0  0  0
 87171  1  0  0  0
M  ISO  4   1 100  68 101  82 100  85 101
M  END
> <chiral flag>
0

> <version>
0

> <s_m_source_file>
/data/baiqing/PycharmProjects/Reinvent-master-3.2/result/LINK_invent/BTK/process_docking_weight1_custom_product_contain_oxygen_bond_distance_aromatic_linkinvent_7_9_3/rearranged_h_0131.sdf

> <i_m_source_file_index>
87

> <r_mmod_Potential_Energy-OPLS-2005>
64.522346496582

> <r_mmod_Stretch_Energy-OPLS-2005>
58.2867813110352

> <r_mmod_Bend_Energy-OPLS-2005>
119.49333190918

> <r_mmod_Torsional_Energy-OPLS-2005>
179.809555053711

> <r_mmod_Improper_Torsional_Energy-OPLS-2005>
2.20314884185791

> <r_mmod_Van_der_Waal_Energy-OPLS-2005>
177.363006591797

> <r_mmod_Electrostatic_Energy-OPLS-2005>
-300.194152832031

> <r_mmod_Solvation_Energy-OPLS-2005>
-191.121383666992

> <b_mmod_Minimization_Converged-OPLS-2005>
0

> <r_mmod_RMS_Derivative-OPLS-2005>
4.10437631607056

$$$$
87
                    3D
 Structure written by MMmdl.
155163  0  0  1  0            999 V2000
  -30.6790  -14.4917   20.5523 C   0  0  0  0  0  0
  -30.4298  -12.3083   19.4264 C   0  0  0  0  0  0
  -29.5003  -12.5037   18.2062 C   0  0  0  0  0  0
  -28.0179  -12.3690   18.6121 C   0  0  0  0  0  0
  -27.6667  -13.1981   19.8782 C   0  0  2  0  0  0
  -28.7076  -12.9498   20.9929 C   0  0  0  0  0  0
  -25.2619  -13.8134   20.5655 C   0  0  0  0  0  0
  -24.1861  -13.0432   20.9163 C   0  0  0  0  0  0
  -24.6398  -11.6905   20.8711 C   0  0  0  0  0  0
  -23.9044  -10.4315   21.0380 C   0  0  0  0  0  0
  -24.3614   -9.4229   21.9159 C   0  0  0  0  0  0
  -23.6296   -8.2270   22.0745 C   0  0  0  0  0  0
  -22.4280   -8.0304   21.3552 C   0  0  0  0  0  0
  -21.9899   -9.0257   20.4646 C   0  0  0  0  0  0
  -22.7217  -10.2146   20.3025 C   0  0  0  0  0  0
  -21.6864   -6.0729   22.5273 C   0  0  0  0  0  0
  -21.4038   -6.5626   23.8212 C   0  0  0  0  0  0
  -21.3647   -5.6775   24.9168 C   0  0  0  0  0  0
  -21.6030   -4.3041   24.7219 C   0  0  0  0  0  0
  -21.8828   -3.8137   23.4344 C   0  0  0  0  0  0
  -21.9207   -4.6955   22.3394 C   0  0  0  0  0  0
  -22.7897  -13.5256   21.1844 C   0  0  0  0  0  0
  -22.1669   -4.2134   21.0977 F   0  0  0  0  0  0
  -21.5610   -3.4526   25.7735 F   0  0  0  0  0  0
  -30.0352  -13.2903   20.4519 N   0  0  0  0  0  0
  -26.3050  -12.9284   20.3362 N   0  0  0  0  0  0
  -25.9313  -11.6452   20.5738 N   0  0  0  0  0  0
  -22.0518  -12.8273   22.0406 N   0  0  0  0  0  0
  -25.4352  -15.1844   20.4053 N   0  0  0  0  0  0
  -31.8241  -14.6490   20.1135 O   0  0  0  0  0  0
  -21.6669   -6.8890   21.4248 O   0  0  0  0  0  0
  -22.3612  -14.5570   20.6702 O   0  0  0  0  0  0
  -24.6142  -31.8670   23.2098 C   0  0  0  0  0  0
  -25.9045  -32.4821   23.8383 C   0  0  1  0  0  0
  -27.2428  -27.4236   20.0827 C   0  0  0  0  0  0
  -25.5905  -33.8616   24.2325 N   0  0  0  0  0  0
  -23.4026  -30.4896   21.5529 C   0  0  2  0  0  0
  -24.8472  -28.9507   20.1192 C   0  0  0  0  0  0
  -22.7416  -29.4655   22.5024 C   0  0  0  0  0  0
  -18.0275  -28.1380   22.8497 C   0  0  0  0  0  0
  -24.1497  -36.7305   23.2640 C   0  0  0  0  0  0
  -25.9325  -30.8291   21.3630 C   0  0  0  0  0  0
  -26.0085  -29.4619   20.7093 C   0  0  0  0  0  0
  -27.2037  -28.7061   20.6854 C   0  0  0  0  0  0
  -26.0505  -26.9218   19.5078 C   0  0  0  0  0  0
  -24.8636  -27.6805   19.5194 C   0  0  0  0  0  0
  -23.6094  -29.8186   20.1686 C   0  0  0  0  0  0
  -25.4116  -36.3111   24.0339 C   0  0  1  0  0  0
  -20.5862  -28.3655   23.1346 C   0  0  2  0  0  0
  -20.6779  -26.9395   22.5434 C   0  0  0  0  0  0
  -19.5754  -26.6383   21.5237 C   0  0  0  0  0  0
  -18.1927  -26.7927   22.1628 C   0  0  0  0  0  0
  -19.1519  -28.8833   23.2914 C   0  0  0  0  0  0
  -18.9444  -30.1448   23.8910 C   0  0  0  0  0  0
  -17.6442  -30.6582   24.0565 C   0  0  0  0  0  0
  -25.9038  -34.9483   23.5129 C   0  0  0  0  0  0
  -16.5335  -29.9080   23.6335 C   0  0  0  0  0  0
  -16.7260  -28.6500   23.0346 C   0  0  0  0  0  0
  -26.4464  -31.6601   25.0713 C   0  0  0  0  0  0
  -25.3736  -31.3692   26.1465 C   0  0  0  0  0  0
  -27.0287  -30.3047   24.6084 C   0  0  0  0  0  0
  -27.6046  -32.4320   25.7451 C   0  0  0  0  0  0
  -27.5587  -37.1805   24.8466 C   0  0  0  0  0  0
  -21.4144  -29.3014   22.3753 N   0  0  0  0  0  0
  -26.4302  -37.3796   23.9412 N   0  0  0  0  0  0
  -24.6693  -31.0762   22.1010 N   0  0  0  0  0  0
  -23.4191  -28.8219   23.3081 O   0  0  0  0  0  0
  -28.4497  -26.7411   20.0860 O   0  0  0  0  0  0
  -26.5600  -34.8924   22.4696 O   0  0  0  0  0  0
  -23.5338  -32.1427   23.7488 O   0  0  0  0  0  0
  -27.2300  -19.1288   21.7512 C   0  0  0  0  0  0
  -28.0001  -17.9821   21.4777 C   0  0  0  0  0  0
  -27.7712  -20.4168   21.5683 C   0  0  0  0  0  0
  -29.8740  -19.4078   20.8680 C   0  0  0  0  0  0
  -29.3317  -18.1024   21.0155 C   0  0  0  0  0  0
  -29.1050  -20.5732   21.1357 C   0  0  0  0  0  0
  -30.1482  -16.9013   20.6934 C   0  0  0  0  0  0
  -29.8636  -15.6172   21.0295 C   0  0  0  0  0  0
  -29.7004  -21.9363   21.0328 C   0  0  0  0  0  0
  -29.1621  -22.9282   19.9893 C   0  0  0  0  0  0
  -28.7598  -24.3276   20.5544 C   0  0  0  0  0  0
  -28.6117  -25.4407   19.4864 C   0  0  0  0  0  0
  -30.6727  -22.2743   21.7706 N   0  0  0  0  0  0
  -31.4738  -12.4094   19.1274 H   0  0  0  0  0  0
  -30.3338  -11.2930   19.8175 H   0  0  0  0  0  0
  -29.7395  -11.7729   17.4316 H   0  0  0  0  0  0
  -29.6735  -13.4863   17.7653 H   0  0  0  0  0  0
  -27.8181  -11.3131   18.7966 H   0  0  0  0  0  0
  -27.3716  -12.6489   17.7799 H   0  0  0  0  0  0
  -27.7223  -14.2507   19.5998 H   0  0  0  0  0  0
  -28.6937  -11.8982   21.2834 H   0  0  0  0  0  0
  -28.4599  -13.4809   21.9105 H   0  0  0  0  0  0
  -25.2755   -9.5713   22.4752 H   0  0  0  0  0  0
  -23.9987   -7.4667   22.7468 H   0  0  0  0  0  0
  -21.0812   -8.8757   19.8975 H   0  0  0  0  0  0
  -22.3633  -10.9679   19.6144 H   0  0  0  0  0  0
  -21.2062   -7.6149   23.9704 H   0  0  0  0  0  0
  -21.1443   -6.0515   25.9065 H   0  0  0  0  0  0
  -22.0632   -2.7602   23.2842 H   0  0  0  0  0  0
  -22.4129  -11.9918   22.4792 H   0  0  0  0  0  0
  -21.1141  -13.1318   22.2640 H   0  0  0  0  0  0
  -24.6557  -15.8268   20.4941 H   0  0  0  0  0  0
  -26.2796  -15.6287   20.0649 H   0  0  0  0  0  0
  -26.7115  -32.5519   23.1138 H   0  0  0  0  0  0
  -25.0074  -33.9791   25.0477 H   0  0  0  0  0  0
  -22.6901  -31.3050   21.4133 H   0  0  0  0  0  0
  -23.3766  -35.9635   23.3313 H   0  0  0  0  0  0
  -24.3582  -36.8904   22.2053 H   0  0  0  0  0  0
  -23.7241  -37.6510   23.6637 H   0  0  0  0  0  0
  -26.0472  -31.5966   20.5957 H   0  0  0  0  0  0
  -26.8201  -30.8796   21.9826 H   0  0  0  0  0  0
  -28.1044  -29.1077   21.1291 H   0  0  0  0  0  0
  -25.9979  -25.9476   19.0492 H   0  0  0  0  0  0
  -23.9657  -27.2753   19.0730 H   0  0  0  0  0  0
  -23.7171  -30.5925   19.4073 H   0  0  0  0  0  0
  -22.7325  -29.2391   19.8733 H   0  0  0  0  0  0
  -25.1297  -36.1979   25.0829 H   0  0  0  0  0  0
  -20.9938  -28.3223   24.1474 H   0  0  0  0  0  0
  -20.5740  -26.2249   23.3615 H   0  0  0  0  0  0
  -21.6647  -26.7488   22.1190 H   0  0  0  0  0  0
  -19.6925  -25.6306   21.1246 H   0  0  0  0  0  0
  -19.6701  -27.3216   20.6791 H   0  0  0  0  0  0
  -17.4215  -26.6703   21.4008 H   0  0  0  0  0  0
  -18.0290  -26.0057   22.9004 H   0  0  0  0  0  0
  -19.7914  -30.7274   24.2275 H   0  0  0  0  0  0
  -17.4989  -31.6264   24.5173 H   0  0  0  0  0  0
  -15.5333  -30.2978   23.7658 H   0  0  0  0  0  0
  -15.8662  -28.0831   22.7043 H   0  0  0  0  0  0
  -24.5905  -30.7048   25.7792 H   0  0  0  0  0  0
  -24.8929  -32.2841   26.4936 H   0  0  0  0  0  0
  -25.8093  -30.8833   27.0204 H   0  0  0  0  0  0
  -26.2823  -29.6802   24.1169 H   0  0  0  0  0  0
  -27.4095  -29.7280   25.4520 H   0  0  0  0  0  0
  -27.8636  -30.4358   23.9200 H   0  0  0  0  0  0
  -27.2677  -33.3606   26.2058 H   0  0  0  0  0  0
  -28.3817  -32.6907   25.0253 H   0  0  0  0  0  0
  -28.0760  -31.8438   26.5330 H   0  0  0  0  0  0
  -28.2619  -38.0091   24.7516 H   0  0  0  0  0  0
  -28.1070  -36.2625   24.6294 H   0  0  0  0  0  0
  -27.2301  -37.1462   25.8867 H   0  0  0  0  0  0
  -20.9326  -29.8670   21.6907 H   0  0  0  0  0  0
  -26.0196  -38.2878   24.1405 H   0  0  0  0  0  0
  -26.2159  -19.0163   22.1072 H   0  0  0  0  0  0
  -27.5403  -17.0124   21.6088 H   0  0  0  0  0  0
  -27.1671  -21.2858   21.7903 H   0  0  0  0  0  0
  -30.8995  -19.5221   20.5424 H   0  0  0  0  0  0
  -31.0282  -17.0923   20.0934 H   0  0  0  0  0  0
  -29.0040  -15.4426   21.6511 H   0  0  0  0  0  0
  -28.3171  -22.4815   19.4651 H   0  0  0  0  0  0
  -29.9417  -23.0541   19.2353 H   0  0  0  0  0  0
  -29.5262  -24.6588   21.2557 H   0  0  0  0  0  0
  -27.8357  -24.2427   21.1264 H   0  0  0  0  0  0
  -27.8660  -25.1848   18.7375 H   0  0  0  0  0  0
  -29.5459  -25.4950   18.9269 H   0  0  0  0  0  0
  -30.9237  -21.5330   22.4169 H   0  0  0  0  0  0
  1 25  1  0  0  0
  1 30  2  0  0  0
  1 78  1  0  0  0
  2  3  1  0  0  0
  2 25  1  0  0  0
  2 84  1  0  0  0
  2 85  1  0  0  0
  3  4  1  0  0  0
  3 86  1  0  0  0
  3 87  1  0  0  0
  4  5  1  0  0  0
  4 88  1  0  0  0
  4 89  1  0  0  0
  5  6  1  0  0  0
  5 26  1  0  0  0
  5 90  1  0  0  0
  6 25  1  0  0  0
  6 91  1  0  0  0
  6 92  1  0  0  0
  7  8  2  0  0  0
  7 26  1  0  0  0
  7 29  1  0  0  0
  8  9  1  0  0  0
  8 22  1  0  0  0
  9 10  1  0  0  0
  9 27  2  0  0  0
 10 11  2  0  0  0
 10 15  1  0  0  0
 11 12  1  0  0  0
 11 93  1  0  0  0
 12 13  2  0  0  0
 12 94  1  0  0  0
 13 14  1  0  0  0
 13 31  1  0  0  0
 14 15  2  0  0  0
 14 95  1  0  0  0
 15 96  1  0  0  0
 16 17  2  0  0  0
 16 21  1  0  0  0
 16 31  1  0  0  0
 17 18  1  0  0  0
 17 97  1  0  0  0
 18 19  2  0  0  0
 18 98  1  0  0  0
 19 20  1  0  0  0
 19 24  1  0  0  0
 20 21  2  0  0  0
 20 99  1  0  0  0
 21 23  1  0  0  0
 22 28  1  0  0  0
 22 32  2  0  0  0
 26 27  1  0  0  0
 28100  1  0  0  0
 28101  1  0  0  0
 29102  1  0  0  0
 29103  1  0  0  0
 33 34  1  0  0  0
 33 66  1  0  0  0
 33 70  2  0  0  0
 34 36  1  0  0  0
 34 59  1  0  0  0
 34104  1  0  0  0
 35 44  2  0  0  0
 35 45  1  0  0  0
 35 68  1  0  0  0
 36 56  1  0  0  0
 36105  1  0  0  0
 37 39  1  0  0  0
 37 47  1  0  0  0
 37 66  1  0  0  0
 37106  1  0  0  0
 38 43  2  0  0  0
 38 46  1  0  0  0
 38 47  1  0  0  0
 39 64  1  0  0  0
 39 67  2  0  0  0
 40 52  1  0  0  0
 40 53  2  0  0  0
 40 58  1  0  0  0
 41107  1  0  0  0
 41108  1  0  0  0
 41109  1  0  0  0
 41 48  1  0  0  0
 42 43  1  0  0  0
 42 66  1  0  0  0
 42110  1  0  0  0
 42111  1  0  0  0
 43 44  1  0  0  0
 44112  1  0  0  0
 45 46  2  0  0  0
 45113  1  0  0  0
 46114  1  0  0  0
 47115  1  0  0  0
 47116  1  0  0  0
 48 56  1  0  0  0
 48 65  1  0  0  0
 48117  1  0  0  0
 49 50  1  0  0  0
 49 53  1  0  0  0
 49 64  1  0  0  0
 49118  1  0  0  0
 50 51  1  0  0  0
 50119  1  0  0  0
 50120  1  0  0  0
 51 52  1  0  0  0
 51121  1  0  0  0
 51122  1  0  0  0
 52123  1  0  0  0
 52124  1  0  0  0
 53 54  1  0  0  0
 54 55  2  0  0  0
 54125  1  0  0  0
 55 57  1  0  0  0
 55126  1  0  0  0
 56 69  2  0  0  0
 57 58  2  0  0  0
 57127  1  0  0  0
 58128  1  0  0  0
 59 60  1  0  0  0
 59 61  1  0  0  0
 59 62  1  0  0  0
 60129  1  0  0  0
 60130  1  0  0  0
 60131  1  0  0  0
 61132  1  0  0  0
 61133  1  0  0  0
 61134  1  0  0  0
 62135  1  0  0  0
 62136  1  0  0  0
 62137  1  0  0  0
 63 65  1  0  0  0
 63138  1  0  0  0
 63139  1  0  0  0
 63140  1  0  0  0
 64141  1  0  0  0
 65142  1  0  0  0
 68 82  1  0  0  0
 71 72  2  0  0  0
 71 73  1  0  0  0
 71143  1  0  0  0
 72 75  1  0  0  0
 72144  1  0  0  0
 73 76  2  0  0  0
 73145  1  0  0  0
 74 75  2  0  0  0
 74 76  1  0  0  0
 74146  1  0  0  0
 75 77  1  0  0  0
 76 79  1  0  0  0
 77 78  2  0  0  0
 77147  1  0  0  0
 78148  1  0  0  0
 79 80  1  0  0  0
 79 83  2  0  0  0
 80 81  1  0  0  0
 80149  1  0  0  0
 80150  1  0  0  0
 81 82  1  0  0  0
 81151  1  0  0  0
 81152  1  0  0  0
 82153  1  0  0  0
 82154  1  0  0  0
 83155  1  0  0  0
M  ISO  4   1 100  68 101  78 100  82 101
M  END
> <chiral flag>
0

> <version>
0

> <s_m_source_file>
/data/baiqing/PycharmProjects/Reinvent-master-3.2/result/LINK_invent/BTK/process_docking_weight1_custom_product_contain_oxygen_bond_distance_aromatic_linkinvent_7_9_3/rearranged_h_0131.sdf

> <i_m_source_file_index>
88

> <r_mmod_Potential_Energy-OPLS-2005>
-52.399974822998

> <r_mmod_Stretch_Energy-OPLS-2005>
42.1768226623535

> <r_mmod_Bend_Energy-OPLS-2005>
108.004608154297

> <r_mmod_Torsional_Energy-OPLS-2005>
186.011947631836

> <r_mmod_Improper_Torsional_Energy-OPLS-2005>
4.66064119338989

> <r_mmod_Van_der_Waal_Energy-OPLS-2005>
155.574645996094

> <r_mmod_Electrostatic_Energy-OPLS-2005>
-361.178497314453

> <r_mmod_Solvation_Energy-OPLS-2005>
-202.008148193359

> <b_mmod_Minimization_Converged-OPLS-2005>
0

> <r_mmod_RMS_Derivative-OPLS-2005>
3.17977237701416

$$$$
88
                    3D
 Structure written by MMmdl.
158166  0  0  1  0            999 V2000
  -30.7943  -14.5389   20.6209 C   0  0  0  0  0  0
  -30.4235  -12.3545   19.4964 C   0  0  0  0  0  0
  -29.5366  -12.5427   18.2512 C   0  0  0  0  0  0
  -28.0567  -12.3789   18.6406 C   0  0  0  0  0  0
  -27.6712  -13.2336   19.8800 C   0  0  2  0  0  0
  -28.7077  -13.0898   21.0258 C   0  0  0  0  0  0
  -25.2610  -13.8192   20.5680 C   0  0  0  0  0  0
  -24.1860  -13.0432   20.9118 C   0  0  0  0  0  0
  -24.6455  -11.6894   20.8664 C   0  0  0  0  0  0
  -23.9101  -10.4319   21.0406 C   0  0  0  0  0  0
  -24.3635   -9.4230   21.9179 C   0  0  0  0  0  0
  -23.6319   -8.2254   22.0755 C   0  0  0  0  0  0
  -22.4301   -8.0297   21.3562 C   0  0  0  0  0  0
  -21.9946   -9.0266   20.4659 C   0  0  0  0  0  0
  -22.7285  -10.2131   20.3066 C   0  0  0  0  0  0
  -21.6849   -6.0756   22.5284 C   0  0  0  0  0  0
  -21.4027   -6.5638   23.8217 C   0  0  0  0  0  0
  -21.3666   -5.6784   24.9168 C   0  0  0  0  0  0
  -21.6034   -4.3046   24.7226 C   0  0  0  0  0  0
  -21.8796   -3.8152   23.4331 C   0  0  0  0  0  0
  -21.9184   -4.6980   22.3396 C   0  0  0  0  0  0
  -22.7865  -13.5222   21.1753 C   0  0  0  0  0  0
  -22.1638   -4.2166   21.0963 F   0  0  0  0  0  0
  -21.5639   -3.4517   25.7745 F   0  0  0  0  0  0
  -30.0472  -13.3893   20.4912 N   0  0  0  0  0  0
  -26.3098  -12.9429   20.3348 N   0  0  0  0  0  0
  -25.9410  -11.6564   20.5707 N   0  0  0  0  0  0
  -22.0454  -12.8312   22.0348 N   0  0  0  0  0  0
  -25.4240  -15.1930   20.4186 N   0  0  0  0  0  0
  -31.8713  -14.6208   20.0283 O   0  0  0  0  0  0
  -21.6644   -6.8904   21.4257 O   0  0  0  0  0  0
  -22.3568  -14.5498   20.6568 O   0  0  0  0  0  0
  -24.6183  -31.8618   23.2060 C   0  0  0  0  0  0
  -25.9050  -32.4784   23.8381 C   0  0  1  0  0  0
  -27.2280  -27.3790   20.1274 C   0  0  0  0  0  0
  -25.5892  -33.8589   24.2299 N   0  0  0  0  0  0
  -23.4094  -30.4869   21.5436 C   0  0  2  0  0  0
  -24.8639  -28.9585   20.1049 C   0  0  0  0  0  0
  -22.7421  -29.4589   22.4901 C   0  0  0  0  0  0
  -18.0263  -28.1362   22.8445 C   0  0  0  0  0  0
  -24.1514  -36.7335   23.2639 C   0  0  0  0  0  0
  -25.9435  -30.8175   21.3680 C   0  0  0  0  0  0
  -26.0240  -29.4488   20.7156 C   0  0  0  0  0  0
  -27.2128  -28.6706   20.7146 C   0  0  0  0  0  0
  -26.0512  -26.9254   19.4849 C   0  0  0  0  0  0
  -24.8803  -27.7045   19.4729 C   0  0  0  0  0  0
  -23.6259  -29.8276   20.1568 C   0  0  0  0  0  0
  -25.4118  -36.3083   24.0330 C   0  0  1  0  0  0
  -20.5846  -28.3635   23.1304 C   0  0  2  0  0  0
  -20.6746  -26.9361   22.5404 C   0  0  0  0  0  0
  -19.5735  -26.6360   21.5190 C   0  0  0  0  0  0
  -18.1913  -26.7909   22.1585 C   0  0  0  0  0  0
  -19.1504  -28.8810   23.2885 C   0  0  0  0  0  0
  -18.9434  -30.1415   23.8907 C   0  0  0  0  0  0
  -17.6437  -30.6574   24.0524 C   0  0  0  0  0  0
  -25.9022  -34.9450   23.5102 C   0  0  0  0  0  0
  -16.5326  -29.9062   23.6314 C   0  0  0  0  0  0
  -16.7251  -28.6478   23.0329 C   0  0  0  0  0  0
  -26.4477  -31.6555   25.0701 C   0  0  0  0  0  0
  -25.3749  -31.3650   26.1443 C   0  0  0  0  0  0
  -27.0278  -30.2985   24.6059 C   0  0  0  0  0  0
  -27.6045  -32.4260   25.7479 C   0  0  0  0  0  0
  -27.5601  -37.1798   24.8432 C   0  0  0  0  0  0
  -21.4128  -29.3022   22.3713 N   0  0  0  0  0  0
  -26.4292  -37.3776   23.9406 N   0  0  0  0  0  0
  -24.6750  -31.0715   22.0975 N   0  0  0  0  0  0
  -23.4186  -28.8099   23.2912 O   0  0  0  0  0  0
  -28.3529  -26.5644   20.1981 O   0  0  0  0  0  0
  -26.5584  -34.8906   22.4652 O   0  0  0  0  0  0
  -23.5355  -32.1364   23.7441 O   0  0  0  0  0  0
  -30.7750  -19.7224   23.8774 C   0  0  0  0  0  0
  -30.4046  -20.8380   23.1044 C   0  0  0  0  0  0
  -30.3092  -19.4113   21.1494 C   0  0  0  0  0  0
  -30.6641  -18.2534   21.9129 C   0  0  0  0  0  0
  -30.9561  -18.4442   23.2994 C   0  0  0  0  0  0
  -30.1770  -20.7125   21.7173 C   0  0  0  0  0  0
  -30.8456  -16.9383   21.2029 C   0  0  0  0  0  0
  -30.3162  -15.6882   21.4317 C   0  0  0  0  0  0
  -29.3078  -24.2691   20.7542 C   0  0  0  0  0  0
  -32.7524  -17.8050   25.0396 C   0  0  0  0  0  0
  -31.5456  -17.3431   24.1881 C   0  0  0  0  0  0
  -29.0426  -22.8727   21.4033 C   0  0  0  0  0  0
  -28.0717  -25.1425   20.3868 C   0  0  0  0  0  0
  -30.4591  -24.6781   20.5631 O   0  0  0  0  0  0
  -29.9124  -21.8168   20.9069 O   0  0  0  0  0  0
  -31.4820  -12.3745   19.2365 H   0  0  0  0  0  0
  -30.2646  -11.3594   19.9156 H   0  0  0  0  0  0
  -29.8211  -11.8323   17.4747 H   0  0  0  0  0  0
  -29.7021  -13.5334   17.8304 H   0  0  0  0  0  0
  -27.8944  -11.3238   18.8553 H   0  0  0  0  0  0
  -27.4128  -12.6259   17.7941 H   0  0  0  0  0  0
  -27.6978  -14.2738   19.5557 H   0  0  0  0  0  0
  -28.6896  -12.0791   21.4347 H   0  0  0  0  0  0
  -28.4466  -13.7403   21.8586 H   0  0  0  0  0  0
  -25.2798   -9.5704   22.4712 H   0  0  0  0  0  0
  -24.0012   -7.4681   22.7503 H   0  0  0  0  0  0
  -21.0857   -8.8818   19.8986 H   0  0  0  0  0  0
  -22.3778  -10.9657   19.6129 H   0  0  0  0  0  0
  -21.2051   -7.6164   23.9727 H   0  0  0  0  0  0
  -21.1489   -6.0521   25.9070 H   0  0  0  0  0  0
  -22.0587   -2.7630   23.2814 H   0  0  0  0  0  0
  -22.4042  -12.0036   22.4894 H   0  0  0  0  0  0
  -21.1052  -13.1388   22.2380 H   0  0  0  0  0  0
  -24.6558  -15.8422   20.5591 H   0  0  0  0  0  0
  -26.2859  -15.6495   20.1451 H   0  0  0  0  0  0
  -26.7078  -32.5495   23.1118 H   0  0  0  0  0  0
  -25.0060  -33.9729   25.0450 H   0  0  0  0  0  0
  -22.6964  -31.3033   21.4056 H   0  0  0  0  0  0
  -23.3768  -35.9670   23.3238 H   0  0  0  0  0  0
  -24.3639  -36.9019   22.2070 H   0  0  0  0  0  0
  -23.7284  -37.6523   23.6696 H   0  0  0  0  0  0
  -26.0604  -31.5841   20.6018 H   0  0  0  0  0  0
  -26.8290  -30.8712   21.9881 H   0  0  0  0  0  0
  -28.1039  -29.0400   21.2066 H   0  0  0  0  0  0
  -26.0182  -25.9705   18.9817 H   0  0  0  0  0  0
  -23.9969  -27.3294   18.9789 H   0  0  0  0  0  0
  -23.7361  -30.6078   19.4031 H   0  0  0  0  0  0
  -22.7516  -29.2523   19.8515 H   0  0  0  0  0  0
  -25.1300  -36.1933   25.0823 H   0  0  0  0  0  0
  -20.9946  -28.3209   24.1421 H   0  0  0  0  0  0
  -20.5626  -26.2220   23.3582 H   0  0  0  0  0  0
  -21.6616  -26.7381   22.1217 H   0  0  0  0  0  0
  -19.6899  -25.6273   21.1220 H   0  0  0  0  0  0
  -19.6738  -27.3156   20.6715 H   0  0  0  0  0  0
  -17.4183  -26.6636   21.3996 H   0  0  0  0  0  0
  -18.0323  -26.0072   22.8996 H   0  0  0  0  0  0
  -19.7907  -30.7212   24.2317 H   0  0  0  0  0  0
  -17.4988  -31.6266   24.5098 H   0  0  0  0  0  0
  -15.5310  -30.2953   23.7676 H   0  0  0  0  0  0
  -15.8640  -28.0820   22.7033 H   0  0  0  0  0  0
  -24.5913  -30.7007   25.7773 H   0  0  0  0  0  0
  -24.8964  -32.2799   26.4942 H   0  0  0  0  0  0
  -25.8129  -30.8772   27.0159 H   0  0  0  0  0  0
  -26.2770  -29.6766   24.1153 H   0  0  0  0  0  0
  -27.4066  -29.7211   25.4506 H   0  0  0  0  0  0
  -27.8629  -30.4287   23.9171 H   0  0  0  0  0  0
  -27.2647  -33.3532   26.2111 H   0  0  0  0  0  0
  -28.3859  -32.6850   25.0320 H   0  0  0  0  0  0
  -28.0703  -31.8334   26.5363 H   0  0  0  0  0  0
  -28.2519  -38.0184   24.7540 H   0  0  0  0  0  0
  -28.1178  -36.2706   24.6149 H   0  0  0  0  0  0
  -27.2313  -37.1324   25.8823 H   0  0  0  0  0  0
  -20.9249  -29.8844   21.7055 H   0  0  0  0  0  0
  -26.0180  -38.2833   24.1422 H   0  0  0  0  0  0
  -30.9782  -19.8820   24.9285 H   0  0  0  0  0  0
  -30.3539  -21.7988   23.5923 H   0  0  0  0  0  0
  -30.1578  -19.3084   20.0847 H   0  0  0  0  0  0
  -31.5615  -17.0211   20.3972 H   0  0  0  0  0  0
  -29.5917  -15.5602   22.2183 H   0  0  0  0  0  0
  -33.2317  -16.9616   25.5414 H   0  0  0  0  0  0
  -32.4718  -18.5063   25.8273 H   0  0  0  0  0  0
  -33.5196  -18.2898   24.4322 H   0  0  0  0  0  0
  -31.8772  -16.4942   23.5907 H   0  0  0  0  0  0
  -30.7546  -16.9624   24.8389 H   0  0  0  0  0  0
  -28.0139  -22.5812   21.1981 H   0  0  0  0  0  0
  -29.1233  -22.9983   22.4817 H   0  0  0  0  0  0
  -27.3185  -25.0231   21.1643 H   0  0  0  0  0  0
  -27.6523  -24.7201   19.4749 H   0  0  0  0  0  0
  1 25  1  0  0  0
  1 30  2  0  0  0
  1 78  1  0  0  0
  2  3  1  0  0  0
  2 25  1  0  0  0
  2 86  1  0  0  0
  2 87  1  0  0  0
  3  4  1  0  0  0
  3 88  1  0  0  0
  3 89  1  0  0  0
  4  5  1  0  0  0
  4 90  1  0  0  0
  4 91  1  0  0  0
  5  6  1  0  0  0
  5 26  1  0  0  0
  5 92  1  0  0  0
  6 25  1  0  0  0
  6 93  1  0  0  0
  6 94  1  0  0  0
  7  8  2  0  0  0
  7 26  1  0  0  0
  7 29  1  0  0  0
  8  9  1  0  0  0
  8 22  1  0  0  0
  9 10  1  0  0  0
  9 27  2  0  0  0
 10 11  2  0  0  0
 10 15  1  0  0  0
 11 12  1  0  0  0
 11 95  1  0  0  0
 12 13  2  0  0  0
 12 96  1  0  0  0
 13 14  1  0  0  0
 13 31  1  0  0  0
 14 15  2  0  0  0
 14 97  1  0  0  0
 15 98  1  0  0  0
 16 17  2  0  0  0
 16 21  1  0  0  0
 16 31  1  0  0  0
 17 18  1  0  0  0
 17 99  1  0  0  0
 18 19  2  0  0  0
 18100  1  0  0  0
 19 20  1  0  0  0
 19 24  1  0  0  0
 20 21  2  0  0  0
 20101  1  0  0  0
 21 23  1  0  0  0
 22 28  1  0  0  0
 22 32  2  0  0  0
 26 27  1  0  0  0
 28102  1  0  0  0
 28103  1  0  0  0
 29104  1  0  0  0
 29105  1  0  0  0
 33 34  1  0  0  0
 33 66  1  0  0  0
 33 70  2  0  0  0
 34 36  1  0  0  0
 34 59  1  0  0  0
 34106  1  0  0  0
 35 44  2  0  0  0
 35 45  1  0  0  0
 35 68  1  0  0  0
 36 56  1  0  0  0
 36107  1  0  0  0
 37 39  1  0  0  0
 37 47  1  0  0  0
 37 66  1  0  0  0
 37108  1  0  0  0
 38 43  2  0  0  0
 38 46  1  0  0  0
 38 47  1  0  0  0
 39 64  1  0  0  0
 39 67  2  0  0  0
 40 52  1  0  0  0
 40 53  2  0  0  0
 40 58  1  0  0  0
 41109  1  0  0  0
 41110  1  0  0  0
 41111  1  0  0  0
 41 48  1  0  0  0
 42 43  1  0  0  0
 42 66  1  0  0  0
 42112  1  0  0  0
 42113  1  0  0  0
 43 44  1  0  0  0
 44114  1  0  0  0
 45 46  2  0  0  0
 45115  1  0  0  0
 46116  1  0  0  0
 47117  1  0  0  0
 47118  1  0  0  0
 48 56  1  0  0  0
 48 65  1  0  0  0
 48119  1  0  0  0
 49 50  1  0  0  0
 49 53  1  0  0  0
 49 64  1  0  0  0
 49120  1  0  0  0
 50 51  1  0  0  0
 50121  1  0  0  0
 50122  1  0  0  0
 51 52  1  0  0  0
 51123  1  0  0  0
 51124  1  0  0  0
 52125  1  0  0  0
 52126  1  0  0  0
 53 54  1  0  0  0
 54 55  2  0  0  0
 54127  1  0  0  0
 55 57  1  0  0  0
 55128  1  0  0  0
 56 69  2  0  0  0
 57 58  2  0  0  0
 57129  1  0  0  0
 58130  1  0  0  0
 59 60  1  0  0  0
 59 61  1  0  0  0
 59 62  1  0  0  0
 60131  1  0  0  0
 60132  1  0  0  0
 60133  1  0  0  0
 61134  1  0  0  0
 61135  1  0  0  0
 61136  1  0  0  0
 62137  1  0  0  0
 62138  1  0  0  0
 62139  1  0  0  0
 63 65  1  0  0  0
 63140  1  0  0  0
 63141  1  0  0  0
 63142  1  0  0  0
 64143  1  0  0  0
 65144  1  0  0  0
 68 83  1  0  0  0
 71 72  2  0  0  0
 71 75  1  0  0  0
 71145  1  0  0  0
 72 76  1  0  0  0
 72146  1  0  0  0
 73 74  1  0  0  0
 73 76  2  0  0  0
 73147  1  0  0  0
 74 75  2  0  0  0
 74 77  1  0  0  0
 75 81  1  0  0  0
 76 85  1  0  0  0
 77 78  2  0  0  0
 77148  1  0  0  0
 78149  1  0  0  0
 79 82  1  0  0  0
 79 83  1  0  0  0
 79 84  2  0  0  0
 80 81  1  0  0  0
 80150  1  0  0  0
 80151  1  0  0  0
 80152  1  0  0  0
 81153  1  0  0  0
 81154  1  0  0  0
 82 85  1  0  0  0
 82155  1  0  0  0
 82156  1  0  0  0
 83157  1  0  0  0
 83158  1  0  0  0
M  ISO  4   1 100  68 101  78 100  83 101
M  END
> <chiral flag>
0

> <version>
0

> <s_m_source_file>
/data/baiqing/PycharmProjects/Reinvent-master-3.2/result/LINK_invent/BTK/process_docking_weight1_custom_product_contain_oxygen_bond_distance_aromatic_linkinvent_7_9_3/rearranged_h_0131.sdf

> <i_m_source_file_index>
89

> <r_mmod_Potential_Energy-OPLS-2005>
71.7080993652344

> <r_mmod_Stretch_Energy-OPLS-2005>
63.5278701782227

> <r_mmod_Bend_Energy-OPLS-2005>
128.310913085938

> <r_mmod_Torsional_Energy-OPLS-2005>
219.661178588867

> <r_mmod_Improper_Torsional_Energy-OPLS-2005>
2.86497807502747

> <r_mmod_Van_der_Waal_Energy-OPLS-2005>
156.420059204102

> <r_mmod_Electrostatic_Energy-OPLS-2005>
-303.98486328125

> <r_mmod_Solvation_Energy-OPLS-2005>
-225.067092895508

> <b_mmod_Minimization_Converged-OPLS-2005>
0

> <r_mmod_RMS_Derivative-OPLS-2005>
6.10746669769287

$$$$
89
                    3D
 Structure written by MMmdl.
157165  0  0  1  0            999 V2000
  -30.6344  -14.5759   20.5706 C   0  0  0  0  0  0
  -30.4554  -12.3792   19.4127 C   0  0  0  0  0  0
  -29.5063  -12.5373   18.2007 C   0  0  0  0  0  0
  -28.0256  -12.3821   18.6107 C   0  0  0  0  0  0
  -27.6683  -13.2014   19.8786 C   0  0  2  0  0  0
  -28.7188  -12.9323   20.9786 C   0  0  0  0  0  0
  -25.2623  -13.8099   20.5667 C   0  0  0  0  0  0
  -24.1870  -13.0385   20.9173 C   0  0  0  0  0  0
  -24.6409  -11.6844   20.8708 C   0  0  0  0  0  0
  -23.9039  -10.4256   21.0377 C   0  0  0  0  0  0
  -24.3586   -9.4191   21.9175 C   0  0  0  0  0  0
  -23.6267   -8.2218   22.0765 C   0  0  0  0  0  0
  -22.4254   -8.0258   21.3556 C   0  0  0  0  0  0
  -21.9893   -9.0219   20.4643 C   0  0  0  0  0  0
  -22.7211  -10.2105   20.3029 C   0  0  0  0  0  0
  -21.6853   -6.0722   22.5282 C   0  0  0  0  0  0
  -21.4017   -6.5627   23.8215 C   0  0  0  0  0  0
  -21.3658   -5.6773   24.9173 C   0  0  0  0  0  0
  -21.6041   -4.3032   24.7213 C   0  0  0  0  0  0
  -21.8832   -3.8138   23.4335 C   0  0  0  0  0  0
  -21.9192   -4.6951   22.3393 C   0  0  0  0  0  0
  -22.7893  -13.5182   21.1825 C   0  0  0  0  0  0
  -22.1643   -4.2146   21.0960 F   0  0  0  0  0  0
  -21.5641   -3.4509   25.7717 F   0  0  0  0  0  0
  -30.0352  -13.3441   20.4473 N   0  0  0  0  0  0
  -26.3070  -12.9265   20.3359 N   0  0  0  0  0  0
  -25.9338  -11.6428   20.5722 N   0  0  0  0  0  0
  -22.0498  -12.8196   22.0360 N   0  0  0  0  0  0
  -25.4333  -15.1818   20.4080 N   0  0  0  0  0  0
  -31.7574  -14.7795   20.0994 O   0  0  0  0  0  0
  -21.6632   -6.8862   21.4250 O   0  0  0  0  0  0
  -22.3575  -14.5485   20.6672 O   0  0  0  0  0  0
  -24.6228  -31.8623   23.2079 C   0  0  0  0  0  0
  -25.9089  -32.4788   23.8378 C   0  0  1  0  0  0
  -27.2421  -27.3793   20.0989 C   0  0  0  0  0  0
  -25.5943  -33.8596   24.2331 N   0  0  0  0  0  0
  -23.4145  -30.4856   21.5502 C   0  0  2  0  0  0
  -24.8610  -28.9454   20.1151 C   0  0  0  0  0  0
  -22.7459  -29.4632   22.4993 C   0  0  0  0  0  0
  -18.0273  -28.1363   22.8495 C   0  0  0  0  0  0
  -24.1489  -36.7280   23.2648 C   0  0  0  0  0  0
  -25.9501  -30.8102   21.3694 C   0  0  0  0  0  0
  -26.0267  -29.4432   20.7096 C   0  0  0  0  0  0
  -27.2194  -28.6733   20.6879 C   0  0  0  0  0  0
  -26.0503  -26.9135   19.4943 C   0  0  0  0  0  0
  -24.8717  -27.6840   19.4993 C   0  0  0  0  0  0
  -23.6250  -29.8168   20.1664 C   0  0  0  0  0  0
  -25.4109  -36.3095   24.0362 C   0  0  1  0  0  0
  -20.5868  -28.3645   23.1314 C   0  0  2  0  0  0
  -20.6763  -26.9379   22.5409 C   0  0  0  0  0  0
  -19.5751  -26.6371   21.5195 C   0  0  0  0  0  0
  -18.1922  -26.7915   22.1600 C   0  0  0  0  0  0
  -19.1525  -28.8827   23.2890 C   0  0  0  0  0  0
  -18.9451  -30.1437   23.8890 C   0  0  0  0  0  0
  -17.6453  -30.6575   24.0550 C   0  0  0  0  0  0
  -25.9053  -34.9465   23.5142 C   0  0  0  0  0  0
  -16.5342  -29.9062   23.6338 C   0  0  0  0  0  0
  -16.7262  -28.6471   23.0377 C   0  0  0  0  0  0
  -26.4501  -31.6584   25.0734 C   0  0  0  0  0  0
  -25.3773  -31.3678   26.1493 C   0  0  0  0  0  0
  -27.0339  -30.3029   24.6127 C   0  0  0  0  0  0
  -27.6070  -32.4314   25.7501 C   0  0  0  0  0  0
  -27.5581  -37.1799   24.8474 C   0  0  0  0  0  0
  -21.4179  -29.3013   22.3732 N   0  0  0  0  0  0
  -26.4279  -37.3794   23.9432 N   0  0  0  0  0  0
  -24.6806  -31.0688   22.0988 N   0  0  0  0  0  0
  -23.4211  -28.8177   23.3052 O   0  0  0  0  0  0
  -28.4014  -26.6044   20.1059 O   0  0  0  0  0  0
  -26.5591  -34.8925   22.4692 O   0  0  0  0  0  0
  -23.5393  -32.1374   23.7452 O   0  0  0  0  0  0
  -32.7940  -19.0693   20.0380 C   0  0  0  0  0  0
  -32.0090  -17.9751   20.4447 C   0  0  0  0  0  0
  -32.1967  -20.3070   19.7341 C   0  0  0  0  0  0
  -30.6100  -18.1003   20.5552 C   0  0  0  0  0  0
  -30.7951  -20.4839   19.7941 C   0  0  0  0  0  0
  -30.0030  -19.3541   20.1879 C   0  0  0  0  0  0
  -29.7909  -16.9885   21.1419 C   0  0  0  0  0  0
  -29.7897  -15.6217   21.1995 C   0  0  0  0  0  0
  -29.5469  -24.3328   20.0821 C   0  0  0  0  0  0
  -28.4857  -19.4748   20.2108 C   0  0  0  0  0  0
  -30.2375  -21.8693   19.3350 C   0  0  0  0  0  0
  -29.5163  -22.7967   20.3790 C   0  0  0  0  0  0
  -28.2291  -25.1544   20.2000 C   0  0  0  0  0  0
  -30.6097  -24.8871   19.7783 O   0  0  0  0  0  0
  -31.4899  -12.5260   19.1006 H   0  0  0  0  0  0
  -30.4082  -11.3618   19.8027 H   0  0  0  0  0  0
  -29.7609  -11.8117   17.4254 H   0  0  0  0  0  0
  -29.6525  -13.5214   17.7522 H   0  0  0  0  0  0
  -27.8423  -11.3222   18.7953 H   0  0  0  0  0  0
  -27.3743  -12.6667   17.7839 H   0  0  0  0  0  0
  -27.7199  -14.2577   19.6072 H   0  0  0  0  0  0
  -28.7417  -11.8660   21.2077 H   0  0  0  0  0  0
  -28.4497  -13.3824   21.9314 H   0  0  0  0  0  0
  -25.2739   -9.5656   22.4743 H   0  0  0  0  0  0
  -23.9989   -7.4589   22.7459 H   0  0  0  0  0  0
  -21.0848   -8.8675   19.8928 H   0  0  0  0  0  0
  -22.3651  -10.9599   19.6111 H   0  0  0  0  0  0
  -21.2006   -7.6142   23.9719 H   0  0  0  0  0  0
  -21.1480   -6.0495   25.9076 H   0  0  0  0  0  0
  -22.0626   -2.7601   23.2799 H   0  0  0  0  0  0
  -22.4111  -11.9859   22.4738 H   0  0  0  0  0  0
  -21.1121  -13.1284   22.2531 H   0  0  0  0  0  0
  -24.6619  -15.8306   20.5112 H   0  0  0  0  0  0
  -26.2879  -15.6272   20.0977 H   0  0  0  0  0  0
  -26.7163  -32.5472   23.1130 H   0  0  0  0  0  0
  -25.0186  -33.9739   25.0541 H   0  0  0  0  0  0
  -22.7047  -31.3036   21.4106 H   0  0  0  0  0  0
  -23.3771  -35.9587   23.3295 H   0  0  0  0  0  0
  -24.3600  -36.8897   22.2062 H   0  0  0  0  0  0
  -23.7194  -37.6476   23.6650 H   0  0  0  0  0  0
  -26.0804  -31.5781   20.6061 H   0  0  0  0  0  0
  -26.8318  -30.8532   21.9968 H   0  0  0  0  0  0
  -28.1206  -29.0598   21.1438 H   0  0  0  0  0  0
  -26.0006  -25.9587   18.9970 H   0  0  0  0  0  0
  -23.9806  -27.2963   19.0249 H   0  0  0  0  0  0
  -23.7336  -30.5884   19.4035 H   0  0  0  0  0  0
  -22.7464  -29.2387   19.8746 H   0  0  0  0  0  0
  -25.1280  -36.1963   25.0850 H   0  0  0  0  0  0
  -20.9948  -28.3178   24.1439 H   0  0  0  0  0  0
  -20.5643  -26.2243   23.3592 H   0  0  0  0  0  0
  -21.6641  -26.7411   22.1216 H   0  0  0  0  0  0
  -19.6906  -25.6280   21.1232 H   0  0  0  0  0  0
  -19.6703  -27.3174   20.6724 H   0  0  0  0  0  0
  -17.4206  -26.6684   21.3986 H   0  0  0  0  0  0
  -18.0294  -26.0043   22.8977 H   0  0  0  0  0  0
  -19.7936  -30.7249   24.2244 H   0  0  0  0  0  0
  -17.5019  -31.6271   24.5135 H   0  0  0  0  0  0
  -15.5340  -30.2959   23.7694 H   0  0  0  0  0  0
  -15.8660  -28.0791   22.7108 H   0  0  0  0  0  0
  -24.5992  -30.6956   25.7868 H   0  0  0  0  0  0
  -24.8897  -32.2805   26.4931 H   0  0  0  0  0  0
  -25.8161  -30.8905   27.0263 H   0  0  0  0  0  0
  -26.2871  -29.6782   24.1208 H   0  0  0  0  0  0
  -27.4142  -29.7291   25.4586 H   0  0  0  0  0  0
  -27.8708  -30.4368   23.9264 H   0  0  0  0  0  0
  -27.2700  -33.3639   26.2043 H   0  0  0  0  0  0
  -28.3893  -32.6820   25.0330 H   0  0  0  0  0  0
  -28.0712  -31.8455   26.5442 H   0  0  0  0  0  0
  -28.2597  -38.0104   24.7556 H   0  0  0  0  0  0
  -28.1076  -36.2639   24.6249 H   0  0  0  0  0  0
  -27.2318  -37.1398   25.8884 H   0  0  0  0  0  0
  -20.9351  -29.8738   21.6956 H   0  0  0  0  0  0
  -26.0172  -38.2876   24.1441 H   0  0  0  0  0  0
  -33.8697  -18.9592   19.9783 H   0  0  0  0  0  0
  -32.5069  -17.0599   20.7249 H   0  0  0  0  0  0
  -32.8330  -21.1276   19.4298 H   0  0  0  0  0  0
  -28.9854  -17.3943   21.7381 H   0  0  0  0  0  0
  -28.9887  -15.2910   21.8320 H   0  0  0  0  0  0
  -28.0298  -18.5874   19.7711 H   0  0  0  0  0  0
  -28.1222  -20.3250   19.6371 H   0  0  0  0  0  0
  -28.1250  -19.5767   21.2338 H   0  0  0  0  0  0
  -29.5637  -21.7004   18.4947 H   0  0  0  0  0  0
  -31.0658  -22.4274   18.8960 H   0  0  0  0  0  0
  -28.4773  -22.4847   20.4894 H   0  0  0  0  0  0
  -29.9813  -22.6635   21.3558 H   0  0  0  0  0  0
  -27.7493  -24.9149   21.1511 H   0  0  0  0  0  0
  -27.5859  -24.7823   19.4070 H   0  0  0  0  0  0
  1 25  1  0  0  0
  1 30  2  0  0  0
  1 78  1  0  0  0
  2  3  1  0  0  0
  2 25  1  0  0  0
  2 85  1  0  0  0
  2 86  1  0  0  0
  3  4  1  0  0  0
  3 87  1  0  0  0
  3 88  1  0  0  0
  4  5  1  0  0  0
  4 89  1  0  0  0
  4 90  1  0  0  0
  5  6  1  0  0  0
  5 26  1  0  0  0
  5 91  1  0  0  0
  6 25  1  0  0  0
  6 92  1  0  0  0
  6 93  1  0  0  0
  7  8  2  0  0  0
  7 26  1  0  0  0
  7 29  1  0  0  0
  8  9  1  0  0  0
  8 22  1  0  0  0
  9 10  1  0  0  0
  9 27  2  0  0  0
 10 11  2  0  0  0
 10 15  1  0  0  0
 11 12  1  0  0  0
 11 94  1  0  0  0
 12 13  2  0  0  0
 12 95  1  0  0  0
 13 14  1  0  0  0
 13 31  1  0  0  0
 14 15  2  0  0  0
 14 96  1  0  0  0
 15 97  1  0  0  0
 16 17  2  0  0  0
 16 21  1  0  0  0
 16 31  1  0  0  0
 17 18  1  0  0  0
 17 98  1  0  0  0
 18 19  2  0  0  0
 18 99  1  0  0  0
 19 20  1  0  0  0
 19 24  1  0  0  0
 20 21  2  0  0  0
 20100  1  0  0  0
 21 23  1  0  0  0
 22 28  1  0  0  0
 22 32  2  0  0  0
 26 27  1  0  0  0
 28101  1  0  0  0
 28102  1  0  0  0
 29103  1  0  0  0
 29104  1  0  0  0
 33 34  1  0  0  0
 33 66  1  0  0  0
 33 70  2  0  0  0
 34 36  1  0  0  0
 34 59  1  0  0  0
 34105  1  0  0  0
 35 44  2  0  0  0
 35 45  1  0  0  0
 35 68  1  0  0  0
 36 56  1  0  0  0
 36106  1  0  0  0
 37 39  1  0  0  0
 37 47  1  0  0  0
 37 66  1  0  0  0
 37107  1  0  0  0
 38 43  2  0  0  0
 38 46  1  0  0  0
 38 47  1  0  0  0
 39 64  1  0  0  0
 39 67  2  0  0  0
 40 52  1  0  0  0
 40 53  2  0  0  0
 40 58  1  0  0  0
 41108  1  0  0  0
 41109  1  0  0  0
 41110  1  0  0  0
 41 48  1  0  0  0
 42 43  1  0  0  0
 42 66  1  0  0  0
 42111  1  0  0  0
 42112  1  0  0  0
 43 44  1  0  0  0
 44113  1  0  0  0
 45 46  2  0  0  0
 45114  1  0  0  0
 46115  1  0  0  0
 47116  1  0  0  0
 47117  1  0  0  0
 48 56  1  0  0  0
 48 65  1  0  0  0
 48118  1  0  0  0
 49 50  1  0  0  0
 49 53  1  0  0  0
 49 64  1  0  0  0
 49119  1  0  0  0
 50 51  1  0  0  0
 50120  1  0  0  0
 50121  1  0  0  0
 51 52  1  0  0  0
 51122  1  0  0  0
 51123  1  0  0  0
 52124  1  0  0  0
 52125  1  0  0  0
 53 54  1  0  0  0
 54 55  2  0  0  0
 54126  1  0  0  0
 55 57  1  0  0  0
 55127  1  0  0  0
 56 69  2  0  0  0
 57 58  2  0  0  0
 57128  1  0  0  0
 58129  1  0  0  0
 59 60  1  0  0  0
 59 61  1  0  0  0
 59 62  1  0  0  0
 60130  1  0  0  0
 60131  1  0  0  0
 60132  1  0  0  0
 61133  1  0  0  0
 61134  1  0  0  0
 61135  1  0  0  0
 62136  1  0  0  0
 62137  1  0  0  0
 62138  1  0  0  0
 63 65  1  0  0  0
 63139  1  0  0  0
 63140  1  0  0  0
 63141  1  0  0  0
 64142  1  0  0  0
 65143  1  0  0  0
 68 83  1  0  0  0
 71 72  2  0  0  0
 71 73  1  0  0  0
 71144  1  0  0  0
 72 74  1  0  0  0
 72145  1  0  0  0
 73 75  2  0  0  0
 73146  1  0  0  0
 74 76  2  0  0  0
 74 77  1  0  0  0
 75 76  1  0  0  0
 75 81  1  0  0  0
 76 80  1  0  0  0
 77 78  2  0  0  0
 77147  1  0  0  0
 78148  1  0  0  0
 79 82  1  0  0  0
 79 83  1  0  0  0
 79 84  2  0  0  0
 80149  1  0  0  0
 80150  1  0  0  0
 80151  1  0  0  0
 81 82  1  0  0  0
 81152  1  0  0  0
 81153  1  0  0  0
 82154  1  0  0  0
 82155  1  0  0  0
 83156  1  0  0  0
 83157  1  0  0  0
M  ISO  4   1 100  68 101  78 100  83 101
M  END
> <chiral flag>
0

> <version>
0

> <s_m_source_file>
/data/baiqing/PycharmProjects/Reinvent-master-3.2/result/LINK_invent/BTK/process_docking_weight1_custom_product_contain_oxygen_bond_distance_aromatic_linkinvent_7_9_3/rearranged_h_0131.sdf

> <i_m_source_file_index>
90

> <r_mmod_Potential_Energy-OPLS-2005>
52.151123046875

> <r_mmod_Stretch_Energy-OPLS-2005>
62.809642791748

> <r_mmod_Bend_Energy-OPLS-2005>
157.491394042969

> <r_mmod_Torsional_Energy-OPLS-2005>
197.95393371582

> <r_mmod_Improper_Torsional_Energy-OPLS-2005>
3.46343922615051

> <r_mmod_Van_der_Waal_Energy-OPLS-2005>
157.818405151367

> <r_mmod_Electrostatic_Energy-OPLS-2005>
-332.625701904297

> <r_mmod_Solvation_Energy-OPLS-2005>
-220.430526733398

> <b_mmod_Minimization_Converged-OPLS-2005>
0

> <r_mmod_RMS_Derivative-OPLS-2005>
3.11011338233948

$$$$
90
                    3D
 Structure written by MMmdl.
160168  0  0  1  0            999 V2000
  -30.7956  -14.4333   20.5373 C   0  0  0  0  0  0
  -30.3880  -12.2684   19.4670 C   0  0  0  0  0  0
  -29.4971  -12.4725   18.2286 C   0  0  0  0  0  0
  -28.0165  -12.3553   18.6302 C   0  0  0  0  0  0
  -27.6537  -13.2228   19.8680 C   0  0  2  0  0  0
  -28.6922  -13.0783   21.0018 C   0  0  0  0  0  0
  -25.2554  -13.8221   20.5711 C   0  0  0  0  0  0
  -24.1836  -13.0446   20.9211 C   0  0  0  0  0  0
  -24.6396  -11.6930   20.8730 C   0  0  0  0  0  0
  -23.9058  -10.4302   21.0383 C   0  0  0  0  0  0
  -24.3627   -9.4226   21.9157 C   0  0  0  0  0  0
  -23.6315   -8.2252   22.0738 C   0  0  0  0  0  0
  -22.4290   -8.0281   21.3542 C   0  0  0  0  0  0
  -21.9921   -9.0237   20.4633 C   0  0  0  0  0  0
  -22.7230  -10.2124   20.3035 C   0  0  0  0  0  0
  -21.6857   -6.0748   22.5290 C   0  0  0  0  0  0
  -21.4013   -6.5649   23.8224 C   0  0  0  0  0  0
  -21.3664   -5.6795   24.9182 C   0  0  0  0  0  0
  -21.6051   -4.3058   24.7222 C   0  0  0  0  0  0
  -21.8817   -3.8153   23.4338 C   0  0  0  0  0  0
  -21.9200   -4.6979   22.3401 C   0  0  0  0  0  0
  -22.7866  -13.5233   21.1842 C   0  0  0  0  0  0
  -22.1663   -4.2165   21.0974 F   0  0  0  0  0  0
  -21.5627   -3.4533   25.7731 F   0  0  0  0  0  0
  -30.0260  -13.3154   20.4393 N   0  0  0  0  0  0
  -26.2992  -12.9400   20.3363 N   0  0  0  0  0  0
  -25.9333  -11.6536   20.5790 N   0  0  0  0  0  0
  -22.0494  -12.8221   22.0406 N   0  0  0  0  0  0
  -25.4200  -15.1943   20.4174 N   0  0  0  0  0  0
  -31.9487  -14.4319   20.1018 O   0  0  0  0  0  0
  -21.6645   -6.8881   21.4249 O   0  0  0  0  0  0
  -22.3542  -14.5509   20.6666 O   0  0  0  0  0  0
  -24.6203  -31.8677   23.2111 C   0  0  0  0  0  0
  -25.9090  -32.4835   23.8396 C   0  0  1  0  0  0
  -27.2078  -27.4092   20.0903 C   0  0  0  0  0  0
  -25.5957  -33.8626   24.2337 N   0  0  0  0  0  0
  -23.4066  -30.5007   21.5512 C   0  0  2  0  0  0
  -24.8448  -28.9721   20.1065 C   0  0  0  0  0  0
  -22.7431  -29.4664   22.4933 C   0  0  0  0  0  0
  -18.0277  -28.1395   22.8487 C   0  0  0  0  0  0
  -24.1482  -36.7311   23.2639 C   0  0  0  0  0  0
  -25.9403  -30.8284   21.3662 C   0  0  0  0  0  0
  -26.0096  -29.4635   20.7083 C   0  0  0  0  0  0
  -27.1948  -28.6898   20.6944 C   0  0  0  0  0  0
  -26.0276  -26.9567   19.4529 C   0  0  0  0  0  0
  -24.8508  -27.7213   19.4733 C   0  0  0  0  0  0
  -23.6150  -29.8470   20.1605 C   0  0  0  0  0  0
  -25.4105  -36.3129   24.0348 C   0  0  1  0  0  0
  -20.5870  -28.3682   23.1300 C   0  0  2  0  0  0
  -20.6761  -26.9408   22.5408 C   0  0  0  0  0  0
  -19.5742  -26.6380   21.5213 C   0  0  0  0  0  0
  -18.1924  -26.7932   22.1621 C   0  0  0  0  0  0
  -19.1532  -28.8842   23.2906 C   0  0  0  0  0  0
  -18.9470  -30.1446   23.8933 C   0  0  0  0  0  0
  -17.6474  -30.6601   24.0572 C   0  0  0  0  0  0
  -25.9044  -34.9489   23.5135 C   0  0  0  0  0  0
  -16.5362  -29.9113   23.6324 C   0  0  0  0  0  0
  -16.7269  -28.6527   23.0349 C   0  0  0  0  0  0
  -26.4485  -31.6627   25.0742 C   0  0  0  0  0  0
  -25.3754  -31.3747   26.1508 C   0  0  0  0  0  0
  -27.0287  -30.3072   24.6091 C   0  0  0  0  0  0
  -27.6055  -32.4336   25.7524 C   0  0  0  0  0  0
  -27.5571  -37.1820   24.8467 C   0  0  0  0  0  0
  -21.4142  -29.3070   22.3702 N   0  0  0  0  0  0
  -26.4286  -37.3823   23.9414 N   0  0  0  0  0  0
  -24.6755  -31.0786   22.1017 N   0  0  0  0  0  0
  -23.4210  -28.8159   23.2947 O   0  0  0  0  0  0
  -28.3463  -26.6241   20.1512 O   0  0  0  0  0  0
  -26.5559  -34.8928   22.4663 O   0  0  0  0  0  0
  -23.5388  -32.1397   23.7511 O   0  0  0  0  0  0
  -32.1057  -18.8447   21.7836 C   0  0  0  0  0  0
  -29.8070  -18.8890   20.9776 C   0  0  0  0  0  0
  -31.0655  -20.9716   21.2493 C   0  0  0  0  0  0
  -30.9397  -18.1480   21.3920 C   0  0  0  0  0  0
  -32.1752  -20.2473   21.7121 C   0  0  0  0  0  0
  -29.8707  -20.3073   20.8957 C   0  0  0  0  0  0
  -31.0687  -16.6833   21.2746 C   0  0  0  0  0  0
  -30.1912  -15.7152   20.9111 C   0  0  0  0  0  0
  -28.8634  -23.3682   21.6710 C   0  0  0  0  0  0
  -33.4537  -20.9739   22.0799 C   0  0  0  0  0  0
  -28.7062  -21.1136   20.3262 C   0  0  0  0  0  0
  -28.0443  -22.1201   21.2978 C   0  0  0  0  0  0
  -29.2976  -24.3545   20.5728 C   0  0  0  0  0  0
  -28.1521  -25.2027   19.9809 C   0  0  0  0  0  0
  -29.1745  -23.5730   22.8469 O   0  0  0  0  0  0
  -31.4405  -12.2783   19.1785 H   0  0  0  0  0  0
  -30.2201  -11.2839   19.9055 H   0  0  0  0  0  0
  -29.7392  -11.7358   17.4620 H   0  0  0  0  0  0
  -29.6922  -13.4517   17.7878 H   0  0  0  0  0  0
  -27.8226  -11.3022   18.8397 H   0  0  0  0  0  0
  -27.3773  -12.6224   17.7888 H   0  0  0  0  0  0
  -27.6766  -14.2606   19.5394 H   0  0  0  0  0  0
  -28.6558  -12.0708   21.4194 H   0  0  0  0  0  0
  -28.4713  -13.7614   21.8244 H   0  0  0  0  0  0
  -25.2757   -9.5727   22.4743 H   0  0  0  0  0  0
  -24.0033   -7.4657   22.7462 H   0  0  0  0  0  0
  -21.0846   -8.8738   19.8950 H   0  0  0  0  0  0
  -22.3650  -10.9664   19.6169 H   0  0  0  0  0  0
  -21.1994   -7.6156   23.9730 H   0  0  0  0  0  0
  -21.1494   -6.0520   25.9087 H   0  0  0  0  0  0
  -22.0590   -2.7613   23.2825 H   0  0  0  0  0  0
  -22.4102  -11.9911   22.4856 H   0  0  0  0  0  0
  -21.1102  -13.1249   22.2557 H   0  0  0  0  0  0
  -24.6485  -15.8425   20.5402 H   0  0  0  0  0  0
  -26.2739  -15.6483   20.1151 H   0  0  0  0  0  0
  -26.7153  -32.5530   23.1151 H   0  0  0  0  0  0
  -25.0200  -33.9746   25.0551 H   0  0  0  0  0  0
  -22.7021  -31.3241   21.4186 H   0  0  0  0  0  0
  -23.3742  -35.9648   23.3332 H   0  0  0  0  0  0
  -24.3564  -36.8880   22.2040 H   0  0  0  0  0  0
  -23.7219  -37.6529   23.6610 H   0  0  0  0  0  0
  -26.0538  -31.5956   20.5972 H   0  0  0  0  0  0
  -26.8304  -30.8815   21.9827 H   0  0  0  0  0  0
  -28.0945  -29.0576   21.1648 H   0  0  0  0  0  0
  -25.9813  -26.0130   18.9270 H   0  0  0  0  0  0
  -23.9604  -27.3439   18.9904 H   0  0  0  0  0  0
  -23.7414  -30.6315   19.4134 H   0  0  0  0  0  0
  -22.7328  -29.2832   19.8527 H   0  0  0  0  0  0
  -25.1274  -36.2001   25.0840 H   0  0  0  0  0  0
  -20.9992  -28.3249   24.1411 H   0  0  0  0  0  0
  -20.5650  -26.2297   23.3599 H   0  0  0  0  0  0
  -21.6633  -26.7426   22.1218 H   0  0  0  0  0  0
  -19.6908  -25.6290   21.1244 H   0  0  0  0  0  0
  -19.6703  -27.3182   20.6732 H   0  0  0  0  0  0
  -17.4187  -26.6689   21.4023 H   0  0  0  0  0  0
  -18.0339  -26.0081   22.9018 H   0  0  0  0  0  0
  -19.7958  -30.7240   24.2345 H   0  0  0  0  0  0
  -17.5043  -31.6285   24.5161 H   0  0  0  0  0  0
  -15.5367  -30.3045   23.7624 H   0  0  0  0  0  0
  -15.8662  -28.0857   22.7063 H   0  0  0  0  0  0
  -24.5958  -30.7044   25.7882 H   0  0  0  0  0  0
  -24.8915  -32.2910   26.4910 H   0  0  0  0  0  0
  -25.8144  -30.8994   27.0292 H   0  0  0  0  0  0
  -26.2812  -29.6894   24.1107 H   0  0  0  0  0  0
  -27.4031  -29.7259   25.4521 H   0  0  0  0  0  0
  -27.8669  -30.4408   23.9247 H   0  0  0  0  0  0
  -27.2671  -33.3633   26.2105 H   0  0  0  0  0  0
  -28.3890  -32.6890   25.0385 H   0  0  0  0  0  0
  -28.0689  -31.8453   26.5453 H   0  0  0  0  0  0
  -28.2620  -38.0086   24.7492 H   0  0  0  0  0  0
  -28.1040  -36.2620   24.6339 H   0  0  0  0  0  0
  -27.2283  -37.1522   25.8870 H   0  0  0  0  0  0
  -20.9291  -29.8905   21.7024 H   0  0  0  0  0  0
  -26.0186  -38.2911   24.1419 H   0  0  0  0  0  0
  -32.9916  -18.2982   22.0761 H   0  0  0  0  0  0
  -28.9196  -18.3682   20.6430 H   0  0  0  0  0  0
  -31.1575  -22.0425   21.1444 H   0  0  0  0  0  0
  -32.0917  -16.3675   21.4403 H   0  0  0  0  0  0
  -29.1336  -15.9041   20.7966 H   0  0  0  0  0  0
  -33.2395  -21.9746   22.4553 H   0  0  0  0  0  0
  -34.1103  -21.0679   21.2129 H   0  0  0  0  0  0
  -33.9949  -20.4363   22.8595 H   0  0  0  0  0  0
  -27.9403  -20.4138   19.9917 H   0  0  0  0  0  0
  -29.0373  -21.6193   19.4203 H   0  0  0  0  0  0
  -27.1211  -22.4754   20.8425 H   0  0  0  0  0  0
  -27.7553  -21.6008   22.2116 H   0  0  0  0  0  0
  -30.0595  -25.0171   20.9822 H   0  0  0  0  0  0
  -29.7850  -23.7850   19.7832 H   0  0  0  0  0  0
  -27.2172  -24.8800   20.4424 H   0  0  0  0  0  0
  -28.0605  -24.9823   18.9169 H   0  0  0  0  0  0
  1 25  1  0  0  0
  1 30  2  0  0  0
  1 78  1  0  0  0
  2  3  1  0  0  0
  2 25  1  0  0  0
  2 86  1  0  0  0
  2 87  1  0  0  0
  3  4  1  0  0  0
  3 88  1  0  0  0
  3 89  1  0  0  0
  4  5  1  0  0  0
  4 90  1  0  0  0
  4 91  1  0  0  0
  5  6  1  0  0  0
  5 26  1  0  0  0
  5 92  1  0  0  0
  6 25  1  0  0  0
  6 93  1  0  0  0
  6 94  1  0  0  0
  7  8  2  0  0  0
  7 26  1  0  0  0
  7 29  1  0  0  0
  8  9  1  0  0  0
  8 22  1  0  0  0
  9 10  1  0  0  0
  9 27  2  0  0  0
 10 11  2  0  0  0
 10 15  1  0  0  0
 11 12  1  0  0  0
 11 95  1  0  0  0
 12 13  2  0  0  0
 12 96  1  0  0  0
 13 14  1  0  0  0
 13 31  1  0  0  0
 14 15  2  0  0  0
 14 97  1  0  0  0
 15 98  1  0  0  0
 16 17  2  0  0  0
 16 21  1  0  0  0
 16 31  1  0  0  0
 17 18  1  0  0  0
 17 99  1  0  0  0
 18 19  2  0  0  0
 18100  1  0  0  0
 19 20  1  0  0  0
 19 24  1  0  0  0
 20 21  2  0  0  0
 20101  1  0  0  0
 21 23  1  0  0  0
 22 28  1  0  0  0
 22 32  2  0  0  0
 26 27  1  0  0  0
 28102  1  0  0  0
 28103  1  0  0  0
 29104  1  0  0  0
 29105  1  0  0  0
 33 34  1  0  0  0
 33 66  1  0  0  0
 33 70  2  0  0  0
 34 36  1  0  0  0
 34 59  1  0  0  0
 34106  1  0  0  0
 35 44  2  0  0  0
 35 45  1  0  0  0
 35 68  1  0  0  0
 36 56  1  0  0  0
 36107  1  0  0  0
 37 39  1  0  0  0
 37 47  1  0  0  0
 37 66  1  0  0  0
 37108  1  0  0  0
 38 43  2  0  0  0
 38 46  1  0  0  0
 38 47  1  0  0  0
 39 64  1  0  0  0
 39 67  2  0  0  0
 40 52  1  0  0  0
 40 53  2  0  0  0
 40 58  1  0  0  0
 41109  1  0  0  0
 41110  1  0  0  0
 41111  1  0  0  0
 41 48  1  0  0  0
 42 43  1  0  0  0
 42 66  1  0  0  0
 42112  1  0  0  0
 42113  1  0  0  0
 43 44  1  0  0  0
 44114  1  0  0  0
 45 46  2  0  0  0
 45115  1  0  0  0
 46116  1  0  0  0
 47117  1  0  0  0
 47118  1  0  0  0
 48 56  1  0  0  0
 48 65  1  0  0  0
 48119  1  0  0  0
 49 50  1  0  0  0
 49 53  1  0  0  0
 49 64  1  0  0  0
 49120  1  0  0  0
 50 51  1  0  0  0
 50121  1  0  0  0
 50122  1  0  0  0
 51 52  1  0  0  0
 51123  1  0  0  0
 51124  1  0  0  0
 52125  1  0  0  0
 52126  1  0  0  0
 53 54  1  0  0  0
 54 55  2  0  0  0
 54127  1  0  0  0
 55 57  1  0  0  0
 55128  1  0  0  0
 56 69  2  0  0  0
 57 58  2  0  0  0
 57129  1  0  0  0
 58130  1  0  0  0
 59 60  1  0  0  0
 59 61  1  0  0  0
 59 62  1  0  0  0
 60131  1  0  0  0
 60132  1  0  0  0
 60133  1  0  0  0
 61134  1  0  0  0
 61135  1  0  0  0
 61136  1  0  0  0
 62137  1  0  0  0
 62138  1  0  0  0
 62139  1  0  0  0
 63 65  1  0  0  0
 63140  1  0  0  0
 63141  1  0  0  0
 63142  1  0  0  0
 64143  1  0  0  0
 65144  1  0  0  0
 68 84  1  0  0  0
 71 74  2  0  0  0
 71 75  1  0  0  0
 71145  1  0  0  0
 72 74  1  0  0  0
 72 76  2  0  0  0
 72146  1  0  0  0
 73 75  2  0  0  0
 73 76  1  0  0  0
 73147  1  0  0  0
 74 77  1  0  0  0
 75 80  1  0  0  0
 76 81  1  0  0  0
 77 78  2  0  0  0
 77148  1  0  0  0
 78149  1  0  0  0
 79 82  1  0  0  0
 79 83  1  0  0  0
 79 85  2  0  0  0
 80150  1  0  0  0
 80151  1  0  0  0
 80152  1  0  0  0
 81 82  1  0  0  0
 81153  1  0  0  0
 81154  1  0  0  0
 82155  1  0  0  0
 82156  1  0  0  0
 83 84  1  0  0  0
 83157  1  0  0  0
 83158  1  0  0  0
 84159  1  0  0  0
 84160  1  0  0  0
M  ISO  4   1 100  68 101  78 100  84 101
M  END
> <chiral flag>
0

> <version>
0

> <s_m_source_file>
/data/baiqing/PycharmProjects/Reinvent-master-3.2/result/LINK_invent/BTK/process_docking_weight1_custom_product_contain_oxygen_bond_distance_aromatic_linkinvent_7_9_3/rearranged_h_0131.sdf

> <i_m_source_file_index>
91

> <r_mmod_Potential_Energy-OPLS-2005>
-0.777379989624023

> <r_mmod_Stretch_Energy-OPLS-2005>
37.4954681396484

> <r_mmod_Bend_Energy-OPLS-2005>
117.585952758789

> <r_mmod_Torsional_Energy-OPLS-2005>
209.798736572266

> <r_mmod_Improper_Torsional_Energy-OPLS-2005>
9.22561073303223

> <r_mmod_Van_der_Waal_Energy-OPLS-2005>
167.554916381836

> <r_mmod_Electrostatic_Energy-OPLS-2005>
-356.318115234375

> <r_mmod_Solvation_Energy-OPLS-2005>
-214.324615478516

> <b_mmod_Minimization_Converged-OPLS-2005>
0

> <r_mmod_RMS_Derivative-OPLS-2005>
3.35450530052185

$$$$
91
                    3D
 Structure written by MMmdl.
153161  0  0  1  0            999 V2000
  -30.5978  -14.7461   20.4987 C   0  0  0  0  0  0
  -30.4456  -12.4682   19.4650 C   0  0  0  0  0  0
  -29.5140  -12.5008   18.2339 C   0  0  0  0  0  0
  -28.0437  -12.3134   18.6572 C   0  0  0  0  0  0
  -27.6443  -13.2219   19.8493 C   0  0  2  0  0  0
  -28.6879  -13.1566   20.9842 C   0  0  0  0  0  0
  -25.2544  -13.8180   20.5688 C   0  0  0  0  0  0
  -24.1824  -13.0437   20.9214 C   0  0  0  0  0  0
  -24.6404  -11.6914   20.8761 C   0  0  0  0  0  0
  -23.9080  -10.4293   21.0423 C   0  0  0  0  0  0
  -24.3625   -9.4206   21.9201 C   0  0  0  0  0  0
  -23.6287   -8.2246   22.0764 C   0  0  0  0  0  0
  -22.4272   -8.0289   21.3547 C   0  0  0  0  0  0
  -21.9918   -9.0266   20.4652 C   0  0  0  0  0  0
  -22.7257  -10.2142   20.3066 C   0  0  0  0  0  0
  -21.6853   -6.0742   22.5274 C   0  0  0  0  0  0
  -21.4013   -6.5639   23.8208 C   0  0  0  0  0  0
  -21.3649   -5.6787   24.9167 C   0  0  0  0  0  0
  -21.6051   -4.3050   24.7218 C   0  0  0  0  0  0
  -21.8820   -3.8143   23.4337 C   0  0  0  0  0  0
  -21.9194   -4.6968   22.3395 C   0  0  0  0  0  0
  -22.7857  -13.5243   21.1857 C   0  0  0  0  0  0
  -22.1665   -4.2149   21.0972 F   0  0  0  0  0  0
  -21.5624   -3.4535   25.7734 F   0  0  0  0  0  0
  -29.9838  -13.5195   20.3982 N   0  0  0  0  0  0
  -26.2955  -12.9357   20.3268 N   0  0  0  0  0  0
  -25.9331  -11.6516   20.5766 N   0  0  0  0  0  0
  -22.0485  -12.8223   22.0392 N   0  0  0  0  0  0
  -25.4237  -15.1909   20.4082 N   0  0  0  0  0  0
  -31.7964  -14.8571   20.2188 O   0  0  0  0  0  0
  -21.6638   -6.8889   21.4238 O   0  0  0  0  0  0
  -22.3539  -14.5548   20.6709 O   0  0  0  0  0  0
  -24.6293  -31.8551   23.1976 C   0  0  0  0  0  0
  -25.9120  -32.4761   23.8326 C   0  0  1  0  0  0
  -27.2242  -27.2687   20.1354 C   0  0  0  0  0  0
  -25.5917  -33.8563   24.2261 N   0  0  0  0  0  0
  -23.4280  -30.4730   21.5426 C   0  0  2  0  0  0
  -24.8782  -28.9163   20.1137 C   0  0  0  0  0  0
  -22.7512  -29.4564   22.4924 C   0  0  0  0  0  0
  -18.0285  -28.1379   22.8455 C   0  0  0  0  0  0
  -24.1491  -36.7289   23.2641 C   0  0  0  0  0  0
  -25.9714  -30.7677   21.3795 C   0  0  0  0  0  0
  -26.0472  -29.3893   20.7239 C   0  0  0  0  0  0
  -27.2270  -28.5780   20.7198 C   0  0  0  0  0  0
  -26.0375  -26.8564   19.4982 C   0  0  0  0  0  0
  -24.8774  -27.6592   19.4869 C   0  0  0  0  0  0
  -23.6478  -29.8032   20.1591 C   0  0  0  0  0  0
  -25.4116  -36.3086   24.0326 C   0  0  1  0  0  0
  -20.5879  -28.3697   23.1261 C   0  0  2  0  0  0
  -20.6769  -26.9418   22.5390 C   0  0  0  0  0  0
  -19.5754  -26.6380   21.5183 C   0  0  0  0  0  0
  -18.1935  -26.7917   22.1594 C   0  0  0  0  0  0
  -19.1534  -28.8853   23.2848 C   0  0  0  0  0  0
  -18.9469  -30.1445   23.8876 C   0  0  0  0  0  0
  -17.6476  -30.6577   24.0546 C   0  0  0  0  0  0
  -25.9049  -34.9450   23.5105 C   0  0  0  0  0  0
  -16.5360  -29.9066   23.6329 C   0  0  0  0  0  0
  -16.7275  -28.6486   23.0336 C   0  0  0  0  0  0
  -26.4496  -31.6586   25.0717 C   0  0  0  0  0  0
  -25.3715  -31.3710   26.1437 C   0  0  0  0  0  0
  -27.0362  -30.3012   24.6189 C   0  0  0  0  0  0
  -27.6059  -32.4331   25.7477 C   0  0  0  0  0  0
  -27.5586  -37.1801   24.8464 C   0  0  0  0  0  0
  -21.4216  -29.3045   22.3680 N   0  0  0  0  0  0
  -26.4307  -37.3770   23.9402 N   0  0  0  0  0  0
  -24.6949  -31.0500   22.0968 N   0  0  0  0  0  0
  -23.4214  -28.8084   23.3004 O   0  0  0  0  0  0
  -28.3189  -26.3826   20.1349 O   0  0  0  0  0  0
  -26.5630  -34.8923   22.4679 O   0  0  0  0  0  0
  -23.5442  -32.1392   23.7264 O   0  0  0  0  0  0
  -31.1839  -18.7223   22.6590 C   0  0  0  0  0  0
  -30.9517  -17.4432   22.1269 C   0  0  0  0  0  0
  -29.4725  -18.4755   20.4990 C   0  0  0  0  0  0
  -29.7269  -19.8316   20.9901 C   0  0  0  0  0  0
  -30.6006  -19.8936   22.1212 C   0  0  0  0  0  0
  -30.0853  -17.2612   21.0352 C   0  0  0  0  0  0
  -29.1370  -21.1270   20.3374 C   0  0  0  0  0  0
  -28.9681  -22.4294   20.8114 C   0  0  0  0  0  0
  -28.5241  -23.6998   20.0481 C   0  0  0  0  0  0
  -30.9958  -21.1938   22.8078 C   0  0  0  0  0  0
  -28.1571  -25.0569   20.8216 C   0  0  0  0  0  0
  -29.7841  -15.8653   20.6282 N   0  0  0  0  0  0
  -28.4284  -23.6988   18.8170 O   0  0  0  0  0  0
  -31.4798  -12.6223   19.1535 H   0  0  0  0  0  0
  -30.4188  -11.4916   19.9513 H   0  0  0  0  0  0
  -29.8017  -11.7228   17.5254 H   0  0  0  0  0  0
  -29.6273  -13.4509   17.7098 H   0  0  0  0  0  0
  -27.9203  -11.2675   18.9406 H   0  0  0  0  0  0
  -27.3780  -12.4799   17.8095 H   0  0  0  0  0  0
  -27.6397  -14.2405   19.4612 H   0  0  0  0  0  0
  -28.7326  -12.1604   21.4275 H   0  0  0  0  0  0
  -28.4216  -13.8399   21.7920 H   0  0  0  0  0  0
  -25.2775   -9.5672   22.4773 H   0  0  0  0  0  0
  -23.9990   -7.4642   22.7496 H   0  0  0  0  0  0
  -21.0848   -8.8812   19.8956 H   0  0  0  0  0  0
  -22.3742  -10.9691   19.6169 H   0  0  0  0  0  0
  -21.2008   -7.6151   23.9710 H   0  0  0  0  0  0
  -21.1465   -6.0520   25.9073 H   0  0  0  0  0  0
  -22.0609   -2.7611   23.2841 H   0  0  0  0  0  0
  -22.4076  -11.9863   22.4758 H   0  0  0  0  0  0
  -21.1109  -13.1267   22.2603 H   0  0  0  0  0  0
  -24.6552  -15.8426   20.5242 H   0  0  0  0  0  0
  -26.2584  -15.6301   20.0413 H   0  0  0  0  0  0
  -26.7188  -32.5423   23.1069 H   0  0  0  0  0  0
  -25.0070  -33.9685   25.0412 H   0  0  0  0  0  0
  -22.7238  -31.2942   21.3963 H   0  0  0  0  0  0
  -23.3769  -35.9611   23.3301 H   0  0  0  0  0  0
  -24.3574  -36.8915   22.2057 H   0  0  0  0  0  0
  -23.7227  -37.6476   23.6669 H   0  0  0  0  0  0
  -26.1055  -31.5286   20.6095 H   0  0  0  0  0  0
  -26.8500  -30.8193   22.0112 H   0  0  0  0  0  0
  -28.1296  -28.9345   21.1967 H   0  0  0  0  0  0
  -26.0064  -25.8949   19.0047 H   0  0  0  0  0  0
  -23.9850  -27.2965   18.9932 H   0  0  0  0  0  0
  -23.7729  -30.5791   19.4034 H   0  0  0  0  0  0
  -22.7667  -29.2357   19.8549 H   0  0  0  0  0  0
  -25.1298  -36.1947   25.0819 H   0  0  0  0  0  0
  -20.9951  -28.3273   24.1382 H   0  0  0  0  0  0
  -20.5669  -26.2300   23.3592 H   0  0  0  0  0  0
  -21.6642  -26.7442   22.1184 H   0  0  0  0  0  0
  -19.6932  -25.6292   21.1208 H   0  0  0  0  0  0
  -19.6688  -27.3200   20.6727 H   0  0  0  0  0  0
  -17.4197  -26.6654   21.4002 H   0  0  0  0  0  0
  -18.0339  -26.0066   22.8999 H   0  0  0  0  0  0
  -19.7957  -30.7235   24.2246 H   0  0  0  0  0  0
  -17.5037  -31.6254   24.5166 H   0  0  0  0  0  0
  -15.5359  -30.2955   23.7670 H   0  0  0  0  0  0
  -15.8672  -28.0798   22.7052 H   0  0  0  0  0  0
  -24.5877  -30.7087   25.7733 H   0  0  0  0  0  0
  -24.8923  -32.2876   26.4891 H   0  0  0  0  0  0
  -25.8024  -30.8843   27.0194 H   0  0  0  0  0  0
  -26.2949  -29.6722   24.1249 H   0  0  0  0  0  0
  -27.4105  -29.7295   25.4688 H   0  0  0  0  0  0
  -27.8791  -30.4299   23.9396 H   0  0  0  0  0  0
  -27.2682  -33.3657   26.2001 H   0  0  0  0  0  0
  -28.3879  -32.6839   25.0299 H   0  0  0  0  0  0
  -28.0710  -31.8486   26.5421 H   0  0  0  0  0  0
  -28.2593  -38.0110   24.7519 H   0  0  0  0  0  0
  -28.1098  -36.2635   24.6295 H   0  0  0  0  0  0
  -27.2295  -37.1442   25.8865 H   0  0  0  0  0  0
  -20.9422  -29.8787   21.6895 H   0  0  0  0  0  0
  -26.0201  -38.2848   24.1411 H   0  0  0  0  0  0
  -31.8398  -18.7971   23.5153 H   0  0  0  0  0  0
  -31.4229  -16.5929   22.6020 H   0  0  0  0  0  0
  -28.7891  -18.3649   19.6696 H   0  0  0  0  0  0
  -28.8575  -20.9801   19.3041 H   0  0  0  0  0  0
  -29.1830  -22.6351   21.8429 H   0  0  0  0  0  0
  -31.2974  -21.9582   22.0927 H   0  0  0  0  0  0
  -31.8464  -21.0519   23.4746 H   0  0  0  0  0  0
  -30.1761  -21.5620   23.4259 H   0  0  0  0  0  0
  -28.7647  -25.0912   21.7262 H   0  0  0  0  0  0
  -27.1285  -24.9543   21.1664 H   0  0  0  0  0  0
  -28.8013  -15.6552   20.5487 H   0  0  0  0  0  0
  1 25  1  0  0  0
  1 30  2  0  0  0
  1 82  1  0  0  0
  2  3  1  0  0  0
  2 25  1  0  0  0
  2 84  1  0  0  0
  2 85  1  0  0  0
  3  4  1  0  0  0
  3 86  1  0  0  0
  3 87  1  0  0  0
  4  5  1  0  0  0
  4 88  1  0  0  0
  4 89  1  0  0  0
  5  6  1  0  0  0
  5 26  1  0  0  0
  5 90  1  0  0  0
  6 25  1  0  0  0
  6 91  1  0  0  0
  6 92  1  0  0  0
  7  8  2  0  0  0
  7 26  1  0  0  0
  7 29  1  0  0  0
  8  9  1  0  0  0
  8 22  1  0  0  0
  9 10  1  0  0  0
  9 27  2  0  0  0
 10 11  2  0  0  0
 10 15  1  0  0  0
 11 12  1  0  0  0
 11 93  1  0  0  0
 12 13  2  0  0  0
 12 94  1  0  0  0
 13 14  1  0  0  0
 13 31  1  0  0  0
 14 15  2  0  0  0
 14 95  1  0  0  0
 15 96  1  0  0  0
 16 17  2  0  0  0
 16 21  1  0  0  0
 16 31  1  0  0  0
 17 18  1  0  0  0
 17 97  1  0  0  0
 18 19  2  0  0  0
 18 98  1  0  0  0
 19 20  1  0  0  0
 19 24  1  0  0  0
 20 21  2  0  0  0
 20 99  1  0  0  0
 21 23  1  0  0  0
 22 28  1  0  0  0
 22 32  2  0  0  0
 26 27  1  0  0  0
 28100  1  0  0  0
 28101  1  0  0  0
 29102  1  0  0  0
 29103  1  0  0  0
 33 34  1  0  0  0
 33 66  1  0  0  0
 33 70  2  0  0  0
 34 36  1  0  0  0
 34 59  1  0  0  0
 34104  1  0  0  0
 35 44  2  0  0  0
 35 45  1  0  0  0
 35 68  1  0  0  0
 36 56  1  0  0  0
 36105  1  0  0  0
 37 39  1  0  0  0
 37 47  1  0  0  0
 37 66  1  0  0  0
 37106  1  0  0  0
 38 43  2  0  0  0
 38 46  1  0  0  0
 38 47  1  0  0  0
 39 64  1  0  0  0
 39 67  2  0  0  0
 40 52  1  0  0  0
 40 53  2  0  0  0
 40 58  1  0  0  0
 41107  1  0  0  0
 41108  1  0  0  0
 41109  1  0  0  0
 41 48  1  0  0  0
 42 43  1  0  0  0
 42 66  1  0  0  0
 42110  1  0  0  0
 42111  1  0  0  0
 43 44  1  0  0  0
 44112  1  0  0  0
 45 46  2  0  0  0
 45113  1  0  0  0
 46114  1  0  0  0
 47115  1  0  0  0
 47116  1  0  0  0
 48 56  1  0  0  0
 48 65  1  0  0  0
 48117  1  0  0  0
 49 50  1  0  0  0
 49 53  1  0  0  0
 49 64  1  0  0  0
 49118  1  0  0  0
 50 51  1  0  0  0
 50119  1  0  0  0
 50120  1  0  0  0
 51 52  1  0  0  0
 51121  1  0  0  0
 51122  1  0  0  0
 52123  1  0  0  0
 52124  1  0  0  0
 53 54  1  0  0  0
 54 55  2  0  0  0
 54125  1  0  0  0
 55 57  1  0  0  0
 55126  1  0  0  0
 56 69  2  0  0  0
 57 58  2  0  0  0
 57127  1  0  0  0
 58128  1  0  0  0
 59 60  1  0  0  0
 59 61  1  0  0  0
 59 62  1  0  0  0
 60129  1  0  0  0
 60130  1  0  0  0
 60131  1  0  0  0
 61132  1  0  0  0
 61133  1  0  0  0
 61134  1  0  0  0
 62135  1  0  0  0
 62136  1  0  0  0
 62137  1  0  0  0
 63 65  1  0  0  0
 63138  1  0  0  0
 63139  1  0  0  0
 63140  1  0  0  0
 64141  1  0  0  0
 65142  1  0  0  0
 68 81  1  0  0  0
 71 72  2  0  0  0
 71 75  1  0  0  0
 71143  1  0  0  0
 72 76  1  0  0  0
 72144  1  0  0  0
 73 74  1  0  0  0
 73 76  2  0  0  0
 73145  1  0  0  0
 74 75  2  0  0  0
 74 77  1  0  0  0
 75 80  1  0  0  0
 76 82  1  0  0  0
 77 78  2  0  0  0
 77146  1  0  0  0
 78 79  1  0  0  0
 78147  1  0  0  0
 79 81  1  0  0  0
 79 83  2  0  0  0
 80148  1  0  0  0
 80149  1  0  0  0
 80150  1  0  0  0
 81151  1  0  0  0
 81152  1  0  0  0
 82153  1  0  0  0
M  ISO  4   1 100  68 101  81 101  82 100
M  END
> <chiral flag>
0

> <version>
0

> <s_m_source_file>
/data/baiqing/PycharmProjects/Reinvent-master-3.2/result/LINK_invent/BTK/process_docking_weight1_custom_product_contain_oxygen_bond_distance_aromatic_linkinvent_7_9_3/rearranged_h_0131.sdf

> <i_m_source_file_index>
92

> <r_mmod_Potential_Energy-OPLS-2005>
189.086654663086

> <r_mmod_Stretch_Energy-OPLS-2005>
127.108901977539

> <r_mmod_Bend_Energy-OPLS-2005>
155.250228881836

> <r_mmod_Torsional_Energy-OPLS-2005>
257.496765136719

> <r_mmod_Improper_Torsional_Energy-OPLS-2005>
7.88858795166016

> <r_mmod_Van_der_Waal_Energy-OPLS-2005>
140.42399597168

> <r_mmod_Electrostatic_Energy-OPLS-2005>
-352.946014404297

> <r_mmod_Solvation_Energy-OPLS-2005>
-230.413726806641

> <b_mmod_Minimization_Converged-OPLS-2005>
0

> <r_mmod_RMS_Derivative-OPLS-2005>
2.37896847724915

$$$$
92
                    3D
 Structure written by MMmdl.
151159  0  0  1  0            999 V2000
  -30.6572  -14.6838   20.3719 C   0  0  0  0  0  0
  -30.4348  -12.3950   19.4466 C   0  0  0  0  0  0
  -29.4981  -12.4391   18.2192 C   0  0  0  0  0  0
  -28.0232  -12.2768   18.6450 C   0  0  0  0  0  0
  -27.6283  -13.1847   19.8392 C   0  0  2  0  0  0
  -28.6967  -13.1714   20.9561 C   0  0  0  0  0  0
  -25.2544  -13.8051   20.5746 C   0  0  0  0  0  0
  -24.1787  -13.0372   20.9255 C   0  0  0  0  0  0
  -24.6323  -11.6833   20.8811 C   0  0  0  0  0  0
  -23.8994  -10.4250   21.0453 C   0  0  0  0  0  0
  -24.3563   -9.4168   21.9217 C   0  0  0  0  0  0
  -23.6255   -8.2201   22.0766 C   0  0  0  0  0  0
  -22.4244   -8.0248   21.3544 C   0  0  0  0  0  0
  -21.9871   -9.0220   20.4647 C   0  0  0  0  0  0
  -22.7187  -10.2104   20.3078 C   0  0  0  0  0  0
  -21.6833   -6.0716   22.5282 C   0  0  0  0  0  0
  -21.4003   -6.5632   23.8214 C   0  0  0  0  0  0
  -21.3658   -5.6792   24.9180 C   0  0  0  0  0  0
  -21.6043   -4.3054   24.7234 C   0  0  0  0  0  0
  -21.8821   -3.8139   23.4358 C   0  0  0  0  0  0
  -21.9185   -4.6948   22.3408 C   0  0  0  0  0  0
  -22.7823  -13.5208   21.1883 C   0  0  0  0  0  0
  -22.1657   -4.2135   21.0988 F   0  0  0  0  0  0
  -21.5629   -3.4542   25.7750 F   0  0  0  0  0  0
  -30.0087  -13.4703   20.3592 N   0  0  0  0  0  0
  -26.2892  -12.9128   20.3350 N   0  0  0  0  0  0
  -25.9233  -11.6336   20.5845 N   0  0  0  0  0  0
  -22.0439  -12.8216   22.0431 N   0  0  0  0  0  0
  -25.4325  -15.1767   20.4129 N   0  0  0  0  0  0
  -31.8858  -14.7537   20.3004 O   0  0  0  0  0  0
  -21.6612   -6.8850   21.4238 O   0  0  0  0  0  0
  -22.3544  -14.5520   20.6712 O   0  0  0  0  0  0
  -24.6238  -31.8625   23.2056 C   0  0  0  0  0  0
  -25.9100  -32.4795   23.8374 C   0  0  1  0  0  0
  -27.2279  -27.3453   20.1124 C   0  0  0  0  0  0
  -25.5933  -33.8595   24.2305 N   0  0  0  0  0  0
  -23.4161  -30.4878   21.5471 C   0  0  2  0  0  0
  -24.8633  -28.9493   20.1110 C   0  0  0  0  0  0
  -22.7465  -29.4642   22.4942 C   0  0  0  0  0  0
  -18.0287  -28.1386   22.8484 C   0  0  0  0  0  0
  -24.1492  -36.7301   23.2635 C   0  0  0  0  0  0
  -25.9556  -30.8023   21.3729 C   0  0  0  0  0  0
  -26.0312  -29.4321   20.7147 C   0  0  0  0  0  0
  -27.2161  -28.6415   20.7076 C   0  0  0  0  0  0
  -26.0363  -26.9144   19.4796 C   0  0  0  0  0  0
  -24.8666  -27.6947   19.4853 C   0  0  0  0  0  0
  -23.6302  -29.8259   20.1614 C   0  0  0  0  0  0
  -25.4115  -36.3095   24.0333 C   0  0  1  0  0  0
  -20.5884  -28.3691   23.1289 C   0  0  2  0  0  0
  -20.6779  -26.9417   22.5411 C   0  0  0  0  0  0
  -19.5758  -26.6389   21.5211 C   0  0  0  0  0  0
  -18.1933  -26.7932   22.1619 C   0  0  0  0  0  0
  -19.1538  -28.8852   23.2883 C   0  0  0  0  0  0
  -18.9461  -30.1454   23.8899 C   0  0  0  0  0  0
  -17.6461  -30.6588   24.0564 C   0  0  0  0  0  0
  -25.9048  -34.9461   23.5114 C   0  0  0  0  0  0
  -16.5352  -29.9087   23.6328 C   0  0  0  0  0  0
  -16.7274  -28.6506   23.0346 C   0  0  0  0  0  0
  -26.4494  -31.6584   25.0725 C   0  0  0  0  0  0
  -25.3738  -31.3697   26.1455 C   0  0  0  0  0  0
  -27.0329  -30.3015   24.6148 C   0  0  0  0  0  0
  -27.6064  -32.4298   25.7500 C   0  0  0  0  0  0
  -27.5587  -37.1806   24.8462 C   0  0  0  0  0  0
  -21.4181  -29.3049   22.3684 N   0  0  0  0  0  0
  -26.4297  -37.3789   23.9408 N   0  0  0  0  0  0
  -24.6837  -31.0664   22.0992 N   0  0  0  0  0  0
  -23.4199  -28.8174   23.3009 O   0  0  0  0  0  0
  -28.3493  -26.5070   20.1722 O   0  0  0  0  0  0
  -26.5607  -34.8924   22.4674 O   0  0  0  0  0  0
  -23.5407  -32.1414   23.7400 O   0  0  0  0  0  0
  -28.7469  -18.1496   20.3006 C   0  0  0  0  0  0
  -31.1305  -18.0638   20.5740 C   0  0  0  0  0  0
  -28.7554  -19.5642   20.4447 C   0  0  0  0  0  0
  -31.1399  -19.4836   20.7304 C   0  0  0  0  0  0
  -29.9305  -17.3534   20.3133 C   0  0  0  0  0  0
  -29.9643  -20.2774   20.6283 C   0  0  0  0  0  0
  -29.8471  -15.9123   19.7974 C   0  0  0  0  0  0
  -29.2222  -24.0747   20.4485 C   0  0  0  0  0  0
  -28.9152  -22.5299   20.4008 C   0  0  0  0  0  0
  -28.0939  -25.0648   19.9959 C   0  0  0  0  0  0
  -29.1518  -15.7780   18.7462 N   0  0  0  0  0  0
  -30.3198  -24.4961   20.8332 O   0  0  0  0  0  0
  -30.0642  -21.6780   20.7016 O   0  0  0  0  0  0
  -31.4730  -12.5130   19.1317 H   0  0  0  0  0  0
  -30.3741  -11.4272   19.9465 H   0  0  0  0  0  0
  -29.7676  -11.6497   17.5165 H   0  0  0  0  0  0
  -29.6300  -13.3756   17.6775 H   0  0  0  0  0  0
  -27.8781  -11.2315   18.9188 H   0  0  0  0  0  0
  -27.3627  -12.4604   17.7969 H   0  0  0  0  0  0
  -27.5542  -14.1788   19.4305 H   0  0  0  0  0  0
  -28.7253  -12.2003   21.4522 H   0  0  0  0  0  0
  -28.4514  -13.9056   21.7252 H   0  0  0  0  0  0
  -25.2708   -9.5647   22.4794 H   0  0  0  0  0  0
  -23.9966   -7.4586   22.7477 H   0  0  0  0  0  0
  -21.0811   -8.8732   19.8942 H   0  0  0  0  0  0
  -22.3654  -10.9648   19.6191 H   0  0  0  0  0  0
  -21.2002   -7.6140   23.9711 H   0  0  0  0  0  0
  -21.1480   -6.0526   25.9080 H   0  0  0  0  0  0
  -22.0604   -2.7602   23.2864 H   0  0  0  0  0  0
  -22.4028  -11.9865   22.4820 H   0  0  0  0  0  0
  -21.1061  -13.1261   22.2623 H   0  0  0  0  0  0
  -24.6727  -15.8412   20.5100 H   0  0  0  0  0  0
  -26.2893  -15.5947   20.0715 H   0  0  0  0  0  0
  -26.7168  -32.5481   23.1125 H   0  0  0  0  0  0
  -25.0104  -33.9751   25.0463 H   0  0  0  0  0  0
  -22.7082  -31.3074   21.4066 H   0  0  0  0  0  0
  -23.3763  -35.9625   23.3289 H   0  0  0  0  0  0
  -24.3584  -36.8927   22.2051 H   0  0  0  0  0  0
  -23.7241  -37.6498   23.6659 H   0  0  0  0  0  0
  -26.0819  -31.5680   20.6064 H   0  0  0  0  0  0
  -26.8378  -30.8512   21.9993 H   0  0  0  0  0  0
  -28.1109  -29.0073   21.1915 H   0  0  0  0  0  0
  -25.9755  -25.9609   18.9773 H   0  0  0  0  0  0
  -23.9723  -27.3210   19.0056 H   0  0  0  0  0  0
  -23.7489  -30.6040   19.4065 H   0  0  0  0  0  0
  -22.7507  -29.2551   19.8576 H   0  0  0  0  0  0
  -25.1291  -36.1950   25.0826 H   0  0  0  0  0  0
  -20.9978  -28.3268   24.1411 H   0  0  0  0  0  0
  -20.5686  -26.2298   23.3607 H   0  0  0  0  0  0
  -21.6651  -26.7455   22.1204 H   0  0  0  0  0  0
  -19.6921  -25.6301   21.1238 H   0  0  0  0  0  0
  -19.6696  -27.3200   20.6740 H   0  0  0  0  0  0
  -17.4208  -26.6684   21.4013 H   0  0  0  0  0  0
  -18.0327  -26.0069   22.9010 H   0  0  0  0  0  0
  -19.7938  -30.7269   24.2270 H   0  0  0  0  0  0
  -17.5018  -31.6267   24.5169 H   0  0  0  0  0  0
  -15.5353  -30.2989   23.7652 H   0  0  0  0  0  0
  -15.8675  -28.0828   22.7053 H   0  0  0  0  0  0
  -24.5945  -30.7004   25.7790 H   0  0  0  0  0  0
  -24.8888  -32.2846   26.4865 H   0  0  0  0  0  0
  -25.8083  -30.8904   27.0235 H   0  0  0  0  0  0
  -26.2889  -29.6769   24.1194 H   0  0  0  0  0  0
  -27.4063  -29.7262   25.4629 H   0  0  0  0  0  0
  -27.8743  -30.4310   23.9339 H   0  0  0  0  0  0
  -27.2698  -33.3608   26.2071 H   0  0  0  0  0  0
  -28.3889  -32.6830   25.0333 H   0  0  0  0  0  0
  -28.0713  -31.8414   26.5421 H   0  0  0  0  0  0
  -28.2594  -38.0114   24.7531 H   0  0  0  0  0  0
  -28.1096  -36.2647   24.6265 H   0  0  0  0  0  0
  -27.2304  -37.1427   25.8864 H   0  0  0  0  0  0
  -20.9348  -29.8780   21.6910 H   0  0  0  0  0  0
  -26.0180  -38.2862   24.1422 H   0  0  0  0  0  0
  -27.7953  -17.6749   20.1038 H   0  0  0  0  0  0
  -32.0722  -17.5326   20.5767 H   0  0  0  0  0  0
  -27.8141  -20.0894   20.3764 H   0  0  0  0  0  0
  -32.0882  -19.9796   20.8830 H   0  0  0  0  0  0
  -28.5337  -22.2846   19.4091 H   0  0  0  0  0  0
  -28.1178  -22.3199   21.1143 H   0  0  0  0  0  0
  -27.1969  -24.7890   20.5521 H   0  0  0  0  0  0
  -27.8914  -24.8692   18.9430 H   0  0  0  0  0  0
  -28.7552  -16.6662   18.4672 H   0  0  0  0  0  0
  1 25  1  0  0  0
  1 30  2  0  0  0
  1 77  1  0  0  0
  2  3  1  0  0  0
  2 25  1  0  0  0
  2 84  1  0  0  0
  2 85  1  0  0  0
  3  4  1  0  0  0
  3 86  1  0  0  0
  3 87  1  0  0  0
  4  5  1  0  0  0
  4 88  1  0  0  0
  4 89  1  0  0  0
  5  6  1  0  0  0
  5 26  1  0  0  0
  5 90  1  0  0  0
  6 25  1  0  0  0
  6 91  1  0  0  0
  6 92  1  0  0  0
  7  8  2  0  0  0
  7 26  1  0  0  0
  7 29  1  0  0  0
  8  9  1  0  0  0
  8 22  1  0  0  0
  9 10  1  0  0  0
  9 27  2  0  0  0
 10 11  2  0  0  0
 10 15  1  0  0  0
 11 12  1  0  0  0
 11 93  1  0  0  0
 12 13  2  0  0  0
 12 94  1  0  0  0
 13 14  1  0  0  0
 13 31  1  0  0  0
 14 15  2  0  0  0
 14 95  1  0  0  0
 15 96  1  0  0  0
 16 17  2  0  0  0
 16 21  1  0  0  0
 16 31  1  0  0  0
 17 18  1  0  0  0
 17 97  1  0  0  0
 18 19  2  0  0  0
 18 98  1  0  0  0
 19 20  1  0  0  0
 19 24  1  0  0  0
 20 21  2  0  0  0
 20 99  1  0  0  0
 21 23  1  0  0  0
 22 28  1  0  0  0
 22 32  2  0  0  0
 26 27  1  0  0  0
 28100  1  0  0  0
 28101  1  0  0  0
 29102  1  0  0  0
 29103  1  0  0  0
 33 34  1  0  0  0
 33 66  1  0  0  0
 33 70  2  0  0  0
 34 36  1  0  0  0
 34 59  1  0  0  0
 34104  1  0  0  0
 35 44  2  0  0  0
 35 45  1  0  0  0
 35 68  1  0  0  0
 36 56  1  0  0  0
 36105  1  0  0  0
 37 39  1  0  0  0
 37 47  1  0  0  0
 37 66  1  0  0  0
 37106  1  0  0  0
 38 43  2  0  0  0
 38 46  1  0  0  0
 38 47  1  0  0  0
 39 64  1  0  0  0
 39 67  2  0  0  0
 40 52  1  0  0  0
 40 53  2  0  0  0
 40 58  1  0  0  0
 41107  1  0  0  0
 41108  1  0  0  0
 41109  1  0  0  0
 41 48  1  0  0  0
 42 43  1  0  0  0
 42 66  1  0  0  0
 42110  1  0  0  0
 42111  1  0  0  0
 43 44  1  0  0  0
 44112  1  0  0  0
 45 46  2  0  0  0
 45113  1  0  0  0
 46114  1  0  0  0
 47115  1  0  0  0
 47116  1  0  0  0
 48 56  1  0  0  0
 48 65  1  0  0  0
 48117  1  0  0  0
 49 50  1  0  0  0
 49 53  1  0  0  0
 49 64  1  0  0  0
 49118  1  0  0  0
 50 51  1  0  0  0
 50119  1  0  0  0
 50120  1  0  0  0
 51 52  1  0  0  0
 51121  1  0  0  0
 51122  1  0  0  0
 52123  1  0  0  0
 52124  1  0  0  0
 53 54  1  0  0  0
 54 55  2  0  0  0
 54125  1  0  0  0
 55 57  1  0  0  0
 55126  1  0  0  0
 56 69  2  0  0  0
 57 58  2  0  0  0
 57127  1  0  0  0
 58128  1  0  0  0
 59 60  1  0  0  0
 59 61  1  0  0  0
 59 62  1  0  0  0
 60129  1  0  0  0
 60130  1  0  0  0
 60131  1  0  0  0
 61132  1  0  0  0
 61133  1  0  0  0
 61134  1  0  0  0
 62135  1  0  0  0
 62136  1  0  0  0
 62137  1  0  0  0
 63 65  1  0  0  0
 63138  1  0  0  0
 63139  1  0  0  0
 63140  1  0  0  0
 64141  1  0  0  0
 65142  1  0  0  0
 68 80  1  0  0  0
 71 73  2  0  0  0
 71 75  1  0  0  0
 71143  1  0  0  0
 72 74  1  0  0  0
 72 75  2  0  0  0
 72144  1  0  0  0
 73 76  1  0  0  0
 73145  1  0  0  0
 74 76  2  0  0  0
 74146  1  0  0  0
 75 77  1  0  0  0
 76 83  1  0  0  0
 77 81  2  0  0  0
 78 79  1  0  0  0
 78 80  1  0  0  0
 78 82  2  0  0  0
 79 83  1  0  0  0
 79147  1  0  0  0
 79148  1  0  0  0
 80149  1  0  0  0
 80150  1  0  0  0
 81151  1  0  0  0
M  ISO  4   1 100  68 101  77 100  80 101
M  END
> <chiral flag>
0

> <version>
0

> <s_m_source_file>
/data/baiqing/PycharmProjects/Reinvent-master-3.2/result/LINK_invent/BTK/process_docking_weight1_custom_product_contain_oxygen_bond_distance_aromatic_linkinvent_7_9_3/rearranged_h_0131.sdf

> <i_m_source_file_index>
93

> <r_mmod_Potential_Energy-OPLS-2005>
291.454650878906

> <r_mmod_Stretch_Energy-OPLS-2005>
77.5182189941406

> <r_mmod_Bend_Energy-OPLS-2005>
140.44108581543

> <r_mmod_Torsional_Energy-OPLS-2005>
244.769775390625

> <r_mmod_Improper_Torsional_Energy-OPLS-2005>
22.9876766204834

> <r_mmod_Van_der_Waal_Energy-OPLS-2005>
155.541244506836

> <r_mmod_Electrostatic_Energy-OPLS-2005>
-179.439071655273

> <r_mmod_Solvation_Energy-OPLS-2005>
-237.828491210938

> <b_mmod_Minimization_Converged-OPLS-2005>
0

> <r_mmod_RMS_Derivative-OPLS-2005>
0.665044248104095

$$$$
93
                    3D
 Structure written by MMmdl.
163172  0  0  1  0            999 V2000
  -30.7557  -14.4363   20.5775 C   0  0  0  0  0  0
  -30.3997  -12.2848   19.4410 C   0  0  0  0  0  0
  -29.4917  -12.5070   18.2150 C   0  0  0  0  0  0
  -28.0123  -12.3765   18.6208 C   0  0  0  0  0  0
  -27.6568  -13.2162   19.8786 C   0  0  2  0  0  0
  -28.6948  -13.0086   21.0052 C   0  0  0  0  0  0
  -25.2566  -13.8173   20.5704 C   0  0  0  0  0  0
  -24.1819  -13.0450   20.9164 C   0  0  0  0  0  0
  -24.6366  -11.6917   20.8712 C   0  0  0  0  0  0
  -23.9033  -10.4290   21.0391 C   0  0  0  0  0  0
  -24.3589   -9.4203   21.9180 C   0  0  0  0  0  0
  -23.6291   -8.2213   22.0737 C   0  0  0  0  0  0
  -22.4279   -8.0232   21.3533 C   0  0  0  0  0  0
  -21.9893   -9.0209   20.4644 C   0  0  0  0  0  0
  -22.7214  -10.2108   20.3038 C   0  0  0  0  0  0
  -21.6845   -6.0702   22.5279 C   0  0  0  0  0  0
  -21.4005   -6.5620   23.8209 C   0  0  0  0  0  0
  -21.3668   -5.6788   24.9184 C   0  0  0  0  0  0
  -21.6053   -4.3038   24.7242 C   0  0  0  0  0  0
  -21.8825   -3.8107   23.4375 C   0  0  0  0  0  0
  -21.9197   -4.6923   22.3422 C   0  0  0  0  0  0
  -22.7854  -13.5253   21.1833 C   0  0  0  0  0  0
  -22.1675   -4.2107   21.1010 F   0  0  0  0  0  0
  -21.5638   -3.4538   25.7754 F   0  0  0  0  0  0
  -30.0281  -13.2886   20.4541 N   0  0  0  0  0  0
  -26.2986  -12.9364   20.3383 N   0  0  0  0  0  0
  -25.9288  -11.6508   20.5746 N   0  0  0  0  0  0
  -22.0503  -12.8234   22.0389 N   0  0  0  0  0  0
  -25.4310  -15.1891   20.4159 N   0  0  0  0  0  0
  -31.8855  -14.5169   20.0886 O   0  0  0  0  0  0
  -21.6649   -6.8832   21.4234 O   0  0  0  0  0  0
  -22.3547  -14.5566   20.6690 O   0  0  0  0  0  0
  -24.6137  -31.8693   23.2095 C   0  0  0  0  0  0
  -25.9015  -32.4833   23.8417 C   0  0  1  0  0  0
  -27.2392  -27.4405   20.0920 C   0  0  0  0  0  0
  -25.5860  -33.8639   24.2326 N   0  0  0  0  0  0
  -23.4027  -30.4927   21.5497 C   0  0  2  0  0  0
  -24.8511  -28.9617   20.1142 C   0  0  0  0  0  0
  -22.7404  -29.4679   22.4992 C   0  0  0  0  0  0
  -18.0263  -28.1390   22.8499 C   0  0  0  0  0  0
  -24.1470  -36.7316   23.2643 C   0  0  0  0  0  0
  -25.9333  -30.8352   21.3664 C   0  0  0  0  0  0
  -26.0117  -29.4731   20.7081 C   0  0  0  0  0  0
  -27.2089  -28.7206   20.6941 C   0  0  0  0  0  0
  -26.0580  -26.9510   19.4831 C   0  0  0  0  0  0
  -24.8681  -27.6987   19.5005 C   0  0  0  0  0  0
  -23.6113  -29.8236   20.1648 C   0  0  0  0  0  0
  -25.4087  -36.3132   24.0355 C   0  0  1  0  0  0
  -20.5852  -28.3680   23.1319 C   0  0  2  0  0  0
  -20.6746  -26.9424   22.5420 C   0  0  0  0  0  0
  -19.5727  -26.6399   21.5213 C   0  0  0  0  0  0
  -18.1899  -26.7941   22.1624 C   0  0  0  0  0  0
  -19.1517  -28.8845   23.2907 C   0  0  0  0  0  0
  -18.9453  -30.1450   23.8925 C   0  0  0  0  0  0
  -17.6456  -30.6594   24.0580 C   0  0  0  0  0  0
  -25.9026  -34.9498   23.5138 C   0  0  0  0  0  0
  -16.5346  -29.9102   23.6333 C   0  0  0  0  0  0
  -16.7255  -28.6522   23.0346 C   0  0  0  0  0  0
  -26.4432  -31.6631   25.0763 C   0  0  0  0  0  0
  -25.3705  -31.3735   26.1515 C   0  0  0  0  0  0
  -27.0259  -30.3068   24.6173 C   0  0  0  0  0  0
  -27.6015  -32.4363   25.7506 C   0  0  0  0  0  0
  -27.5591  -37.1782   24.8441 C   0  0  0  0  0  0
  -21.4127  -29.3044   22.3721 N   0  0  0  0  0  0
  -26.4253  -37.3838   23.9462 N   0  0  0  0  0  0
  -24.6680  -31.0787   22.0999 N   0  0  0  0  0  0
  -23.4178  -28.8239   23.3051 O   0  0  0  0  0  0
  -28.3950  -26.6831   20.1307 O   0  0  0  0  0  0
  -26.5605  -34.8961   22.4708 O   0  0  0  0  0  0
  -23.5325  -32.1436   23.7472 O   0  0  0  0  0  0
  -29.8254  -18.8772   20.6314 C   0  0  0  0  0  0
  -31.0296  -18.7543   22.7390 C   0  0  0  0  0  0
  -29.8217  -20.2818   20.7178 C   0  0  0  0  0  0
  -30.9965  -20.1610   22.8430 C   0  0  0  0  0  0
  -30.4765  -18.1083   21.6153 C   0  0  0  0  0  0
  -30.4281  -20.9405   21.8123 C   0  0  0  0  0  0
  -29.4102  -24.4730   20.7764 C   0  0  0  0  0  0
  -29.3309  -23.2940   21.4544 C   0  0  0  0  0  0
  -30.8629  -16.7312   21.2963 C   0  0  0  0  0  0
  -30.0986  -15.6246   21.1301 C   0  0  0  0  0  0
  -30.7470  -25.0430   20.3027 C   0  0  0  0  0  0
  -31.9762  -24.3947   20.9627 C   0  0  0  0  0  0
  -31.8344  -22.8761   21.0446 C   0  0  0  0  0  0
  -30.5765  -22.4677   21.8341 C   0  0  2  0  0  0
  -28.0174  -22.6630   21.9178 C   0  0  0  0  0  0
  -28.1753  -25.2763   20.3408 C   0  0  0  0  0  0
  -31.4495  -12.3341   19.1476 H   0  0  0  0  0  0
  -30.2605  -11.2790   19.8403 H   0  0  0  0  0  0
  -29.7345  -11.7841   17.4361 H   0  0  0  0  0  0
  -29.6746  -13.4950   17.7878 H   0  0  0  0  0  0
  -27.8158  -11.3214   18.8138 H   0  0  0  0  0  0
  -27.3646  -12.6579   17.7889 H   0  0  0  0  0  0
  -27.6971  -14.2650   19.5838 H   0  0  0  0  0  0
  -28.6546  -11.9814   21.3641 H   0  0  0  0  0  0
  -28.4615  -13.6203   21.8771 H   0  0  0  0  0  0
  -25.2725   -9.5699   22.4767 H   0  0  0  0  0  0
  -24.0028   -7.4594   22.7445 H   0  0  0  0  0  0
  -21.0819   -8.8692   19.8968 H   0  0  0  0  0  0
  -22.3644  -10.9611   19.6120 H   0  0  0  0  0  0
  -21.1972   -7.6126   23.9705 H   0  0  0  0  0  0
  -21.1512   -6.0515   25.9093 H   0  0  0  0  0  0
  -22.0598   -2.7565   23.2881 H   0  0  0  0  0  0
  -22.4136  -11.9922   22.4801 H   0  0  0  0  0  0
  -21.1091  -13.1212   22.2553 H   0  0  0  0  0  0
  -24.6735  -15.8528   20.5351 H   0  0  0  0  0  0
  -26.3017  -15.6267   20.1366 H   0  0  0  0  0  0
  -26.7106  -32.5544   23.1213 H   0  0  0  0  0  0
  -24.9985  -33.9833   25.0445 H   0  0  0  0  0  0
  -22.6929  -31.3104   21.4065 H   0  0  0  0  0  0
  -23.3788  -35.9578   23.3214 H   0  0  0  0  0  0
  -24.3622  -36.9018   22.2083 H   0  0  0  0  0  0
  -23.7127  -37.6457   23.6706 H   0  0  0  0  0  0
  -26.0492  -31.6071   20.6041 H   0  0  0  0  0  0
  -26.8181  -30.8822   21.9900 H   0  0  0  0  0  0
  -28.1007  -29.1069   21.1673 H   0  0  0  0  0  0
  -26.0344  -25.9905   18.9901 H   0  0  0  0  0  0
  -23.9761  -27.2982   19.0366 H   0  0  0  0  0  0
  -23.7203  -30.5948   19.4020 H   0  0  0  0  0  0
  -22.7381  -29.2394   19.8681 H   0  0  0  0  0  0
  -25.1243  -36.1988   25.0839 H   0  0  0  0  0  0
  -20.9950  -28.3246   24.1442 H   0  0  0  0  0  0
  -20.5634  -26.2307   23.3612 H   0  0  0  0  0  0
  -21.6618  -26.7459   22.1224 H   0  0  0  0  0  0
  -19.6889  -25.6310   21.1241 H   0  0  0  0  0  0
  -19.6662  -27.3216   20.6751 H   0  0  0  0  0  0
  -17.4178  -26.6716   21.4017 H   0  0  0  0  0  0
  -18.0288  -26.0073   22.9007 H   0  0  0  0  0  0
  -19.7932  -30.7245   24.2321 H   0  0  0  0  0  0
  -17.5019  -31.6281   24.5171 H   0  0  0  0  0  0
  -15.5342  -30.3015   23.7650 H   0  0  0  0  0  0
  -15.8654  -28.0857   22.7037 H   0  0  0  0  0  0
  -24.5852  -30.7116   25.7851 H   0  0  0  0  0  0
  -24.8925  -32.2881   26.5030 H   0  0  0  0  0  0
  -25.8054  -30.8856   27.0243 H   0  0  0  0  0  0
  -26.2811  -29.6859   24.1179 H   0  0  0  0  0  0
  -27.3941  -29.7301   25.4669 H   0  0  0  0  0  0
  -27.8689  -30.4386   23.9388 H   0  0  0  0  0  0
  -27.2639  -33.3665   26.2091 H   0  0  0  0  0  0
  -28.3792  -32.6922   25.0299 H   0  0  0  0  0  0
  -28.0703  -31.8485   26.5407 H   0  0  0  0  0  0
  -28.2505  -38.0190   24.7672 H   0  0  0  0  0  0
  -28.1183  -36.2740   24.5985 H   0  0  0  0  0  0
  -27.2376  -37.1093   25.8851 H   0  0  0  0  0  0
  -20.9283  -29.8786   21.6962 H   0  0  0  0  0  0
  -26.0139  -38.2888   24.1573 H   0  0  0  0  0  0
  -29.4232  -18.3976   19.7498 H   0  0  0  0  0  0
  -31.5608  -18.1802   23.4855 H   0  0  0  0  0  0
  -29.3917  -20.8560   19.9078 H   0  0  0  0  0  0
  -31.4826  -20.6396   23.6826 H   0  0  0  0  0  0
  -31.9239  -16.6649   21.0963 H   0  0  0  0  0  0
  -29.0424  -15.6528   21.3500 H   0  0  0  0  0  0
  -30.7864  -26.1175   20.4835 H   0  0  0  0  0  0
  -30.7928  -24.9121   19.2200 H   0  0  0  0  0  0
  -32.1122  -24.7986   21.9676 H   0  0  0  0  0  0
  -32.8802  -24.6545   20.4081 H   0  0  0  0  0  0
  -32.7225  -22.4496   21.5154 H   0  0  0  0  0  0
  -31.8003  -22.4616   20.0363 H   0  0  0  0  0  0
  -30.7612  -22.7340   22.8758 H   0  0  0  0  0  0
  -27.1296  -23.2777   21.8040 H   0  0  0  0  0  0
  -28.0962  -22.3980   22.9724 H   0  0  0  0  0  0
  -27.8136  -21.7516   21.3621 H   0  0  0  0  0  0
  -27.3931  -25.1872   21.0945 H   0  0  0  0  0  0
  -27.8172  -24.8120   19.4207 H   0  0  0  0  0  0
  1 25  1  0  0  0
  1 30  2  0  0  0
  1 80  1  0  0  0
  2  3  1  0  0  0
  2 25  1  0  0  0
  2 87  1  0  0  0
  2 88  1  0  0  0
  3  4  1  0  0  0
  3 89  1  0  0  0
  3 90  1  0  0  0
  4  5  1  0  0  0
  4 91  1  0  0  0
  4 92  1  0  0  0
  5  6  1  0  0  0
  5 26  1  0  0  0
  5 93  1  0  0  0
  6 25  1  0  0  0
  6 94  1  0  0  0
  6 95  1  0  0  0
  7  8  2  0  0  0
  7 26  1  0  0  0
  7 29  1  0  0  0
  8  9  1  0  0  0
  8 22  1  0  0  0
  9 10  1  0  0  0
  9 27  2  0  0  0
 10 11  2  0  0  0
 10 15  1  0  0  0
 11 12  1  0  0  0
 11 96  1  0  0  0
 12 13  2  0  0  0
 12 97  1  0  0  0
 13 14  1  0  0  0
 13 31  1  0  0  0
 14 15  2  0  0  0
 14 98  1  0  0  0
 15 99  1  0  0  0
 16 17  2  0  0  0
 16 21  1  0  0  0
 16 31  1  0  0  0
 17 18  1  0  0  0
 17100  1  0  0  0
 18 19  2  0  0  0
 18101  1  0  0  0
 19 20  1  0  0  0
 19 24  1  0  0  0
 20 21  2  0  0  0
 20102  1  0  0  0
 21 23  1  0  0  0
 22 28  1  0  0  0
 22 32  2  0  0  0
 26 27  1  0  0  0
 28103  1  0  0  0
 28104  1  0  0  0
 29105  1  0  0  0
 29106  1  0  0  0
 33 34  1  0  0  0
 33 66  1  0  0  0
 33 70  2  0  0  0
 34 36  1  0  0  0
 34 59  1  0  0  0
 34107  1  0  0  0
 35 44  2  0  0  0
 35 45  1  0  0  0
 35 68  1  0  0  0
 36 56  1  0  0  0
 36108  1  0  0  0
 37 39  1  0  0  0
 37 47  1  0  0  0
 37 66  1  0  0  0
 37109  1  0  0  0
 38 43  2  0  0  0
 38 46  1  0  0  0
 38 47  1  0  0  0
 39 64  1  0  0  0
 39 67  2  0  0  0
 40 52  1  0  0  0
 40 53  2  0  0  0
 40 58  1  0  0  0
 41110  1  0  0  0
 41111  1  0  0  0
 41112  1  0  0  0
 41 48  1  0  0  0
 42 43  1  0  0  0
 42 66  1  0  0  0
 42113  1  0  0  0
 42114  1  0  0  0
 43 44  1  0  0  0
 44115  1  0  0  0
 45 46  2  0  0  0
 45116  1  0  0  0
 46117  1  0  0  0
 47118  1  0  0  0
 47119  1  0  0  0
 48 56  1  0  0  0
 48 65  1  0  0  0
 48120  1  0  0  0
 49 50  1  0  0  0
 49 53  1  0  0  0
 49 64  1  0  0  0
 49121  1  0  0  0
 50 51  1  0  0  0
 50122  1  0  0  0
 50123  1  0  0  0
 51 52  1  0  0  0
 51124  1  0  0  0
 51125  1  0  0  0
 52126  1  0  0  0
 52127  1  0  0  0
 53 54  1  0  0  0
 54 55  2  0  0  0
 54128  1  0  0  0
 55 57  1  0  0  0
 55129  1  0  0  0
 56 69  2  0  0  0
 57 58  2  0  0  0
 57130  1  0  0  0
 58131  1  0  0  0
 59 60  1  0  0  0
 59 61  1  0  0  0
 59 62  1  0  0  0
 60132  1  0  0  0
 60133  1  0  0  0
 60134  1  0  0  0
 61135  1  0  0  0
 61136  1  0  0  0
 61137  1  0  0  0
 62138  1  0  0  0
 62139  1  0  0  0
 62140  1  0  0  0
 63 65  1  0  0  0
 63141  1  0  0  0
 63142  1  0  0  0
 63143  1  0  0  0
 64144  1  0  0  0
 65145  1  0  0  0
 68 86  1  0  0  0
 71 73  2  0  0  0
 71 75  1  0  0  0
 71146  1  0  0  0
 72 74  1  0  0  0
 72 75  2  0  0  0
 72147  1  0  0  0
 73 76  1  0  0  0
 73148  1  0  0  0
 74 76  2  0  0  0
 74149  1  0  0  0
 75 79  1  0  0  0
 76 84  1  0  0  0
 77 78  2  0  0  0
 77 81  1  0  0  0
 77 86  1  0  0  0
 78 84  1  0  0  0
 78 85  1  0  0  0
 79 80  2  0  0  0
 79150  1  0  0  0
 80151  1  0  0  0
 81 82  1  0  0  0
 81152  1  0  0  0
 81153  1  0  0  0
 82 83  1  0  0  0
 82154  1  0  0  0
 82155  1  0  0  0
 83 84  1  0  0  0
 83156  1  0  0  0
 83157  1  0  0  0
 84158  1  0  0  0
 85159  1  0  0  0
 85160  1  0  0  0
 85161  1  0  0  0
 86162  1  0  0  0
 86163  1  0  0  0
M  ISO  4   1 100  68 101  80 100  86 101
M  END
> <chiral flag>
0

> <version>
0

> <s_m_source_file>
/data/baiqing/PycharmProjects/Reinvent-master-3.2/result/LINK_invent/BTK/process_docking_weight1_custom_product_contain_oxygen_bond_distance_aromatic_linkinvent_7_9_3/rearranged_h_0131.sdf

> <i_m_source_file_index>
94

> <r_mmod_Potential_Energy-OPLS-2005>
71.8494873046875

> <r_mmod_Stretch_Energy-OPLS-2005>
39.7479934692383

> <r_mmod_Bend_Energy-OPLS-2005>
108.067153930664

> <r_mmod_Torsional_Energy-OPLS-2005>
229.400192260742

> <r_mmod_Improper_Torsional_Energy-OPLS-2005>
7.9210319519043

> <r_mmod_Van_der_Waal_Energy-OPLS-2005>
179.194320678711

> <r_mmod_Electrostatic_Energy-OPLS-2005>
-326.599273681641

> <r_mmod_Solvation_Energy-OPLS-2005>
-181.24104309082

> <b_mmod_Minimization_Converged-OPLS-2005>
0

> <r_mmod_RMS_Derivative-OPLS-2005>
3.85840725898743

$$$$
94
                    3D
 Structure written by MMmdl.
163171  0  0  1  0            999 V2000
  -30.6676  -14.4931   20.5020 C   0  0  0  0  0  0
  -30.4129  -12.2942   19.4394 C   0  0  0  0  0  0
  -29.4976  -12.5105   18.2139 C   0  0  0  0  0  0
  -28.0102  -12.3938   18.6109 C   0  0  0  0  0  0
  -27.6543  -13.2149   19.8823 C   0  0  2  0  0  0
  -28.6985  -12.9838   20.9969 C   0  0  0  0  0  0
  -25.2536  -13.8140   20.5722 C   0  0  0  0  0  0
  -24.1822  -13.0383   20.9213 C   0  0  0  0  0  0
  -24.6410  -11.6864   20.8813 C   0  0  0  0  0  0
  -23.9086  -10.4237   21.0449 C   0  0  0  0  0  0
  -24.3616   -9.4148   21.9231 C   0  0  0  0  0  0
  -23.6270   -8.2196   22.0773 C   0  0  0  0  0  0
  -22.4256   -8.0251   21.3554 C   0  0  0  0  0  0
  -21.9910   -9.0226   20.4665 C   0  0  0  0  0  0
  -22.7254  -10.2088   20.3094 C   0  0  0  0  0  0
  -21.6817   -6.0728   22.5270 C   0  0  0  0  0  0
  -21.4000   -6.5654   23.8205 C   0  0  0  0  0  0
  -21.3666   -5.6836   24.9189 C   0  0  0  0  0  0
  -21.6033   -4.3081   24.7248 C   0  0  0  0  0  0
  -21.8805   -3.8158   23.4384 C   0  0  0  0  0  0
  -21.9178   -4.6966   22.3424 C   0  0  0  0  0  0
  -22.7829  -13.5145   21.1864 C   0  0  0  0  0  0
  -22.1640   -4.2157   21.1004 F   0  0  0  0  0  0
  -21.5640   -3.4573   25.7767 F   0  0  0  0  0  0
  -30.0274  -13.2915   20.4497 N   0  0  0  0  0  0
  -26.2997  -12.9328   20.3452 N   0  0  0  0  0  0
  -25.9341  -11.6460   20.5857 N   0  0  0  0  0  0
  -22.0520  -12.8102   22.0437 N   0  0  0  0  0  0
  -25.4211  -15.1850   20.4046 N   0  0  0  0  0  0
  -31.8347  -14.6202   20.1202 O   0  0  0  0  0  0
  -21.6620   -6.8855   21.4226 O   0  0  0  0  0  0
  -22.3498  -14.5452   20.6732 O   0  0  0  0  0  0
  -24.6123  -31.8694   23.2116 C   0  0  0  0  0  0
  -25.9040  -32.4810   23.8395 C   0  0  1  0  0  0
  -27.2352  -27.4754   20.0700 C   0  0  0  0  0  0
  -25.5894  -33.8605   24.2320 N   0  0  0  0  0  0
  -23.3932  -30.4958   21.5538 C   0  0  2  0  0  0
  -24.8348  -28.9641   20.1187 C   0  0  0  0  0  0
  -22.7369  -29.4689   22.5034 C   0  0  0  0  0  0
  -18.0263  -28.1362   22.8500 C   0  0  0  0  0  0
  -24.1489  -36.7320   23.2633 C   0  0  0  0  0  0
  -25.9183  -30.8478   21.3565 C   0  0  0  0  0  0
  -25.9936  -29.4857   20.7049 C   0  0  0  0  0  0
  -27.1942  -28.7463   20.6798 C   0  0  0  0  0  0
  -26.0483  -26.9510   19.5011 C   0  0  0  0  0  0
  -24.8549  -27.6931   19.5203 C   0  0  0  0  0  0
  -23.5961  -29.8262   20.1685 C   0  0  0  0  0  0
  -25.4108  -36.3097   24.0326 C   0  0  1  0  0  0
  -20.5849  -28.3637   23.1339 C   0  0  2  0  0  0
  -20.6755  -26.9375   22.5430 C   0  0  0  0  0  0
  -19.5733  -26.6378   21.5211 C   0  0  0  0  0  0
  -18.1907  -26.7917   22.1613 C   0  0  0  0  0  0
  -19.1510  -28.8815   23.2923 C   0  0  0  0  0  0
  -18.9446  -30.1430   23.8926 C   0  0  0  0  0  0
  -17.6449  -30.6573   24.0567 C   0  0  0  0  0  0
  -25.9029  -34.9462   23.5119 C   0  0  0  0  0  0
  -16.5345  -29.9076   23.6330 C   0  0  0  0  0  0
  -16.7257  -28.6497   23.0353 C   0  0  0  0  0  0
  -26.4486  -31.6569   25.0706 C   0  0  0  0  0  0
  -25.3758  -31.3652   26.1453 C   0  0  0  0  0  0
  -27.0332  -30.3027   24.6043 C   0  0  0  0  0  0
  -27.6047  -32.4297   25.7494 C   0  0  0  0  0  0
  -27.5585  -37.1815   24.8466 C   0  0  0  0  0  0
  -21.4109  -29.3022   22.3757 N   0  0  0  0  0  0
  -26.4292  -37.3789   23.9415 N   0  0  0  0  0  0
  -24.6600  -31.0853   22.0992 N   0  0  0  0  0  0
  -23.4165  -28.8233   23.3051 O   0  0  0  0  0  0
  -28.4466  -26.8196   20.0538 O   0  0  0  0  0  0
  -26.5597  -34.8915   22.4684 O   0  0  0  0  0  0
  -23.5335  -32.1442   23.7545 O   0  0  0  0  0  0
  -29.6418  -18.9576   18.9972 C   0  0  0  0  0  0
  -29.1382  -20.2663   18.8754 C   0  0  0  0  0  0
  -27.8746  -19.9337   20.9135 C   0  0  0  0  0  0
  -29.2948  -18.1123   20.0819 C   0  0  0  0  0  0
  -28.2633  -20.7632   19.8488 C   0  0  0  0  0  0
  -28.3621  -18.6069   21.0456 C   0  0  0  0  0  0
  -29.9716  -16.7790   20.0639 C   0  0  0  0  0  0
  -29.8230  -15.6534   20.8082 C   0  0  0  0  0  0
  -28.1808  -24.5145   20.7937 C   0  0  0  0  0  0
  -25.5216  -18.5203   22.8816 C   0  0  0  0  0  0
  -27.7832  -22.2007   19.8008 C   0  0  0  0  0  0
  -27.9073  -17.7555   22.2296 C   0  0  0  0  0  0
  -28.6738  -23.0793   20.6889 C   0  0  0  0  0  0
  -28.5186  -25.4592   19.6317 C   0  0  0  0  0  0
  -27.0005  -18.4193   23.2881 C   0  0  0  0  0  0
  -27.5610  -24.8883   21.7948 O   0  0  0  0  0  0
  -31.4642  -12.3729   19.1525 H   0  0  0  0  0  0
  -30.2872  -11.2875   19.8402 H   0  0  0  0  0  0
  -29.7286  -11.7879   17.4322 H   0  0  0  0  0  0
  -29.6869  -13.4954   17.7839 H   0  0  0  0  0  0
  -27.7887  -11.3405   18.7785 H   0  0  0  0  0  0
  -27.3798  -12.7051   17.7801 H   0  0  0  0  0  0
  -27.6901  -14.2673   19.6027 H   0  0  0  0  0  0
  -28.6721  -11.9430   21.3219 H   0  0  0  0  0  0
  -28.4744  -13.5638   21.8935 H   0  0  0  0  0  0
  -25.2765   -9.5562   22.4838 H   0  0  0  0  0  0
  -23.9957   -7.4549   22.7457 H   0  0  0  0  0  0
  -21.0868   -8.8710   19.8955 H   0  0  0  0  0  0
  -22.3727  -10.9620   19.6201 H   0  0  0  0  0  0
  -21.1995   -7.6159   23.9684 H   0  0  0  0  0  0
  -21.1512   -6.0609   25.9083 H   0  0  0  0  0  0
  -22.0597   -2.7621   23.2904 H   0  0  0  0  0  0
  -22.4167  -11.9769   22.4810 H   0  0  0  0  0  0
  -21.1131  -13.1060   22.2651 H   0  0  0  0  0  0
  -24.6475  -15.8342   20.4919 H   0  0  0  0  0  0
  -26.2678  -15.6173   20.0555 H   0  0  0  0  0  0
  -26.7112  -32.5546   23.1165 H   0  0  0  0  0  0
  -25.0042  -33.9763   25.0464 H   0  0  0  0  0  0
  -22.6797  -31.3121   21.4152 H   0  0  0  0  0  0
  -23.3729  -35.9677   23.3291 H   0  0  0  0  0  0
  -24.3585  -36.8947   22.2051 H   0  0  0  0  0  0
  -23.7258  -37.6525   23.6661 H   0  0  0  0  0  0
  -26.0252  -31.6145   20.5893 H   0  0  0  0  0  0
  -26.8084  -30.9011   21.9707 H   0  0  0  0  0  0
  -28.0942  -29.1548   21.1210 H   0  0  0  0  0  0
  -26.0143  -25.9797   19.0336 H   0  0  0  0  0  0
  -23.9603  -27.2789   19.0761 H   0  0  0  0  0  0
  -23.6963  -30.5972   19.4024 H   0  0  0  0  0  0
  -22.7217  -29.2402   19.8807 H   0  0  0  0  0  0
  -25.1285  -36.1959   25.0821 H   0  0  0  0  0  0
  -20.9940  -28.3191   24.1456 H   0  0  0  0  0  0
  -20.5646  -26.2239   23.3601 H   0  0  0  0  0  0
  -21.6638  -26.7418   22.1233 H   0  0  0  0  0  0
  -19.6897  -25.6295   21.1219 H   0  0  0  0  0  0
  -19.6684  -27.3213   20.6754 H   0  0  0  0  0  0
  -17.4188  -26.6689   21.4004 H   0  0  0  0  0  0
  -18.0292  -26.0051   22.8991 H   0  0  0  0  0  0
  -19.7928  -30.7250   24.2307 H   0  0  0  0  0  0
  -17.5004  -31.6261   24.5152 H   0  0  0  0  0  0
  -15.5350  -30.2985   23.7644 H   0  0  0  0  0  0
  -15.8656  -28.0829   22.7041 H   0  0  0  0  0  0
  -24.5912  -30.7033   25.7774 H   0  0  0  0  0  0
  -24.8986  -32.2805   26.4963 H   0  0  0  0  0  0
  -25.8118  -30.8759   27.0169 H   0  0  0  0  0  0
  -26.2873  -29.6762   24.1132 H   0  0  0  0  0  0
  -27.4174  -29.7278   25.4479 H   0  0  0  0  0  0
  -27.8672  -30.4374   23.9147 H   0  0  0  0  0  0
  -27.2633  -33.3562   26.2131 H   0  0  0  0  0  0
  -28.3845  -32.6908   25.0325 H   0  0  0  0  0  0
  -28.0728  -31.8380   26.5372 H   0  0  0  0  0  0
  -28.2580  -38.0130   24.7509 H   0  0  0  0  0  0
  -28.1093  -36.2651   24.6288 H   0  0  0  0  0  0
  -27.2299  -37.1472   25.8866 H   0  0  0  0  0  0
  -20.9235  -29.8756   21.7014 H   0  0  0  0  0  0
  -26.0164  -38.2866   24.1398 H   0  0  0  0  0  0
  -30.3258  -18.6170   18.2332 H   0  0  0  0  0  0
  -29.4451  -20.8869   18.0448 H   0  0  0  0  0  0
  -27.2058  -20.3630   21.6437 H   0  0  0  0  0  0
  -30.7306  -16.7201   19.2931 H   0  0  0  0  0  0
  -29.1128  -15.5800   21.6112 H   0  0  0  0  0  0
  -24.9341  -18.9898   23.6699 H   0  0  0  0  0  0
  -25.0944  -17.5353   22.6996 H   0  0  0  0  0  0
  -25.3783  -19.1083   21.9762 H   0  0  0  0  0  0
  -26.7455  -22.2503   20.1369 H   0  0  0  0  0  0
  -27.7911  -22.5629   18.7718 H   0  0  0  0  0  0
  -28.8114  -17.4248   22.7393 H   0  0  0  0  0  0
  -27.3948  -16.8759   21.8408 H   0  0  0  0  0  0
  -28.7166  -22.6648   21.6961 H   0  0  0  0  0  0
  -29.6966  -23.0856   20.3149 H   0  0  0  0  0  0
  -27.8918  -25.2533   18.7673 H   0  0  0  0  0  0
  -29.5413  -25.2600   19.3128 H   0  0  0  0  0  0
  -27.0436  -17.7995   24.1855 H   0  0  0  0  0  0
  -27.3965  -19.3885   23.5985 H   0  0  0  0  0  0
  1 25  1  0  0  0
  1 30  2  0  0  0
  1 78  1  0  0  0
  2  3  1  0  0  0
  2 25  1  0  0  0
  2 87  1  0  0  0
  2 88  1  0  0  0
  3  4  1  0  0  0
  3 89  1  0  0  0
  3 90  1  0  0  0
  4  5  1  0  0  0
  4 91  1  0  0  0
  4 92  1  0  0  0
  5  6  1  0  0  0
  5 26  1  0  0  0
  5 93  1  0  0  0
  6 25  1  0  0  0
  6 94  1  0  0  0
  6 95  1  0  0  0
  7  8  2  0  0  0
  7 26  1  0  0  0
  7 29  1  0  0  0
  8  9  1  0  0  0
  8 22  1  0  0  0
  9 10  1  0  0  0
  9 27  2  0  0  0
 10 11  2  0  0  0
 10 15  1  0  0  0
 11 12  1  0  0  0
 11 96  1  0  0  0
 12 13  2  0  0  0
 12 97  1  0  0  0
 13 14  1  0  0  0
 13 31  1  0  0  0
 14 15  2  0  0  0
 14 98  1  0  0  0
 15 99  1  0  0  0
 16 17  2  0  0  0
 16 21  1  0  0  0
 16 31  1  0  0  0
 17 18  1  0  0  0
 17100  1  0  0  0
 18 19  2  0  0  0
 18101  1  0  0  0
 19 20  1  0  0  0
 19 24  1  0  0  0
 20 21  2  0  0  0
 20102  1  0  0  0
 21 23  1  0  0  0
 22 28  1  0  0  0
 22 32  2  0  0  0
 26 27  1  0  0  0
 28103  1  0  0  0
 28104  1  0  0  0
 29105  1  0  0  0
 29106  1  0  0  0
 33 34  1  0  0  0
 33 66  1  0  0  0
 33 70  2  0  0  0
 34 36  1  0  0  0
 34 59  1  0  0  0
 34107  1  0  0  0
 35 44  2  0  0  0
 35 45  1  0  0  0
 35 68  1  0  0  0
 36 56  1  0  0  0
 36108  1  0  0  0
 37 39  1  0  0  0
 37 47  1  0  0  0
 37 66  1  0  0  0
 37109  1  0  0  0
 38 43  2  0  0  0
 38 46  1  0  0  0
 38 47  1  0  0  0
 39 64  1  0  0  0
 39 67  2  0  0  0
 40 52  1  0  0  0
 40 53  2  0  0  0
 40 58  1  0  0  0
 41110  1  0  0  0
 41111  1  0  0  0
 41112  1  0  0  0
 41 48  1  0  0  0
 42 43  1  0  0  0
 42 66  1  0  0  0
 42113  1  0  0  0
 42114  1  0  0  0
 43 44  1  0  0  0
 44115  1  0  0  0
 45 46  2  0  0  0
 45116  1  0  0  0
 46117  1  0  0  0
 47118  1  0  0  0
 47119  1  0  0  0
 48 56  1  0  0  0
 48 65  1  0  0  0
 48120  1  0  0  0
 49 50  1  0  0  0
 49 53  1  0  0  0
 49 64  1  0  0  0
 49121  1  0  0  0
 50 51  1  0  0  0
 50122  1  0  0  0
 50123  1  0  0  0
 51 52  1  0  0  0
 51124  1  0  0  0
 51125  1  0  0  0
 52126  1  0  0  0
 52127  1  0  0  0
 53 54  1  0  0  0
 54 55  2  0  0  0
 54128  1  0  0  0
 55 57  1  0  0  0
 55129  1  0  0  0
 56 69  2  0  0  0
 57 58  2  0  0  0
 57130  1  0  0  0
 58131  1  0  0  0
 59 60  1  0  0  0
 59 61  1  0  0  0
 59 62  1  0  0  0
 60132  1  0  0  0
 60133  1  0  0  0
 60134  1  0  0  0
 61135  1  0  0  0
 61136  1  0  0  0
 61137  1  0  0  0
 62138  1  0  0  0
 62139  1  0  0  0
 62140  1  0  0  0
 63 65  1  0  0  0
 63141  1  0  0  0
 63142  1  0  0  0
 63143  1  0  0  0
 64144  1  0  0  0
 65145  1  0  0  0
 68 84  1  0  0  0
 71 72  2  0  0  0
 71 74  1  0  0  0
 71146  1  0  0  0
 72 75  1  0  0  0
 72147  1  0  0  0
 73 75  2  0  0  0
 73 76  1  0  0  0
 73148  1  0  0  0
 74 76  2  0  0  0
 74 77  1  0  0  0
 75 81  1  0  0  0
 76 82  1  0  0  0
 77 78  2  0  0  0
 77149  1  0  0  0
 78150  1  0  0  0
 79 83  1  0  0  0
 79 84  1  0  0  0
 79 86  2  0  0  0
 80 85  1  0  0  0
 80151  1  0  0  0
 80152  1  0  0  0
 80153  1  0  0  0
 81 83  1  0  0  0
 81154  1  0  0  0
 81155  1  0  0  0
 82 85  1  0  0  0
 82156  1  0  0  0
 82157  1  0  0  0
 83158  1  0  0  0
 83159  1  0  0  0
 84160  1  0  0  0
 84161  1  0  0  0
 85162  1  0  0  0
 85163  1  0  0  0
M  ISO  4   1 100  68 101  78 100  84 101
M  END
> <chiral flag>
0

> <version>
0

> <s_m_source_file>
/data/baiqing/PycharmProjects/Reinvent-master-3.2/result/LINK_invent/BTK/process_docking_weight1_custom_product_contain_oxygen_bond_distance_aromatic_linkinvent_7_9_3/rearranged_h_0131.sdf

> <i_m_source_file_index>
95

> <r_mmod_Potential_Energy-OPLS-2005>
-4.19076347351074

> <r_mmod_Stretch_Energy-OPLS-2005>
37.2704315185547

> <r_mmod_Bend_Energy-OPLS-2005>
117.449584960938

> <r_mmod_Torsional_Energy-OPLS-2005>
192.320159912109

> <r_mmod_Improper_Torsional_Energy-OPLS-2005>
5.529616355896

> <r_mmod_Van_der_Waal_Energy-OPLS-2005>
162.910003662109

> <r_mmod_Electrostatic_Energy-OPLS-2005>
-327.212707519531

> <r_mmod_Solvation_Energy-OPLS-2005>
-207.654541015625

> <b_mmod_Minimization_Converged-OPLS-2005>
0

> <r_mmod_RMS_Derivative-OPLS-2005>
3.91569900512695

$$$$
95
                    3D
 Structure written by MMmdl.
164173  0  0  1  0            999 V2000
  -30.5188  -14.8842   20.4181 C   0  0  0  0  0  0
  -30.4541  -12.5410   19.4804 C   0  0  0  0  0  0
  -29.5249  -12.5227   18.2432 C   0  0  0  0  0  0
  -28.0531  -12.3199   18.6591 C   0  0  0  0  0  0
  -27.6375  -13.2332   19.8416 C   0  0  2  0  0  0
  -28.6827  -13.2066   20.9771 C   0  0  0  0  0  0
  -25.2491  -13.8193   20.5682 C   0  0  0  0  0  0
  -24.1795  -13.0433   20.9216 C   0  0  0  0  0  0
  -24.6391  -11.6910   20.8760 C   0  0  0  0  0  0
  -23.9071  -10.4290   21.0425 C   0  0  0  0  0  0
  -24.3615   -9.4202   21.9200 C   0  0  0  0  0  0
  -23.6277   -8.2241   22.0769 C   0  0  0  0  0  0
  -22.4260   -8.0291   21.3553 C   0  0  0  0  0  0
  -21.9906   -9.0273   20.4662 C   0  0  0  0  0  0
  -22.7250  -10.2142   20.3068 C   0  0  0  0  0  0
  -21.6852   -6.0738   22.5282 C   0  0  0  0  0  0
  -21.4020   -6.5634   23.8216 C   0  0  0  0  0  0
  -21.3654   -5.6788   24.9175 C   0  0  0  0  0  0
  -21.6035   -4.3053   24.7222 C   0  0  0  0  0  0
  -21.8814   -3.8145   23.4347 C   0  0  0  0  0  0
  -21.9189   -4.6966   22.3407 C   0  0  0  0  0  0
  -22.7815  -13.5218   21.1861 C   0  0  0  0  0  0
  -22.1656   -4.2152   21.0985 F   0  0  0  0  0  0
  -21.5625   -3.4537   25.7732 F   0  0  0  0  0  0
  -29.9670  -13.6105   20.3880 N   0  0  0  0  0  0
  -26.2915  -12.9394   20.3229 N   0  0  0  0  0  0
  -25.9315  -11.6539   20.5722 N   0  0  0  0  0  0
  -22.0427  -12.8248   22.0420 N   0  0  0  0  0  0
  -25.4130  -15.1927   20.4080 N   0  0  0  0  0  0
  -31.7194  -15.0127   20.1576 O   0  0  0  0  0  0
  -21.6632   -6.8887   21.4244 O   0  0  0  0  0  0
  -22.3510  -14.5525   20.6705 O   0  0  0  0  0  0
  -24.6380  -31.8500   23.1914 C   0  0  0  0  0  0
  -25.9174  -32.4730   23.8305 C   0  0  1  0  0  0
  -27.2112  -27.1771   20.1445 C   0  0  0  0  0  0
  -25.5940  -33.8531   24.2229 N   0  0  0  0  0  0
  -23.4382  -30.4703   21.5379 C   0  0  2  0  0  0
  -24.8857  -28.9006   20.1124 C   0  0  0  0  0  0
  -22.7543  -29.4573   22.4890 C   0  0  0  0  0  0
  -18.0322  -28.1365   22.8517 C   0  0  0  0  0  0
  -24.1482  -36.7269   23.2645 C   0  0  0  0  0  0
  -25.9915  -30.7341   21.3860 C   0  0  0  0  0  0
  -26.0624  -29.3487   20.7272 C   0  0  0  0  0  0
  -27.2263  -28.5008   20.7280 C   0  0  0  0  0  0
  -26.0088  -26.8161   19.4990 C   0  0  0  0  0  0
  -24.8689  -27.6449   19.4853 C   0  0  0  0  0  0
  -23.6625  -29.7989   20.1573 C   0  0  0  0  0  0
  -25.4109  -36.3058   24.0333 C   0  0  1  0  0  0
  -20.5922  -28.3701   23.1267 C   0  0  2  0  0  0
  -20.6785  -26.9415   22.5401 C   0  0  0  0  0  0
  -19.5753  -26.6379   21.5210 C   0  0  0  0  0  0
  -18.1947  -26.7915   22.1632 C   0  0  0  0  0  0
  -19.1574  -28.8853   23.2883 C   0  0  0  0  0  0
  -18.9483  -30.1456   23.8902 C   0  0  0  0  0  0
  -17.6479  -30.6574   24.0570 C   0  0  0  0  0  0
  -25.9059  -34.9433   23.5086 C   0  0  0  0  0  0
  -16.5375  -29.9064   23.6340 C   0  0  0  0  0  0
  -16.7309  -28.6464   23.0398 C   0  0  0  0  0  0
  -26.4499  -31.6583   25.0731 C   0  0  0  0  0  0
  -25.3691  -31.3771   26.1444 C   0  0  0  0  0  0
  -27.0354  -30.2983   24.6273 C   0  0  0  0  0  0
  -27.6042  -32.4338   25.7509 C   0  0  0  0  0  0
  -27.5578  -37.1796   24.8476 C   0  0  0  0  0  0
  -21.4242  -29.3039   22.3639 N   0  0  0  0  0  0
  -26.4282  -37.3776   23.9431 N   0  0  0  0  0  0
  -24.7092  -31.0387   22.0937 N   0  0  0  0  0  0
  -23.4218  -28.8148   23.3039 O   0  0  0  0  0  0
  -28.2820  -26.2295   20.2019 O   0  0  0  0  0  0
  -26.5645  -34.8919   22.4667 O   0  0  0  0  0  0
  -23.5519  -32.1368   23.7165 O   0  0  0  0  0  0
  -30.1355  -19.7980   21.3669 C   0  0  0  0  0  0
  -28.7175  -18.2261   19.6211 C   0  0  0  0  0  0
  -29.1672  -20.5277   20.5909 C   0  0  0  0  0  0
  -30.3767  -18.3683   21.3075 C   0  0  0  0  0  0
  -28.4865  -19.6639   19.6687 C   0  0  0  0  0  0
  -29.6500  -17.4937   20.4392 C   0  0  0  0  0  0
  -28.4935  -22.0868   22.3105 C   0  0  0  0  0  0
  -28.7720  -22.0204   20.9981 C   0  0  0  0  0  0
  -28.7179  -23.4270   22.9481 C   0  0  0  0  0  0
  -29.6323  -24.0995   21.9180 C   0  0  0  0  0  0
  -29.1352  -23.5571   20.5619 C   0  0  2  0  0  0
  -31.3904  -17.7765   22.2679 C   0  0  0  0  0  0
  -26.0152  -20.1651   19.3641 C   0  0  0  0  0  0
  -27.4198  -20.2482   18.7545 C   0  0  0  0  0  0
  -28.0231  -24.7113   20.1131 C   0  0  0  0  0  0
  -29.6253  -15.9726   20.5110 N   0  0  0  0  0  0
  -31.4866  -12.7137   19.1707 H   0  0  0  0  0  0
  -30.4499  -11.5752   19.9882 H   0  0  0  0  0  0
  -29.8318  -11.7382   17.5502 H   0  0  0  0  0  0
  -29.6260  -13.4625   17.6986 H   0  0  0  0  0  0
  -27.9344  -11.2761   18.9487 H   0  0  0  0  0  0
  -27.3930  -12.4769   17.8046 H   0  0  0  0  0  0
  -27.6141  -14.2441   19.4350 H   0  0  0  0  0  0
  -28.7527  -12.2131   21.4251 H   0  0  0  0  0  0
  -28.3936  -13.8851   21.7809 H   0  0  0  0  0  0
  -25.2752   -9.5667   22.4785 H   0  0  0  0  0  0
  -23.9975   -7.4633   22.7495 H   0  0  0  0  0  0
  -21.0833   -8.8811   19.8971 H   0  0  0  0  0  0
  -22.3723  -10.9688   19.6185 H   0  0  0  0  0  0
  -21.2024   -7.6140   23.9724 H   0  0  0  0  0  0
  -21.1475   -6.0513   25.9080 H   0  0  0  0  0  0
  -22.0595   -2.7606   23.2849 H   0  0  0  0  0  0
  -22.4005  -11.9911   22.4836 H   0  0  0  0  0  0
  -21.1068  -13.1354   22.2610 H   0  0  0  0  0  0
  -24.6316  -15.8326   20.5070 H   0  0  0  0  0  0
  -26.2341  -15.6372   20.0211 H   0  0  0  0  0  0
  -26.7247  -32.5353   23.1046 H   0  0  0  0  0  0
  -25.0070  -33.9647   25.0366 H   0  0  0  0  0  0
  -22.7377  -31.2943   21.3863 H   0  0  0  0  0  0
  -23.3746  -35.9597   23.3295 H   0  0  0  0  0  0
  -24.3571  -36.8902   22.2061 H   0  0  0  0  0  0
  -23.7203  -37.6451   23.6674 H   0  0  0  0  0  0
  -26.1436  -31.4904   20.6146 H   0  0  0  0  0  0
  -26.8602  -30.7832   22.0305 H   0  0  0  0  0  0
  -28.1246  -28.8329   21.2286 H   0  0  0  0  0  0
  -25.9214  -25.8543   19.0163 H   0  0  0  0  0  0
  -23.9698  -27.2940   18.9969 H   0  0  0  0  0  0
  -23.8010  -30.5713   19.4007 H   0  0  0  0  0  0
  -22.7763  -29.2413   19.8491 H   0  0  0  0  0  0
  -25.1281  -36.1905   25.0822 H   0  0  0  0  0  0
  -21.0038  -28.3270   24.1381 H   0  0  0  0  0  0
  -20.5661  -26.2314   23.3610 H   0  0  0  0  0  0
  -21.6653  -26.7410   22.1212 H   0  0  0  0  0  0
  -19.6890  -25.6284   21.1250 H   0  0  0  0  0  0
  -19.6663  -27.3175   20.6732 H   0  0  0  0  0  0
  -17.4211  -26.6731   21.4031 H   0  0  0  0  0  0
  -18.0328  -26.0012   22.8983 H   0  0  0  0  0  0
  -19.7962  -30.7283   24.2252 H   0  0  0  0  0  0
  -17.5033  -31.6260   24.5155 H   0  0  0  0  0  0
  -15.5369  -30.2970   23.7623 H   0  0  0  0  0  0
  -15.8723  -28.0754   22.7149 H   0  0  0  0  0  0
  -24.5877  -30.7097   25.7792 H   0  0  0  0  0  0
  -24.8855  -32.2947   26.4812 H   0  0  0  0  0  0
  -25.7989  -30.9006   27.0266 H   0  0  0  0  0  0
  -26.2961  -29.6713   24.1269 H   0  0  0  0  0  0
  -27.3973  -29.7274   25.4835 H   0  0  0  0  0  0
  -27.8878  -30.4227   23.9584 H   0  0  0  0  0  0
  -27.2655  -33.3683   26.2006 H   0  0  0  0  0  0
  -28.3897  -32.6822   25.0355 H   0  0  0  0  0  0
  -28.0655  -31.8497   26.5486 H   0  0  0  0  0  0
  -28.2599  -38.0094   24.7529 H   0  0  0  0  0  0
  -28.1064  -36.2622   24.6283 H   0  0  0  0  0  0
  -27.2316  -37.1445   25.8887 H   0  0  0  0  0  0
  -20.9429  -29.8752   21.6833 H   0  0  0  0  0  0
  -26.0153  -38.2851   24.1412 H   0  0  0  0  0  0
  -30.6918  -20.3637   22.1014 H   0  0  0  0  0  0
  -28.1005  -17.6535   18.9427 H   0  0  0  0  0  0
  -28.3195  -21.2220   22.9361 H   0  0  0  0  0  0
  -29.2046  -23.3343   23.9201 H   0  0  0  0  0  0
  -27.7655  -23.9439   23.0808 H   0  0  0  0  0  0
  -30.6566  -23.7602   22.0787 H   0  0  0  0  0  0
  -29.6486  -25.1867   22.0049 H   0  0  0  0  0  0
  -29.9581  -23.5476   19.8459 H   0  0  0  0  0  0
  -31.7168  -18.5057   23.0094 H   0  0  0  0  0  0
  -32.2692  -17.4361   21.7203 H   0  0  0  0  0  0
  -30.9638  -16.9271   22.8015 H   0  0  0  0  0  0
  -25.7209  -19.1290   19.5328 H   0  0  0  0  0  0
  -25.2767  -20.6171   18.7005 H   0  0  0  0  0  0
  -25.9689  -20.6908   20.3184 H   0  0  0  0  0  0
  -27.4377  -19.7168   17.8019 H   0  0  0  0  0  0
  -27.6634  -21.2847   18.5174 H   0  0  0  0  0  0
  -27.1252  -24.5257   20.7043 H   0  0  0  0  0  0
  -27.7349  -24.4961   19.0839 H   0  0  0  0  0  0
  -28.6845  -15.6186   20.5781 H   0  0  0  0  0  0
  1 25  1  0  0  0
  1 30  2  0  0  0
  1 86  1  0  0  0
  2  3  1  0  0  0
  2 25  1  0  0  0
  2 87  1  0  0  0
  2 88  1  0  0  0
  3  4  1  0  0  0
  3 89  1  0  0  0
  3 90  1  0  0  0
  4  5  1  0  0  0
  4 91  1  0  0  0
  4 92  1  0  0  0
  5  6  1  0  0  0
  5 26  1  0  0  0
  5 93  1  0  0  0
  6 25  1  0  0  0
  6 94  1  0  0  0
  6 95  1  0  0  0
  7  8  2  0  0  0
  7 26  1  0  0  0
  7 29  1  0  0  0
  8  9  1  0  0  0
  8 22  1  0  0  0
  9 10  1  0  0  0
  9 27  2  0  0  0
 10 11  2  0  0  0
 10 15  1  0  0  0
 11 12  1  0  0  0
 11 96  1  0  0  0
 12 13  2  0  0  0
 12 97  1  0  0  0
 13 14  1  0  0  0
 13 31  1  0  0  0
 14 15  2  0  0  0
 14 98  1  0  0  0
 15 99  1  0  0  0
 16 17  2  0  0  0
 16 21  1  0  0  0
 16 31  1  0  0  0
 17 18  1  0  0  0
 17100  1  0  0  0
 18 19  2  0  0  0
 18101  1  0  0  0
 19 20  1  0  0  0
 19 24  1  0  0  0
 20 21  2  0  0  0
 20102  1  0  0  0
 21 23  1  0  0  0
 22 28  1  0  0  0
 22 32  2  0  0  0
 26 27  1  0  0  0
 28103  1  0  0  0
 28104  1  0  0  0
 29105  1  0  0  0
 29106  1  0  0  0
 33 34  1  0  0  0
 33 66  1  0  0  0
 33 70  2  0  0  0
 34 36  1  0  0  0
 34 59  1  0  0  0
 34107  1  0  0  0
 35 44  2  0  0  0
 35 45  1  0  0  0
 35 68  1  0  0  0
 36 56  1  0  0  0
 36108  1  0  0  0
 37 39  1  0  0  0
 37 47  1  0  0  0
 37 66  1  0  0  0
 37109  1  0  0  0
 38 43  2  0  0  0
 38 46  1  0  0  0
 38 47  1  0  0  0
 39 64  1  0  0  0
 39 67  2  0  0  0
 40 52  1  0  0  0
 40 53  2  0  0  0
 40 58  1  0  0  0
 41110  1  0  0  0
 41111  1  0  0  0
 41112  1  0  0  0
 41 48  1  0  0  0
 42 43  1  0  0  0
 42 66  1  0  0  0
 42113  1  0  0  0
 42114  1  0  0  0
 43 44  1  0  0  0
 44115  1  0  0  0
 45 46  2  0  0  0
 45116  1  0  0  0
 46117  1  0  0  0
 47118  1  0  0  0
 47119  1  0  0  0
 48 56  1  0  0  0
 48 65  1  0  0  0
 48120  1  0  0  0
 49 50  1  0  0  0
 49 53  1  0  0  0
 49 64  1  0  0  0
 49121  1  0  0  0
 50 51  1  0  0  0
 50122  1  0  0  0
 50123  1  0  0  0
 51 52  1  0  0  0
 51124  1  0  0  0
 51125  1  0  0  0
 52126  1  0  0  0
 52127  1  0  0  0
 53 54  1  0  0  0
 54 55  2  0  0  0
 54128  1  0  0  0
 55 57  1  0  0  0
 55129  1  0  0  0
 56 69  2  0  0  0
 57 58  2  0  0  0
 57130  1  0  0  0
 58131  1  0  0  0
 59 60  1  0  0  0
 59 61  1  0  0  0
 59 62  1  0  0  0
 60132  1  0  0  0
 60133  1  0  0  0
 60134  1  0  0  0
 61135  1  0  0  0
 61136  1  0  0  0
 61137  1  0  0  0
 62138  1  0  0  0
 62139  1  0  0  0
 62140  1  0  0  0
 63 65  1  0  0  0
 63141  1  0  0  0
 63142  1  0  0  0
 63143  1  0  0  0
 64144  1  0  0  0
 65145  1  0  0  0
 68 85  1  0  0  0
 71 73  2  0  0  0
 71 74  1  0  0  0
 71146  1  0  0  0
 72 75  2  0  0  0
 72 76  1  0  0  0
 72147  1  0  0  0
 73 75  1  0  0  0
 73 78  1  0  0  0
 74 76  2  0  0  0
 74 82  1  0  0  0
 75 84  1  0  0  0
 76 86  1  0  0  0
 77 78  2  0  0  0
 77 79  1  0  0  0
 77148  1  0  0  0
 78 81  1  0  0  0
 79 80  1  0  0  0
 79149  1  0  0  0
 79150  1  0  0  0
 80 81  1  0  0  0
 80151  1  0  0  0
 80152  1  0  0  0
 81 85  1  0  0  0
 81153  1  0  0  0
 82154  1  0  0  0
 82155  1  0  0  0
 82156  1  0  0  0
 83 84  1  0  0  0
 83157  1  0  0  0
 83158  1  0  0  0
 83159  1  0  0  0
 84160  1  0  0  0
 84161  1  0  0  0
 85162  1  0  0  0
 85163  1  0  0  0
 86164  1  0  0  0
M  ISO  4   1 100  68 101  85 101  86 100
M  END
> <chiral flag>
0

> <version>
0

> <s_m_source_file>
/data/baiqing/PycharmProjects/Reinvent-master-3.2/result/LINK_invent/BTK/process_docking_weight1_custom_product_contain_oxygen_bond_distance_aromatic_linkinvent_7_9_3/rearranged_h_0131.sdf

> <i_m_source_file_index>
96

> <r_mmod_Potential_Energy-OPLS-2005>
505.031188964844

> <r_mmod_Stretch_Energy-OPLS-2005>
200.186798095703

> <r_mmod_Bend_Energy-OPLS-2005>
307.557281494141

> <r_mmod_Torsional_Energy-OPLS-2005>
280.443817138672

> <r_mmod_Improper_Torsional_Energy-OPLS-2005>
12.2779054641724

> <r_mmod_Van_der_Waal_Energy-OPLS-2005>
127.040802001953

> <r_mmod_Electrostatic_Energy-OPLS-2005>
-378.180236816406

> <r_mmod_Solvation_Energy-OPLS-2005>
-198.680999755859

> <b_mmod_Minimization_Converged-OPLS-2005>
0

> <r_mmod_RMS_Derivative-OPLS-2005>
2.53715229034424

$$$$
96
                    3D
 Structure written by MMmdl.
156164  0  0  1  0            999 V2000
  -30.7219  -14.4609   20.5824 C   0  0  0  0  0  0
  -30.4164  -12.3046   19.4217 C   0  0  0  0  0  0
  -29.4911  -12.5045   18.2050 C   0  0  0  0  0  0
  -28.0134  -12.3646   18.6193 C   0  0  0  0  0  0
  -27.6600  -13.2087   19.8735 C   0  0  2  0  0  0
  -28.7019  -12.9995   20.9958 C   0  0  0  0  0  0
  -25.2582  -13.8167   20.5680 C   0  0  0  0  0  0
  -24.1837  -13.0442   20.9179 C   0  0  0  0  0  0
  -24.6392  -11.6908   20.8736 C   0  0  0  0  0  0
  -23.9060  -10.4294   21.0404 C   0  0  0  0  0  0
  -24.3613   -9.4208   21.9180 C   0  0  0  0  0  0
  -23.6291   -8.2242   22.0753 C   0  0  0  0  0  0
  -22.4271   -8.0281   21.3544 C   0  0  0  0  0  0
  -21.9906   -9.0254   20.4647 C   0  0  0  0  0  0
  -22.7233  -10.2134   20.3054 C   0  0  0  0  0  0
  -21.6853   -6.0734   22.5280 C   0  0  0  0  0  0
  -21.4013   -6.5639   23.8212 C   0  0  0  0  0  0
  -21.3658   -5.6792   24.9175 C   0  0  0  0  0  0
  -21.6044   -4.3055   24.7225 C   0  0  0  0  0  0
  -21.8820   -3.8146   23.4347 C   0  0  0  0  0  0
  -21.9194   -4.6963   22.3403 C   0  0  0  0  0  0
  -22.7861  -13.5239   21.1843 C   0  0  0  0  0  0
  -22.1663   -4.2149   21.0980 F   0  0  0  0  0  0
  -21.5628   -3.4538   25.7738 F   0  0  0  0  0  0
  -30.0324  -13.2959   20.4399 N   0  0  0  0  0  0
  -26.3016  -12.9340   20.3362 N   0  0  0  0  0  0
  -25.9319  -11.6498   20.5766 N   0  0  0  0  0  0
  -22.0501  -12.8233   22.0400 N   0  0  0  0  0  0
  -25.4308  -15.1884   20.4083 N   0  0  0  0  0  0
  -31.8417  -14.6245   20.0897 O   0  0  0  0  0  0
  -21.6639   -6.8876   21.4240 O   0  0  0  0  0  0
  -22.3548  -14.5547   20.6694 O   0  0  0  0  0  0
  -24.6149  -31.8682   23.2102 C   0  0  0  0  0  0
  -25.9045  -32.4821   23.8398 C   0  0  1  0  0  0
  -27.2289  -27.4362   20.1006 C   0  0  0  0  0  0
  -25.5906  -33.8618   24.2333 N   0  0  0  0  0  0
  -23.4031  -30.4921   21.5502 C   0  0  2  0  0  0
  -24.8502  -28.9607   20.1112 C   0  0  0  0  0  0
  -22.7414  -29.4661   22.4983 C   0  0  0  0  0  0
  -18.0274  -28.1376   22.8490 C   0  0  0  0  0  0
  -24.1488  -36.7313   23.2638 C   0  0  0  0  0  0
  -25.9319  -30.8356   21.3627 C   0  0  0  0  0  0
  -26.0109  -29.4713   20.7077 C   0  0  0  0  0  0
  -27.2076  -28.7174   20.6970 C   0  0  0  0  0  0
  -26.0571  -26.9442   19.4882 C   0  0  0  0  0  0
  -24.8682  -27.6967   19.4960 C   0  0  0  0  0  0
  -23.6114  -29.8260   20.1639 C   0  0  0  0  0  0
  -25.4107  -36.3110   24.0341 C   0  0  1  0  0  0
  -20.5864  -28.3665   23.1316 C   0  0  2  0  0  0
  -20.6762  -26.9400   22.5418 C   0  0  0  0  0  0
  -19.5745  -26.6385   21.5210 C   0  0  0  0  0  0
  -18.1923  -26.7924   22.1619 C   0  0  0  0  0  0
  -19.1523  -28.8836   23.2900 C   0  0  0  0  0  0
  -18.9451  -30.1442   23.8908 C   0  0  0  0  0  0
  -17.6454  -30.6582   24.0565 C   0  0  0  0  0  0
  -25.9035  -34.9475   23.5132 C   0  0  0  0  0  0
  -16.5345  -29.9085   23.6326 C   0  0  0  0  0  0
  -16.7263  -28.6503   23.0344 C   0  0  0  0  0  0
  -26.4473  -31.6592   25.0720 C   0  0  0  0  0  0
  -25.3743  -31.3696   26.1473 C   0  0  0  0  0  0
  -27.0294  -30.3034   24.6083 C   0  0  0  0  0  0
  -27.6058  -32.4301   25.7478 C   0  0  0  0  0  0
  -27.5582  -37.1808   24.8464 C   0  0  0  0  0  0
  -21.4142  -29.3031   22.3722 N   0  0  0  0  0  0
  -26.4293  -37.3795   23.9413 N   0  0  0  0  0  0
  -24.6681  -31.0791   22.0996 N   0  0  0  0  0  0
  -23.4188  -28.8207   23.3028 O   0  0  0  0  0  0
  -28.3627  -26.6545   20.1256 O   0  0  0  0  0  0
  -26.5590  -34.8928   22.4689 O   0  0  0  0  0  0
  -23.5343  -32.1428   23.7501 O   0  0  0  0  0  0
  -29.5854  -17.9013   21.2953 C   0  0  0  0  0  0
  -31.3538  -19.4887   21.8451 C   0  0  0  0  0  0
  -31.8539  -17.1073   21.7034 C   0  0  0  0  0  0
  -30.0022  -19.2408   21.5227 C   0  0  0  0  0  0
  -30.5068  -16.8226   21.3714 C   0  0  0  0  0  0
  -32.2740  -18.4298   21.9315 C   0  0  0  0  0  0
  -28.9992  -20.4009   21.5165 C   0  0  0  0  0  0
  -29.4076  -21.6619   20.7019 C   0  0  0  0  0  0
  -28.5761  -22.9139   21.0797 C   0  0  0  0  0  0
  -28.9164  -24.2147   20.3041 C   0  0  0  0  0  0
  -28.2099  -25.4531   20.9047 C   0  0  0  0  0  0
  -30.0507  -15.4777   21.1662 N   0  0  0  0  0  0
  -33.5652  -18.6836   22.2522 F   0  0  0  0  0  0
  -31.4617  -12.3914   19.1201 H   0  0  0  0  0  0
  -30.3087  -11.2957   19.8233 H   0  0  0  0  0  0
  -29.7306  -11.7795   17.4261 H   0  0  0  0  0  0
  -29.6604  -13.4902   17.7687 H   0  0  0  0  0  0
  -27.8257  -11.3090   18.8190 H   0  0  0  0  0  0
  -27.3615  -12.6351   17.7879 H   0  0  0  0  0  0
  -27.7021  -14.2553   19.5710 H   0  0  0  0  0  0
  -28.6762  -11.9675   21.3493 H   0  0  0  0  0  0
  -28.4643  -13.6110   21.8671 H   0  0  0  0  0  0
  -25.2761   -9.5685   22.4751 H   0  0  0  0  0  0
  -24.0003   -7.4633   22.7471 H   0  0  0  0  0  0
  -21.0836   -8.8771   19.8954 H   0  0  0  0  0  0
  -22.3692  -10.9670   19.6161 H   0  0  0  0  0  0
  -21.2002   -7.6147   23.9715 H   0  0  0  0  0  0
  -21.1479   -6.0522   25.9077 H   0  0  0  0  0  0
  -22.0600   -2.7609   23.2847 H   0  0  0  0  0  0
  -22.4116  -11.9892   22.4785 H   0  0  0  0  0  0
  -21.1120  -13.1262   22.2608 H   0  0  0  0  0  0
  -24.6639  -15.8441   20.5115 H   0  0  0  0  0  0
  -26.2815  -15.6246   20.0756 H   0  0  0  0  0  0
  -26.7119  -32.5537   23.1167 H   0  0  0  0  0  0
  -25.0079  -33.9781   25.0494 H   0  0  0  0  0  0
  -22.6916  -31.3090   21.4122 H   0  0  0  0  0  0
  -23.3747  -35.9648   23.3307 H   0  0  0  0  0  0
  -24.3585  -36.8914   22.2050 H   0  0  0  0  0  0
  -23.7240  -37.6524   23.6640 H   0  0  0  0  0  0
  -26.0443  -31.6031   20.5956 H   0  0  0  0  0  0
  -26.8200  -30.8880   21.9807 H   0  0  0  0  0  0
  -28.1027  -29.1030   21.1649 H   0  0  0  0  0  0
  -26.0622  -25.9713   19.0167 H   0  0  0  0  0  0
  -23.9772  -27.2986   19.0302 H   0  0  0  0  0  0
  -23.7187  -30.6019   19.4050 H   0  0  0  0  0  0
  -22.7357  -29.2454   19.8679 H   0  0  0  0  0  0
  -25.1280  -36.1978   25.0835 H   0  0  0  0  0  0
  -20.9957  -28.3228   24.1437 H   0  0  0  0  0  0
  -20.5662  -26.2273   23.3604 H   0  0  0  0  0  0
  -21.6635  -26.7443   22.1214 H   0  0  0  0  0  0
  -19.6908  -25.6299   21.1230 H   0  0  0  0  0  0
  -19.6689  -27.3202   20.6746 H   0  0  0  0  0  0
  -17.4198  -26.6679   21.4015 H   0  0  0  0  0  0
  -18.0321  -26.0060   22.9008 H   0  0  0  0  0  0
  -19.7928  -30.7251   24.2285 H   0  0  0  0  0  0
  -17.5012  -31.6263   24.5164 H   0  0  0  0  0  0
  -15.5346  -30.2990   23.7645 H   0  0  0  0  0  0
  -15.8664  -28.0828   22.7047 H   0  0  0  0  0  0
  -24.5931  -30.7018   25.7819 H   0  0  0  0  0  0
  -24.8913  -32.2845   26.4913 H   0  0  0  0  0  0
  -25.8106  -30.8884   27.0235 H   0  0  0  0  0  0
  -26.2828  -29.6804   24.1141 H   0  0  0  0  0  0
  -27.4070  -29.7259   25.4532 H   0  0  0  0  0  0
  -27.8665  -30.4351   23.9223 H   0  0  0  0  0  0
  -27.2689  -33.3592   26.2086 H   0  0  0  0  0  0
  -28.3854  -32.6868   25.0291 H   0  0  0  0  0  0
  -28.0743  -31.8400   26.5366 H   0  0  0  0  0  0
  -28.2604  -38.0103   24.7514 H   0  0  0  0  0  0
  -28.1074  -36.2635   24.6281 H   0  0  0  0  0  0
  -27.2307  -37.1452   25.8869 H   0  0  0  0  0  0
  -20.9303  -29.8753   21.6943 H   0  0  0  0  0  0
  -26.0184  -38.2875   24.1410 H   0  0  0  0  0  0
  -28.5469  -17.7009   21.0688 H   0  0  0  0  0  0
  -31.6975  -20.4908   22.0546 H   0  0  0  0  0  0
  -32.5844  -16.3182   21.8015 H   0  0  0  0  0  0
  -28.8487  -20.6827   22.5597 H   0  0  0  0  0  0
  -28.0296  -20.0446   21.1656 H   0  0  0  0  0  0
  -29.3233  -21.4524   19.6347 H   0  0  0  0  0  0
  -30.4544  -21.9046   20.8792 H   0  0  0  0  0  0
  -28.7092  -23.1025   22.1462 H   0  0  0  0  0  0
  -27.5158  -22.6924   20.9483 H   0  0  0  0  0  0
  -28.6248  -24.0977   19.2599 H   0  0  0  0  0  0
  -29.9938  -24.3831   20.3077 H   0  0  0  0  0  0
  -28.6180  -25.6519   21.8964 H   0  0  0  0  0  0
  -27.1609  -25.2008   21.0711 H   0  0  0  0  0  0
  -29.0891  -15.2820   21.3987 H   0  0  0  0  0  0
  1 25  1  0  0  0
  1 30  2  0  0  0
  1 82  1  0  0  0
  2  3  1  0  0  0
  2 25  1  0  0  0
  2 84  1  0  0  0
  2 85  1  0  0  0
  3  4  1  0  0  0
  3 86  1  0  0  0
  3 87  1  0  0  0
  4  5  1  0  0  0
  4 88  1  0  0  0
  4 89  1  0  0  0
  5  6  1  0  0  0
  5 26  1  0  0  0
  5 90  1  0  0  0
  6 25  1  0  0  0
  6 91  1  0  0  0
  6 92  1  0  0  0
  7  8  2  0  0  0
  7 26  1  0  0  0
  7 29  1  0  0  0
  8  9  1  0  0  0
  8 22  1  0  0  0
  9 10  1  0  0  0
  9 27  2  0  0  0
 10 11  2  0  0  0
 10 15  1  0  0  0
 11 12  1  0  0  0
 11 93  1  0  0  0
 12 13  2  0  0  0
 12 94  1  0  0  0
 13 14  1  0  0  0
 13 31  1  0  0  0
 14 15  2  0  0  0
 14 95  1  0  0  0
 15 96  1  0  0  0
 16 17  2  0  0  0
 16 21  1  0  0  0
 16 31  1  0  0  0
 17 18  1  0  0  0
 17 97  1  0  0  0
 18 19  2  0  0  0
 18 98  1  0  0  0
 19 20  1  0  0  0
 19 24  1  0  0  0
 20 21  2  0  0  0
 20 99  1  0  0  0
 21 23  1  0  0  0
 22 28  1  0  0  0
 22 32  2  0  0  0
 26 27  1  0  0  0
 28100  1  0  0  0
 28101  1  0  0  0
 29102  1  0  0  0
 29103  1  0  0  0
 33 34  1  0  0  0
 33 66  1  0  0  0
 33 70  2  0  0  0
 34 36  1  0  0  0
 34 59  1  0  0  0
 34104  1  0  0  0
 35 44  2  0  0  0
 35 45  1  0  0  0
 35 68  1  0  0  0
 36 56  1  0  0  0
 36105  1  0  0  0
 37 39  1  0  0  0
 37 47  1  0  0  0
 37 66  1  0  0  0
 37106  1  0  0  0
 38 43  2  0  0  0
 38 46  1  0  0  0
 38 47  1  0  0  0
 39 64  1  0  0  0
 39 67  2  0  0  0
 40 52  1  0  0  0
 40 53  2  0  0  0
 40 58  1  0  0  0
 41107  1  0  0  0
 41108  1  0  0  0
 41109  1  0  0  0
 41 48  1  0  0  0
 42 43  1  0  0  0
 42 66  1  0  0  0
 42110  1  0  0  0
 42111  1  0  0  0
 43 44  1  0  0  0
 44112  1  0  0  0
 45 46  2  0  0  0
 45113  1  0  0  0
 46114  1  0  0  0
 47115  1  0  0  0
 47116  1  0  0  0
 48 56  1  0  0  0
 48 65  1  0  0  0
 48117  1  0  0  0
 49 50  1  0  0  0
 49 53  1  0  0  0
 49 64  1  0  0  0
 49118  1  0  0  0
 50 51  1  0  0  0
 50119  1  0  0  0
 50120  1  0  0  0
 51 52  1  0  0  0
 51121  1  0  0  0
 51122  1  0  0  0
 52123  1  0  0  0
 52124  1  0  0  0
 53 54  1  0  0  0
 54 55  2  0  0  0
 54125  1  0  0  0
 55 57  1  0  0  0
 55126  1  0  0  0
 56 69  2  0  0  0
 57 58  2  0  0  0
 57127  1  0  0  0
 58128  1  0  0  0
 59 60  1  0  0  0
 59 61  1  0  0  0
 59 62  1  0  0  0
 60129  1  0  0  0
 60130  1  0  0  0
 60131  1  0  0  0
 61132  1  0  0  0
 61133  1  0  0  0
 61134  1  0  0  0
 62135  1  0  0  0
 62136  1  0  0  0
 62137  1  0  0  0
 63 65  1  0  0  0
 63138  1  0  0  0
 63139  1  0  0  0
 63140  1  0  0  0
 64141  1  0  0  0
 65142  1  0  0  0
 68 81  1  0  0  0
 71 74  2  0  0  0
 71 75  1  0  0  0
 71143  1  0  0  0
 72 74  1  0  0  0
 72 76  2  0  0  0
 72144  1  0  0  0
 73 75  2  0  0  0
 73 76  1  0  0  0
 73145  1  0  0  0
 74 77  1  0  0  0
 75 82  1  0  0  0
 76 83  1  0  0  0
 77 78  1  0  0  0
 77146  1  0  0  0
 77147  1  0  0  0
 78 79  1  0  0  0
 78148  1  0  0  0
 78149  1  0  0  0
 79 80  1  0  0  0
 79150  1  0  0  0
 79151  1  0  0  0
 80 81  1  0  0  0
 80152  1  0  0  0
 80153  1  0  0  0
 81154  1  0  0  0
 81155  1  0  0  0
 82156  1  0  0  0
M  ISO  4   1 100  68 101  81 101  82 100
M  END
> <chiral flag>
0

> <version>
0

> <s_m_source_file>
/data/baiqing/PycharmProjects/Reinvent-master-3.2/result/LINK_invent/BTK/process_docking_weight1_custom_product_contain_oxygen_bond_distance_aromatic_linkinvent_7_9_3/rearranged_h_0131.sdf

> <i_m_source_file_index>
97

> <r_mmod_Potential_Energy-OPLS-2005>
-2.95966935157776

> <r_mmod_Stretch_Energy-OPLS-2005>
38.2088088989258

> <r_mmod_Bend_Energy-OPLS-2005>
90.2729110717773

> <r_mmod_Torsional_Energy-OPLS-2005>
234.009094238281

> <r_mmod_Improper_Torsional_Energy-OPLS-2005>
3.49906969070435

> <r_mmod_Van_der_Waal_Energy-OPLS-2005>
153.801788330078

> <r_mmod_Electrostatic_Energy-OPLS-2005>
-338.451324462891

> <r_mmod_Solvation_Energy-OPLS-2005>
-197.563049316406

> <b_mmod_Minimization_Converged-OPLS-2005>
0

> <r_mmod_RMS_Derivative-OPLS-2005>
0.391935467720032

$$$$
