0
                    3D
 Structure written by MMmdl.
156164  0  0  1  0            999 V2000
  -30.6924  -14.4408   20.6177 C   0  0  0  0  0  0
  -30.4302  -12.3021   19.4082 C   0  0  0  0  0  0
  -29.4936  -12.5158   18.2003 C   0  0  0  0  0  0
  -28.0143  -12.3738   18.6127 C   0  0  0  0  0  0
  -27.6662  -13.1981   19.8805 C   0  0  2  0  0  0
  -28.7046  -12.9345   20.9934 C   0  0  0  0  0  0
  -25.2608  -13.8145   20.5670 C   0  0  0  0  0  0
  -24.1846  -13.0436   20.9162 C   0  0  0  0  0  0
  -24.6389  -11.6899   20.8727 C   0  0  0  0  0  0
  -23.9053  -10.4291   21.0406 C   0  0  0  0  0  0
  -24.3609   -9.4208   21.9183 C   0  0  0  0  0  0
  -23.6287   -8.2243   22.0753 C   0  0  0  0  0  0
  -22.4267   -8.0281   21.3547 C   0  0  0  0  0  0
  -21.9903   -9.0253   20.4646 C   0  0  0  0  0  0
  -22.7228  -10.2133   20.3054 C   0  0  0  0  0  0
  -21.6850   -6.0737   22.5281 C   0  0  0  0  0  0
  -21.4013   -6.5640   23.8215 C   0  0  0  0  0  0
  -21.3659   -5.6791   24.9176 C   0  0  0  0  0  0
  -21.6043   -4.3054   24.7227 C   0  0  0  0  0  0
  -21.8820   -3.8148   23.4347 C   0  0  0  0  0  0
  -21.9191   -4.6965   22.3402 C   0  0  0  0  0  0
  -22.7872  -13.5244   21.1836 C   0  0  0  0  0  0
  -22.1659   -4.2152   21.0980 F   0  0  0  0  0  0
  -21.5630   -3.4537   25.7740 F   0  0  0  0  0  0
  -30.0417  -13.2567   20.4571 N   0  0  0  0  0  0
  -26.3040  -12.9297   20.3373 N   0  0  0  0  0  0
  -25.9311  -11.6464   20.5756 N   0  0  0  0  0  0
  -22.0510  -12.8238   22.0393 N   0  0  0  0  0  0
  -25.4362  -15.1861   20.4095 N   0  0  0  0  0  0
  -31.7831  -14.6822   20.0903 O   0  0  0  0  0  0
  -21.6634   -6.8878   21.4243 O   0  0  0  0  0  0
  -22.3561  -14.5558   20.6696 O   0  0  0  0  0  0
  -24.6128  -31.8696   23.2103 C   0  0  0  0  0  0
  -25.9027  -32.4830   23.8400 C   0  0  1  0  0  0
  -27.2391  -27.4528   20.0961 C   0  0  0  0  0  0
  -25.5893  -33.8627   24.2336 N   0  0  0  0  0  0
  -23.4004  -30.4904   21.5509 C   0  0  2  0  0  0
  -24.8490  -28.9514   20.1217 C   0  0  0  0  0  0
  -22.7398  -29.4658   22.5008 C   0  0  0  0  0  0
  -18.0263  -28.1363   22.8490 C   0  0  0  0  0  0
  -24.1490  -36.7321   23.2640 C   0  0  0  0  0  0
  -25.9263  -30.8384   21.3614 C   0  0  0  0  0  0
  -26.0064  -29.4705   20.7165 C   0  0  0  0  0  0
  -27.2071  -28.7266   20.7039 C   0  0  0  0  0  0
  -26.0702  -26.9384   19.5023 C   0  0  0  0  0  0
  -24.8733  -27.6818   19.5150 C   0  0  0  0  0  0
  -23.6100  -29.8174   20.1674 C   0  0  0  0  0  0
  -25.4106  -36.3118   24.0344 C   0  0  1  0  0  0
  -20.5851  -28.3653   23.1323 C   0  0  2  0  0  0
  -20.6760  -26.9394   22.5418 C   0  0  0  0  0  0
  -19.5743  -26.6380   21.5207 C   0  0  0  0  0  0
  -18.1918  -26.7910   22.1616 C   0  0  0  0  0  0
  -19.1512  -28.8824   23.2903 C   0  0  0  0  0  0
  -18.9447  -30.1431   23.8913 C   0  0  0  0  0  0
  -17.6453  -30.6579   24.0560 C   0  0  0  0  0  0
  -25.9032  -34.9482   23.5138 C   0  0  0  0  0  0
  -16.5342  -29.9083   23.6321 C   0  0  0  0  0  0
  -16.7254  -28.6494   23.0347 C   0  0  0  0  0  0
  -26.4462  -31.6598   25.0716 C   0  0  0  0  0  0
  -25.3732  -31.3698   26.1471 C   0  0  0  0  0  0
  -27.0290  -30.3050   24.6061 C   0  0  0  0  0  0
  -27.6044  -32.4315   25.7473 C   0  0  0  0  0  0
  -27.5581  -37.1813   24.8465 C   0  0  0  0  0  0
  -21.4127  -29.3026   22.3740 N   0  0  0  0  0  0
  -26.4298  -37.3797   23.9407 N   0  0  0  0  0  0
  -24.6646  -31.0807   22.0999 N   0  0  0  0  0  0
  -23.4173  -28.8207   23.3052 O   0  0  0  0  0  0
  -28.4035  -26.7285   20.0324 O   0  0  0  0  0  0
  -26.5595  -34.8933   22.4698 O   0  0  0  0  0  0
  -23.5324  -32.1442   23.7510 O   0  0  0  0  0  0
  -29.1535  -18.8090   22.4102 C   0  0  0  0  0  0
  -29.1446  -17.4079   22.2522 C   0  0  0  0  0  0
  -31.0717  -17.5558   20.7787 C   0  0  0  0  0  0
  -30.1303  -19.5980   21.7663 C   0  0  0  0  0  0
  -30.1068  -16.7598   21.4469 C   0  0  0  0  0  0
  -31.0832  -18.9602   20.9401 C   0  0  0  0  0  0
  -30.2058  -21.1004   22.0477 C   0  0  0  0  0  0
  -28.7420  -24.3438   20.5325 C   0  0  0  0  0  0
  -29.2947  -23.3592   21.5926 C   0  0  0  0  0  0
  -28.5936  -25.7811   21.0845 C   0  0  0  0  0  0
  -30.0153  -15.3360   21.3618 N   0  0  0  0  0  0
  -29.4104  -21.9503   21.1288 N   0  3  0  0  0  0
  -32.0279  -19.6969   20.3079 F   0  0  0  0  0  0
  -31.4721  -12.4185   19.1047 H   0  0  0  0  0  0
  -30.3439  -11.2814   19.7837 H   0  0  0  0  0  0
  -29.7300  -11.8019   17.4101 H   0  0  0  0  0  0
  -29.6610  -13.5069   17.7759 H   0  0  0  0  0  0
  -27.8206  -11.3161   18.7951 H   0  0  0  0  0  0
  -27.3639  -12.6621   17.7861 H   0  0  0  0  0  0
  -27.7237  -14.2519   19.6069 H   0  0  0  0  0  0
  -28.6790  -11.8841   21.2872 H   0  0  0  0  0  0
  -28.4513  -13.4833   21.9009 H   0  0  0  0  0  0
  -25.2759   -9.5681   22.4751 H   0  0  0  0  0  0
  -23.9998   -7.4633   22.7470 H   0  0  0  0  0  0
  -21.0834   -8.8772   19.8951 H   0  0  0  0  0  0
  -22.3693  -10.9671   19.6158 H   0  0  0  0  0  0
  -21.2005   -7.6149   23.9720 H   0  0  0  0  0  0
  -21.1479   -6.0521   25.9080 H   0  0  0  0  0  0
  -22.0600   -2.7611   23.2847 H   0  0  0  0  0  0
  -22.4116  -11.9887   22.4767 H   0  0  0  0  0  0
  -21.1134  -13.1276   22.2614 H   0  0  0  0  0  0
  -24.6738  -15.8462   20.5181 H   0  0  0  0  0  0
  -26.2968  -15.6226   20.1028 H   0  0  0  0  0  0
  -26.7105  -32.5556   23.1176 H   0  0  0  0  0  0
  -25.0050  -33.9789   25.0484 H   0  0  0  0  0  0
  -22.6883  -31.3061   21.4093 H   0  0  0  0  0  0
  -23.3747  -35.9662   23.3316 H   0  0  0  0  0  0
  -24.3586  -36.8917   22.2053 H   0  0  0  0  0  0
  -23.7247  -37.6533   23.6640 H   0  0  0  0  0  0
  -26.0322  -31.6011   20.5886 H   0  0  0  0  0  0
  -26.8166  -30.8972   21.9761 H   0  0  0  0  0  0
  -28.1058  -29.1275   21.1518 H   0  0  0  0  0  0
  -26.0914  -25.9691   19.0240 H   0  0  0  0  0  0
  -23.9835  -27.2768   19.0525 H   0  0  0  0  0  0
  -23.7178  -30.5897   19.4047 H   0  0  0  0  0  0
  -22.7350  -29.2347   19.8742 H   0  0  0  0  0  0
  -25.1279  -36.1995   25.0837 H   0  0  0  0  0  0
  -20.9932  -28.3223   24.1445 H   0  0  0  0  0  0
  -20.5663  -26.2261   23.3601 H   0  0  0  0  0  0
  -21.6633  -26.7445   22.1211 H   0  0  0  0  0  0
  -19.6916  -25.6295   21.1225 H   0  0  0  0  0  0
  -19.6690  -27.3203   20.6747 H   0  0  0  0  0  0
  -17.4190  -26.6657   21.4016 H   0  0  0  0  0  0
  -18.0323  -26.0040   22.9001 H   0  0  0  0  0  0
  -19.7932  -30.7227   24.2299 H   0  0  0  0  0  0
  -17.5018  -31.6264   24.5154 H   0  0  0  0  0  0
  -15.5346  -30.2994   23.7636 H   0  0  0  0  0  0
  -15.8650  -28.0823   22.7056 H   0  0  0  0  0  0
  -24.5903  -30.7045   25.7808 H   0  0  0  0  0  0
  -24.8925  -32.2853   26.4931 H   0  0  0  0  0  0
  -25.8094  -30.8859   27.0219 H   0  0  0  0  0  0
  -26.2825  -29.6815   24.1130 H   0  0  0  0  0  0
  -27.4089  -29.7276   25.4498 H   0  0  0  0  0  0
  -27.8645  -30.4381   23.9184 H   0  0  0  0  0  0
  -27.2664  -33.3604   26.2080 H   0  0  0  0  0  0
  -28.3833  -32.6893   25.0283 H   0  0  0  0  0  0
  -28.0731  -31.8418   26.5360 H   0  0  0  0  0  0
  -28.2606  -38.0105   24.7502 H   0  0  0  0  0  0
  -28.1069  -36.2632   24.6302 H   0  0  0  0  0  0
  -27.2296  -37.1474   25.8869 H   0  0  0  0  0  0
  -20.9289  -29.8749   21.6962 H   0  0  0  0  0  0
  -26.0196  -38.2880   24.1396 H   0  0  0  0  0  0
  -28.4199  -19.2703   23.0571 H   0  0  0  0  0  0
  -28.3903  -16.8321   22.7716 H   0  0  0  0  0  0
  -31.8235  -17.1162   20.1420 H   0  0  0  0  0  0
  -31.2486  -21.4209   22.0227 H   0  0  0  0  0  0
  -29.8682  -21.2678   23.0719 H   0  0  0  0  0  0
  -27.7763  -24.0013   20.1591 H   0  0  0  0  0  0
  -29.4175  -24.3606   19.6762 H   0  0  0  0  0  0
  -28.6628  -23.3834   22.4819 H   0  0  0  0  0  0
  -30.2800  -23.7076   21.9071 H   0  0  0  0  0  0
  -29.5048  -26.0693   21.6098 H   0  0  0  0  0  0
  -27.7907  -25.8189   21.8244 H   0  0  0  0  0  0
  -29.2054  -14.9353   21.8094 H   0  0  0  0  0  0
  -28.4876  -21.5575   21.0395 H   0  0  0  0  0  0
  -29.8489  -21.9260   20.2229 H   0  0  0  0  0  0
  1 25  1  0  0  0
  1 30  2  0  0  0
  1 81  1  0  0  0
  2  3  1  0  0  0
  2 25  1  0  0  0
  2 84  1  0  0  0
  2 85  1  0  0  0
  3  4  1  0  0  0
  3 86  1  0  0  0
  3 87  1  0  0  0
  4  5  1  0  0  0
  4 88  1  0  0  0
  4 89  1  0  0  0
  5  6  1  0  0  0
  5 26  1  0  0  0
  5 90  1  0  0  0
  6 25  1  0  0  0
  6 91  1  0  0  0
  6 92  1  0  0  0
  7  8  2  0  0  0
  7 26  1  0  0  0
  7 29  1  0  0  0
  8  9  1  0  0  0
  8 22  1  0  0  0
  9 10  1  0  0  0
  9 27  2  0  0  0
 10 11  2  0  0  0
 10 15  1  0  0  0
 11 12  1  0  0  0
 11 93  1  0  0  0
 12 13  2  0  0  0
 12 94  1  0  0  0
 13 14  1  0  0  0
 13 31  1  0  0  0
 14 15  2  0  0  0
 14 95  1  0  0  0
 15 96  1  0  0  0
 16 17  2  0  0  0
 16 21  1  0  0  0
 16 31  1  0  0  0
 17 18  1  0  0  0
 17 97  1  0  0  0
 18 19  2  0  0  0
 18 98  1  0  0  0
 19 20  1  0  0  0
 19 24  1  0  0  0
 20 21  2  0  0  0
 20 99  1  0  0  0
 21 23  1  0  0  0
 22 28  1  0  0  0
 22 32  2  0  0  0
 26 27  1  0  0  0
 28100  1  0  0  0
 28101  1  0  0  0
 29102  1  0  0  0
 29103  1  0  0  0
 33 34  1  0  0  0
 33 66  1  0  0  0
 33 70  2  0  0  0
 34 36  1  0  0  0
 34 59  1  0  0  0
 34104  1  0  0  0
 35 44  2  0  0  0
 35 45  1  0  0  0
 35 68  1  0  0  0
 36 56  1  0  0  0
 36105  1  0  0  0
 37 39  1  0  0  0
 37 47  1  0  0  0
 37 66  1  0  0  0
 37106  1  0  0  0
 38 43  2  0  0  0
 38 46  1  0  0  0
 38 47  1  0  0  0
 39 64  1  0  0  0
 39 67  2  0  0  0
 40 52  1  0  0  0
 40 53  2  0  0  0
 40 58  1  0  0  0
 41107  1  0  0  0
 41108  1  0  0  0
 41109  1  0  0  0
 41 48  1  0  0  0
 42 43  1  0  0  0
 42 66  1  0  0  0
 42110  1  0  0  0
 42111  1  0  0  0
 43 44  1  0  0  0
 44112  1  0  0  0
 45 46  2  0  0  0
 45113  1  0  0  0
 46114  1  0  0  0
 47115  1  0  0  0
 47116  1  0  0  0
 48 56  1  0  0  0
 48 65  1  0  0  0
 48117  1  0  0  0
 49 50  1  0  0  0
 49 53  1  0  0  0
 49 64  1  0  0  0
 49118  1  0  0  0
 50 51  1  0  0  0
 50119  1  0  0  0
 50120  1  0  0  0
 51 52  1  0  0  0
 51121  1  0  0  0
 51122  1  0  0  0
 52123  1  0  0  0
 52124  1  0  0  0
 53 54  1  0  0  0
 54 55  2  0  0  0
 54125  1  0  0  0
 55 57  1  0  0  0
 55126  1  0  0  0
 56 69  2  0  0  0
 57 58  2  0  0  0
 57127  1  0  0  0
 58128  1  0  0  0
 59 60  1  0  0  0
 59 61  1  0  0  0
 59 62  1  0  0  0
 60129  1  0  0  0
 60130  1  0  0  0
 60131  1  0  0  0
 61132  1  0  0  0
 61133  1  0  0  0
 61134  1  0  0  0
 62135  1  0  0  0
 62136  1  0  0  0
 62137  1  0  0  0
 63 65  1  0  0  0
 63138  1  0  0  0
 63139  1  0  0  0
 63140  1  0  0  0
 64141  1  0  0  0
 65142  1  0  0  0
 68 80  1  0  0  0
 71 72  2  0  0  0
 71 74  1  0  0  0
 71143  1  0  0  0
 72 75  1  0  0  0
 72144  1  0  0  0
 73 75  2  0  0  0
 73 76  1  0  0  0
 73145  1  0  0  0
 74 76  2  0  0  0
 74 77  1  0  0  0
 75 81  1  0  0  0
 76 83  1  0  0  0
 77 82  1  0  0  0
 77146  1  0  0  0
 77147  1  0  0  0
 78 79  1  0  0  0
 78 80  1  0  0  0
 78148  1  0  0  0
 78149  1  0  0  0
 79 82  1  0  0  0
 79150  1  0  0  0
 79151  1  0  0  0
 80152  1  0  0  0
 80153  1  0  0  0
 81154  1  0  0  0
 82155  1  0  0  0
 82156  1  0  0  0
M  CHG  1  82   1
M  ISO  4   1 100  68 101  80 101  81 100
M  END
> <chiral flag>
0

> <version>
0

> <s_m_source_file>
/data/baiqing/PycharmProjects/Reinvent-master-3.2/result/LINK_invent/BTK/process_docking_weight1_custom_product_contain_oxygen_bond_distance_aromatic_linkinvent_7_9_3/rearranged_h_0010.sdf

> <i_m_source_file_index>
1

> <r_mmod_Potential_Energy-OPLS-2005>
-255.194854736328

> <r_mmod_Stretch_Energy-OPLS-2005>
34.9715194702148

> <r_mmod_Bend_Energy-OPLS-2005>
97.4803314208984

> <r_mmod_Torsional_Energy-OPLS-2005>
224.408020019531

> <r_mmod_Improper_Torsional_Energy-OPLS-2005>
2.72411298751831

> <r_mmod_Van_der_Waal_Energy-OPLS-2005>
149.064743041992

> <r_mmod_Electrostatic_Energy-OPLS-2005>
-299.412384033203

> <r_mmod_Solvation_Energy-OPLS-2005>
-472.936462402344

> <b_mmod_Minimization_Converged-OPLS-2005>
0

> <r_mmod_RMS_Derivative-OPLS-2005>
0.615435421466827

$$$$
1
                    3D
 Structure written by MMmdl.
159167  0  0  1  0            999 V2000
  -30.6630  -14.4738   20.5996 C   0  0  0  0  0  0
  -30.4355  -12.3140   19.4136 C   0  0  0  0  0  0
  -29.4986  -12.5085   18.2018 C   0  0  0  0  0  0
  -28.0175  -12.3685   18.6113 C   0  0  0  0  0  0
  -27.6649  -13.1945   19.8765 C   0  0  2  0  0  0
  -28.7032  -12.9387   20.9915 C   0  0  0  0  0  0
  -25.2618  -13.8126   20.5646 C   0  0  0  0  0  0
  -24.1855  -13.0433   20.9168 C   0  0  0  0  0  0
  -24.6384  -11.6890   20.8729 C   0  0  0  0  0  0
  -23.9041  -10.4287   21.0401 C   0  0  0  0  0  0
  -24.3601   -9.4212   21.9185 C   0  0  0  0  0  0
  -23.6284   -8.2243   22.0757 C   0  0  0  0  0  0
  -22.4268   -8.0276   21.3539 C   0  0  0  0  0  0
  -21.9897   -9.0247   20.4645 C   0  0  0  0  0  0
  -22.7214  -10.2130   20.3053 C   0  0  0  0  0  0
  -21.6854   -6.0733   22.5279 C   0  0  0  0  0  0
  -21.4013   -6.5640   23.8212 C   0  0  0  0  0  0
  -21.3659   -5.6793   24.9174 C   0  0  0  0  0  0
  -21.6039   -4.3054   24.7228 C   0  0  0  0  0  0
  -21.8822   -3.8146   23.4350 C   0  0  0  0  0  0
  -21.9193   -4.6960   22.3401 C   0  0  0  0  0  0
  -22.7881  -13.5245   21.1833 C   0  0  0  0  0  0
  -22.1663   -4.2143   21.0978 F   0  0  0  0  0  0
  -21.5629   -3.4536   25.7744 F   0  0  0  0  0  0
  -30.0345  -13.2749   20.4521 N   0  0  0  0  0  0
  -26.3035  -12.9269   20.3338 N   0  0  0  0  0  0
  -25.9303  -11.6444   20.5737 N   0  0  0  0  0  0
  -22.0512  -12.8244   22.0389 N   0  0  0  0  0  0
  -25.4383  -15.1844   20.4027 N   0  0  0  0  0  0
  -31.7797  -14.7061   20.1238 O   0  0  0  0  0  0
  -21.6637   -6.8872   21.4237 O   0  0  0  0  0  0
  -22.3577  -14.5557   20.6685 O   0  0  0  0  0  0
  -24.6132  -31.8671   23.2078 C   0  0  0  0  0  0
  -25.9020  -32.4823   23.8375 C   0  0  1  0  0  0
  -27.2381  -27.4349   20.0977 C   0  0  0  0  0  0
  -25.5865  -33.8618   24.2302 N   0  0  0  0  0  0
  -23.4013  -30.4891   21.5498 C   0  0  2  0  0  0
  -24.8486  -28.9521   20.1190 C   0  0  0  0  0  0
  -22.7403  -29.4641   22.4993 C   0  0  0  0  0  0
  -18.0266  -28.1369   22.8495 C   0  0  0  0  0  0
  -24.1484  -36.7323   23.2636 C   0  0  0  0  0  0
  -25.9290  -30.8363   21.3582 C   0  0  0  0  0  0
  -26.0092  -29.4698   20.7069 C   0  0  0  0  0  0
  -27.2079  -28.7202   20.6877 C   0  0  0  0  0  0
  -26.0573  -26.9271   19.5111 C   0  0  0  0  0  0
  -24.8667  -27.6794   19.5202 C   0  0  0  0  0  0
  -23.6106  -29.8187   20.1662 C   0  0  0  0  0  0
  -25.4105  -36.3115   24.0332 C   0  0  1  0  0  0
  -20.5856  -28.3648   23.1325 C   0  0  2  0  0  0
  -20.6763  -26.9385   22.5426 C   0  0  0  0  0  0
  -19.5741  -26.6377   21.5217 C   0  0  0  0  0  0
  -18.1917  -26.7916   22.1625 C   0  0  0  0  0  0
  -19.1518  -28.8827   23.2907 C   0  0  0  0  0  0
  -18.9451  -30.1435   23.8915 C   0  0  0  0  0  0
  -17.6459  -30.6587   24.0556 C   0  0  0  0  0  0
  -25.9030  -34.9477   23.5122 C   0  0  0  0  0  0
  -16.5347  -29.9091   23.6316 C   0  0  0  0  0  0
  -16.7259  -28.6502   23.0345 C   0  0  0  0  0  0
  -26.4455  -31.6601   25.0697 C   0  0  0  0  0  0
  -25.3717  -31.3712   26.1444 C   0  0  0  0  0  0
  -27.0255  -30.3039   24.6041 C   0  0  0  0  0  0
  -27.6023  -32.4317   25.7475 C   0  0  0  0  0  0
  -27.5584  -37.1816   24.8457 C   0  0  0  0  0  0
  -21.4131  -29.3018   22.3739 N   0  0  0  0  0  0
  -26.4296  -37.3797   23.9406 N   0  0  0  0  0  0
  -24.6664  -31.0772   22.0982 N   0  0  0  0  0  0
  -23.4180  -28.8184   23.3033 O   0  0  0  0  0  0
  -28.4201  -26.7232   20.0836 O   0  0  0  0  0  0
  -26.5614  -34.8941   22.4700 O   0  0  0  0  0  0
  -23.5331  -32.1418   23.7487 O   0  0  0  0  0  0
  -28.8695  -18.9699   21.6864 C   0  0  0  0  0  0
  -31.2790  -18.9331   21.3798 C   0  0  0  0  0  0
  -28.8336  -17.5690   21.5127 C   0  0  0  0  0  0
  -31.2438  -17.5312   21.2002 C   0  0  0  0  0  0
  -30.0966  -19.6655   21.6428 C   0  0  0  0  0  0
  -30.0172  -16.8298   21.2797 C   0  0  0  0  0  0
  -30.6160  -21.9426   19.7027 C   0  0  0  0  0  0
  -30.1658  -21.1563   22.0104 C   0  0  0  0  0  0
  -29.7812  -24.7728   20.5643 C   0  0  0  0  0  0
  -29.9523  -23.5426   21.5097 C   0  0  0  0  0  0
  -28.3491  -25.3122   20.3457 C   0  0  0  0  0  0
  -29.8989  -15.4079   21.2059 N   0  0  0  0  0  0
  -29.8359  -22.1554   20.9470 N   0  3  1  0  0  0
  -31.4766  -12.4421   19.1116 H   0  0  0  0  0  0
  -30.3597  -11.2955   19.7965 H   0  0  0  0  0  0
  -29.7377  -11.7843   17.4223 H   0  0  0  0  0  0
  -29.6657  -13.4937   17.7635 H   0  0  0  0  0  0
  -27.8228  -11.3109   18.7943 H   0  0  0  0  0  0
  -27.3701  -12.6558   17.7818 H   0  0  0  0  0  0
  -27.7182  -14.2456   19.5951 H   0  0  0  0  0  0
  -28.6873  -11.8882   21.2871 H   0  0  0  0  0  0
  -28.4519  -13.4895   21.8986 H   0  0  0  0  0  0
  -25.2748   -9.5692   22.4756 H   0  0  0  0  0  0
  -23.9997   -7.4636   22.7480 H   0  0  0  0  0  0
  -21.0831   -8.8756   19.8952 H   0  0  0  0  0  0
  -22.3671  -10.9666   19.6162 H   0  0  0  0  0  0
  -21.2008   -7.6151   23.9710 H   0  0  0  0  0  0
  -21.1476   -6.0526   25.9075 H   0  0  0  0  0  0
  -22.0602   -2.7607   23.2852 H   0  0  0  0  0  0
  -22.4119  -11.9901   22.4771 H   0  0  0  0  0  0
  -21.1131  -13.1279   22.2578 H   0  0  0  0  0  0
  -24.6705  -15.8409   20.4939 H   0  0  0  0  0  0
  -26.2806  -15.6100   20.0376 H   0  0  0  0  0  0
  -26.7091  -32.5549   23.1139 H   0  0  0  0  0  0
  -24.9971  -33.9772   25.0418 H   0  0  0  0  0  0
  -22.6892  -31.3051   21.4092 H   0  0  0  0  0  0
  -23.3746  -35.9655   23.3299 H   0  0  0  0  0  0
  -24.3582  -36.8938   22.2050 H   0  0  0  0  0  0
  -23.7239  -37.6527   23.6659 H   0  0  0  0  0  0
  -26.0314  -31.6029   20.5891 H   0  0  0  0  0  0
  -26.8194  -30.8950   21.9722 H   0  0  0  0  0  0
  -28.1076  -29.1192   21.1375 H   0  0  0  0  0  0
  -26.0476  -25.9590   19.0316 H   0  0  0  0  0  0
  -23.9725  -27.2730   19.0671 H   0  0  0  0  0  0
  -23.7184  -30.5912   19.4035 H   0  0  0  0  0  0
  -22.7348  -29.2371   19.8740 H   0  0  0  0  0  0
  -25.1285  -36.1980   25.0824 H   0  0  0  0  0  0
  -20.9948  -28.3235   24.1439 H   0  0  0  0  0  0
  -20.5671  -26.2259   23.3617 H   0  0  0  0  0  0
  -21.6639  -26.7437   22.1211 H   0  0  0  0  0  0
  -19.6902  -25.6290   21.1235 H   0  0  0  0  0  0
  -19.6687  -27.3203   20.6759 H   0  0  0  0  0  0
  -17.4186  -26.6659   21.4025 H   0  0  0  0  0  0
  -18.0305  -26.0060   22.9024 H   0  0  0  0  0  0
  -19.7939  -30.7223   24.2315 H   0  0  0  0  0  0
  -17.5025  -31.6276   24.5143 H   0  0  0  0  0  0
  -15.5350  -30.3004   23.7633 H   0  0  0  0  0  0
  -15.8654  -28.0834   22.7050 H   0  0  0  0  0  0
  -24.5897  -30.7044   25.7784 H   0  0  0  0  0  0
  -24.8906  -32.2875   26.4878 H   0  0  0  0  0  0
  -25.8070  -30.8899   27.0208 H   0  0  0  0  0  0
  -26.2768  -29.6845   24.1084 H   0  0  0  0  0  0
  -27.4000  -29.7229   25.4476 H   0  0  0  0  0  0
  -27.8622  -30.4335   23.9173 H   0  0  0  0  0  0
  -27.2612  -33.3600   26.2072 H   0  0  0  0  0  0
  -28.3835  -32.6904   25.0313 H   0  0  0  0  0  0
  -28.0679  -31.8421   26.5383 H   0  0  0  0  0  0
  -28.2598  -38.0124   24.7528 H   0  0  0  0  0  0
  -28.1094  -36.2659   24.6259 H   0  0  0  0  0  0
  -27.2306  -37.1421   25.8862 H   0  0  0  0  0  0
  -20.9288  -29.8751   21.6970 H   0  0  0  0  0  0
  -26.0192  -38.2871   24.1437 H   0  0  0  0  0  0
  -27.9512  -19.4993   21.9020 H   0  0  0  0  0  0
  -32.2353  -19.4382   21.3593 H   0  0  0  0  0  0
  -27.8798  -17.0642   21.5855 H   0  0  0  0  0  0
  -32.1759  -17.0057   21.0456 H   0  0  0  0  0  0
  -30.5278  -20.9177   19.3427 H   0  0  0  0  0  0
  -31.6749  -22.1535   19.8552 H   0  0  0  0  0  0
  -30.2494  -22.5730   18.8943 H   0  0  0  0  0  0
  -31.1698  -21.3595   22.3869 H   0  0  0  0  0  0
  -29.5000  -21.3154   22.8607 H   0  0  0  0  0  0
  -30.3000  -24.6564   19.6150 H   0  0  0  0  0  0
  -30.3245  -25.5806   21.0566 H   0  0  0  0  0  0
  -29.2749  -23.6457   22.3586 H   0  0  0  0  0  0
  -30.9524  -23.6238   21.9385 H   0  0  0  0  0  0
  -27.7410  -25.1472   21.2376 H   0  0  0  0  0  0
  -27.8804  -24.7767   19.5196 H   0  0  0  0  0  0
  -29.0125  -15.0397   21.5148 H   0  0  0  0  0  0
  -28.8678  -22.0032   20.7073 H   0  0  0  0  0  0
  1 25  1  0  0  0
  1 30  2  0  0  0
  1 82  1  0  0  0
  2  3  1  0  0  0
  2 25  1  0  0  0
  2 84  1  0  0  0
  2 85  1  0  0  0
  3  4  1  0  0  0
  3 86  1  0  0  0
  3 87  1  0  0  0
  4  5  1  0  0  0
  4 88  1  0  0  0
  4 89  1  0  0  0
  5  6  1  0  0  0
  5 26  1  0  0  0
  5 90  1  0  0  0
  6 25  1  0  0  0
  6 91  1  0  0  0
  6 92  1  0  0  0
  7  8  2  0  0  0
  7 26  1  0  0  0
  7 29  1  0  0  0
  8  9  1  0  0  0
  8 22  1  0  0  0
  9 10  1  0  0  0
  9 27  2  0  0  0
 10 11  2  0  0  0
 10 15  1  0  0  0
 11 12  1  0  0  0
 11 93  1  0  0  0
 12 13  2  0  0  0
 12 94  1  0  0  0
 13 14  1  0  0  0
 13 31  1  0  0  0
 14 15  2  0  0  0
 14 95  1  0  0  0
 15 96  1  0  0  0
 16 17  2  0  0  0
 16 21  1  0  0  0
 16 31  1  0  0  0
 17 18  1  0  0  0
 17 97  1  0  0  0
 18 19  2  0  0  0
 18 98  1  0  0  0
 19 20  1  0  0  0
 19 24  1  0  0  0
 20 21  2  0  0  0
 20 99  1  0  0  0
 21 23  1  0  0  0
 22 28  1  0  0  0
 22 32  2  0  0  0
 26 27  1  0  0  0
 28100  1  0  0  0
 28101  1  0  0  0
 29102  1  0  0  0
 29103  1  0  0  0
 33 34  1  0  0  0
 33 66  1  0  0  0
 33 70  2  0  0  0
 34 36  1  0  0  0
 34 59  1  0  0  0
 34104  1  0  0  0
 35 44  2  0  0  0
 35 45  1  0  0  0
 35 68  1  0  0  0
 36 56  1  0  0  0
 36105  1  0  0  0
 37 39  1  0  0  0
 37 47  1  0  0  0
 37 66  1  0  0  0
 37106  1  0  0  0
 38 43  2  0  0  0
 38 46  1  0  0  0
 38 47  1  0  0  0
 39 64  1  0  0  0
 39 67  2  0  0  0
 40 52  1  0  0  0
 40 53  2  0  0  0
 40 58  1  0  0  0
 41107  1  0  0  0
 41108  1  0  0  0
 41109  1  0  0  0
 41 48  1  0  0  0
 42 43  1  0  0  0
 42 66  1  0  0  0
 42110  1  0  0  0
 42111  1  0  0  0
 43 44  1  0  0  0
 44112  1  0  0  0
 45 46  2  0  0  0
 45113  1  0  0  0
 46114  1  0  0  0
 47115  1  0  0  0
 47116  1  0  0  0
 48 56  1  0  0  0
 48 65  1  0  0  0
 48117  1  0  0  0
 49 50  1  0  0  0
 49 53  1  0  0  0
 49 64  1  0  0  0
 49118  1  0  0  0
 50 51  1  0  0  0
 50119  1  0  0  0
 50120  1  0  0  0
 51 52  1  0  0  0
 51121  1  0  0  0
 51122  1  0  0  0
 52123  1  0  0  0
 52124  1  0  0  0
 53 54  1  0  0  0
 54 55  2  0  0  0
 54125  1  0  0  0
 55 57  1  0  0  0
 55126  1  0  0  0
 56 69  2  0  0  0
 57 58  2  0  0  0
 57127  1  0  0  0
 58128  1  0  0  0
 59 60  1  0  0  0
 59 61  1  0  0  0
 59 62  1  0  0  0
 60129  1  0  0  0
 60130  1  0  0  0
 60131  1  0  0  0
 61132  1  0  0  0
 61133  1  0  0  0
 61134  1  0  0  0
 62135  1  0  0  0
 62136  1  0  0  0
 62137  1  0  0  0
 63 65  1  0  0  0
 63138  1  0  0  0
 63139  1  0  0  0
 63140  1  0  0  0
 64141  1  0  0  0
 65142  1  0  0  0
 68 81  1  0  0  0
 71 73  2  0  0  0
 71 75  1  0  0  0
 71143  1  0  0  0
 72 74  1  0  0  0
 72 75  2  0  0  0
 72144  1  0  0  0
 73 76  1  0  0  0
 73145  1  0  0  0
 74 76  2  0  0  0
 74146  1  0  0  0
 75 78  1  0  0  0
 76 82  1  0  0  0
 77147  1  0  0  0
 77148  1  0  0  0
 77149  1  0  0  0
 77 83  1  0  0  0
 78 83  1  0  0  0
 78150  1  0  0  0
 78151  1  0  0  0
 79 80  1  0  0  0
 79 81  1  0  0  0
 79152  1  0  0  0
 79153  1  0  0  0
 80 83  1  0  0  0
 80154  1  0  0  0
 80155  1  0  0  0
 81156  1  0  0  0
 81157  1  0  0  0
 82158  1  0  0  0
 83159  1  0  0  0
M  CHG  1  83   1
M  ISO  4   1 100  68 101  81 101  82 100
M  END
> <chiral flag>
0

> <version>
0

> <s_m_source_file>
/data/baiqing/PycharmProjects/Reinvent-master-3.2/result/LINK_invent/BTK/process_docking_weight1_custom_product_contain_oxygen_bond_distance_aromatic_linkinvent_7_9_3/rearranged_h_0010.sdf

> <i_m_source_file_index>
2

> <r_mmod_Potential_Energy-OPLS-2005>
-169.5888671875

> <r_mmod_Stretch_Energy-OPLS-2005>
39.6837730407715

> <r_mmod_Bend_Energy-OPLS-2005>
116.625686645508

> <r_mmod_Torsional_Energy-OPLS-2005>
224.905197143555

> <r_mmod_Improper_Torsional_Energy-OPLS-2005>
4.02819395065308

> <r_mmod_Van_der_Waal_Energy-OPLS-2005>
155.463958740234

> <r_mmod_Electrostatic_Energy-OPLS-2005>
-270.951782226562

> <r_mmod_Solvation_Energy-OPLS-2005>
-451.460754394531

> <b_mmod_Minimization_Converged-OPLS-2005>
0

> <r_mmod_RMS_Derivative-OPLS-2005>
1.51259875297546

$$$$
2
                    3D
 Structure written by MMmdl.
151159  0  0  1  0            999 V2000
  -30.6052  -14.7330   20.4485 C   0  0  0  0  0  0
  -30.4332  -12.4420   19.4814 C   0  0  0  0  0  0
  -29.5151  -12.5140   18.2409 C   0  0  0  0  0  0
  -28.0381  -12.3450   18.6470 C   0  0  0  0  0  0
  -27.6467  -13.2334   19.8580 C   0  0  2  0  0  0
  -28.6893  -13.1484   20.9949 C   0  0  0  0  0  0
  -25.2535  -13.8206   20.5708 C   0  0  0  0  0  0
  -24.1823  -13.0449   20.9212 C   0  0  0  0  0  0
  -24.6414  -11.6929   20.8750 C   0  0  0  0  0  0
  -23.9083  -10.4310   21.0414 C   0  0  0  0  0  0
  -24.3630   -9.4219   21.9187 C   0  0  0  0  0  0
  -23.6305   -8.2255   22.0752 C   0  0  0  0  0  0
  -22.4283   -8.0295   21.3547 C   0  0  0  0  0  0
  -21.9927   -9.0266   20.4646 C   0  0  0  0  0  0
  -22.7259  -10.2148   20.3061 C   0  0  0  0  0  0
  -21.6859   -6.0752   22.5284 C   0  0  0  0  0  0
  -21.4020   -6.5646   23.8218 C   0  0  0  0  0  0
  -21.3660   -5.6793   24.9175 C   0  0  0  0  0  0
  -21.6046   -4.3057   24.7225 C   0  0  0  0  0  0
  -21.8819   -3.8157   23.4342 C   0  0  0  0  0  0
  -21.9198   -4.6979   22.3404 C   0  0  0  0  0  0
  -22.7843  -13.5228   21.1867 C   0  0  0  0  0  0
  -22.1663   -4.2167   21.0981 F   0  0  0  0  0  0
  -21.5627   -3.4537   25.7735 F   0  0  0  0  0  0
  -29.9957  -13.4977   20.4243 N   0  0  0  0  0  0
  -26.2965  -12.9415   20.3304 N   0  0  0  0  0  0
  -25.9344  -11.6550   20.5755 N   0  0  0  0  0  0
  -22.0479  -12.8212   22.0414 N   0  0  0  0  0  0
  -25.4227  -15.1937   20.4142 N   0  0  0  0  0  0
  -31.7872  -14.8371   20.1058 O   0  0  0  0  0  0
  -21.6642   -6.8898   21.4247 O   0  0  0  0  0  0
  -22.3530  -14.5531   20.6707 O   0  0  0  0  0  0
  -24.6315  -31.8546   23.1988 C   0  0  0  0  0  0
  -25.9140  -32.4751   23.8334 C   0  0  1  0  0  0
  -27.2195  -27.2565   20.1262 C   0  0  0  0  0  0
  -25.5935  -33.8556   24.2255 N   0  0  0  0  0  0
  -23.4287  -30.4770   21.5423 C   0  0  2  0  0  0
  -24.8760  -28.9252   20.1086 C   0  0  0  0  0  0
  -22.7500  -29.4600   22.4920 C   0  0  0  0  0  0
  -18.0289  -28.1380   22.8496 C   0  0  0  0  0  0
  -24.1492  -36.7280   23.2641 C   0  0  0  0  0  0
  -25.9757  -30.7647   21.3815 C   0  0  0  0  0  0
  -26.0474  -29.3878   20.7214 C   0  0  0  0  0  0
  -27.2200  -28.5648   20.7212 C   0  0  0  0  0  0
  -26.0292  -26.8741   19.4661 C   0  0  0  0  0  0
  -24.8727  -27.6771   19.4693 C   0  0  0  0  0  0
  -23.6464  -29.8109   20.1582 C   0  0  0  0  0  0
  -25.4118  -36.3066   24.0327 C   0  0  1  0  0  0
  -20.5892  -28.3695   23.1276 C   0  0  2  0  0  0
  -20.6776  -26.9415   22.5414 C   0  0  0  0  0  0
  -19.5752  -26.6382   21.5217 C   0  0  0  0  0  0
  -18.1930  -26.7922   22.1628 C   0  0  0  0  0  0
  -19.1542  -28.8856   23.2878 C   0  0  0  0  0  0
  -18.9461  -30.1455   23.8899 C   0  0  0  0  0  0
  -17.6459  -30.6590   24.0556 C   0  0  0  0  0  0
  -25.9058  -34.9438   23.5092 C   0  0  0  0  0  0
  -16.5351  -29.9083   23.6335 C   0  0  0  0  0  0
  -16.7273  -28.6493   23.0369 C   0  0  0  0  0  0
  -26.4498  -31.6580   25.0730 C   0  0  0  0  0  0
  -25.3714  -31.3738   26.1446 C   0  0  0  0  0  0
  -27.0346  -30.2992   24.6240 C   0  0  0  0  0  0
  -27.6046  -32.4327   25.7503 C   0  0  0  0  0  0
  -27.5578  -37.1797   24.8464 C   0  0  0  0  0  0
  -21.4204  -29.3041   22.3662 N   0  0  0  0  0  0
  -26.4291  -37.3768   23.9408 N   0  0  0  0  0  0
  -24.6975  -31.0502   22.0970 N   0  0  0  0  0  0
  -23.4195  -28.8143   23.3026 O   0  0  0  0  0  0
  -28.3102  -26.3546   20.2069 O   0  0  0  0  0  0
  -26.5636  -34.8912   22.4664 O   0  0  0  0  0  0
  -23.5466  -32.1372   23.7286 O   0  0  0  0  0  0
  -29.8292  -19.7477   18.7199 C   0  0  0  0  0  0
  -30.1287  -18.5447   18.0485 C   0  0  0  0  0  0
  -29.5411  -18.4603   20.7644 C   0  0  0  0  0  0
  -29.5146  -19.7599   20.0963 C   0  0  0  0  0  0
  -29.8747  -17.2046   20.0995 C   0  0  0  0  0  0
  -30.1464  -17.3003   18.7110 C   0  0  0  0  0  0
  -29.2633  -21.1280   20.8083 C   0  0  0  0  0  0
  -29.0579  -23.7477   20.5938 C   0  0  0  0  0  0
  -28.1100  -24.8833   19.9345 C   0  0  0  0  0  0
  -29.8411  -15.8570   20.7313 N   0  0  0  0  0  0
  -29.0049  -22.2936   20.1030 N   0  0  0  0  0  0
  -29.3255  -21.1571   22.0382 O   0  0  0  0  0  0
  -30.3816  -16.1885   17.9719 F   0  0  0  0  0  0
  -31.4758  -12.5619   19.1838 H   0  0  0  0  0  0
  -30.3699  -11.4602   19.9532 H   0  0  0  0  0  0
  -29.7935  -11.7462   17.5179 H   0  0  0  0  0  0
  -29.6523  -13.4734   17.7379 H   0  0  0  0  0  0
  -27.8843  -11.2941   18.8937 H   0  0  0  0  0  0
  -27.3872  -12.5560   17.7981 H   0  0  0  0  0  0
  -27.6461  -14.2604   19.4912 H   0  0  0  0  0  0
  -28.7166  -12.1433   21.4182 H   0  0  0  0  0  0
  -28.4259  -13.8165   21.8157 H   0  0  0  0  0  0
  -25.2778   -9.5686   22.4757 H   0  0  0  0  0  0
  -24.0019   -7.4642   22.7460 H   0  0  0  0  0  0
  -21.0864   -8.8786   19.8944 H   0  0  0  0  0  0
  -22.3724  -10.9683   19.6166 H   0  0  0  0  0  0
  -21.2002   -7.6155   23.9726 H   0  0  0  0  0  0
  -21.1483   -6.0523   25.9079 H   0  0  0  0  0  0
  -22.0597   -2.7622   23.2836 H   0  0  0  0  0  0
  -22.4093  -11.9883   22.4819 H   0  0  0  0  0  0
  -21.1093  -13.1235   22.2602 H   0  0  0  0  0  0
  -24.6545  -15.8468   20.5252 H   0  0  0  0  0  0
  -26.2699  -15.6344   20.0793 H   0  0  0  0  0  0
  -26.7207  -32.5394   23.1076 H   0  0  0  0  0  0
  -25.0058  -33.9691   25.0384 H   0  0  0  0  0  0
  -22.7266  -31.3003   21.3960 H   0  0  0  0  0  0
  -23.3754  -35.9610   23.3296 H   0  0  0  0  0  0
  -24.3579  -36.8910   22.2056 H   0  0  0  0  0  0
  -23.7243  -37.6479   23.6671 H   0  0  0  0  0  0
  -26.1188  -31.5274   20.6142 H   0  0  0  0  0  0
  -26.8512  -30.8109   22.0175 H   0  0  0  0  0  0
  -28.1130  -28.9112   21.2221 H   0  0  0  0  0  0
  -25.9593  -25.9283   18.9509 H   0  0  0  0  0  0
  -23.9791  -27.3216   18.9752 H   0  0  0  0  0  0
  -23.7675  -30.5864   19.4011 H   0  0  0  0  0  0
  -22.7660  -29.2409   19.8563 H   0  0  0  0  0  0
  -25.1302  -36.1906   25.0821 H   0  0  0  0  0  0
  -20.9985  -28.3267   24.1394 H   0  0  0  0  0  0
  -20.5675  -26.2305   23.3612 H   0  0  0  0  0  0
  -21.6643  -26.7437   22.1204 H   0  0  0  0  0  0
  -19.6911  -25.6291   21.1252 H   0  0  0  0  0  0
  -19.6684  -27.3188   20.6740 H   0  0  0  0  0  0
  -17.4199  -26.6680   21.4026 H   0  0  0  0  0  0
  -18.0323  -26.0058   22.9015 H   0  0  0  0  0  0
  -19.7933  -30.7271   24.2271 H   0  0  0  0  0  0
  -17.5011  -31.6273   24.5147 H   0  0  0  0  0  0
  -15.5349  -30.2984   23.7657 H   0  0  0  0  0  0
  -15.8670  -28.0804   22.7103 H   0  0  0  0  0  0
  -24.5885  -30.7096   25.7767 H   0  0  0  0  0  0
  -24.8912  -32.2912   26.4862 H   0  0  0  0  0  0
  -25.8020  -30.8913   27.0230 H   0  0  0  0  0  0
  -26.2940  -29.6740   24.1240 H   0  0  0  0  0  0
  -27.3981  -29.7257   25.4777 H   0  0  0  0  0  0
  -27.8839  -30.4249   23.9521 H   0  0  0  0  0  0
  -27.2647  -33.3627   26.2071 H   0  0  0  0  0  0
  -28.3858  -32.6890   25.0333 H   0  0  0  0  0  0
  -28.0715  -31.8462   26.5427 H   0  0  0  0  0  0
  -28.2593  -38.0097   24.7511 H   0  0  0  0  0  0
  -28.1080  -36.2628   24.6288 H   0  0  0  0  0  0
  -27.2300  -37.1442   25.8869 H   0  0  0  0  0  0
  -20.9390  -29.8752   21.6855 H   0  0  0  0  0  0
  -26.0166  -38.2842   24.1398 H   0  0  0  0  0  0
  -29.8546  -20.6690   18.1554 H   0  0  0  0  0  0
  -30.3462  -18.5737   16.9912 H   0  0  0  0  0  0
  -29.3111  -18.4325   21.8198 H   0  0  0  0  0  0
  -28.8883  -23.7558   21.6712 H   0  0  0  0  0  0
  -30.0915  -24.0698   20.4649 H   0  0  0  0  0  0
  -27.0998  -24.6060   20.2352 H   0  0  0  0  0  0
  -28.1450  -24.7647   18.8506 H   0  0  0  0  0  0
  -29.0020  -15.6647   21.2562 H   0  0  0  0  0  0
  -28.9115  -22.1780   19.1030 H   0  0  0  0  0  0
  1 25  1  0  0  0
  1 30  2  0  0  0
  1 80  1  0  0  0
  2  3  1  0  0  0
  2 25  1  0  0  0
  2 84  1  0  0  0
  2 85  1  0  0  0
  3  4  1  0  0  0
  3 86  1  0  0  0
  3 87  1  0  0  0
  4  5  1  0  0  0
  4 88  1  0  0  0
  4 89  1  0  0  0
  5  6  1  0  0  0
  5 26  1  0  0  0
  5 90  1  0  0  0
  6 25  1  0  0  0
  6 91  1  0  0  0
  6 92  1  0  0  0
  7  8  2  0  0  0
  7 26  1  0  0  0
  7 29  1  0  0  0
  8  9  1  0  0  0
  8 22  1  0  0  0
  9 10  1  0  0  0
  9 27  2  0  0  0
 10 11  2  0  0  0
 10 15  1  0  0  0
 11 12  1  0  0  0
 11 93  1  0  0  0
 12 13  2  0  0  0
 12 94  1  0  0  0
 13 14  1  0  0  0
 13 31  1  0  0  0
 14 15  2  0  0  0
 14 95  1  0  0  0
 15 96  1  0  0  0
 16 17  2  0  0  0
 16 21  1  0  0  0
 16 31  1  0  0  0
 17 18  1  0  0  0
 17 97  1  0  0  0
 18 19  2  0  0  0
 18 98  1  0  0  0
 19 20  1  0  0  0
 19 24  1  0  0  0
 20 21  2  0  0  0
 20 99  1  0  0  0
 21 23  1  0  0  0
 22 28  1  0  0  0
 22 32  2  0  0  0
 26 27  1  0  0  0
 28100  1  0  0  0
 28101  1  0  0  0
 29102  1  0  0  0
 29103  1  0  0  0
 33 34  1  0  0  0
 33 66  1  0  0  0
 33 70  2  0  0  0
 34 36  1  0  0  0
 34 59  1  0  0  0
 34104  1  0  0  0
 35 44  2  0  0  0
 35 45  1  0  0  0
 35 68  1  0  0  0
 36 56  1  0  0  0
 36105  1  0  0  0
 37 39  1  0  0  0
 37 47  1  0  0  0
 37 66  1  0  0  0
 37106  1  0  0  0
 38 43  2  0  0  0
 38 46  1  0  0  0
 38 47  1  0  0  0
 39 64  1  0  0  0
 39 67  2  0  0  0
 40 52  1  0  0  0
 40 53  2  0  0  0
 40 58  1  0  0  0
 41107  1  0  0  0
 41108  1  0  0  0
 41109  1  0  0  0
 41 48  1  0  0  0
 42 43  1  0  0  0
 42 66  1  0  0  0
 42110  1  0  0  0
 42111  1  0  0  0
 43 44  1  0  0  0
 44112  1  0  0  0
 45 46  2  0  0  0
 45113  1  0  0  0
 46114  1  0  0  0
 47115  1  0  0  0
 47116  1  0  0  0
 48 56  1  0  0  0
 48 65  1  0  0  0
 48117  1  0  0  0
 49 50  1  0  0  0
 49 53  1  0  0  0
 49 64  1  0  0  0
 49118  1  0  0  0
 50 51  1  0  0  0
 50119  1  0  0  0
 50120  1  0  0  0
 51 52  1  0  0  0
 51121  1  0  0  0
 51122  1  0  0  0
 52123  1  0  0  0
 52124  1  0  0  0
 53 54  1  0  0  0
 54 55  2  0  0  0
 54125  1  0  0  0
 55 57  1  0  0  0
 55126  1  0  0  0
 56 69  2  0  0  0
 57 58  2  0  0  0
 57127  1  0  0  0
 58128  1  0  0  0
 59 60  1  0  0  0
 59 61  1  0  0  0
 59 62  1  0  0  0
 60129  1  0  0  0
 60130  1  0  0  0
 60131  1  0  0  0
 61132  1  0  0  0
 61133  1  0  0  0
 61134  1  0  0  0
 62135  1  0  0  0
 62136  1  0  0  0
 62137  1  0  0  0
 63 65  1  0  0  0
 63138  1  0  0  0
 63139  1  0  0  0
 63140  1  0  0  0
 64141  1  0  0  0
 65142  1  0  0  0
 68 79  1  0  0  0
 71 72  2  0  0  0
 71 74  1  0  0  0
 71143  1  0  0  0
 72 76  1  0  0  0
 72144  1  0  0  0
 73 74  2  0  0  0
 73 75  1  0  0  0
 73145  1  0  0  0
 74 77  1  0  0  0
 75 76  2  0  0  0
 75 80  1  0  0  0
 76 83  1  0  0  0
 77 81  1  0  0  0
 77 82  2  0  0  0
 78 79  1  0  0  0
 78 81  1  0  0  0
 78146  1  0  0  0
 78147  1  0  0  0
 79148  1  0  0  0
 79149  1  0  0  0
 80150  1  0  0  0
 81151  1  0  0  0
M  ISO  4   1 100  68 101  79 101  80 100
M  END
> <chiral flag>
0

> <version>
0

> <s_m_source_file>
/data/baiqing/PycharmProjects/Reinvent-master-3.2/result/LINK_invent/BTK/process_docking_weight1_custom_product_contain_oxygen_bond_distance_aromatic_linkinvent_7_9_3/rearranged_h_0010.sdf

> <i_m_source_file_index>
3

> <r_mmod_Potential_Energy-OPLS-2005>
40.5341529846191

> <r_mmod_Stretch_Energy-OPLS-2005>
123.333557128906

> <r_mmod_Bend_Energy-OPLS-2005>
152.186630249023

> <r_mmod_Torsional_Energy-OPLS-2005>
244.469863891602

> <r_mmod_Improper_Torsional_Energy-OPLS-2005>
4.77431869506836

> <r_mmod_Van_der_Waal_Energy-OPLS-2005>
143.671401977539

> <r_mmod_Electrostatic_Energy-OPLS-2005>
-469.100036621094

> <r_mmod_Solvation_Energy-OPLS-2005>
-243.022247314453

> <b_mmod_Minimization_Converged-OPLS-2005>
0

> <r_mmod_RMS_Derivative-OPLS-2005>
1.13985729217529

$$$$
3
                    3D
 Structure written by MMmdl.
153161  0  0  1  0            999 V2000
  -30.6491  -14.6309   20.4723 C   0  0  0  0  0  0
  -30.4348  -12.3768   19.4545 C   0  0  0  0  0  0
  -29.5080  -12.4964   18.2251 C   0  0  0  0  0  0
  -28.0318  -12.3382   18.6386 C   0  0  0  0  0  0
  -27.6552  -13.2180   19.8604 C   0  0  2  0  0  0
  -28.7027  -13.0879   20.9909 C   0  0  0  0  0  0
  -25.2566  -13.8179   20.5680 C   0  0  0  0  0  0
  -24.1827  -13.0440   20.9183 C   0  0  0  0  0  0
  -24.6406  -11.6914   20.8737 C   0  0  0  0  0  0
  -23.9069  -10.4292   21.0400 C   0  0  0  0  0  0
  -24.3615   -9.4210   21.9181 C   0  0  0  0  0  0
  -23.6294   -8.2245   22.0750 C   0  0  0  0  0  0
  -22.4275   -8.0281   21.3546 C   0  0  0  0  0  0
  -21.9912   -9.0251   20.4641 C   0  0  0  0  0  0
  -22.7238  -10.2134   20.3051 C   0  0  0  0  0  0
  -21.6853   -6.0736   22.5281 C   0  0  0  0  0  0
  -21.4012   -6.5639   23.8214 C   0  0  0  0  0  0
  -21.3664   -5.6790   24.9176 C   0  0  0  0  0  0
  -21.6044   -4.3054   24.7223 C   0  0  0  0  0  0
  -21.8820   -3.8148   23.4345 C   0  0  0  0  0  0
  -21.9191   -4.6964   22.3404 C   0  0  0  0  0  0
  -22.7848  -13.5231   21.1860 C   0  0  0  0  0  0
  -22.1660   -4.2147   21.0981 F   0  0  0  0  0  0
  -21.5632   -3.4541   25.7739 F   0  0  0  0  0  0
  -30.0218  -13.4116   20.4221 N   0  0  0  0  0  0
  -26.3013  -12.9366   20.3349 N   0  0  0  0  0  0
  -25.9341  -11.6514   20.5768 N   0  0  0  0  0  0
  -22.0495  -12.8209   22.0407 N   0  0  0  0  0  0
  -25.4276  -15.1894   20.4118 N   0  0  0  0  0  0
  -31.8125  -14.7702   20.0895 O   0  0  0  0  0  0
  -21.6641   -6.8877   21.4240 O   0  0  0  0  0  0
  -22.3534  -14.5536   20.6711 O   0  0  0  0  0  0
  -24.6231  -31.8606   23.2082 C   0  0  0  0  0  0
  -25.9076  -32.4804   23.8385 C   0  0  1  0  0  0
  -27.2227  -27.3336   20.0987 C   0  0  0  0  0  0
  -25.5918  -33.8602   24.2325 N   0  0  0  0  0  0
  -23.4190  -30.4894   21.5478 C   0  0  2  0  0  0
  -24.8642  -28.9502   20.1125 C   0  0  0  0  0  0
  -22.7479  -29.4639   22.4937 C   0  0  0  0  0  0
  -18.0294  -28.1389   22.8499 C   0  0  0  0  0  0
  -24.1491  -36.7293   23.2654 C   0  0  0  0  0  0
  -25.9626  -30.7928   21.3807 C   0  0  0  0  0  0
  -26.0339  -29.4243   20.7170 C   0  0  0  0  0  0
  -27.2146  -28.6267   20.7057 C   0  0  0  0  0  0
  -26.0213  -26.9069   19.4803 C   0  0  0  0  0  0
  -24.8577  -27.6954   19.4894 C   0  0  0  0  0  0
  -23.6348  -29.8315   20.1619 C   0  0  0  0  0  0
  -25.4117  -36.3111   24.0356 C   0  0  1  0  0  0
  -20.5887  -28.3686   23.1287 C   0  0  2  0  0  0
  -20.6785  -26.9411   22.5417 C   0  0  0  0  0  0
  -19.5756  -26.6394   21.5231 C   0  0  0  0  0  0
  -18.1939  -26.7938   22.1638 C   0  0  0  0  0  0
  -19.1542  -28.8861   23.2895 C   0  0  0  0  0  0
  -18.9464  -30.1462   23.8911 C   0  0  0  0  0  0
  -17.6463  -30.6591   24.0577 C   0  0  0  0  0  0
  -25.9031  -34.9467   23.5147 C   0  0  0  0  0  0
  -16.5357  -29.9087   23.6334 C   0  0  0  0  0  0
  -16.7284  -28.6510   23.0351 C   0  0  0  0  0  0
  -26.4475  -31.6598   25.0739 C   0  0  0  0  0  0
  -25.3714  -31.3716   26.1483 C   0  0  0  0  0  0
  -27.0311  -30.3031   24.6172 C   0  0  0  0  0  0
  -27.6059  -32.4319   25.7499 C   0  0  0  0  0  0
  -27.5582  -37.1810   24.8477 C   0  0  0  0  0  0
  -21.4190  -29.3042   22.3680 N   0  0  0  0  0  0
  -26.4295  -37.3798   23.9416 N   0  0  0  0  0  0
  -24.6879  -31.0617   22.1043 N   0  0  0  0  0  0
  -23.4224  -28.8135   23.2968 O   0  0  0  0  0  0
  -28.3532  -26.5010   20.1263 O   0  0  0  0  0  0
  -26.5591  -34.8926   22.4716 O   0  0  0  0  0  0
  -23.5388  -32.1398   23.7390 O   0  0  0  0  0  0
  -31.0407  -19.2246   19.7741 C   0  0  0  0  0  0
  -31.0258  -17.8030   19.9083 C   0  0  0  0  0  0
  -28.9998  -19.3919   21.0372 C   0  0  0  0  0  0
  -30.0395  -20.0636   20.3429 C   0  0  0  0  0  0
  -29.9916  -17.1391   20.6200 C   0  0  0  0  0  0
  -28.9768  -17.9711   21.1658 C   0  0  0  0  0  0
  -30.2191  -21.6288   20.3422 C   0  0  0  0  0  0
  -29.3517  -24.0513   20.2044 C   0  0  0  0  0  0
  -28.1590  -25.0515   19.8947 C   0  0  0  0  0  0
  -29.8624  -15.6945   20.8118 N   0  0  0  0  0  0
  -29.0771  -22.5624   20.0097 N   0  3  0  0  0  0
  -27.9632  -17.3857   21.8489 F   0  0  0  0  0  0
  -31.4786  -12.4810   19.1538 H   0  0  0  0  0  0
  -30.3523  -11.3862   19.9034 H   0  0  0  0  0  0
  -29.7680  -11.7416   17.4819 H   0  0  0  0  0  0
  -29.6536  -13.4633   17.7422 H   0  0  0  0  0  0
  -27.8697  -11.2875   18.8799 H   0  0  0  0  0  0
  -27.3748  -12.5588   17.7965 H   0  0  0  0  0  0
  -27.6694  -14.2505   19.5107 H   0  0  0  0  0  0
  -28.7099  -12.0744   21.3954 H   0  0  0  0  0  0
  -28.4547  -13.7408   21.8303 H   0  0  0  0  0  0
  -25.2761   -9.5689   22.4754 H   0  0  0  0  0  0
  -24.0005   -7.4636   22.7470 H   0  0  0  0  0  0
  -21.0846   -8.8767   19.8947 H   0  0  0  0  0  0
  -22.3696  -10.9667   19.6157 H   0  0  0  0  0  0
  -21.2002   -7.6146   23.9715 H   0  0  0  0  0  0
  -21.1488   -6.0523   25.9078 H   0  0  0  0  0  0
  -22.0595   -2.7608   23.2848 H   0  0  0  0  0  0
  -22.4109  -11.9872   22.4783 H   0  0  0  0  0  0
  -21.1118  -13.1236   22.2619 H   0  0  0  0  0  0
  -24.6666  -15.8471   20.5390 H   0  0  0  0  0  0
  -26.2914  -15.6372   20.1324 H   0  0  0  0  0  0
  -26.7141  -32.5478   23.1117 H   0  0  0  0  0  0
  -25.0092  -33.9743   25.0493 H   0  0  0  0  0  0
  -22.7124  -31.3111   21.4077 H   0  0  0  0  0  0
  -23.3769  -35.9607   23.3330 H   0  0  0  0  0  0
  -24.3593  -36.8884   22.2066 H   0  0  0  0  0  0
  -23.7190  -37.6497   23.6631 H   0  0  0  0  0  0
  -26.0879  -31.5554   20.6121 H   0  0  0  0  0  0
  -26.8465  -30.8427   22.0077 H   0  0  0  0  0  0
  -28.1089  -28.9858   21.1932 H   0  0  0  0  0  0
  -25.9432  -25.9502   18.9885 H   0  0  0  0  0  0
  -23.9560  -27.3291   19.0180 H   0  0  0  0  0  0
  -23.7618  -30.6116   19.4089 H   0  0  0  0  0  0
  -22.7556  -29.2610   19.8562 H   0  0  0  0  0  0
  -25.1277  -36.2020   25.0843 H   0  0  0  0  0  0
  -20.9983  -28.3262   24.1406 H   0  0  0  0  0  0
  -20.5712  -26.2291   23.3610 H   0  0  0  0  0  0
  -21.6642  -26.7450   22.1187 H   0  0  0  0  0  0
  -19.6904  -25.6314   21.1243 H   0  0  0  0  0  0
  -19.6689  -27.3224   20.6782 H   0  0  0  0  0  0
  -17.4206  -26.6716   21.4042 H   0  0  0  0  0  0
  -18.0312  -26.0075   22.9023 H   0  0  0  0  0  0
  -19.7937  -30.7289   24.2275 H   0  0  0  0  0  0
  -17.5013  -31.6269   24.5172 H   0  0  0  0  0  0
  -15.5354  -30.2992   23.7646 H   0  0  0  0  0  0
  -15.8692  -28.0843   22.7028 H   0  0  0  0  0  0
  -24.5911  -30.7047   25.7810 H   0  0  0  0  0  0
  -24.8880  -32.2873   26.4901 H   0  0  0  0  0  0
  -25.8051  -30.8906   27.0264 H   0  0  0  0  0  0
  -26.2879  -29.6808   24.1187 H   0  0  0  0  0  0
  -27.4029  -29.7264   25.4649 H   0  0  0  0  0  0
  -27.8739  -30.4360   23.9386 H   0  0  0  0  0  0
  -27.2708  -33.3642   26.2064 H   0  0  0  0  0  0
  -28.3867  -32.6839   25.0305 H   0  0  0  0  0  0
  -28.0728  -31.8441   26.5422 H   0  0  0  0  0  0
  -28.2614  -38.0092   24.7516 H   0  0  0  0  0  0
  -28.1057  -36.2623   24.6314 H   0  0  0  0  0  0
  -27.2298  -37.1483   25.8879 H   0  0  0  0  0  0
  -20.9361  -29.8796   21.6927 H   0  0  0  0  0  0
  -26.0209  -38.2893   24.1405 H   0  0  0  0  0  0
  -31.8737  -19.6797   19.2530 H   0  0  0  0  0  0
  -31.8337  -17.2380   19.4627 H   0  0  0  0  0  0
  -28.2144  -19.9605   21.5123 H   0  0  0  0  0  0
  -31.0254  -21.8689   19.6481 H   0  0  0  0  0  0
  -30.6033  -21.8994   21.3268 H   0  0  0  0  0  0
  -29.6573  -24.1984   21.2385 H   0  0  0  0  0  0
  -30.2141  -24.3312   19.5967 H   0  0  0  0  0  0
  -27.8775  -24.9072   18.8521 H   0  0  0  0  0  0
  -27.3097  -24.7352   20.5021 H   0  0  0  0  0  0
  -28.9675  -15.4257   21.1913 H   0  0  0  0  0  0
  -28.2890  -22.3075   20.5817 H   0  0  0  0  0  0
  -28.8124  -22.3909   19.0519 H   0  0  0  0  0  0
  1 25  1  0  0  0
  1 30  2  0  0  0
  1 80  1  0  0  0
  2  3  1  0  0  0
  2 25  1  0  0  0
  2 83  1  0  0  0
  2 84  1  0  0  0
  3  4  1  0  0  0
  3 85  1  0  0  0
  3 86  1  0  0  0
  4  5  1  0  0  0
  4 87  1  0  0  0
  4 88  1  0  0  0
  5  6  1  0  0  0
  5 26  1  0  0  0
  5 89  1  0  0  0
  6 25  1  0  0  0
  6 90  1  0  0  0
  6 91  1  0  0  0
  7  8  2  0  0  0
  7 26  1  0  0  0
  7 29  1  0  0  0
  8  9  1  0  0  0
  8 22  1  0  0  0
  9 10  1  0  0  0
  9 27  2  0  0  0
 10 11  2  0  0  0
 10 15  1  0  0  0
 11 12  1  0  0  0
 11 92  1  0  0  0
 12 13  2  0  0  0
 12 93  1  0  0  0
 13 14  1  0  0  0
 13 31  1  0  0  0
 14 15  2  0  0  0
 14 94  1  0  0  0
 15 95  1  0  0  0
 16 17  2  0  0  0
 16 21  1  0  0  0
 16 31  1  0  0  0
 17 18  1  0  0  0
 17 96  1  0  0  0
 18 19  2  0  0  0
 18 97  1  0  0  0
 19 20  1  0  0  0
 19 24  1  0  0  0
 20 21  2  0  0  0
 20 98  1  0  0  0
 21 23  1  0  0  0
 22 28  1  0  0  0
 22 32  2  0  0  0
 26 27  1  0  0  0
 28 99  1  0  0  0
 28100  1  0  0  0
 29101  1  0  0  0
 29102  1  0  0  0
 33 34  1  0  0  0
 33 66  1  0  0  0
 33 70  2  0  0  0
 34 36  1  0  0  0
 34 59  1  0  0  0
 34103  1  0  0  0
 35 44  2  0  0  0
 35 45  1  0  0  0
 35 68  1  0  0  0
 36 56  1  0  0  0
 36104  1  0  0  0
 37 39  1  0  0  0
 37 47  1  0  0  0
 37 66  1  0  0  0
 37105  1  0  0  0
 38 43  2  0  0  0
 38 46  1  0  0  0
 38 47  1  0  0  0
 39 64  1  0  0  0
 39 67  2  0  0  0
 40 52  1  0  0  0
 40 53  2  0  0  0
 40 58  1  0  0  0
 41106  1  0  0  0
 41107  1  0  0  0
 41108  1  0  0  0
 41 48  1  0  0  0
 42 43  1  0  0  0
 42 66  1  0  0  0
 42109  1  0  0  0
 42110  1  0  0  0
 43 44  1  0  0  0
 44111  1  0  0  0
 45 46  2  0  0  0
 45112  1  0  0  0
 46113  1  0  0  0
 47114  1  0  0  0
 47115  1  0  0  0
 48 56  1  0  0  0
 48 65  1  0  0  0
 48116  1  0  0  0
 49 50  1  0  0  0
 49 53  1  0  0  0
 49 64  1  0  0  0
 49117  1  0  0  0
 50 51  1  0  0  0
 50118  1  0  0  0
 50119  1  0  0  0
 51 52  1  0  0  0
 51120  1  0  0  0
 51121  1  0  0  0
 52122  1  0  0  0
 52123  1  0  0  0
 53 54  1  0  0  0
 54 55  2  0  0  0
 54124  1  0  0  0
 55 57  1  0  0  0
 55125  1  0  0  0
 56 69  2  0  0  0
 57 58  2  0  0  0
 57126  1  0  0  0
 58127  1  0  0  0
 59 60  1  0  0  0
 59 61  1  0  0  0
 59 62  1  0  0  0
 60128  1  0  0  0
 60129  1  0  0  0
 60130  1  0  0  0
 61131  1  0  0  0
 61132  1  0  0  0
 61133  1  0  0  0
 62134  1  0  0  0
 62135  1  0  0  0
 62136  1  0  0  0
 63 65  1  0  0  0
 63137  1  0  0  0
 63138  1  0  0  0
 63139  1  0  0  0
 64140  1  0  0  0
 65141  1  0  0  0
 68 79  1  0  0  0
 71 72  2  0  0  0
 71 74  1  0  0  0
 71142  1  0  0  0
 72 75  1  0  0  0
 72143  1  0  0  0
 73 74  2  0  0  0
 73 76  1  0  0  0
 73144  1  0  0  0
 74 77  1  0  0  0
 75 76  2  0  0  0
 75 80  1  0  0  0
 76 82  1  0  0  0
 77 81  1  0  0  0
 77145  1  0  0  0
 77146  1  0  0  0
 78 79  1  0  0  0
 78 81  1  0  0  0
 78147  1  0  0  0
 78148  1  0  0  0
 79149  1  0  0  0
 79150  1  0  0  0
 80151  1  0  0  0
 81152  1  0  0  0
 81153  1  0  0  0
M  CHG  1  81   1
M  ISO  4   1 100  68 101  79 101  80 100
M  END
> <chiral flag>
0

> <version>
0

> <s_m_source_file>
/data/baiqing/PycharmProjects/Reinvent-master-3.2/result/LINK_invent/BTK/process_docking_weight1_custom_product_contain_oxygen_bond_distance_aromatic_linkinvent_7_9_3/rearranged_h_0010.sdf

> <i_m_source_file_index>
4

> <r_mmod_Potential_Energy-OPLS-2005>
-169.907638549805

> <r_mmod_Stretch_Energy-OPLS-2005>
74.6796112060547

> <r_mmod_Bend_Energy-OPLS-2005>
135.353530883789

> <r_mmod_Torsional_Energy-OPLS-2005>
203.257019042969

> <r_mmod_Improper_Torsional_Energy-OPLS-2005>
4.4197096824646

> <r_mmod_Van_der_Waal_Energy-OPLS-2005>
145.306213378906

> <r_mmod_Electrostatic_Energy-OPLS-2005>
-306.239837646484

> <r_mmod_Solvation_Energy-OPLS-2005>
-470.850830078125

> <b_mmod_Minimization_Converged-OPLS-2005>
0

> <r_mmod_RMS_Derivative-OPLS-2005>
3.29414439201355

$$$$
4
                    3D
 Structure written by MMmdl.
159167  0  0  1  0            999 V2000
  -30.7738  -14.3477   20.6911 C   0  0  0  0  0  0
  -30.4142  -12.2841   19.3889 C   0  0  0  0  0  0
  -29.4813  -12.5267   18.1888 C   0  0  0  0  0  0
  -28.0062  -12.3823   18.6068 C   0  0  0  0  0  0
  -27.6662  -13.2020   19.8790 C   0  0  2  0  0  0
  -28.7029  -12.9377   20.9922 C   0  0  0  0  0  0
  -25.2604  -13.8157   20.5667 C   0  0  0  0  0  0
  -24.1845  -13.0441   20.9156 C   0  0  0  0  0  0
  -24.6390  -11.6905   20.8718 C   0  0  0  0  0  0
  -23.9054  -10.4294   21.0397 C   0  0  0  0  0  0
  -24.3608   -9.4213   21.9179 C   0  0  0  0  0  0
  -23.6287   -8.2247   22.0753 C   0  0  0  0  0  0
  -22.4270   -8.0281   21.3544 C   0  0  0  0  0  0
  -21.9901   -9.0253   20.4646 C   0  0  0  0  0  0
  -22.7225  -10.2134   20.3051 C   0  0  0  0  0  0
  -21.6852   -6.0734   22.5279 C   0  0  0  0  0  0
  -21.4014   -6.5639   23.8212 C   0  0  0  0  0  0
  -21.3660   -5.6792   24.9175 C   0  0  0  0  0  0
  -21.6044   -4.3054   24.7226 C   0  0  0  0  0  0
  -21.8819   -3.8146   23.4347 C   0  0  0  0  0  0
  -21.9193   -4.6962   22.3403 C   0  0  0  0  0  0
  -22.7870  -13.5245   21.1831 C   0  0  0  0  0  0
  -22.1661   -4.2148   21.0980 F   0  0  0  0  0  0
  -21.5629   -3.4539   25.7739 F   0  0  0  0  0  0
  -30.0475  -13.2255   20.4564 N   0  0  0  0  0  0
  -26.3043  -12.9321   20.3372 N   0  0  0  0  0  0
  -25.9314  -11.6481   20.5747 N   0  0  0  0  0  0
  -22.0512  -12.8240   22.0392 N   0  0  0  0  0  0
  -25.4348  -15.1870   20.4091 N   0  0  0  0  0  0
  -31.7947  -14.6414   20.0607 O   0  0  0  0  0  0
  -21.6637   -6.8876   21.4240 O   0  0  0  0  0  0
  -22.3552  -14.5552   20.6686 O   0  0  0  0  0  0
  -24.6114  -31.8697   23.2119 C   0  0  0  0  0  0
  -25.9022  -32.4830   23.8403 C   0  0  1  0  0  0
  -27.2380  -27.4636   20.0814 C   0  0  0  0  0  0
  -25.5892  -33.8629   24.2335 N   0  0  0  0  0  0
  -23.3964  -30.4935   21.5529 C   0  0  2  0  0  0
  -24.8399  -28.9598   20.1175 C   0  0  0  0  0  0
  -22.7384  -29.4669   22.5016 C   0  0  0  0  0  0
  -18.0263  -28.1373   22.8502 C   0  0  0  0  0  0
  -24.1487  -36.7320   23.2640 C   0  0  0  0  0  0
  -25.9216  -30.8441   21.3584 C   0  0  0  0  0  0
  -25.9982  -29.4803   20.7056 C   0  0  0  0  0  0
  -27.1978  -28.7398   20.6817 C   0  0  0  0  0  0
  -26.0556  -26.9427   19.5052 C   0  0  0  0  0  0
  -24.8616  -27.6886   19.5178 C   0  0  0  0  0  0
  -23.6011  -29.8237   20.1676 C   0  0  0  0  0  0
  -25.4108  -36.3118   24.0339 C   0  0  1  0  0  0
  -20.5851  -28.3653   23.1336 C   0  0  2  0  0  0
  -20.6755  -26.9395   22.5423 C   0  0  0  0  0  0
  -19.5733  -26.6387   21.5217 C   0  0  0  0  0  0
  -18.1910  -26.7922   22.1628 C   0  0  0  0  0  0
  -19.1512  -28.8830   23.2917 C   0  0  0  0  0  0
  -18.9443  -30.1440   23.8921 C   0  0  0  0  0  0
  -17.6447  -30.6584   24.0569 C   0  0  0  0  0  0
  -25.9032  -34.9481   23.5133 C   0  0  0  0  0  0
  -16.5338  -29.9089   23.6327 C   0  0  0  0  0  0
  -16.7254  -28.6504   23.0352 C   0  0  0  0  0  0
  -26.4464  -31.6607   25.0722 C   0  0  0  0  0  0
  -25.3746  -31.3696   26.1483 C   0  0  0  0  0  0
  -27.0296  -30.3059   24.6074 C   0  0  0  0  0  0
  -27.6045  -32.4325   25.7480 C   0  0  0  0  0  0
  -27.5581  -37.1814   24.8466 C   0  0  0  0  0  0
  -21.4117  -29.3029   22.3752 N   0  0  0  0  0  0
  -26.4297  -37.3800   23.9407 N   0  0  0  0  0  0
  -24.6616  -31.0825   22.1003 N   0  0  0  0  0  0
  -23.4173  -28.8214   23.3046 O   0  0  0  0  0  0
  -28.4445  -26.7998   20.0773 O   0  0  0  0  0  0
  -26.5592  -34.8929   22.4693 O   0  0  0  0  0  0
  -23.5318  -32.1437   23.7538 O   0  0  0  0  0  0
  -29.9820  -19.5584   19.3277 C   0  0  0  0  0  0
  -29.6489  -20.8198   18.7979 C   0  0  0  0  0  0
  -27.5498  -20.7811   20.0261 C   0  0  0  0  0  0
  -29.1074  -18.9077   20.2255 C   0  0  0  0  0  0
  -28.4377  -21.4563   19.1644 C   0  0  0  0  0  0
  -27.8801  -19.5193   20.5557 C   0  0  0  0  0  0
  -28.6598  -25.0261   18.3862 C   0  0  0  0  0  0
  -30.8161  -17.4860   21.2073 C   0  0  0  0  0  0
  -30.9796  -16.3177   22.1933 C   0  0  0  0  0  0
  -28.4759  -25.3908   19.8699 C   0  0  0  0  0  0
  -29.0833  -23.5628   18.2073 C   0  0  0  0  0  0
  -29.4236  -17.6757   20.8143 N   0  0  0  0  0  0
  -30.3397  -15.0982   21.7089 N   0  0  0  0  0  0
  -28.0674  -22.7113   18.7319 O   0  0  0  0  0  0
  -27.0268  -18.8980   21.4074 F   0  0  0  0  0  0
  -31.4573  -12.3841   19.0828 H   0  0  0  0  0  0
  -30.3110  -11.2600   19.7508 H   0  0  0  0  0  0
  -29.7117  -11.8264   17.3848 H   0  0  0  0  0  0
  -29.6530  -13.5256   17.7845 H   0  0  0  0  0  0
  -27.8118  -11.3238   18.7844 H   0  0  0  0  0  0
  -27.3521  -12.6769   17.7851 H   0  0  0  0  0  0
  -27.7273  -14.2572   19.6106 H   0  0  0  0  0  0
  -28.6614  -11.8933   21.3050 H   0  0  0  0  0  0
  -28.4487  -13.5122   21.8828 H   0  0  0  0  0  0
  -25.2756   -9.5693   22.4750 H   0  0  0  0  0  0
  -24.0000   -7.4641   22.7473 H   0  0  0  0  0  0
  -21.0833   -8.8768   19.8953 H   0  0  0  0  0  0
  -22.3683  -10.9670   19.6158 H   0  0  0  0  0  0
  -21.2007   -7.6147   23.9715 H   0  0  0  0  0  0
  -21.1481   -6.0522   25.9077 H   0  0  0  0  0  0
  -22.0598   -2.7608   23.2847 H   0  0  0  0  0  0
  -22.4122  -11.9898   22.4777 H   0  0  0  0  0  0
  -21.1134  -13.1274   22.2604 H   0  0  0  0  0  0
  -24.6777  -15.8501   20.5322 H   0  0  0  0  0  0
  -26.3028  -15.6253   20.1259 H   0  0  0  0  0  0
  -26.7093  -32.5548   23.1171 H   0  0  0  0  0  0
  -25.0054  -33.9799   25.0488 H   0  0  0  0  0  0
  -22.6841  -31.3096   21.4152 H   0  0  0  0  0  0
  -23.3744  -35.9658   23.3320 H   0  0  0  0  0  0
  -24.3576  -36.8916   22.2050 H   0  0  0  0  0  0
  -23.7247  -37.6533   23.6642 H   0  0  0  0  0  0
  -26.0280  -31.6115   20.5905 H   0  0  0  0  0  0
  -26.8120  -30.8981   21.9730 H   0  0  0  0  0  0
  -28.0962  -29.1447   21.1264 H   0  0  0  0  0  0
  -26.0360  -25.9712   19.0355 H   0  0  0  0  0  0
  -23.9684  -27.2794   19.0659 H   0  0  0  0  0  0
  -23.7059  -30.5971   19.4059 H   0  0  0  0  0  0
  -22.7256  -29.2409   19.8755 H   0  0  0  0  0  0
  -25.1286  -36.1988   25.0833 H   0  0  0  0  0  0
  -20.9941  -28.3211   24.1457 H   0  0  0  0  0  0
  -20.5664  -26.2258   23.3603 H   0  0  0  0  0  0
  -21.6625  -26.7446   22.1212 H   0  0  0  0  0  0
  -19.6894  -25.6305   21.1229 H   0  0  0  0  0  0
  -19.6672  -27.3213   20.6761 H   0  0  0  0  0  0
  -17.4183  -26.6682   21.4025 H   0  0  0  0  0  0
  -18.0303  -26.0056   22.9014 H   0  0  0  0  0  0
  -19.7919  -30.7250   24.2299 H   0  0  0  0  0  0
  -17.5003  -31.6267   24.5166 H   0  0  0  0  0  0
  -15.5340  -30.3001   23.7637 H   0  0  0  0  0  0
  -15.8653  -28.0832   22.7057 H   0  0  0  0  0  0
  -24.5912  -30.7051   25.7823 H   0  0  0  0  0  0
  -24.8946  -32.2845   26.4965 H   0  0  0  0  0  0
  -25.8117  -30.8843   27.0218 H   0  0  0  0  0  0
  -26.2827  -29.6816   24.1154 H   0  0  0  0  0  0
  -27.4113  -29.7298   25.4513 H   0  0  0  0  0  0
  -27.8638  -30.4397   23.9182 H   0  0  0  0  0  0
  -27.2667  -33.3611   26.2093 H   0  0  0  0  0  0
  -28.3834  -32.6907   25.0293 H   0  0  0  0  0  0
  -28.0737  -31.8429   26.5367 H   0  0  0  0  0  0
  -28.2610  -38.0101   24.7511 H   0  0  0  0  0  0
  -28.1067  -36.2634   24.6301 H   0  0  0  0  0  0
  -27.2296  -37.1479   25.8869 H   0  0  0  0  0  0
  -20.9269  -29.8759   21.6988 H   0  0  0  0  0  0
  -26.0189  -38.2879   24.1408 H   0  0  0  0  0  0
  -30.9176  -19.1052   19.0352 H   0  0  0  0  0  0
  -30.3456  -21.2816   18.1136 H   0  0  0  0  0  0
  -26.6152  -21.2429   20.3065 H   0  0  0  0  0  0
  -29.4338  -25.6627   17.9567 H   0  0  0  0  0  0
  -27.7529  -25.2246   17.8170 H   0  0  0  0  0  0
  -31.4198  -17.2987   20.3179 H   0  0  0  0  0  0
  -31.2071  -18.3986   21.6620 H   0  0  0  0  0  0
  -30.5366  -16.5775   23.1555 H   0  0  0  0  0  0
  -32.0384  -16.1331   22.3850 H   0  0  0  0  0  0
  -29.3349  -25.0227   20.4318 H   0  0  0  0  0  0
  -27.6102  -24.8898   20.3059 H   0  0  0  0  0  0
  -30.0354  -23.4232   18.7223 H   0  0  0  0  0  0
  -29.2422  -23.3375   17.1519 H   0  0  0  0  0  0
  -28.7337  -17.3723   21.4959 H   0  0  0  0  0  0
  -29.5076  -14.7864   22.1858 H   0  0  0  0  0  0
  1 25  1  0  0  0
  1 30  2  0  0  0
  1 83  1  0  0  0
  2  3  1  0  0  0
  2 25  1  0  0  0
  2 86  1  0  0  0
  2 87  1  0  0  0
  3  4  1  0  0  0
  3 88  1  0  0  0
  3 89  1  0  0  0
  4  5  1  0  0  0
  4 90  1  0  0  0
  4 91  1  0  0  0
  5  6  1  0  0  0
  5 26  1  0  0  0
  5 92  1  0  0  0
  6 25  1  0  0  0
  6 93  1  0  0  0
  6 94  1  0  0  0
  7  8  2  0  0  0
  7 26  1  0  0  0
  7 29  1  0  0  0
  8  9  1  0  0  0
  8 22  1  0  0  0
  9 10  1  0  0  0
  9 27  2  0  0  0
 10 11  2  0  0  0
 10 15  1  0  0  0
 11 12  1  0  0  0
 11 95  1  0  0  0
 12 13  2  0  0  0
 12 96  1  0  0  0
 13 14  1  0  0  0
 13 31  1  0  0  0
 14 15  2  0  0  0
 14 97  1  0  0  0
 15 98  1  0  0  0
 16 17  2  0  0  0
 16 21  1  0  0  0
 16 31  1  0  0  0
 17 18  1  0  0  0
 17 99  1  0  0  0
 18 19  2  0  0  0
 18100  1  0  0  0
 19 20  1  0  0  0
 19 24  1  0  0  0
 20 21  2  0  0  0
 20101  1  0  0  0
 21 23  1  0  0  0
 22 28  1  0  0  0
 22 32  2  0  0  0
 26 27  1  0  0  0
 28102  1  0  0  0
 28103  1  0  0  0
 29104  1  0  0  0
 29105  1  0  0  0
 33 34  1  0  0  0
 33 66  1  0  0  0
 33 70  2  0  0  0
 34 36  1  0  0  0
 34 59  1  0  0  0
 34106  1  0  0  0
 35 44  2  0  0  0
 35 45  1  0  0  0
 35 68  1  0  0  0
 36 56  1  0  0  0
 36107  1  0  0  0
 37 39  1  0  0  0
 37 47  1  0  0  0
 37 66  1  0  0  0
 37108  1  0  0  0
 38 43  2  0  0  0
 38 46  1  0  0  0
 38 47  1  0  0  0
 39 64  1  0  0  0
 39 67  2  0  0  0
 40 52  1  0  0  0
 40 53  2  0  0  0
 40 58  1  0  0  0
 41109  1  0  0  0
 41110  1  0  0  0
 41111  1  0  0  0
 41 48  1  0  0  0
 42 43  1  0  0  0
 42 66  1  0  0  0
 42112  1  0  0  0
 42113  1  0  0  0
 43 44  1  0  0  0
 44114  1  0  0  0
 45 46  2  0  0  0
 45115  1  0  0  0
 46116  1  0  0  0
 47117  1  0  0  0
 47118  1  0  0  0
 48 56  1  0  0  0
 48 65  1  0  0  0
 48119  1  0  0  0
 49 50  1  0  0  0
 49 53  1  0  0  0
 49 64  1  0  0  0
 49120  1  0  0  0
 50 51  1  0  0  0
 50121  1  0  0  0
 50122  1  0  0  0
 51 52  1  0  0  0
 51123  1  0  0  0
 51124  1  0  0  0
 52125  1  0  0  0
 52126  1  0  0  0
 53 54  1  0  0  0
 54 55  2  0  0  0
 54127  1  0  0  0
 55 57  1  0  0  0
 55128  1  0  0  0
 56 69  2  0  0  0
 57 58  2  0  0  0
 57129  1  0  0  0
 58130  1  0  0  0
 59 60  1  0  0  0
 59 61  1  0  0  0
 59 62  1  0  0  0
 60131  1  0  0  0
 60132  1  0  0  0
 60133  1  0  0  0
 61134  1  0  0  0
 61135  1  0  0  0
 61136  1  0  0  0
 62137  1  0  0  0
 62138  1  0  0  0
 62139  1  0  0  0
 63 65  1  0  0  0
 63140  1  0  0  0
 63141  1  0  0  0
 63142  1  0  0  0
 64143  1  0  0  0
 65144  1  0  0  0
 68 80  1  0  0  0
 71 72  2  0  0  0
 71 74  1  0  0  0
 71145  1  0  0  0
 72 75  1  0  0  0
 72146  1  0  0  0
 73 75  2  0  0  0
 73 76  1  0  0  0
 73147  1  0  0  0
 74 76  2  0  0  0
 74 82  1  0  0  0
 75 84  1  0  0  0
 76 85  1  0  0  0
 77 80  1  0  0  0
 77 81  1  0  0  0
 77148  1  0  0  0
 77149  1  0  0  0
 78 79  1  0  0  0
 78 82  1  0  0  0
 78150  1  0  0  0
 78151  1  0  0  0
 79 83  1  0  0  0
 79152  1  0  0  0
 79153  1  0  0  0
 80154  1  0  0  0
 80155  1  0  0  0
 81 84  1  0  0  0
 81156  1  0  0  0
 81157  1  0  0  0
 82158  1  0  0  0
 83159  1  0  0  0
M  ISO  4   1 100  68 101  80 101  83 100
M  END
> <chiral flag>
0

> <version>
0

> <s_m_source_file>
/data/baiqing/PycharmProjects/Reinvent-master-3.2/result/LINK_invent/BTK/process_docking_weight1_custom_product_contain_oxygen_bond_distance_aromatic_linkinvent_7_9_3/rearranged_h_0010.sdf

> <i_m_source_file_index>
5

> <r_mmod_Potential_Energy-OPLS-2005>
-147.222503662109

> <r_mmod_Stretch_Energy-OPLS-2005>
31.8732986450195

> <r_mmod_Bend_Energy-OPLS-2005>
100.121726989746

> <r_mmod_Torsional_Energy-OPLS-2005>
205.739624023438

> <r_mmod_Improper_Torsional_Energy-OPLS-2005>
5.72953701019287

> <r_mmod_Van_der_Waal_Energy-OPLS-2005>
164.299438476562

> <r_mmod_Electrostatic_Energy-OPLS-2005>
-451.913604736328

> <r_mmod_Solvation_Energy-OPLS-2005>
-210.768447875977

> <b_mmod_Minimization_Converged-OPLS-2005>
0

> <r_mmod_RMS_Derivative-OPLS-2005>
0.222763359546661

$$$$
5
                    3D
 Structure written by MMmdl.
151159  0  0  1  0            999 V2000
  -30.6215  -14.6467   20.4927 C   0  0  0  0  0  0
  -30.4407  -12.3957   19.4503 C   0  0  0  0  0  0
  -29.5080  -12.5074   18.2234 C   0  0  0  0  0  0
  -28.0310  -12.3448   18.6369 C   0  0  0  0  0  0
  -27.6531  -13.2179   19.8634 C   0  0  2  0  0  0
  -28.7004  -13.0767   20.9916 C   0  0  0  0  0  0
  -25.2552  -13.8167   20.5692 C   0  0  0  0  0  0
  -24.1817  -13.0425   20.9166 C   0  0  0  0  0  0
  -24.6396  -11.6902   20.8726 C   0  0  0  0  0  0
  -23.9065  -10.4286   21.0398 C   0  0  0  0  0  0
  -24.3615   -9.4205   21.9181 C   0  0  0  0  0  0
  -23.6291   -8.2241   22.0754 C   0  0  0  0  0  0
  -22.4273   -8.0278   21.3545 C   0  0  0  0  0  0
  -21.9906   -9.0250   20.4646 C   0  0  0  0  0  0
  -22.7236  -10.2128   20.3050 C   0  0  0  0  0  0
  -21.6852   -6.0733   22.5280 C   0  0  0  0  0  0
  -21.4013   -6.5637   23.8213 C   0  0  0  0  0  0
  -21.3660   -5.6791   24.9175 C   0  0  0  0  0  0
  -21.6045   -4.3053   24.7225 C   0  0  0  0  0  0
  -21.8819   -3.8144   23.4346 C   0  0  0  0  0  0
  -21.9192   -4.6961   22.3403 C   0  0  0  0  0  0
  -22.7841  -13.5220   21.1842 C   0  0  0  0  0  0
  -22.1662   -4.2147   21.0981 F   0  0  0  0  0  0
  -21.5630   -3.4537   25.7739 F   0  0  0  0  0  0
  -30.0151  -13.4189   20.4251 N   0  0  0  0  0  0
  -26.2995  -12.9359   20.3338 N   0  0  0  0  0  0
  -25.9330  -11.6508   20.5761 N   0  0  0  0  0  0
  -22.0489  -12.8217   22.0407 N   0  0  0  0  0  0
  -25.4214  -15.1896   20.4180 N   0  0  0  0  0  0
  -31.7915  -14.8056   20.1326 O   0  0  0  0  0  0
  -21.6637   -6.8876   21.4242 O   0  0  0  0  0  0
  -22.3520  -14.5528   20.6698 O   0  0  0  0  0  0
  -24.6266  -31.8601   23.2031 C   0  0  0  0  0  0
  -25.9113  -32.4780   23.8358 C   0  0  1  0  0  0
  -27.2236  -27.3176   20.1118 C   0  0  0  0  0  0
  -25.5926  -33.8581   24.2283 N   0  0  0  0  0  0
  -23.4199  -30.4850   21.5463 C   0  0  2  0  0  0
  -24.8656  -28.9422   20.1113 C   0  0  0  0  0  0
  -22.7476  -29.4628   22.4939 C   0  0  0  0  0  0
  -18.0286  -28.1384   22.8487 C   0  0  0  0  0  0
  -24.1489  -36.7296   23.2639 C   0  0  0  0  0  0
  -25.9621  -30.7907   21.3744 C   0  0  0  0  0  0
  -26.0362  -29.4188   20.7147 C   0  0  0  0  0  0
  -27.2183  -28.6189   20.7045 C   0  0  0  0  0  0
  -26.0260  -26.8968   19.4857 C   0  0  0  0  0  0
  -24.8626  -27.6866   19.4884 C   0  0  0  0  0  0
  -23.6342  -29.8222   20.1610 C   0  0  0  0  0  0
  -25.4113  -36.3085   24.0330 C   0  0  1  0  0  0
  -20.5886  -28.3689   23.1283 C   0  0  2  0  0  0
  -20.6775  -26.9414   22.5408 C   0  0  0  0  0  0
  -19.5750  -26.6385   21.5212 C   0  0  0  0  0  0
  -18.1931  -26.7926   22.1626 C   0  0  0  0  0  0
  -19.1538  -28.8853   23.2880 C   0  0  0  0  0  0
  -18.9460  -30.1455   23.8897 C   0  0  0  0  0  0
  -17.6461  -30.6587   24.0563 C   0  0  0  0  0  0
  -25.9051  -34.9454   23.5107 C   0  0  0  0  0  0
  -16.5352  -29.9086   23.6329 C   0  0  0  0  0  0
  -16.7273  -28.6503   23.0352 C   0  0  0  0  0  0
  -26.4494  -31.6587   25.0728 C   0  0  0  0  0  0
  -25.3727  -31.3725   26.1454 C   0  0  0  0  0  0
  -27.0334  -30.3010   24.6182 C   0  0  0  0  0  0
  -27.6054  -32.4320   25.7498 C   0  0  0  0  0  0
  -27.5580  -37.1804   24.8465 C   0  0  0  0  0  0
  -21.4189  -29.3045   22.3680 N   0  0  0  0  0  0
  -26.4293  -37.3779   23.9407 N   0  0  0  0  0  0
  -24.6885  -31.0614   22.0981 N   0  0  0  0  0  0
  -23.4201  -28.8163   23.3014 O   0  0  0  0  0  0
  -28.3403  -26.4633   20.1602 O   0  0  0  0  0  0
  -26.5620  -34.8919   22.4674 O   0  0  0  0  0  0
  -23.5429  -32.1399   23.7358 O   0  0  0  0  0  0
  -31.1180  -17.8849   20.6034 C   0  0  0  0  0  0
  -31.1123  -19.3107   20.5262 C   0  0  0  0  0  0
  -28.7106  -19.3389   20.5192 C   0  0  0  0  0  0
  -29.9083  -17.1463   20.6525 C   0  0  0  0  0  0
  -29.9190  -20.0843   20.4854 C   0  0  0  0  0  0
  -28.7114  -17.9126   20.6067 C   0  0  0  0  0  0
  -29.2528  -23.9564   20.3436 C   0  0  0  0  0  0
  -28.1015  -25.0048   20.0220 C   0  0  0  0  0  0
  -28.8904  -22.3990   20.2827 C   0  0  0  0  0  0
  -29.7931  -15.6941   20.7921 N   0  0  0  0  0  0
  -30.0305  -21.4919   20.4337 O   0  0  0  0  0  0
  -27.5271  -17.2553   20.6481 F   0  0  0  0  0  0
  -31.4812  -12.5238   19.1468 H   0  0  0  0  0  0
  -30.3783  -11.4007   19.8940 H   0  0  0  0  0  0
  -29.7724  -11.7555   17.4787 H   0  0  0  0  0  0
  -29.6485  -13.4764   17.7417 H   0  0  0  0  0  0
  -27.8691  -11.2920   18.8707 H   0  0  0  0  0  0
  -27.3755  -12.5722   17.7955 H   0  0  0  0  0  0
  -27.6666  -14.2522   19.5190 H   0  0  0  0  0  0
  -28.7131  -12.0565   21.3781 H   0  0  0  0  0  0
  -28.4480  -13.7124   21.8419 H   0  0  0  0  0  0
  -25.2760   -9.5683   22.4755 H   0  0  0  0  0  0
  -23.9999   -7.4633   22.7474 H   0  0  0  0  0  0
  -21.0836   -8.8767   19.8954 H   0  0  0  0  0  0
  -22.3693  -10.9665   19.6157 H   0  0  0  0  0  0
  -21.2003   -7.6146   23.9716 H   0  0  0  0  0  0
  -21.1485   -6.0521   25.9079 H   0  0  0  0  0  0
  -22.0598   -2.7606   23.2846 H   0  0  0  0  0  0
  -22.4103  -11.9877   22.4793 H   0  0  0  0  0  0
  -21.1112  -13.1253   22.2622 H   0  0  0  0  0  0
  -24.6550  -15.8367   20.5619 H   0  0  0  0  0  0
  -26.2902  -15.6637   20.1983 H   0  0  0  0  0  0
  -26.7180  -32.5450   23.1107 H   0  0  0  0  0  0
  -25.0065  -33.9725   25.0423 H   0  0  0  0  0  0
  -22.7139  -31.3059   21.4047 H   0  0  0  0  0  0
  -23.3749  -35.9632   23.3306 H   0  0  0  0  0  0
  -24.3580  -36.8912   22.2052 H   0  0  0  0  0  0
  -23.7246  -37.6502   23.6657 H   0  0  0  0  0  0
  -26.0942  -31.5552   20.6075 H   0  0  0  0  0  0
  -26.8423  -30.8379   22.0041 H   0  0  0  0  0  0
  -28.1158  -28.9808   21.1864 H   0  0  0  0  0  0
  -25.9527  -25.9397   18.9927 H   0  0  0  0  0  0
  -23.9657  -27.3159   19.0113 H   0  0  0  0  0  0
  -23.7534  -30.5997   19.4055 H   0  0  0  0  0  0
  -22.7537  -29.2525   19.8581 H   0  0  0  0  0  0
  -25.1293  -36.1940   25.0823 H   0  0  0  0  0  0
  -20.9979  -28.3261   24.1404 H   0  0  0  0  0  0
  -20.5679  -26.2299   23.3607 H   0  0  0  0  0  0
  -21.6643  -26.7445   22.1199 H   0  0  0  0  0  0
  -19.6913  -25.6296   21.1242 H   0  0  0  0  0  0
  -19.6686  -27.3195   20.6741 H   0  0  0  0  0  0
  -17.4200  -26.6671   21.4030 H   0  0  0  0  0  0
  -18.0335  -26.0069   22.9023 H   0  0  0  0  0  0
  -19.7937  -30.7270   24.2269 H   0  0  0  0  0  0
  -17.5016  -31.6267   24.5164 H   0  0  0  0  0  0
  -15.5352  -30.2988   23.7651 H   0  0  0  0  0  0
  -15.8672  -28.0822   22.7068 H   0  0  0  0  0  0
  -24.5898  -30.7080   25.7780 H   0  0  0  0  0  0
  -24.8923  -32.2892   26.4885 H   0  0  0  0  0  0
  -25.8050  -30.8895   27.0226 H   0  0  0  0  0  0
  -26.2907  -29.6762   24.1207 H   0  0  0  0  0  0
  -27.4029  -29.7264   25.4687 H   0  0  0  0  0  0
  -27.8779  -30.4291   23.9407 H   0  0  0  0  0  0
  -27.2666  -33.3618   26.2077 H   0  0  0  0  0  0
  -28.3864  -32.6881   25.0327 H   0  0  0  0  0  0
  -28.0722  -31.8443   26.5414 H   0  0  0  0  0  0
  -28.2599  -38.0100   24.7509 H   0  0  0  0  0  0
  -28.1073  -36.2631   24.6294 H   0  0  0  0  0  0
  -27.2298  -37.1456   25.8868 H   0  0  0  0  0  0
  -20.9367  -29.8773   21.6895 H   0  0  0  0  0  0
  -26.0176  -38.2855   24.1401 H   0  0  0  0  0  0
  -32.0671  -17.3700   20.6429 H   0  0  0  0  0  0
  -32.0626  -19.8258   20.5039 H   0  0  0  0  0  0
  -27.7601  -19.8494   20.4918 H   0  0  0  0  0  0
  -29.6470  -24.1729   21.3364 H   0  0  0  0  0  0
  -30.0761  -24.1424   19.6539 H   0  0  0  0  0  0
  -27.2506  -24.7435   20.6531 H   0  0  0  0  0  0
  -27.7948  -24.8125   18.9934 H   0  0  0  0  0  0
  -28.4094  -22.1808   19.3285 H   0  0  0  0  0  0
  -28.1566  -22.1770   21.0583 H   0  0  0  0  0  0
  -28.8555  -15.3945   21.0126 H   0  0  0  0  0  0
  1 25  1  0  0  0
  1 30  2  0  0  0
  1 80  1  0  0  0
  2  3  1  0  0  0
  2 25  1  0  0  0
  2 83  1  0  0  0
  2 84  1  0  0  0
  3  4  1  0  0  0
  3 85  1  0  0  0
  3 86  1  0  0  0
  4  5  1  0  0  0
  4 87  1  0  0  0
  4 88  1  0  0  0
  5  6  1  0  0  0
  5 26  1  0  0  0
  5 89  1  0  0  0
  6 25  1  0  0  0
  6 90  1  0  0  0
  6 91  1  0  0  0
  7  8  2  0  0  0
  7 26  1  0  0  0
  7 29  1  0  0  0
  8  9  1  0  0  0
  8 22  1  0  0  0
  9 10  1  0  0  0
  9 27  2  0  0  0
 10 11  2  0  0  0
 10 15  1  0  0  0
 11 12  1  0  0  0
 11 92  1  0  0  0
 12 13  2  0  0  0
 12 93  1  0  0  0
 13 14  1  0  0  0
 13 31  1  0  0  0
 14 15  2  0  0  0
 14 94  1  0  0  0
 15 95  1  0  0  0
 16 17  2  0  0  0
 16 21  1  0  0  0
 16 31  1  0  0  0
 17 18  1  0  0  0
 17 96  1  0  0  0
 18 19  2  0  0  0
 18 97  1  0  0  0
 19 20  1  0  0  0
 19 24  1  0  0  0
 20 21  2  0  0  0
 20 98  1  0  0  0
 21 23  1  0  0  0
 22 28  1  0  0  0
 22 32  2  0  0  0
 26 27  1  0  0  0
 28 99  1  0  0  0
 28100  1  0  0  0
 29101  1  0  0  0
 29102  1  0  0  0
 33 34  1  0  0  0
 33 66  1  0  0  0
 33 70  2  0  0  0
 34 36  1  0  0  0
 34 59  1  0  0  0
 34103  1  0  0  0
 35 44  2  0  0  0
 35 45  1  0  0  0
 35 68  1  0  0  0
 36 56  1  0  0  0
 36104  1  0  0  0
 37 39  1  0  0  0
 37 47  1  0  0  0
 37 66  1  0  0  0
 37105  1  0  0  0
 38 43  2  0  0  0
 38 46  1  0  0  0
 38 47  1  0  0  0
 39 64  1  0  0  0
 39 67  2  0  0  0
 40 52  1  0  0  0
 40 53  2  0  0  0
 40 58  1  0  0  0
 41106  1  0  0  0
 41107  1  0  0  0
 41108  1  0  0  0
 41 48  1  0  0  0
 42 43  1  0  0  0
 42 66  1  0  0  0
 42109  1  0  0  0
 42110  1  0  0  0
 43 44  1  0  0  0
 44111  1  0  0  0
 45 46  2  0  0  0
 45112  1  0  0  0
 46113  1  0  0  0
 47114  1  0  0  0
 47115  1  0  0  0
 48 56  1  0  0  0
 48 65  1  0  0  0
 48116  1  0  0  0
 49 50  1  0  0  0
 49 53  1  0  0  0
 49 64  1  0  0  0
 49117  1  0  0  0
 50 51  1  0  0  0
 50118  1  0  0  0
 50119  1  0  0  0
 51 52  1  0  0  0
 51120  1  0  0  0
 51121  1  0  0  0
 52122  1  0  0  0
 52123  1  0  0  0
 53 54  1  0  0  0
 54 55  2  0  0  0
 54124  1  0  0  0
 55 57  1  0  0  0
 55125  1  0  0  0
 56 69  2  0  0  0
 57 58  2  0  0  0
 57126  1  0  0  0
 58127  1  0  0  0
 59 60  1  0  0  0
 59 61  1  0  0  0
 59 62  1  0  0  0
 60128  1  0  0  0
 60129  1  0  0  0
 60130  1  0  0  0
 61131  1  0  0  0
 61132  1  0  0  0
 61133  1  0  0  0
 62134  1  0  0  0
 62135  1  0  0  0
 62136  1  0  0  0
 63 65  1  0  0  0
 63137  1  0  0  0
 63138  1  0  0  0
 63139  1  0  0  0
 64140  1  0  0  0
 65141  1  0  0  0
 68 78  1  0  0  0
 71 72  2  0  0  0
 71 74  1  0  0  0
 71142  1  0  0  0
 72 75  1  0  0  0
 72143  1  0  0  0
 73 75  2  0  0  0
 73 76  1  0  0  0
 73144  1  0  0  0
 74 76  2  0  0  0
 74 80  1  0  0  0
 75 81  1  0  0  0
 76 82  1  0  0  0
 77 78  1  0  0  0
 77 79  1  0  0  0
 77145  1  0  0  0
 77146  1  0  0  0
 78147  1  0  0  0
 78148  1  0  0  0
 79 81  1  0  0  0
 79149  1  0  0  0
 79150  1  0  0  0
 80151  1  0  0  0
M  ISO  4   1 100  68 101  78 101  80 100
M  END
> <chiral flag>
0

> <version>
0

> <s_m_source_file>
/data/baiqing/PycharmProjects/Reinvent-master-3.2/result/LINK_invent/BTK/process_docking_weight1_custom_product_contain_oxygen_bond_distance_aromatic_linkinvent_7_9_3/rearranged_h_0010.sdf

> <i_m_source_file_index>
6

> <r_mmod_Potential_Energy-OPLS-2005>
8.48562717437744

> <r_mmod_Stretch_Energy-OPLS-2005>
78.0414810180664

> <r_mmod_Bend_Energy-OPLS-2005>
145.352081298828

> <r_mmod_Torsional_Energy-OPLS-2005>
209.226409912109

> <r_mmod_Improper_Torsional_Energy-OPLS-2005>
4.5839262008667

> <r_mmod_Van_der_Waal_Energy-OPLS-2005>
144.377670288086

> <r_mmod_Electrostatic_Energy-OPLS-2005>
-422.268218994141

> <r_mmod_Solvation_Energy-OPLS-2005>
-201.274765014648

> <b_mmod_Minimization_Converged-OPLS-2005>
0

> <r_mmod_RMS_Derivative-OPLS-2005>
0.238112762570381

$$$$
6
                    3D
 Structure written by MMmdl.
149157  0  0  1  0            999 V2000
  -30.6146  -14.8502   20.4072 C   0  0  0  0  0  0
  -30.4187  -12.5119   19.5204 C   0  0  0  0  0  0
  -29.5195  -12.5131   18.2639 C   0  0  0  0  0  0
  -28.0463  -12.3259   18.6669 C   0  0  0  0  0  0
  -27.6297  -13.2554   19.8379 C   0  0  2  0  0  0
  -28.6642  -13.2783   20.9821 C   0  0  0  0  0  0
  -25.2457  -13.8247   20.5716 C   0  0  0  0  0  0
  -24.1773  -13.0456   20.9209 C   0  0  0  0  0  0
  -24.6397  -11.6944   20.8737 C   0  0  0  0  0  0
  -23.9086  -10.4304   21.0397 C   0  0  0  0  0  0
  -24.3633   -9.4218   21.9177 C   0  0  0  0  0  0
  -23.6305   -8.2254   22.0752 C   0  0  0  0  0  0
  -22.4286   -8.0288   21.3544 C   0  0  0  0  0  0
  -21.9923   -9.0262   20.4645 C   0  0  0  0  0  0
  -22.7255  -10.2140   20.3051 C   0  0  0  0  0  0
  -21.6858   -6.0740   22.5279 C   0  0  0  0  0  0
  -21.4019   -6.5642   23.8212 C   0  0  0  0  0  0
  -21.3661   -5.6794   24.9174 C   0  0  0  0  0  0
  -21.6044   -4.3057   24.7224 C   0  0  0  0  0  0
  -21.8818   -3.8149   23.4345 C   0  0  0  0  0  0
  -21.9194   -4.6966   22.3402 C   0  0  0  0  0  0
  -22.7793  -13.5216   21.1876 C   0  0  0  0  0  0
  -22.1662   -4.2152   21.0979 F   0  0  0  0  0  0
  -21.5628   -3.4540   25.7736 F   0  0  0  0  0  0
  -29.9651  -13.6234   20.4040 N   0  0  0  0  0  0
  -26.2883  -12.9496   20.3235 N   0  0  0  0  0  0
  -25.9332  -11.6615   20.5726 N   0  0  0  0  0  0
  -22.0455  -12.8196   22.0435 N   0  0  0  0  0  0
  -25.4151  -15.1976   20.4194 N   0  0  0  0  0  0
  -31.8098  -14.8501   20.0992 O   0  0  0  0  0  0
  -21.6648   -6.8885   21.4242 O   0  0  0  0  0  0
  -22.3465  -14.5518   20.6725 O   0  0  0  0  0  0
  -24.6385  -31.8484   23.1930 C   0  0  0  0  0  0
  -25.9181  -32.4716   23.8298 C   0  0  1  0  0  0
  -27.2091  -27.1784   20.1435 C   0  0  0  0  0  0
  -25.5948  -33.8522   24.2214 N   0  0  0  0  0  0
  -23.4392  -30.4703   21.5373 C   0  0  2  0  0  0
  -24.8870  -28.9080   20.1059 C   0  0  0  0  0  0
  -22.7542  -29.4568   22.4874 C   0  0  0  0  0  0
  -18.0300  -28.1393   22.8480 C   0  0  0  0  0  0
  -24.1491  -36.7266   23.2641 C   0  0  0  0  0  0
  -25.9920  -30.7343   21.3874 C   0  0  0  0  0  0
  -26.0611  -29.3505   20.7279 C   0  0  0  0  0  0
  -27.2224  -28.4986   20.7359 C   0  0  0  0  0  0
  -26.0177  -26.8377   19.4645 C   0  0  0  0  0  0
  -24.8760  -27.6639   19.4594 C   0  0  0  0  0  0
  -23.6620  -29.8045   20.1538 C   0  0  0  0  0  0
  -25.4122  -36.3046   24.0319 C   0  0  1  0  0  0
  -20.5909  -28.3713   23.1246 C   0  0  2  0  0  0
  -20.6785  -26.9421   22.5405 C   0  0  0  0  0  0
  -19.5759  -26.6382   21.5212 C   0  0  0  0  0  0
  -18.1940  -26.7932   22.1624 C   0  0  0  0  0  0
  -19.1556  -28.8871   23.2856 C   0  0  0  0  0  0
  -18.9474  -30.1468   23.8880 C   0  0  0  0  0  0
  -17.6471  -30.6591   24.0560 C   0  0  0  0  0  0
  -25.9069  -34.9419   23.5073 C   0  0  0  0  0  0
  -16.5362  -29.9085   23.6335 C   0  0  0  0  0  0
  -16.7285  -28.6504   23.0355 C   0  0  0  0  0  0
  -26.4518  -31.6572   25.0723 C   0  0  0  0  0  0
  -25.3714  -31.3749   26.1425 C   0  0  0  0  0  0
  -27.0382  -30.2974   24.6280 C   0  0  0  0  0  0
  -27.6053  -32.4333   25.7505 C   0  0  0  0  0  0
  -27.5577  -37.1790   24.8466 C   0  0  0  0  0  0
  -21.4239  -29.3046   22.3623 N   0  0  0  0  0  0
  -26.4289  -37.3754   23.9407 N   0  0  0  0  0  0
  -24.7093  -31.0380   22.0945 N   0  0  0  0  0  0
  -23.4207  -28.8112   23.3004 O   0  0  0  0  0  0
  -28.2647  -26.2141   20.2445 O   0  0  0  0  0  0
  -26.5650  -34.8908   22.4648 O   0  0  0  0  0  0
  -23.5517  -32.1344   23.7177 O   0  0  0  0  0  0
  -29.5791  -16.9338   21.7460 C   0  0  0  0  0  0
  -29.2806  -18.3478   21.8461 C   0  0  0  0  0  0
  -29.9726  -17.2318   19.4326 C   0  0  0  0  0  0
  -29.9629  -16.2970   20.5273 C   0  0  0  0  0  0
  -29.3152  -19.2882   20.7605 C   0  0  0  0  0  0
  -29.6533  -18.6449   19.5257 C   0  0  0  0  0  0
  -28.8429  -23.4348   20.6269 C   0  0  0  0  0  0
  -28.0416  -24.7184   19.9433 C   0  0  0  0  0  0
  -28.7426  -21.8509   20.1103 C   0  0  0  0  0  0
  -29.1056  -20.7026   21.0341 O   0  0  0  0  0  0
  -29.7357  -19.3950   18.4009 F   0  0  0  0  0  0
  -31.4652  -12.6054   19.2271 H   0  0  0  0  0  0
  -30.3473  -11.5573   20.0441 H   0  0  0  0  0  0
  -29.8240  -11.7211   17.5785 H   0  0  0  0  0  0
  -29.6400  -13.4529   17.7227 H   0  0  0  0  0  0
  -27.9191  -11.2831   18.9598 H   0  0  0  0  0  0
  -27.3934  -12.4816   17.8072 H   0  0  0  0  0  0
  -27.6001  -14.2613   19.4178 H   0  0  0  0  0  0
  -28.7109  -12.3142   21.4904 H   0  0  0  0  0  0
  -28.3809  -14.0149   21.7355 H   0  0  0  0  0  0
  -25.2777   -9.5696   22.4754 H   0  0  0  0  0  0
  -24.0013   -7.4647   22.7473 H   0  0  0  0  0  0
  -21.0854   -8.8782   19.8952 H   0  0  0  0  0  0
  -22.3710  -10.9677   19.6161 H   0  0  0  0  0  0
  -21.2013   -7.6151   23.9717 H   0  0  0  0  0  0
  -21.1483   -6.0524   25.9077 H   0  0  0  0  0  0
  -22.0596   -2.7611   23.2844 H   0  0  0  0  0  0
  -22.4088  -11.9863   22.4819 H   0  0  0  0  0  0
  -21.1068  -13.1204   22.2646 H   0  0  0  0  0  0
  -24.6548  -15.8562   20.5488 H   0  0  0  0  0  0
  -26.2801  -15.6415   20.1366 H   0  0  0  0  0  0
  -26.7243  -32.5335   23.1027 H   0  0  0  0  0  0
  -25.0078  -33.9646   25.0349 H   0  0  0  0  0  0
  -22.7395  -31.2952   21.3879 H   0  0  0  0  0  0
  -23.3757  -35.9594   23.3295 H   0  0  0  0  0  0
  -24.3577  -36.8904   22.2057 H   0  0  0  0  0  0
  -23.7243  -37.6459   23.6680 H   0  0  0  0  0  0
  -26.1447  -31.4914   20.6171 H   0  0  0  0  0  0
  -26.8641  -30.7813   22.0279 H   0  0  0  0  0  0
  -28.1138  -28.8267   21.2518 H   0  0  0  0  0  0
  -25.9299  -25.8967   18.9431 H   0  0  0  0  0  0
  -23.9822  -27.3253   18.9535 H   0  0  0  0  0  0
  -23.7941  -30.5814   19.3998 H   0  0  0  0  0  0
  -22.7778  -29.2444   19.8444 H   0  0  0  0  0  0
  -25.1309  -36.1880   25.0811 H   0  0  0  0  0  0
  -21.0003  -28.3300   24.1367 H   0  0  0  0  0  0
  -20.5681  -26.2326   23.3619 H   0  0  0  0  0  0
  -21.6652  -26.7433   22.1201 H   0  0  0  0  0  0
  -19.6920  -25.6288   21.1253 H   0  0  0  0  0  0
  -19.6695  -27.3182   20.6733 H   0  0  0  0  0  0
  -17.4209  -26.6676   21.4029 H   0  0  0  0  0  0
  -18.0342  -26.0079   22.9026 H   0  0  0  0  0  0
  -19.7949  -30.7290   24.2241 H   0  0  0  0  0  0
  -17.5024  -31.6269   24.5165 H   0  0  0  0  0  0
  -15.5362  -30.2981   23.7669 H   0  0  0  0  0  0
  -15.8685  -28.0817   22.7080 H   0  0  0  0  0  0
  -24.5899  -30.7090   25.7748 H   0  0  0  0  0  0
  -24.8896  -32.2927   26.4805 H   0  0  0  0  0  0
  -25.8007  -30.8955   27.0231 H   0  0  0  0  0  0
  -26.2993  -29.6700   24.1282 H   0  0  0  0  0  0
  -27.4001  -29.7266   25.4843 H   0  0  0  0  0  0
  -27.8898  -30.4220   23.9588 H   0  0  0  0  0  0
  -27.2648  -33.3648   26.2039 H   0  0  0  0  0  0
  -28.3887  -32.6871   25.0350 H   0  0  0  0  0  0
  -28.0696  -31.8489   26.5458 H   0  0  0  0  0  0
  -28.2590  -38.0091   24.7511 H   0  0  0  0  0  0
  -28.1077  -36.2620   24.6296 H   0  0  0  0  0  0
  -27.2293  -37.1441   25.8868 H   0  0  0  0  0  0
  -20.9440  -29.8765   21.6813 H   0  0  0  0  0  0
  -26.0159  -38.2824   24.1408 H   0  0  0  0  0  0
  -29.5791  -16.3455   22.6534 H   0  0  0  0  0  0
  -29.0460  -18.7350   22.8274 H   0  0  0  0  0  0
  -30.2900  -16.8631   18.4680 H   0  0  0  0  0  0
  -28.5542  -23.4333   21.6779 H   0  0  0  0  0  0
  -29.9027  -23.6884   20.6371 H   0  0  0  0  0  0
  -26.9952  -24.4953   20.1472 H   0  0  0  0  0  0
  -28.1511  -24.6219   18.8628 H   0  0  0  0  0  0
  -29.3336  -21.7558   19.1996 H   0  0  0  0  0  0
  -27.7118  -21.6698   19.8049 H   0  0  0  0  0  0
  1 25  1  0  0  0
  1 30  2  0  0  0
  1 74  1  0  0  0
  2  3  1  0  0  0
  2 25  1  0  0  0
  2 82  1  0  0  0
  2 83  1  0  0  0
  3  4  1  0  0  0
  3 84  1  0  0  0
  3 85  1  0  0  0
  4  5  1  0  0  0
  4 86  1  0  0  0
  4 87  1  0  0  0
  5  6  1  0  0  0
  5 26  1  0  0  0
  5 88  1  0  0  0
  6 25  1  0  0  0
  6 89  1  0  0  0
  6 90  1  0  0  0
  7  8  2  0  0  0
  7 26  1  0  0  0
  7 29  1  0  0  0
  8  9  1  0  0  0
  8 22  1  0  0  0
  9 10  1  0  0  0
  9 27  2  0  0  0
 10 11  2  0  0  0
 10 15  1  0  0  0
 11 12  1  0  0  0
 11 91  1  0  0  0
 12 13  2  0  0  0
 12 92  1  0  0  0
 13 14  1  0  0  0
 13 31  1  0  0  0
 14 15  2  0  0  0
 14 93  1  0  0  0
 15 94  1  0  0  0
 16 17  2  0  0  0
 16 21  1  0  0  0
 16 31  1  0  0  0
 17 18  1  0  0  0
 17 95  1  0  0  0
 18 19  2  0  0  0
 18 96  1  0  0  0
 19 20  1  0  0  0
 19 24  1  0  0  0
 20 21  2  0  0  0
 20 97  1  0  0  0
 21 23  1  0  0  0
 22 28  1  0  0  0
 22 32  2  0  0  0
 26 27  1  0  0  0
 28 98  1  0  0  0
 28 99  1  0  0  0
 29100  1  0  0  0
 29101  1  0  0  0
 33 34  1  0  0  0
 33 66  1  0  0  0
 33 70  2  0  0  0
 34 36  1  0  0  0
 34 59  1  0  0  0
 34102  1  0  0  0
 35 44  2  0  0  0
 35 45  1  0  0  0
 35 68  1  0  0  0
 36 56  1  0  0  0
 36103  1  0  0  0
 37 39  1  0  0  0
 37 47  1  0  0  0
 37 66  1  0  0  0
 37104  1  0  0  0
 38 43  2  0  0  0
 38 46  1  0  0  0
 38 47  1  0  0  0
 39 64  1  0  0  0
 39 67  2  0  0  0
 40 52  1  0  0  0
 40 53  2  0  0  0
 40 58  1  0  0  0
 41105  1  0  0  0
 41106  1  0  0  0
 41107  1  0  0  0
 41 48  1  0  0  0
 42 43  1  0  0  0
 42 66  1  0  0  0
 42108  1  0  0  0
 42109  1  0  0  0
 43 44  1  0  0  0
 44110  1  0  0  0
 45 46  2  0  0  0
 45111  1  0  0  0
 46112  1  0  0  0
 47113  1  0  0  0
 47114  1  0  0  0
 48 56  1  0  0  0
 48 65  1  0  0  0
 48115  1  0  0  0
 49 50  1  0  0  0
 49 53  1  0  0  0
 49 64  1  0  0  0
 49116  1  0  0  0
 50 51  1  0  0  0
 50117  1  0  0  0
 50118  1  0  0  0
 51 52  1  0  0  0
 51119  1  0  0  0
 51120  1  0  0  0
 52121  1  0  0  0
 52122  1  0  0  0
 53 54  1  0  0  0
 54 55  2  0  0  0
 54123  1  0  0  0
 55 57  1  0  0  0
 55124  1  0  0  0
 56 69  2  0  0  0
 57 58  2  0  0  0
 57125  1  0  0  0
 58126  1  0  0  0
 59 60  1  0  0  0
 59 61  1  0  0  0
 59 62  1  0  0  0
 60127  1  0  0  0
 60128  1  0  0  0
 60129  1  0  0  0
 61130  1  0  0  0
 61131  1  0  0  0
 61132  1  0  0  0
 62133  1  0  0  0
 62134  1  0  0  0
 62135  1  0  0  0
 63 65  1  0  0  0
 63136  1  0  0  0
 63137  1  0  0  0
 63138  1  0  0  0
 64139  1  0  0  0
 65140  1  0  0  0
 68 78  1  0  0  0
 71 72  2  0  0  0
 71 74  1  0  0  0
 71141  1  0  0  0
 72 75  1  0  0  0
 72142  1  0  0  0
 73 74  2  0  0  0
 73 76  1  0  0  0
 73143  1  0  0  0
 75 76  2  0  0  0
 75 80  1  0  0  0
 76 81  1  0  0  0
 77 78  1  0  0  0
 77 79  1  0  0  0
 77144  1  0  0  0
 77145  1  0  0  0
 78146  1  0  0  0
 78147  1  0  0  0
 79 80  1  0  0  0
 79148  1  0  0  0
 79149  1  0  0  0
M  ISO  4   1 100  68 101  74 100  78 101
M  END
> <chiral flag>
0

> <version>
0

> <s_m_source_file>
/data/baiqing/PycharmProjects/Reinvent-master-3.2/result/LINK_invent/BTK/process_docking_weight1_custom_product_contain_oxygen_bond_distance_aromatic_linkinvent_7_9_3/rearranged_h_0010.sdf

> <i_m_source_file_index>
7

> <r_mmod_Potential_Energy-OPLS-2005>
434.184417724609

> <r_mmod_Stretch_Energy-OPLS-2005>
186.44709777832

> <r_mmod_Bend_Energy-OPLS-2005>
243.457458496094

> <r_mmod_Torsional_Energy-OPLS-2005>
218.359985351562

> <r_mmod_Improper_Torsional_Energy-OPLS-2005>
6.65000534057617

> <r_mmod_Van_der_Waal_Energy-OPLS-2005>
133.109466552734

> <r_mmod_Electrostatic_Energy-OPLS-2005>
-306.536102294922

> <r_mmod_Solvation_Energy-OPLS-2005>
-193.293106079102

> <b_mmod_Minimization_Converged-OPLS-2005>
1

> <r_mmod_RMS_Derivative-OPLS-2005>
0.0498431324958801

$$$$
7
                    3D
 Structure written by MMmdl.
151159  0  0  1  0            999 V2000
  -30.5338  -14.9387   20.4830 C   0  0  0  0  0  0
  -30.4378  -12.6065   19.4714 C   0  0  0  0  0  0
  -29.5065  -12.5455   18.2359 C   0  0  0  0  0  0
  -28.0349  -12.3533   18.6446 C   0  0  0  0  0  0
  -27.6283  -13.2489   19.8405 C   0  0  2  0  0  0
  -28.6713  -13.2085   20.9705 C   0  0  0  0  0  0
  -25.2426  -13.8203   20.5687 C   0  0  0  0  0  0
  -24.1769  -13.0444   20.9234 C   0  0  0  0  0  0
  -24.6382  -11.6922   20.8753 C   0  0  0  0  0  0
  -23.9068  -10.4297   21.0408 C   0  0  0  0  0  0
  -24.3610   -9.4213   21.9191 C   0  0  0  0  0  0
  -23.6294   -8.2244   22.0749 C   0  0  0  0  0  0
  -22.4285   -8.0271   21.3526 C   0  0  0  0  0  0
  -21.9916   -9.0254   20.4647 C   0  0  0  0  0  0
  -22.7234  -10.2140   20.3072 C   0  0  0  0  0  0
  -21.6856   -6.0715   22.5252 C   0  0  0  0  0  0
  -21.4014   -6.5619   23.8177 C   0  0  0  0  0  0
  -21.3679   -5.6787   24.9146 C   0  0  0  0  0  0
  -21.6035   -4.3043   24.7208 C   0  0  0  0  0  0
  -21.8829   -3.8130   23.4334 C   0  0  0  0  0  0
  -21.9203   -4.6945   22.3384 C   0  0  0  0  0  0
  -22.7788  -13.5205   21.1895 C   0  0  0  0  0  0
  -22.1672   -4.2126   21.0965 F   0  0  0  0  0  0
  -21.5639   -3.4539   25.7726 F   0  0  0  0  0  0
  -29.9475  -13.6694   20.3999 N   0  0  0  0  0  0
  -26.2859  -12.9452   20.3241 N   0  0  0  0  0  0
  -25.9307  -11.6571   20.5736 N   0  0  0  0  0  0
  -22.0455  -12.8207   22.0457 N   0  0  0  0  0  0
  -25.4070  -15.1940   20.4033 N   0  0  0  0  0  0
  -31.6899  -15.0450   20.0548 O   0  0  0  0  0  0
  -21.6649   -6.8870   21.4217 O   0  0  0  0  0  0
  -22.3471  -14.5519   20.6748 O   0  0  0  0  0  0
  -24.6432  -31.8463   23.1902 C   0  0  0  0  0  0
  -25.9190  -32.4704   23.8320 C   0  0  1  0  0  0
  -27.2289  -27.1490   20.1398 C   0  0  0  0  0  0
  -25.5914  -33.8510   24.2206 N   0  0  0  0  0  0
  -23.4446  -30.4660   21.5369 C   0  0  2  0  0  0
  -24.8969  -28.8898   20.1109 C   0  0  0  0  0  0
  -22.7566  -29.4575   22.4882 C   0  0  0  0  0  0
  -18.0315  -28.1417   22.8486 C   0  0  0  0  0  0
  -24.1448  -36.7281   23.2647 C   0  0  0  0  0  0
  -26.0005  -30.7215   21.3850 C   0  0  0  0  0  0
  -26.0729  -29.3308   20.7310 C   0  0  0  0  0  0
  -27.2357  -28.4730   20.7371 C   0  0  0  0  0  0
  -26.0295  -26.8139   19.4723 C   0  0  0  0  0  0
  -24.8872  -27.6443   19.4680 C   0  0  0  0  0  0
  -23.6693  -29.7888   20.1578 C   0  0  0  0  0  0
  -25.4084  -36.3040   24.0312 C   0  0  1  0  0  0
  -20.5918  -28.3745   23.1229 C   0  0  2  0  0  0
  -20.6787  -26.9453   22.5393 C   0  0  0  0  0  0
  -19.5745  -26.6395   21.5222 C   0  0  0  0  0  0
  -18.1932  -26.7953   22.1633 C   0  0  0  0  0  0
  -19.1573  -28.8896   23.2836 C   0  0  0  0  0  0
  -18.9503  -30.1490   23.8866 C   0  0  0  0  0  0
  -17.6504  -30.6613   24.0568 C   0  0  0  0  0  0
  -25.9063  -34.9416   23.5077 C   0  0  0  0  0  0
  -16.5389  -29.9121   23.6329 C   0  0  0  0  0  0
  -16.7304  -28.6531   23.0372 C   0  0  0  0  0  0
  -26.4500  -31.6595   25.0776 C   0  0  0  0  0  0
  -25.3661  -31.3755   26.1458 C   0  0  0  0  0  0
  -27.0407  -30.2997   24.6370 C   0  0  0  0  0  0
  -27.6042  -32.4375   25.7557 C   0  0  0  0  0  0
  -27.5556  -37.1774   24.8456 C   0  0  0  0  0  0
  -21.4261  -29.3082   22.3613 N   0  0  0  0  0  0
  -26.4242  -37.3765   23.9430 N   0  0  0  0  0  0
  -24.7162  -31.0333   22.0937 N   0  0  0  0  0  0
  -23.4204  -28.8131   23.3044 O   0  0  0  0  0  0
  -28.2857  -26.1685   20.2173 O   0  0  0  0  0  0
  -26.5702  -34.8920   22.4686 O   0  0  0  0  0  0
  -23.5553  -32.1357   23.7124 O   0  0  0  0  0  0
  -28.5066  -18.0114   19.8217 C   0  0  0  0  0  0
  -28.1832  -19.4146   19.6290 C   0  0  0  0  0  0
  -30.4500  -18.6556   20.9883 C   0  0  0  0  0  0
  -29.6620  -17.5323   20.5259 C   0  0  0  0  0  0
  -28.9490  -20.5342   20.1138 C   0  0  0  0  0  0
  -30.1283  -20.0702   20.7927 C   0  0  0  0  0  0
  -29.6075  -15.9775   22.4521 C   0  0  0  0  0  0
  -28.0481  -24.6601   19.9060 C   0  0  0  0  0  0
  -28.8975  -23.2831   20.3791 C   0  0  0  0  0  0
  -29.8314  -16.0741   20.9999 N   0  0  0  0  0  0
  -28.4712  -21.8999   19.8577 O   0  0  0  0  0  0
  -30.9844  -20.9977   21.2896 F   0  0  0  0  0  0
  -31.4574  -12.7963   19.1361 H   0  0  0  0  0  0
  -30.4735  -11.6424   19.9772 H   0  0  0  0  0  0
  -29.8120  -11.7343   17.5730 H   0  0  0  0  0  0
  -29.6060  -13.4626   17.6535 H   0  0  0  0  0  0
  -27.8949  -11.3044   18.9031 H   0  0  0  0  0  0
  -27.3780  -12.5452   17.7968 H   0  0  0  0  0  0
  -27.6089  -14.2709   19.4581 H   0  0  0  0  0  0
  -28.7661  -12.2007   21.3757 H   0  0  0  0  0  0
  -28.3356  -13.8299   21.7958 H   0  0  0  0  0  0
  -25.2742   -9.5686   22.4779 H   0  0  0  0  0  0
  -23.9996   -7.4631   22.7468 H   0  0  0  0  0  0
  -21.0843   -8.8786   19.8949 H   0  0  0  0  0  0
  -22.3689  -10.9689   19.6199 H   0  0  0  0  0  0
  -21.2012   -7.6133   23.9667 H   0  0  0  0  0  0
  -21.1486   -6.0518   25.9043 H   0  0  0  0  0  0
  -22.0604   -2.7592   23.2832 H   0  0  0  0  0  0
  -22.4083  -11.9885   22.4872 H   0  0  0  0  0  0
  -21.1060  -13.1208   22.2650 H   0  0  0  0  0  0
  -24.6302  -15.8405   20.4865 H   0  0  0  0  0  0
  -26.2515  -15.6278   20.0575 H   0  0  0  0  0  0
  -26.7293  -32.5326   23.1091 H   0  0  0  0  0  0
  -24.9850  -33.9598   25.0191 H   0  0  0  0  0  0
  -22.7465  -31.2903   21.3769 H   0  0  0  0  0  0
  -23.3703  -35.9604   23.3281 H   0  0  0  0  0  0
  -24.3516  -36.8982   22.2064 H   0  0  0  0  0  0
  -23.7214  -37.6459   23.6743 H   0  0  0  0  0  0
  -26.1382  -31.4667   20.6001 H   0  0  0  0  0  0
  -26.8767  -30.7902   22.0176 H   0  0  0  0  0  0
  -28.1274  -28.7986   21.2558 H   0  0  0  0  0  0
  -25.9423  -25.8700   18.9570 H   0  0  0  0  0  0
  -23.9921  -27.3020   18.9699 H   0  0  0  0  0  0
  -23.7976  -30.5587   19.3967 H   0  0  0  0  0  0
  -22.7830  -29.2253   19.8575 H   0  0  0  0  0  0
  -25.1246  -36.1853   25.0797 H   0  0  0  0  0  0
  -21.0008  -28.3373   24.1352 H   0  0  0  0  0  0
  -20.5673  -26.2398   23.3633 H   0  0  0  0  0  0
  -21.6657  -26.7452   22.1210 H   0  0  0  0  0  0
  -19.6919  -25.6299   21.1287 H   0  0  0  0  0  0
  -19.6683  -27.3154   20.6700 H   0  0  0  0  0  0
  -17.4204  -26.6713   21.4040 H   0  0  0  0  0  0
  -18.0337  -26.0087   22.9012 H   0  0  0  0  0  0
  -19.7989  -30.7302   24.2250 H   0  0  0  0  0  0
  -17.5076  -31.6282   24.5193 H   0  0  0  0  0  0
  -15.5394  -30.3033   23.7680 H   0  0  0  0  0  0
  -15.8700  -28.0848   22.7124 H   0  0  0  0  0  0
  -24.5876  -30.7058   25.7773 H   0  0  0  0  0  0
  -24.8763  -32.2906   26.4816 H   0  0  0  0  0  0
  -25.7919  -30.8999   27.0306 H   0  0  0  0  0  0
  -26.3076  -29.6681   24.1336 H   0  0  0  0  0  0
  -27.4007  -29.7323   25.4966 H   0  0  0  0  0  0
  -27.8968  -30.4256   23.9718 H   0  0  0  0  0  0
  -27.2687  -33.3741   26.2023 H   0  0  0  0  0  0
  -28.3916  -32.6850   25.0415 H   0  0  0  0  0  0
  -28.0649  -31.8568   26.5559 H   0  0  0  0  0  0
  -28.2530  -38.0111   24.7561 H   0  0  0  0  0  0
  -28.1118  -36.2660   24.6215 H   0  0  0  0  0  0
  -27.2306  -37.1344   25.8865 H   0  0  0  0  0  0
  -20.9515  -29.8823   21.6776 H   0  0  0  0  0  0
  -26.0109  -38.2815   24.1485 H   0  0  0  0  0  0
  -27.7925  -17.2844   19.4557 H   0  0  0  0  0  0
  -27.2645  -19.6360   19.0999 H   0  0  0  0  0  0
  -31.3405  -18.4374   21.5627 H   0  0  0  0  0  0
  -30.1720  -16.7377   22.9938 H   0  0  0  0  0  0
  -29.8969  -15.0184   22.8883 H   0  0  0  0  0  0
  -28.5531  -16.1311   22.6863 H   0  0  0  0  0  0
  -27.0285  -24.4425   20.2221 H   0  0  0  0  0  0
  -28.0212  -24.6107   18.8162 H   0  0  0  0  0  0
  -28.8512  -23.2323   21.4697 H   0  0  0  0  0  0
  -29.9526  -23.4209   20.1468 H   0  0  0  0  0  0
  1 25  1  0  0  0
  1 30  2  0  0  0
  1 80  1  0  0  0
  2  3  1  0  0  0
  2 25  1  0  0  0
  2 83  1  0  0  0
  2 84  1  0  0  0
  3  4  1  0  0  0
  3 85  1  0  0  0
  3 86  1  0  0  0
  4  5  1  0  0  0
  4 87  1  0  0  0
  4 88  1  0  0  0
  5  6  1  0  0  0
  5 26  1  0  0  0
  5 89  1  0  0  0
  6 25  1  0  0  0
  6 90  1  0  0  0
  6 91  1  0  0  0
  7  8  2  0  0  0
  7 26  1  0  0  0
  7 29  1  0  0  0
  8  9  1  0  0  0
  8 22  1  0  0  0
  9 10  1  0  0  0
  9 27  2  0  0  0
 10 11  2  0  0  0
 10 15  1  0  0  0
 11 12  1  0  0  0
 11 92  1  0  0  0
 12 13  2  0  0  0
 12 93  1  0  0  0
 13 14  1  0  0  0
 13 31  1  0  0  0
 14 15  2  0  0  0
 14 94  1  0  0  0
 15 95  1  0  0  0
 16 17  2  0  0  0
 16 21  1  0  0  0
 16 31  1  0  0  0
 17 18  1  0  0  0
 17 96  1  0  0  0
 18 19  2  0  0  0
 18 97  1  0  0  0
 19 20  1  0  0  0
 19 24  1  0  0  0
 20 21  2  0  0  0
 20 98  1  0  0  0
 21 23  1  0  0  0
 22 28  1  0  0  0
 22 32  2  0  0  0
 26 27  1  0  0  0
 28 99  1  0  0  0
 28100  1  0  0  0
 29101  1  0  0  0
 29102  1  0  0  0
 33 34  1  0  0  0
 33 66  1  0  0  0
 33 70  2  0  0  0
 34 36  1  0  0  0
 34 59  1  0  0  0
 34103  1  0  0  0
 35 44  2  0  0  0
 35 45  1  0  0  0
 35 68  1  0  0  0
 36 56  1  0  0  0
 36104  1  0  0  0
 37 39  1  0  0  0
 37 47  1  0  0  0
 37 66  1  0  0  0
 37105  1  0  0  0
 38 43  2  0  0  0
 38 46  1  0  0  0
 38 47  1  0  0  0
 39 64  1  0  0  0
 39 67  2  0  0  0
 40 52  1  0  0  0
 40 53  2  0  0  0
 40 58  1  0  0  0
 41106  1  0  0  0
 41107  1  0  0  0
 41108  1  0  0  0
 41 48  1  0  0  0
 42 43  1  0  0  0
 42 66  1  0  0  0
 42109  1  0  0  0
 42110  1  0  0  0
 43 44  1  0  0  0
 44111  1  0  0  0
 45 46  2  0  0  0
 45112  1  0  0  0
 46113  1  0  0  0
 47114  1  0  0  0
 47115  1  0  0  0
 48 56  1  0  0  0
 48 65  1  0  0  0
 48116  1  0  0  0
 49 50  1  0  0  0
 49 53  1  0  0  0
 49 64  1  0  0  0
 49117  1  0  0  0
 50 51  1  0  0  0
 50118  1  0  0  0
 50119  1  0  0  0
 51 52  1  0  0  0
 51120  1  0  0  0
 51121  1  0  0  0
 52122  1  0  0  0
 52123  1  0  0  0
 53 54  1  0  0  0
 54 55  2  0  0  0
 54124  1  0  0  0
 55 57  1  0  0  0
 55125  1  0  0  0
 56 69  2  0  0  0
 57 58  2  0  0  0
 57126  1  0  0  0
 58127  1  0  0  0
 59 60  1  0  0  0
 59 61  1  0  0  0
 59 62  1  0  0  0
 60128  1  0  0  0
 60129  1  0  0  0
 60130  1  0  0  0
 61131  1  0  0  0
 61132  1  0  0  0
 61133  1  0  0  0
 62134  1  0  0  0
 62135  1  0  0  0
 62136  1  0  0  0
 63 65  1  0  0  0
 63137  1  0  0  0
 63138  1  0  0  0
 63139  1  0  0  0
 64140  1  0  0  0
 65141  1  0  0  0
 68 78  1  0  0  0
 71 72  2  0  0  0
 71 74  1  0  0  0
 71142  1  0  0  0
 72 75  1  0  0  0
 72143  1  0  0  0
 73 74  2  0  0  0
 73 76  1  0  0  0
 73144  1  0  0  0
 74 80  1  0  0  0
 75 76  2  0  0  0
 75 81  1  0  0  0
 76 82  1  0  0  0
 77 80  1  0  0  0
 77145  1  0  0  0
 77146  1  0  0  0
 77147  1  0  0  0
 78 79  1  0  0  0
 78148  1  0  0  0
 78149  1  0  0  0
 79 81  1  0  0  0
 79150  1  0  0  0
 79151  1  0  0  0
M  ISO  4   1 100  68 101  78 101  80 100
M  END
> <chiral flag>
0

> <version>
0

> <s_m_source_file>
/data/baiqing/PycharmProjects/Reinvent-master-3.2/result/LINK_invent/BTK/process_docking_weight1_custom_product_contain_oxygen_bond_distance_aromatic_linkinvent_7_9_3/rearranged_h_0010.sdf

> <i_m_source_file_index>
8

> <r_mmod_Potential_Energy-OPLS-2005>
680.898010253906

> <r_mmod_Stretch_Energy-OPLS-2005>
239.020202636719

> <r_mmod_Bend_Energy-OPLS-2005>
284.776184082031

> <r_mmod_Torsional_Energy-OPLS-2005>
310.008209228516

> <r_mmod_Improper_Torsional_Energy-OPLS-2005>
5.87072706222534

> <r_mmod_Van_der_Waal_Energy-OPLS-2005>
135.038879394531

> <r_mmod_Electrostatic_Energy-OPLS-2005>
-278.127838134766

> <r_mmod_Solvation_Energy-OPLS-2005>
-195.857055664062

> <b_mmod_Minimization_Converged-OPLS-2005>
0

> <r_mmod_RMS_Derivative-OPLS-2005>
4.48634338378906

$$$$
8
                    3D
 Structure written by MMmdl.
147155  0  0  1  0            999 V2000
  -30.2080  -15.8793   20.3025 C   0  0  0  0  0  0
  -30.4053  -13.2674   19.5362 C   0  0  0  0  0  0
  -29.5573  -12.7125   18.3482 C   0  0  0  0  0  0
  -28.1528  -12.3014   18.8087 C   0  0  0  0  0  0
  -27.5871  -13.3306   19.8083 C   0  0  2  0  0  0
  -28.5874  -13.7703   20.9095 C   0  0  0  0  0  0
  -25.2285  -13.8317   20.5825 C   0  0  0  0  0  0
  -24.1701  -13.0436   20.9306 C   0  0  0  0  0  0
  -24.6435  -11.6957   20.8770 C   0  0  0  0  0  0
  -23.9141  -10.4295   21.0393 C   0  0  0  0  0  0
  -24.3669   -9.4207   21.9178 C   0  0  0  0  0  0
  -23.6324   -8.2250   22.0753 C   0  0  0  0  0  0
  -22.4303   -8.0295   21.3544 C   0  0  0  0  0  0
  -21.9952   -9.0272   20.4643 C   0  0  0  0  0  0
  -22.7303  -10.2139   20.3048 C   0  0  0  0  0  0
  -21.6860   -6.0748   22.5279 C   0  0  0  0  0  0
  -21.4020   -6.5648   23.8213 C   0  0  0  0  0  0
  -21.3657   -5.6797   24.9174 C   0  0  0  0  0  0
  -21.6043   -4.3060   24.7221 C   0  0  0  0  0  0
  -21.8820   -3.8155   23.4343 C   0  0  0  0  0  0
  -21.9196   -4.6973   22.3400 C   0  0  0  0  0  0
  -22.7706  -13.5149   21.1932 C   0  0  0  0  0  0
  -22.1663   -4.2160   21.0977 F   0  0  0  0  0  0
  -21.5623   -3.4541   25.7732 F   0  0  0  0  0  0
  -29.7181  -14.4699   20.2343 N   0  0  0  0  0  0
  -26.2759  -12.9691   20.3269 N   0  0  0  0  0  0
  -25.9392  -11.6735   20.5700 N   0  0  0  0  0  0
  -22.0378  -12.8119   22.0482 N   0  0  0  0  0  0
  -25.3846  -15.2060   20.4247 N   0  0  0  0  0  0
  -31.4500  -15.7769   20.1799 O   0  0  0  0  0  0
  -21.6653   -6.8899   21.4245 O   0  0  0  0  0  0
  -22.3375  -14.5443   20.6767 O   0  0  0  0  0  0
  -24.6999  -31.7791   23.1350 C   0  0  0  0  0  0
  -25.9497  -32.4361   23.7963 C   0  0  1  0  0  0
  -27.2345  -26.5250   20.2341 C   0  0  0  0  0  0
  -25.6007  -33.8194   24.1841 N   0  0  0  0  0  0
  -23.5334  -30.3727   21.4932 C   0  0  2  0  0  0
  -24.9897  -28.6713   20.1240 C   0  0  0  0  0  0
  -22.7835  -29.4209   22.4660 C   0  0  0  0  0  0
  -18.0351  -28.1438   22.8455 C   0  0  0  0  0  0
  -24.1486  -36.7096   23.2658 C   0  0  0  0  0  0
  -26.1201  -30.4535   21.4240 C   0  0  0  0  0  0
  -26.1816  -28.9981   20.7789 C   0  0  0  0  0  0
  -27.2780  -27.9595   20.7919 C   0  0  0  0  0  0
  -26.0048  -26.4470   19.5192 C   0  0  0  0  0  0
  -24.9504  -27.4241   19.4698 C   0  0  0  0  0  0
  -23.7953  -29.6500   20.1371 C   0  0  0  0  0  0
  -25.4144  -36.2831   24.0275 C   0  0  1  0  0  0
  -20.5993  -28.3800   23.1116 C   0  0  2  0  0  0
  -20.6808  -26.9444   22.5407 C   0  0  0  0  0  0
  -19.5783  -26.6372   21.5224 C   0  0  0  0  0  0
  -18.1967  -26.7966   22.1620 C   0  0  0  0  0  0
  -19.1622  -28.8947   23.2764 C   0  0  0  0  0  0
  -18.9526  -30.1528   23.8814 C   0  0  0  0  0  0
  -17.6514  -30.6616   24.0552 C   0  0  0  0  0  0
  -25.9141  -34.9228   23.4908 C   0  0  0  0  0  0
  -16.5401  -29.9096   23.6361 C   0  0  0  0  0  0
  -16.7330  -28.6519   23.0380 C   0  0  0  0  0  0
  -26.4620  -31.6476   25.0661 C   0  0  0  0  0  0
  -25.3637  -31.3853   26.1246 C   0  0  0  0  0  0
  -27.0578  -30.2793   24.6689 C   0  0  0  0  0  0
  -27.6040  -32.4376   25.7483 C   0  0  0  0  0  0
  -27.5551  -37.1699   24.8472 C   0  0  0  0  0  0
  -21.4466  -29.3009   22.3412 N   0  0  0  0  0  0
  -26.4251  -37.3616   23.9421 N   0  0  0  0  0  0
  -24.8102  -30.9060   22.0695 N   0  0  0  0  0  0
  -23.4202  -28.7848   23.3093 O   0  0  0  0  0  0
  -28.2288  -25.2701   20.3071 O   0  0  0  0  0  0
  -26.5803  -34.8847   22.4540 O   0  0  0  0  0  0
  -23.5983  -32.0946   23.6200 O   0  0  0  0  0  0
  -29.0070  -20.4083   21.4266 C   0  0  0  0  0  0
  -28.8149  -20.3602   19.1958 C   0  0  0  0  0  0
  -28.2095  -22.0310   21.3069 C   0  0  0  0  0  0
  -28.8954  -22.1650   19.1502 C   0  0  0  0  0  0
  -29.4841  -19.1808   20.2792 C   0  0  2  0  0  0
  -28.4463  -23.4132   20.2815 C   0  0  1  0  0  0
  -29.4452  -17.3077   20.3278 N   0  0  0  0  0  0
  -31.3736  -13.5706   19.1367 H   0  0  0  0  0  0
  -30.6372  -12.4748   20.2501 H   0  0  0  0  0  0
  -30.0622  -11.8674   17.8782 H   0  0  0  0  0  0
  -29.4720  -13.4841   17.5817 H   0  0  0  0  0  0
  -28.2294  -11.3287   19.2968 H   0  0  0  0  0  0
  -27.4850  -12.1703   17.9563 H   0  0  0  0  0  0
  -27.4159  -14.2152   19.1929 H   0  0  0  0  0  0
  -28.9065  -12.9318   21.5303 H   0  0  0  0  0  0
  -28.1062  -14.4794   21.5845 H   0  0  0  0  0  0
  -25.2809   -9.5675   22.4765 H   0  0  0  0  0  0
  -24.0019   -7.4643   22.7480 H   0  0  0  0  0  0
  -21.0880   -8.8811   19.8951 H   0  0  0  0  0  0
  -22.3769  -10.9685   19.6161 H   0  0  0  0  0  0
  -21.2017   -7.6157   23.9721 H   0  0  0  0  0  0
  -21.1472   -6.0525   25.9076 H   0  0  0  0  0  0
  -22.0599   -2.7617   23.2840 H   0  0  0  0  0  0
  -22.4025  -11.9796   22.4878 H   0  0  0  0  0  0
  -21.0982  -13.1107   22.2685 H   0  0  0  0  0  0
  -24.6102  -15.8522   20.5322 H   0  0  0  0  0  0
  -26.2250  -15.6482   20.0772 H   0  0  0  0  0  0
  -26.7593  -32.4786   23.0682 H   0  0  0  0  0  0
  -25.0061  -33.9199   24.9934 H   0  0  0  0  0  0
  -22.8689  -31.2144   21.2873 H   0  0  0  0  0  0
  -23.3777  -35.9393   23.3254 H   0  0  0  0  0  0
  -24.3549  -36.8828   22.2085 H   0  0  0  0  0  0
  -23.7212  -37.6238   23.6788 H   0  0  0  0  0  0
  -26.3412  -31.1655   20.6279 H   0  0  0  0  0  0
  -26.9650  -30.5277   22.0962 H   0  0  0  0  0  0
  -28.1750  -28.2272   21.3318 H   0  0  0  0  0  0
  -25.8133  -25.5164   19.0038 H   0  0  0  0  0  0
  -24.0551  -27.1625   18.9233 H   0  0  0  0  0  0
  -23.9847  -30.4004   19.3686 H   0  0  0  0  0  0
  -22.8957  -29.1252   19.8112 H   0  0  0  0  0  0
  -25.1359  -36.1560   25.0763 H   0  0  0  0  0  0
  -21.0078  -28.3435   24.1243 H   0  0  0  0  0  0
  -20.5664  -26.2425   23.3683 H   0  0  0  0  0  0
  -21.6667  -26.7363   22.1231 H   0  0  0  0  0  0
  -19.6933  -25.6262   21.1305 H   0  0  0  0  0  0
  -19.6736  -27.3144   20.6726 H   0  0  0  0  0  0
  -17.4240  -26.6723   21.4019 H   0  0  0  0  0  0
  -18.0338  -26.0130   22.9032 H   0  0  0  0  0  0
  -19.8002  -30.7370   24.2139 H   0  0  0  0  0  0
  -17.5066  -31.6289   24.5172 H   0  0  0  0  0  0
  -15.5400  -30.2975   23.7736 H   0  0  0  0  0  0
  -15.8729  -28.0810   22.7145 H   0  0  0  0  0  0
  -24.5860  -30.7163   25.7546 H   0  0  0  0  0  0
  -24.8788  -32.3095   26.4397 H   0  0  0  0  0  0
  -25.7774  -30.9196   27.0198 H   0  0  0  0  0  0
  -26.3328  -29.6350   24.1706 H   0  0  0  0  0  0
  -27.3967  -29.7313   25.5490 H   0  0  0  0  0  0
  -27.9319  -30.3881   24.0266 H   0  0  0  0  0  0
  -27.2569  -33.3779   26.1775 H   0  0  0  0  0  0
  -28.3992  -32.6769   25.0409 H   0  0  0  0  0  0
  -28.0550  -31.8691   26.5625 H   0  0  0  0  0  0
  -28.2533  -38.0027   24.7528 H   0  0  0  0  0  0
  -28.1080  -36.2550   24.6287 H   0  0  0  0  0  0
  -27.2272  -37.1319   25.8875 H   0  0  0  0  0  0
  -20.9807  -29.8618   21.6415 H   0  0  0  0  0  0
  -26.0058  -38.2647   24.1460 H   0  0  0  0  0  0
  -28.3926  -19.8709   22.1492 H   0  0  0  0  0  0
  -29.9213  -20.6058   21.9877 H   0  0  0  0  0  0
  -29.1587  -20.0483   18.2096 H   0  0  0  0  0  0
  -27.7473  -20.1350   19.1656 H   0  0  0  0  0  0
  -28.2549  -22.4307   22.3202 H   0  0  0  0  0  0
  -27.1511  -21.7970   21.1851 H   0  0  0  0  0  0
  -28.3558  -22.4305   18.2413 H   0  0  0  0  0  0
  -29.9326  -22.3831   18.8922 H   0  0  0  0  0  0
  -30.5599  -19.3206   20.1638 H   0  0  0  0  0  0
  -29.4535  -23.6212   20.6440 H   0  0  0  0  0  0
  -28.4688  -17.0514   20.3771 H   0  0  0  0  0  0
  1 25  1  0  0  0
  1 30  2  0  0  0
  1 77  1  0  0  0
  2  3  1  0  0  0
  2 25  1  0  0  0
  2 78  1  0  0  0
  2 79  1  0  0  0
  3  4  1  0  0  0
  3 80  1  0  0  0
  3 81  1  0  0  0
  4  5  1  0  0  0
  4 82  1  0  0  0
  4 83  1  0  0  0
  5  6  1  0  0  0
  5 26  1  0  0  0
  5 84  1  0  0  0
  6 25  1  0  0  0
  6 85  1  0  0  0
  6 86  1  0  0  0
  7  8  2  0  0  0
  7 26  1  0  0  0
  7 29  1  0  0  0
  8  9  1  0  0  0
  8 22  1  0  0  0
  9 10  1  0  0  0
  9 27  2  0  0  0
 10 11  2  0  0  0
 10 15  1  0  0  0
 11 12  1  0  0  0
 11 87  1  0  0  0
 12 13  2  0  0  0
 12 88  1  0  0  0
 13 14  1  0  0  0
 13 31  1  0  0  0
 14 15  2  0  0  0
 14 89  1  0  0  0
 15 90  1  0  0  0
 16 17  2  0  0  0
 16 21  1  0  0  0
 16 31  1  0  0  0
 17 18  1  0  0  0
 17 91  1  0  0  0
 18 19  2  0  0  0
 18 92  1  0  0  0
 19 20  1  0  0  0
 19 24  1  0  0  0
 20 21  2  0  0  0
 20 93  1  0  0  0
 21 23  1  0  0  0
 22 28  1  0  0  0
 22 32  2  0  0  0
 26 27  1  0  0  0
 28 94  1  0  0  0
 28 95  1  0  0  0
 29 96  1  0  0  0
 29 97  1  0  0  0
 33 34  1  0  0  0
 33 66  1  0  0  0
 33 70  2  0  0  0
 34 36  1  0  0  0
 34 59  1  0  0  0
 34 98  1  0  0  0
 35 44  2  0  0  0
 35 45  1  0  0  0
 35 68  1  0  0  0
 36 56  1  0  0  0
 36 99  1  0  0  0
 37 39  1  0  0  0
 37 47  1  0  0  0
 37 66  1  0  0  0
 37100  1  0  0  0
 38 43  2  0  0  0
 38 46  1  0  0  0
 38 47  1  0  0  0
 39 64  1  0  0  0
 39 67  2  0  0  0
 40 52  1  0  0  0
 40 53  2  0  0  0
 40 58  1  0  0  0
 41101  1  0  0  0
 41102  1  0  0  0
 41103  1  0  0  0
 41 48  1  0  0  0
 42 43  1  0  0  0
 42 66  1  0  0  0
 42104  1  0  0  0
 42105  1  0  0  0
 43 44  1  0  0  0
 44106  1  0  0  0
 45 46  2  0  0  0
 45107  1  0  0  0
 46108  1  0  0  0
 47109  1  0  0  0
 47110  1  0  0  0
 48 56  1  0  0  0
 48 65  1  0  0  0
 48111  1  0  0  0
 49 50  1  0  0  0
 49 53  1  0  0  0
 49 64  1  0  0  0
 49112  1  0  0  0
 50 51  1  0  0  0
 50113  1  0  0  0
 50114  1  0  0  0
 51 52  1  0  0  0
 51115  1  0  0  0
 51116  1  0  0  0
 52117  1  0  0  0
 52118  1  0  0  0
 53 54  1  0  0  0
 54 55  2  0  0  0
 54119  1  0  0  0
 55 57  1  0  0  0
 55120  1  0  0  0
 56 69  2  0  0  0
 57 58  2  0  0  0
 57121  1  0  0  0
 58122  1  0  0  0
 59 60  1  0  0  0
 59 61  1  0  0  0
 59 62  1  0  0  0
 60123  1  0  0  0
 60124  1  0  0  0
 60125  1  0  0  0
 61126  1  0  0  0
 61127  1  0  0  0
 61128  1  0  0  0
 62129  1  0  0  0
 62130  1  0  0  0
 62131  1  0  0  0
 63 65  1  0  0  0
 63132  1  0  0  0
 63133  1  0  0  0
 63134  1  0  0  0
 64135  1  0  0  0
 65136  1  0  0  0
 68 76  1  0  0  0
 71 73  1  0  0  0
 71 75  1  0  0  0
 71137  1  0  0  0
 71138  1  0  0  0
 72 74  1  0  0  0
 72 75  1  0  0  0
 72139  1  0  0  0
 72140  1  0  0  0
 73 76  1  0  0  0
 73141  1  0  0  0
 73142  1  0  0  0
 74 76  1  0  0  0
 74143  1  0  0  0
 74144  1  0  0  0
 75 77  1  0  0  0
 75145  1  0  0  0
 76146  1  0  0  0
 77147  1  0  0  0
M  ISO  4   1 100  68 101  76 101  77 100
M  END
> <chiral flag>
0

> <version>
0

> <s_m_source_file>
/data/baiqing/PycharmProjects/Reinvent-master-3.2/result/LINK_invent/BTK/process_docking_weight1_custom_product_contain_oxygen_bond_distance_aromatic_linkinvent_7_9_3/rearranged_h_0010.sdf

> <i_m_source_file_index>
9

> <r_mmod_Potential_Energy-OPLS-2005>
3508.3359375

> <r_mmod_Stretch_Energy-OPLS-2005>
1375.18981933594

> <r_mmod_Bend_Energy-OPLS-2005>
1047.43798828125

> <r_mmod_Torsional_Energy-OPLS-2005>
244.690505981445

> <r_mmod_Improper_Torsional_Energy-OPLS-2005>
3.74291706085205

> <r_mmod_Van_der_Waal_Energy-OPLS-2005>
121.230651855469

> <r_mmod_Electrostatic_Energy-OPLS-2005>
-364.220825195312

> <r_mmod_Solvation_Energy-OPLS-2005>
-216.269866943359

> <b_mmod_Minimization_Converged-OPLS-2005>
0

> <r_mmod_RMS_Derivative-OPLS-2005>
0.805095314979553

$$$$
9
                    3D
 Structure written by MMmdl.
154162  0  0  1  0            999 V2000
  -30.7340  -14.4785   20.5785 C   0  0  0  0  0  0
  -30.4183  -12.3201   19.4210 C   0  0  0  0  0  0
  -29.4885  -12.4883   18.2033 C   0  0  0  0  0  0
  -28.0163  -12.3339   18.6300 C   0  0  0  0  0  0
  -27.6565  -13.2055   19.8637 C   0  0  2  0  0  0
  -28.7005  -13.0335   20.9905 C   0  0  0  0  0  0
  -25.2591  -13.8148   20.5652 C   0  0  0  0  0  0
  -24.1848  -13.0438   20.9203 C   0  0  0  0  0  0
  -24.6393  -11.6903   20.8778 C   0  0  0  0  0  0
  -23.9061  -10.4293   21.0443 C   0  0  0  0  0  0
  -24.3596   -9.4208   21.9232 C   0  0  0  0  0  0
  -23.6258   -8.2243   22.0803 C   0  0  0  0  0  0
  -22.4255   -8.0263   21.3575 C   0  0  0  0  0  0
  -21.9896   -9.0253   20.4692 C   0  0  0  0  0  0
  -22.7229  -10.2132   20.3095 C   0  0  0  0  0  0
  -21.6842   -6.0700   22.5263 C   0  0  0  0  0  0
  -21.3999   -6.5634   23.8180 C   0  0  0  0  0  0
  -21.3665   -5.6814   24.9167 C   0  0  0  0  0  0
  -21.6048   -4.3070   24.7240 C   0  0  0  0  0  0
  -21.8821   -3.8135   23.4367 C   0  0  0  0  0  0
  -21.9187   -4.6928   22.3404 C   0  0  0  0  0  0
  -22.7871  -13.5229   21.1839 C   0  0  0  0  0  0
  -22.1662   -4.2094   21.0987 F   0  0  0  0  0  0
  -21.5632   -3.4572   25.7766 F   0  0  0  0  0  0
  -30.0290  -13.3239   20.4272 N   0  0  0  0  0  0
  -26.3007  -12.9311   20.3346 N   0  0  0  0  0  0
  -25.9318  -11.6479   20.5819 N   0  0  0  0  0  0
  -22.0516  -12.8211   22.0399 N   0  0  0  0  0  0
  -25.4371  -15.1852   20.3976 N   0  0  0  0  0  0
  -31.8470  -14.6431   20.0728 O   0  0  0  0  0  0
  -21.6639   -6.8838   21.4228 O   0  0  0  0  0  0
  -22.3560  -14.5521   20.6647 O   0  0  0  0  0  0
  -24.6143  -31.8673   23.2111 C   0  0  0  0  0  0
  -25.9031  -32.4822   23.8411 C   0  0  1  0  0  0
  -27.2207  -27.4186   20.0969 C   0  0  0  0  0  0
  -25.5891  -33.8626   24.2352 N   0  0  0  0  0  0
  -23.4054  -30.4877   21.5549 C   0  0  2  0  0  0
  -24.8488  -28.9608   20.1108 C   0  0  0  0  0  0
  -22.7414  -29.4630   22.5042 C   0  0  0  0  0  0
  -18.0269  -28.1352   22.8470 C   0  0  0  0  0  0
  -24.1497  -36.7317   23.2640 C   0  0  0  0  0  0
  -25.9331  -30.8309   21.3658 C   0  0  0  0  0  0
  -26.0118  -29.4664   20.7066 C   0  0  0  0  0  0
  -27.2028  -28.7056   20.6884 C   0  0  0  0  0  0
  -26.0434  -26.9359   19.4849 C   0  0  0  0  0  0
  -24.8646  -27.7030   19.4882 C   0  0  0  0  0  0
  -23.6070  -29.8184   20.1699 C   0  0  0  0  0  0
  -25.4115  -36.3122   24.0337 C   0  0  1  0  0  0
  -20.5851  -28.3629   23.1336 C   0  0  2  0  0  0
  -20.6749  -26.9375   22.5416 C   0  0  0  0  0  0
  -19.5737  -26.6376   21.5187 C   0  0  0  0  0  0
  -18.1916  -26.7907   22.1600 C   0  0  0  0  0  0
  -19.1517  -28.8815   23.2897 C   0  0  0  0  0  0
  -18.9431  -30.1421   23.8902 C   0  0  0  0  0  0
  -17.6430  -30.6563   24.0543 C   0  0  0  0  0  0
  -25.9040  -34.9473   23.5147 C   0  0  0  0  0  0
  -16.5325  -29.9052   23.6321 C   0  0  0  0  0  0
  -16.7257  -28.6466   23.0341 C   0  0  0  0  0  0
  -26.4460  -31.6587   25.0721 C   0  0  0  0  0  0
  -25.3712  -31.3636   26.1452 C   0  0  0  0  0  0
  -27.0278  -30.3035   24.6068 C   0  0  0  0  0  0
  -27.6087  -32.4278   25.7454 C   0  0  0  0  0  0
  -27.5595  -37.1810   24.8463 C   0  0  0  0  0  0
  -21.4155  -29.3000   22.3766 N   0  0  0  0  0  0
  -26.4311  -37.3799   23.9412 N   0  0  0  0  0  0
  -24.6706  -31.0755   22.1024 N   0  0  0  0  0  0
  -23.4179  -28.8142   23.3083 O   0  0  0  0  0  0
  -28.3767  -26.6677   20.1069 O   0  0  0  0  0  0
  -26.5601  -34.8910   22.4707 O   0  0  0  0  0  0
  -23.5345  -32.1404   23.7494 O   0  0  0  0  0  0
  -29.1489  -18.3515   20.6600 C   0  0  0  0  0  0
  -28.7789  -19.6912   20.3578 C   0  0  0  0  0  0
  -30.8318  -20.4987   21.3492 C   0  0  0  0  0  0
  -30.3670  -18.0800   21.3273 C   0  0  0  0  0  0
  -29.6029  -20.7923   20.7075 C   0  0  0  0  0  0
  -31.2029  -19.1748   21.6495 C   0  0  0  0  0  0
  -30.8283  -16.6781   21.7676 C   0  0  0  0  0  0
  -29.6112  -24.5837   20.3781 C   0  0  0  0  0  0
  -28.2324  -25.2698   20.4345 C   0  0  0  0  0  0
  -29.7689  -23.2055   21.0716 C   0  0  0  0  0  0
  -30.1358  -15.4712   21.2671 N   0  0  0  0  0  0
  -29.1781  -22.0813   20.3866 O   0  0  0  0  0  0
  -32.3914  -18.9607   22.2639 F   0  0  0  0  0  0
  -31.4623  -12.4147   19.1122 H   0  0  0  0  0  0
  -30.3217  -11.3177   19.8420 H   0  0  0  0  0  0
  -29.7297  -11.7449   17.4420 H   0  0  0  0  0  0
  -29.6450  -13.4667   17.7468 H   0  0  0  0  0  0
  -27.8611  -11.2822   18.8745 H   0  0  0  0  0  0
  -27.3486  -12.5472   17.7942 H   0  0  0  0  0  0
  -27.6924  -14.2438   19.5347 H   0  0  0  0  0  0
  -28.6839  -12.0129   21.3726 H   0  0  0  0  0  0
  -28.4547  -13.6696   21.8417 H   0  0  0  0  0  0
  -25.2738   -9.5648   22.4827 H   0  0  0  0  0  0
  -23.9951   -7.4620   22.7517 H   0  0  0  0  0  0
  -21.0831   -8.8768   19.8989 H   0  0  0  0  0  0
  -22.3693  -10.9669   19.6199 H   0  0  0  0  0  0
  -21.1991   -7.6147   23.9640 H   0  0  0  0  0  0
  -21.1500   -6.0582   25.9056 H   0  0  0  0  0  0
  -22.0599   -2.7587   23.2901 H   0  0  0  0  0  0
  -22.4090  -11.9821   22.4736 H   0  0  0  0  0  0
  -21.1150  -13.1259   22.2623 H   0  0  0  0  0  0
  -24.6750  -15.8472   20.4854 H   0  0  0  0  0  0
  -26.2844  -15.6090   20.0430 H   0  0  0  0  0  0
  -26.7084  -32.5549   23.1180 H   0  0  0  0  0  0
  -25.0008  -33.9772   25.0473 H   0  0  0  0  0  0
  -22.6951  -31.3038   21.4158 H   0  0  0  0  0  0
  -23.3756  -35.9658   23.3316 H   0  0  0  0  0  0
  -24.3595  -36.8905   22.2053 H   0  0  0  0  0  0
  -23.7237  -37.6530   23.6630 H   0  0  0  0  0  0
  -26.0424  -31.6002   20.6015 H   0  0  0  0  0  0
  -26.8226  -30.8821   21.9829 H   0  0  0  0  0  0
  -28.1024  -29.0880   21.1466 H   0  0  0  0  0  0
  -26.0192  -25.9783   18.9858 H   0  0  0  0  0  0
  -23.9768  -27.3260   19.0040 H   0  0  0  0  0  0
  -23.6932  -30.5845   19.3991 H   0  0  0  0  0  0
  -22.7371  -29.2207   19.8950 H   0  0  0  0  0  0
  -25.1293  -36.2005   25.0828 H   0  0  0  0  0  0
  -20.9916  -28.3156   24.1469 H   0  0  0  0  0  0
  -20.5623  -26.2213   23.3566 H   0  0  0  0  0  0
  -21.6616  -26.7413   22.1213 H   0  0  0  0  0  0
  -19.6906  -25.6297   21.1189 H   0  0  0  0  0  0
  -19.6699  -27.3191   20.6709 H   0  0  0  0  0  0
  -17.4186  -26.6630   21.4008 H   0  0  0  0  0  0
  -18.0355  -26.0059   22.9005 H   0  0  0  0  0  0
  -19.7907  -30.7234   24.2278 H   0  0  0  0  0  0
  -17.4977  -31.6242   24.5132 H   0  0  0  0  0  0
  -15.5317  -30.2926   23.7659 H   0  0  0  0  0  0
  -15.8653  -28.0769   22.7069 H   0  0  0  0  0  0
  -24.5936  -30.6943   25.7752 H   0  0  0  0  0  0
  -24.8815  -32.2738   26.4925 H   0  0  0  0  0  0
  -25.8057  -30.8787   27.0197 H   0  0  0  0  0  0
  -26.2790  -29.6811   24.1150 H   0  0  0  0  0  0
  -27.4073  -29.7280   25.4525 H   0  0  0  0  0  0
  -27.8636  -30.4362   23.9191 H   0  0  0  0  0  0
  -27.2765  -33.3561   26.2113 H   0  0  0  0  0  0
  -28.3849  -32.6836   25.0227 H   0  0  0  0  0  0
  -28.0809  -31.8318   26.5276 H   0  0  0  0  0  0
  -28.2614  -38.0106   24.7529 H   0  0  0  0  0  0
  -28.1083  -36.2639   24.6279 H   0  0  0  0  0  0
  -27.2310  -37.1454   25.8862 H   0  0  0  0  0  0
  -20.9328  -29.8704   21.6965 H   0  0  0  0  0  0
  -26.0214  -38.2894   24.1396 H   0  0  0  0  0  0
  -28.4875  -17.5418   20.3883 H   0  0  0  0  0  0
  -27.8375  -19.8738   19.8588 H   0  0  0  0  0  0
  -31.5438  -21.2589   21.6264 H   0  0  0  0  0  0
  -31.8979  -16.6086   21.5618 H   0  0  0  0  0  0
  -30.7478  -16.6577   22.8547 H   0  0  0  0  0  0
  -30.3148  -25.2595   20.8680 H   0  0  0  0  0  0
  -29.9490  -24.5130   19.3448 H   0  0  0  0  0  0
  -27.8005  -25.1819   21.4348 H   0  0  0  0  0  0
  -27.5699  -24.7422   19.7525 H   0  0  0  0  0  0
  -29.3919  -23.2432   22.0957 H   0  0  0  0  0  0
  -30.8473  -23.0973   21.1417 H   0  0  0  0  0  0
  -29.2134  -15.2840   21.6294 H   0  0  0  0  0  0
  1 25  1  0  0  0
  1 30  2  0  0  0
  1 81  1  0  0  0
  2  3  1  0  0  0
  2 25  1  0  0  0
  2 84  1  0  0  0
  2 85  1  0  0  0
  3  4  1  0  0  0
  3 86  1  0  0  0
  3 87  1  0  0  0
  4  5  1  0  0  0
  4 88  1  0  0  0
  4 89  1  0  0  0
  5  6  1  0  0  0
  5 26  1  0  0  0
  5 90  1  0  0  0
  6 25  1  0  0  0
  6 91  1  0  0  0
  6 92  1  0  0  0
  7  8  2  0  0  0
  7 26  1  0  0  0
  7 29  1  0  0  0
  8  9  1  0  0  0
  8 22  1  0  0  0
  9 10  1  0  0  0
  9 27  2  0  0  0
 10 11  2  0  0  0
 10 15  1  0  0  0
 11 12  1  0  0  0
 11 93  1  0  0  0
 12 13  2  0  0  0
 12 94  1  0  0  0
 13 14  1  0  0  0
 13 31  1  0  0  0
 14 15  2  0  0  0
 14 95  1  0  0  0
 15 96  1  0  0  0
 16 17  2  0  0  0
 16 21  1  0  0  0
 16 31  1  0  0  0
 17 18  1  0  0  0
 17 97  1  0  0  0
 18 19  2  0  0  0
 18 98  1  0  0  0
 19 20  1  0  0  0
 19 24  1  0  0  0
 20 21  2  0  0  0
 20 99  1  0  0  0
 21 23  1  0  0  0
 22 28  1  0  0  0
 22 32  2  0  0  0
 26 27  1  0  0  0
 28100  1  0  0  0
 28101  1  0  0  0
 29102  1  0  0  0
 29103  1  0  0  0
 33 34  1  0  0  0
 33 66  1  0  0  0
 33 70  2  0  0  0
 34 36  1  0  0  0
 34 59  1  0  0  0
 34104  1  0  0  0
 35 44  2  0  0  0
 35 45  1  0  0  0
 35 68  1  0  0  0
 36 56  1  0  0  0
 36105  1  0  0  0
 37 39  1  0  0  0
 37 47  1  0  0  0
 37 66  1  0  0  0
 37106  1  0  0  0
 38 43  2  0  0  0
 38 46  1  0  0  0
 38 47  1  0  0  0
 39 64  1  0  0  0
 39 67  2  0  0  0
 40 52  1  0  0  0
 40 53  2  0  0  0
 40 58  1  0  0  0
 41107  1  0  0  0
 41108  1  0  0  0
 41109  1  0  0  0
 41 48  1  0  0  0
 42 43  1  0  0  0
 42 66  1  0  0  0
 42110  1  0  0  0
 42111  1  0  0  0
 43 44  1  0  0  0
 44112  1  0  0  0
 45 46  2  0  0  0
 45113  1  0  0  0
 46114  1  0  0  0
 47115  1  0  0  0
 47116  1  0  0  0
 48 56  1  0  0  0
 48 65  1  0  0  0
 48117  1  0  0  0
 49 50  1  0  0  0
 49 53  1  0  0  0
 49 64  1  0  0  0
 49118  1  0  0  0
 50 51  1  0  0  0
 50119  1  0  0  0
 50120  1  0  0  0
 51 52  1  0  0  0
 51121  1  0  0  0
 51122  1  0  0  0
 52123  1  0  0  0
 52124  1  0  0  0
 53 54  1  0  0  0
 54 55  2  0  0  0
 54125  1  0  0  0
 55 57  1  0  0  0
 55126  1  0  0  0
 56 69  2  0  0  0
 57 58  2  0  0  0
 57127  1  0  0  0
 58128  1  0  0  0
 59 60  1  0  0  0
 59 61  1  0  0  0
 59 62  1  0  0  0
 60129  1  0  0  0
 60130  1  0  0  0
 60131  1  0  0  0
 61132  1  0  0  0
 61133  1  0  0  0
 61134  1  0  0  0
 62135  1  0  0  0
 62136  1  0  0  0
 62137  1  0  0  0
 63 65  1  0  0  0
 63138  1  0  0  0
 63139  1  0  0  0
 63140  1  0  0  0
 64141  1  0  0  0
 65142  1  0  0  0
 68 79  1  0  0  0
 71 72  2  0  0  0
 71 74  1  0  0  0
 71143  1  0  0  0
 72 75  1  0  0  0
 72144  1  0  0  0
 73 75  2  0  0  0
 73 76  1  0  0  0
 73145  1  0  0  0
 74 76  2  0  0  0
 74 77  1  0  0  0
 75 82  1  0  0  0
 76 83  1  0  0  0
 77 81  1  0  0  0
 77146  1  0  0  0
 77147  1  0  0  0
 78 79  1  0  0  0
 78 80  1  0  0  0
 78148  1  0  0  0
 78149  1  0  0  0
 79150  1  0  0  0
 79151  1  0  0  0
 80 82  1  0  0  0
 80152  1  0  0  0
 80153  1  0  0  0
 81154  1  0  0  0
M  ISO  4   1 100  68 101  79 101  81 100
M  END
> <chiral flag>
0

> <version>
0

> <s_m_source_file>
/data/baiqing/PycharmProjects/Reinvent-master-3.2/result/LINK_invent/BTK/process_docking_weight1_custom_product_contain_oxygen_bond_distance_aromatic_linkinvent_7_9_3/rearranged_h_0010.sdf

> <i_m_source_file_index>
10

> <r_mmod_Potential_Energy-OPLS-2005>
-69.6614761352539

> <r_mmod_Stretch_Energy-OPLS-2005>
41.0925941467285

> <r_mmod_Bend_Energy-OPLS-2005>
114.03539276123

> <r_mmod_Torsional_Energy-OPLS-2005>
206.113082885742

> <r_mmod_Improper_Torsional_Energy-OPLS-2005>
2.53195285797119

> <r_mmod_Van_der_Waal_Energy-OPLS-2005>
160.371490478516

> <r_mmod_Electrostatic_Energy-OPLS-2005>
-399.130157470703

> <r_mmod_Solvation_Energy-OPLS-2005>
-210.100509643555

> <b_mmod_Minimization_Converged-OPLS-2005>
0

> <r_mmod_RMS_Derivative-OPLS-2005>
4.16194486618042

$$$$
10
                    3D
 Structure written by MMmdl.
153162  0  0  1  0            999 V2000
  -30.4935  -15.0665   20.3317 C   0  0  0  0  0  0
  -30.4581  -12.6406   19.5145 C   0  0  0  0  0  0
  -29.5403  -12.3803   18.2903 C   0  0  0  0  0  0
  -28.0572  -12.2618   18.6962 C   0  0  0  0  0  0
  -27.6219  -13.2431   19.8175 C   0  0  2  0  0  0
  -28.6654  -13.3523   20.9455 C   0  0  0  0  0  0
  -25.2470  -13.8217   20.5724 C   0  0  0  0  0  0
  -24.1774  -13.0449   20.9236 C   0  0  0  0  0  0
  -24.6377  -11.6933   20.8782 C   0  0  0  0  0  0
  -23.9066  -10.4301   21.0428 C   0  0  0  0  0  0
  -24.3617   -9.4212   21.9199 C   0  0  0  0  0  0
  -23.6290   -8.2247   22.0763 C   0  0  0  0  0  0
  -22.4275   -8.0284   21.3547 C   0  0  0  0  0  0
  -21.9911   -9.0261   20.4653 C   0  0  0  0  0  0
  -22.7241  -10.2141   20.3073 C   0  0  0  0  0  0
  -21.6853   -6.0738   22.5278 C   0  0  0  0  0  0
  -21.4013   -6.5644   23.8209 C   0  0  0  0  0  0
  -21.3655   -5.6796   24.9172 C   0  0  0  0  0  0
  -21.6041   -4.3058   24.7224 C   0  0  0  0  0  0
  -21.8820   -3.8151   23.4346 C   0  0  0  0  0  0
  -21.9194   -4.6967   22.3402 C   0  0  0  0  0  0
  -22.7795  -13.5229   21.1884 C   0  0  0  0  0  0
  -22.1663   -4.2149   21.0980 F   0  0  0  0  0  0
  -21.5625   -3.4546   25.7739 F   0  0  0  0  0  0
  -29.9186  -13.7833   20.3142 N   0  0  0  0  0  0
  -26.2866  -12.9427   20.3222 N   0  0  0  0  0  0
  -25.9306  -11.6574   20.5793 N   0  0  0  0  0  0
  -22.0444  -12.8212   22.0435 N   0  0  0  0  0  0
  -25.4191  -15.1938   20.4181 N   0  0  0  0  0  0
  -31.7298  -15.0910   20.2557 O   0  0  0  0  0  0
  -21.6642   -6.8881   21.4237 O   0  0  0  0  0  0
  -22.3483  -14.5531   20.6725 O   0  0  0  0  0  0
  -24.6486  -31.8396   23.1855 C   0  0  0  0  0  0
  -25.9239  -32.4676   23.8260 C   0  0  1  0  0  0
  -27.2200  -27.0889   20.1744 C   0  0  0  0  0  0
  -25.5968  -33.8482   24.2176 N   0  0  0  0  0  0
  -23.4551  -30.4574   21.5316 C   0  0  2  0  0  0
  -24.9062  -28.8722   20.1173 C   0  0  0  0  0  0
  -22.7589  -29.4533   22.4845 C   0  0  0  0  0  0
  -18.0307  -28.1401   22.8470 C   0  0  0  0  0  0
  -24.1485  -36.7255   23.2643 C   0  0  0  0  0  0
  -26.0137  -30.7000   21.3901 C   0  0  0  0  0  0
  -26.0854  -29.3044   20.7371 C   0  0  0  0  0  0
  -27.2438  -28.4326   20.7416 C   0  0  0  0  0  0
  -26.0159  -26.7698   19.5091 C   0  0  0  0  0  0
  -24.8868  -27.6194   19.4856 C   0  0  0  0  0  0
  -23.6869  -29.7831   20.1530 C   0  0  0  0  0  0
  -25.4120  -36.3023   24.0310 C   0  0  1  0  0  0
  -20.5922  -28.3743   23.1215 C   0  0  2  0  0  0
  -20.6795  -26.9438   22.5399 C   0  0  0  0  0  0
  -19.5768  -26.6382   21.5210 C   0  0  0  0  0  0
  -18.1948  -26.7939   22.1616 C   0  0  0  0  0  0
  -19.1565  -28.8889   23.2832 C   0  0  0  0  0  0
  -18.9481  -30.1482   23.8864 C   0  0  0  0  0  0
  -17.6479  -30.6595   24.0564 C   0  0  0  0  0  0
  -25.9074  -34.9395   23.5052 C   0  0  0  0  0  0
  -16.5370  -29.9093   23.6332 C   0  0  0  0  0  0
  -16.7291  -28.6512   23.0350 C   0  0  0  0  0  0
  -26.4540  -31.6559   25.0722 C   0  0  0  0  0  0
  -25.3707  -31.3764   26.1407 C   0  0  0  0  0  0
  -27.0422  -30.2949   24.6341 C   0  0  0  0  0  0
  -27.6051  -32.4349   25.7514 C   0  0  0  0  0  0
  -27.5571  -37.1781   24.8463 C   0  0  0  0  0  0
  -21.4277  -29.3064   22.3583 N   0  0  0  0  0  0
  -26.4282  -37.3742   23.9407 N   0  0  0  0  0  0
  -24.7262  -31.0210   22.0913 N   0  0  0  0  0  0
  -23.4196  -28.8080   23.3025 O   0  0  0  0  0  0
  -28.2726  -26.0878   20.2175 O   0  0  0  0  0  0
  -26.5657  -34.8900   22.4628 O   0  0  0  0  0  0
  -23.5590  -32.1300   23.7038 O   0  0  0  0  0  0
  -30.6992  -19.4369   18.2308 C   0  0  0  0  0  0
  -30.2231  -20.5554   18.9432 C   0  0  0  0  0  0
  -29.3257  -19.0007   20.6050 C   0  0  0  0  0  0
  -30.4681  -18.1261   18.6880 C   0  0  0  0  0  0
  -29.9071  -17.7884   19.9266 C   0  0  0  0  0  0
  -29.4367  -20.4286   20.1101 C   0  0  0  0  0  0
  -30.4939  -16.9432   17.7812 C   0  0  0  0  0  0
  -29.4754  -16.0384   18.4898 C   0  0  0  0  0  0
  -29.0359  -23.2083   20.1385 C   0  0  0  0  0  0
  -28.0128  -24.5457   20.4515 C   0  0  0  0  0  0
  -29.7076  -16.2316   19.9384 N   0  0  0  0  0  0
  -28.8108  -21.7041   20.6006 N   0  0  0  0  0  0
  -31.4752  -12.8374   19.1714 H   0  0  0  0  0  0
  -30.5243  -11.7490   20.1400 H   0  0  0  0  0  0
  -29.8478  -11.4462   17.8184 H   0  0  0  0  0  0
  -29.6755  -13.1166   17.5038 H   0  0  0  0  0  0
  -27.9196  -11.2383   19.0462 H   0  0  0  0  0  0
  -27.4119  -12.3661   17.8235 H   0  0  0  0  0  0
  -27.5559  -14.2198   19.3399 H   0  0  0  0  0  0
  -28.7852  -12.4060   21.4743 H   0  0  0  0  0  0
  -28.3489  -14.0913   21.6838 H   0  0  0  0  0  0
  -25.2761   -9.5686   22.4775 H   0  0  0  0  0  0
  -23.9994   -7.4641   22.7487 H   0  0  0  0  0  0
  -21.0843   -8.8788   19.8959 H   0  0  0  0  0  0
  -22.3702  -10.9683   19.6188 H   0  0  0  0  0  0
  -21.2006   -7.6152   23.9710 H   0  0  0  0  0  0
  -21.1470   -6.0530   25.9071 H   0  0  0  0  0  0
  -22.0600   -2.7613   23.2851 H   0  0  0  0  0  0
  -22.4069  -11.9870   22.4810 H   0  0  0  0  0  0
  -21.1068  -13.1241   22.2664 H   0  0  0  0  0  0
  -24.6601  -15.8541   20.5473 H   0  0  0  0  0  0
  -26.2842  -15.6338   20.1301 H   0  0  0  0  0  0
  -26.7305  -32.5271   23.0987 H   0  0  0  0  0  0
  -25.0110  -33.9588   25.0320 H   0  0  0  0  0  0
  -22.7611  -31.2850   21.3722 H   0  0  0  0  0  0
  -23.3750  -35.9580   23.3288 H   0  0  0  0  0  0
  -24.3573  -36.8914   22.2063 H   0  0  0  0  0  0
  -23.7235  -37.6442   23.6698 H   0  0  0  0  0  0
  -26.1699  -31.4484   20.6122 H   0  0  0  0  0  0
  -26.8843  -30.7575   22.0323 H   0  0  0  0  0  0
  -28.1451  -28.7638   21.2388 H   0  0  0  0  0  0
  -25.9212  -25.8205   19.0042 H   0  0  0  0  0  0
  -23.9897  -27.2846   18.9835 H   0  0  0  0  0  0
  -23.8349  -30.5572   19.3990 H   0  0  0  0  0  0
  -22.8002  -29.2318   19.8357 H   0  0  0  0  0  0
  -25.1303  -36.1854   25.0801 H   0  0  0  0  0  0
  -21.0005  -28.3350   24.1341 H   0  0  0  0  0  0
  -20.5693  -26.2360   23.3628 H   0  0  0  0  0  0
  -21.6660  -26.7443   22.1195 H   0  0  0  0  0  0
  -19.6930  -25.6282   21.1270 H   0  0  0  0  0  0
  -19.6708  -27.3164   20.6715 H   0  0  0  0  0  0
  -17.4216  -26.6679   21.4021 H   0  0  0  0  0  0
  -18.0351  -26.0088   22.9019 H   0  0  0  0  0  0
  -19.7961  -30.7303   24.2218 H   0  0  0  0  0  0
  -17.5038  -31.6268   24.5178 H   0  0  0  0  0  0
  -15.5373  -30.2988   23.7676 H   0  0  0  0  0  0
  -15.8691  -28.0827   22.7075 H   0  0  0  0  0  0
  -24.5885  -30.7117   25.7729 H   0  0  0  0  0  0
  -24.8898  -32.2952   26.4768 H   0  0  0  0  0  0
  -25.7973  -30.8976   27.0232 H   0  0  0  0  0  0
  -26.3058  -29.6655   24.1339 H   0  0  0  0  0  0
  -27.4014  -29.7270   25.4937 H   0  0  0  0  0  0
  -27.8967  -30.4179   23.9686 H   0  0  0  0  0  0
  -27.2623  -33.3672   26.2014 H   0  0  0  0  0  0
  -28.3901  -32.6886   25.0379 H   0  0  0  0  0  0
  -28.0677  -31.8539   26.5505 H   0  0  0  0  0  0
  -28.2570  -38.0095   24.7517 H   0  0  0  0  0  0
  -28.1087  -36.2624   24.6280 H   0  0  0  0  0  0
  -27.2290  -37.1418   25.8866 H   0  0  0  0  0  0
  -20.9500  -29.8790   21.6761 H   0  0  0  0  0  0
  -26.0146  -38.2804   24.1430 H   0  0  0  0  0  0
  -31.1534  -19.5920   17.2625 H   0  0  0  0  0  0
  -30.3939  -21.5249   18.5005 H   0  0  0  0  0  0
  -28.7123  -18.8245   21.4768 H   0  0  0  0  0  0
  -31.4924  -16.5045   17.7558 H   0  0  0  0  0  0
  -30.1893  -17.1909   16.7632 H   0  0  0  0  0  0
  -29.5298  -15.0407   18.0845 H   0  0  0  0  0  0
  -28.4617  -16.3797   18.2722 H   0  0  0  0  0  0
  -30.0176  -23.4798   20.5293 H   0  0  0  0  0  0
  -29.1658  -23.1910   19.0568 H   0  0  0  0  0  0
  -27.7727  -24.4882   21.5136 H   0  0  0  0  0  0
  -27.0757  -24.2971   19.9579 H   0  0  0  0  0  0
  -28.2112  -21.6086   21.4188 H   0  0  0  0  0  0
  1 25  1  0  0  0
  1 30  2  0  0  0
  1 81  1  0  0  0
  2  3  1  0  0  0
  2 25  1  0  0  0
  2 83  1  0  0  0
  2 84  1  0  0  0
  3  4  1  0  0  0
  3 85  1  0  0  0
  3 86  1  0  0  0
  4  5  1  0  0  0
  4 87  1  0  0  0
  4 88  1  0  0  0
  5  6  1  0  0  0
  5 26  1  0  0  0
  5 89  1  0  0  0
  6 25  1  0  0  0
  6 90  1  0  0  0
  6 91  1  0  0  0
  7  8  2  0  0  0
  7 26  1  0  0  0
  7 29  1  0  0  0
  8  9  1  0  0  0
  8 22  1  0  0  0
  9 10  1  0  0  0
  9 27  2  0  0  0
 10 11  2  0  0  0
 10 15  1  0  0  0
 11 12  1  0  0  0
 11 92  1  0  0  0
 12 13  2  0  0  0
 12 93  1  0  0  0
 13 14  1  0  0  0
 13 31  1  0  0  0
 14 15  2  0  0  0
 14 94  1  0  0  0
 15 95  1  0  0  0
 16 17  2  0  0  0
 16 21  1  0  0  0
 16 31  1  0  0  0
 17 18  1  0  0  0
 17 96  1  0  0  0
 18 19  2  0  0  0
 18 97  1  0  0  0
 19 20  1  0  0  0
 19 24  1  0  0  0
 20 21  2  0  0  0
 20 98  1  0  0  0
 21 23  1  0  0  0
 22 28  1  0  0  0
 22 32  2  0  0  0
 26 27  1  0  0  0
 28 99  1  0  0  0
 28100  1  0  0  0
 29101  1  0  0  0
 29102  1  0  0  0
 33 34  1  0  0  0
 33 66  1  0  0  0
 33 70  2  0  0  0
 34 36  1  0  0  0
 34 59  1  0  0  0
 34103  1  0  0  0
 35 44  2  0  0  0
 35 45  1  0  0  0
 35 68  1  0  0  0
 36 56  1  0  0  0
 36104  1  0  0  0
 37 39  1  0  0  0
 37 47  1  0  0  0
 37 66  1  0  0  0
 37105  1  0  0  0
 38 43  2  0  0  0
 38 46  1  0  0  0
 38 47  1  0  0  0
 39 64  1  0  0  0
 39 67  2  0  0  0
 40 52  1  0  0  0
 40 53  2  0  0  0
 40 58  1  0  0  0
 41106  1  0  0  0
 41107  1  0  0  0
 41108  1  0  0  0
 41 48  1  0  0  0
 42 43  1  0  0  0
 42 66  1  0  0  0
 42109  1  0  0  0
 42110  1  0  0  0
 43 44  1  0  0  0
 44111  1  0  0  0
 45 46  2  0  0  0
 45112  1  0  0  0
 46113  1  0  0  0
 47114  1  0  0  0
 47115  1  0  0  0
 48 56  1  0  0  0
 48 65  1  0  0  0
 48116  1  0  0  0
 49 50  1  0  0  0
 49 53  1  0  0  0
 49 64  1  0  0  0
 49117  1  0  0  0
 50 51  1  0  0  0
 50118  1  0  0  0
 50119  1  0  0  0
 51 52  1  0  0  0
 51120  1  0  0  0
 51121  1  0  0  0
 52122  1  0  0  0
 52123  1  0  0  0
 53 54  1  0  0  0
 54 55  2  0  0  0
 54124  1  0  0  0
 55 57  1  0  0  0
 55125  1  0  0  0
 56 69  2  0  0  0
 57 58  2  0  0  0
 57126  1  0  0  0
 58127  1  0  0  0
 59 60  1  0  0  0
 59 61  1  0  0  0
 59 62  1  0  0  0
 60128  1  0  0  0
 60129  1  0  0  0
 60130  1  0  0  0
 61131  1  0  0  0
 61132  1  0  0  0
 61133  1  0  0  0
 62134  1  0  0  0
 62135  1  0  0  0
 62136  1  0  0  0
 63 65  1  0  0  0
 63137  1  0  0  0
 63138  1  0  0  0
 63139  1  0  0  0
 64140  1  0  0  0
 65141  1  0  0  0
 68 80  1  0  0  0
 71 72  2  0  0  0
 71 74  1  0  0  0
 71142  1  0  0  0
 72 76  1  0  0  0
 72143  1  0  0  0
 73 75  1  0  0  0
 73 76  2  0  0  0
 73144  1  0  0  0
 74 75  2  0  0  0
 74 77  1  0  0  0
 75 81  1  0  0  0
 76 82  1  0  0  0
 77 78  1  0  0  0
 77145  1  0  0  0
 77146  1  0  0  0
 78 81  1  0  0  0
 78147  1  0  0  0
 78148  1  0  0  0
 79 80  1  0  0  0
 79 82  1  0  0  0
 79149  1  0  0  0
 79150  1  0  0  0
 80151  1  0  0  0
 80152  1  0  0  0
 82153  1  0  0  0
M  ISO  4   1 100  68 101  80 101  81 100
M  END
> <chiral flag>
0

> <version>
0

> <s_m_source_file>
/data/baiqing/PycharmProjects/Reinvent-master-3.2/result/LINK_invent/BTK/process_docking_weight1_custom_product_contain_oxygen_bond_distance_aromatic_linkinvent_7_9_3/rearranged_h_0010.sdf

> <i_m_source_file_index>
11

> <r_mmod_Potential_Energy-OPLS-2005>
1014.42749023438

> <r_mmod_Stretch_Energy-OPLS-2005>
329.381774902344

> <r_mmod_Bend_Energy-OPLS-2005>
400.209564208984

> <r_mmod_Torsional_Energy-OPLS-2005>
337.598205566406

> <r_mmod_Improper_Torsional_Energy-OPLS-2005>
30.1207790374756

> <r_mmod_Van_der_Waal_Energy-OPLS-2005>
138.801193237305

> <r_mmod_Electrostatic_Energy-OPLS-2005>
-280.437225341797

> <r_mmod_Solvation_Energy-OPLS-2005>
-211.371536254883

> <b_mmod_Minimization_Converged-OPLS-2005>
0

> <r_mmod_RMS_Derivative-OPLS-2005>
0.843714475631714

$$$$
11
                    3D
 Structure written by MMmdl.
151159  0  0  1  0            999 V2000
  -30.5338  -14.9387   20.4830 C   0  0  0  0  0  0
  -30.4378  -12.6065   19.4714 C   0  0  0  0  0  0
  -29.5065  -12.5455   18.2359 C   0  0  0  0  0  0
  -28.0349  -12.3533   18.6446 C   0  0  0  0  0  0
  -27.6283  -13.2489   19.8405 C   0  0  2  0  0  0
  -28.6713  -13.2085   20.9705 C   0  0  0  0  0  0
  -25.2426  -13.8203   20.5687 C   0  0  0  0  0  0
  -24.1769  -13.0444   20.9234 C   0  0  0  0  0  0
  -24.6382  -11.6922   20.8753 C   0  0  0  0  0  0
  -23.9068  -10.4297   21.0408 C   0  0  0  0  0  0
  -24.3610   -9.4213   21.9191 C   0  0  0  0  0  0
  -23.6294   -8.2244   22.0749 C   0  0  0  0  0  0
  -22.4285   -8.0271   21.3526 C   0  0  0  0  0  0
  -21.9916   -9.0254   20.4647 C   0  0  0  0  0  0
  -22.7234  -10.2140   20.3072 C   0  0  0  0  0  0
  -21.6856   -6.0715   22.5252 C   0  0  0  0  0  0
  -21.4014   -6.5619   23.8177 C   0  0  0  0  0  0
  -21.3679   -5.6787   24.9146 C   0  0  0  0  0  0
  -21.6035   -4.3043   24.7208 C   0  0  0  0  0  0
  -21.8829   -3.8130   23.4334 C   0  0  0  0  0  0
  -21.9203   -4.6945   22.3384 C   0  0  0  0  0  0
  -22.7788  -13.5205   21.1895 C   0  0  0  0  0  0
  -22.1672   -4.2126   21.0965 F   0  0  0  0  0  0
  -21.5639   -3.4539   25.7726 F   0  0  0  0  0  0
  -29.9475  -13.6694   20.3999 N   0  0  0  0  0  0
  -26.2859  -12.9452   20.3241 N   0  0  0  0  0  0
  -25.9307  -11.6571   20.5736 N   0  0  0  0  0  0
  -22.0455  -12.8207   22.0457 N   0  0  0  0  0  0
  -25.4070  -15.1940   20.4033 N   0  0  0  0  0  0
  -31.6899  -15.0450   20.0548 O   0  0  0  0  0  0
  -21.6649   -6.8870   21.4217 O   0  0  0  0  0  0
  -22.3471  -14.5519   20.6748 O   0  0  0  0  0  0
  -24.6432  -31.8463   23.1902 C   0  0  0  0  0  0
  -25.9190  -32.4704   23.8320 C   0  0  1  0  0  0
  -27.2289  -27.1490   20.1398 C   0  0  0  0  0  0
  -25.5914  -33.8510   24.2206 N   0  0  0  0  0  0
  -23.4446  -30.4660   21.5369 C   0  0  2  0  0  0
  -24.8969  -28.8898   20.1109 C   0  0  0  0  0  0
  -22.7566  -29.4575   22.4882 C   0  0  0  0  0  0
  -18.0315  -28.1417   22.8486 C   0  0  0  0  0  0
  -24.1448  -36.7281   23.2647 C   0  0  0  0  0  0
  -26.0005  -30.7215   21.3850 C   0  0  0  0  0  0
  -26.0729  -29.3308   20.7310 C   0  0  0  0  0  0
  -27.2357  -28.4730   20.7371 C   0  0  0  0  0  0
  -26.0295  -26.8139   19.4723 C   0  0  0  0  0  0
  -24.8872  -27.6443   19.4680 C   0  0  0  0  0  0
  -23.6693  -29.7888   20.1578 C   0  0  0  0  0  0
  -25.4084  -36.3040   24.0312 C   0  0  1  0  0  0
  -20.5918  -28.3745   23.1229 C   0  0  2  0  0  0
  -20.6787  -26.9453   22.5393 C   0  0  0  0  0  0
  -19.5745  -26.6395   21.5222 C   0  0  0  0  0  0
  -18.1932  -26.7953   22.1633 C   0  0  0  0  0  0
  -19.1573  -28.8896   23.2836 C   0  0  0  0  0  0
  -18.9503  -30.1490   23.8866 C   0  0  0  0  0  0
  -17.6504  -30.6613   24.0568 C   0  0  0  0  0  0
  -25.9063  -34.9416   23.5077 C   0  0  0  0  0  0
  -16.5389  -29.9121   23.6329 C   0  0  0  0  0  0
  -16.7304  -28.6531   23.0372 C   0  0  0  0  0  0
  -26.4500  -31.6595   25.0776 C   0  0  0  0  0  0
  -25.3661  -31.3755   26.1458 C   0  0  0  0  0  0
  -27.0407  -30.2997   24.6370 C   0  0  0  0  0  0
  -27.6042  -32.4375   25.7557 C   0  0  0  0  0  0
  -27.5556  -37.1774   24.8456 C   0  0  0  0  0  0
  -21.4261  -29.3082   22.3613 N   0  0  0  0  0  0
  -26.4242  -37.3765   23.9430 N   0  0  0  0  0  0
  -24.7162  -31.0333   22.0937 N   0  0  0  0  0  0
  -23.4204  -28.8131   23.3044 O   0  0  0  0  0  0
  -28.2857  -26.1685   20.2173 O   0  0  0  0  0  0
  -26.5702  -34.8920   22.4686 O   0  0  0  0  0  0
  -23.5553  -32.1357   23.7124 O   0  0  0  0  0  0
  -28.5066  -18.0114   19.8217 C   0  0  0  0  0  0
  -28.1832  -19.4146   19.6290 C   0  0  0  0  0  0
  -30.4500  -18.6556   20.9883 C   0  0  0  0  0  0
  -29.6620  -17.5323   20.5259 C   0  0  0  0  0  0
  -28.9490  -20.5342   20.1138 C   0  0  0  0  0  0
  -30.1283  -20.0702   20.7927 C   0  0  0  0  0  0
  -29.6075  -15.9775   22.4521 C   0  0  0  0  0  0
  -28.0481  -24.6601   19.9060 C   0  0  0  0  0  0
  -28.8975  -23.2831   20.3791 C   0  0  0  0  0  0
  -29.8314  -16.0741   20.9999 N   0  0  0  0  0  0
  -28.4712  -21.8999   19.8577 O   0  0  0  0  0  0
  -30.9844  -20.9977   21.2896 F   0  0  0  0  0  0
  -31.4574  -12.7963   19.1361 H   0  0  0  0  0  0
  -30.4735  -11.6424   19.9772 H   0  0  0  0  0  0
  -29.8120  -11.7343   17.5730 H   0  0  0  0  0  0
  -29.6060  -13.4626   17.6535 H   0  0  0  0  0  0
  -27.8949  -11.3044   18.9031 H   0  0  0  0  0  0
  -27.3780  -12.5452   17.7968 H   0  0  0  0  0  0
  -27.6089  -14.2709   19.4581 H   0  0  0  0  0  0
  -28.7661  -12.2007   21.3757 H   0  0  0  0  0  0
  -28.3356  -13.8299   21.7958 H   0  0  0  0  0  0
  -25.2742   -9.5686   22.4779 H   0  0  0  0  0  0
  -23.9996   -7.4631   22.7468 H   0  0  0  0  0  0
  -21.0843   -8.8786   19.8949 H   0  0  0  0  0  0
  -22.3689  -10.9689   19.6199 H   0  0  0  0  0  0
  -21.2012   -7.6133   23.9667 H   0  0  0  0  0  0
  -21.1486   -6.0518   25.9043 H   0  0  0  0  0  0
  -22.0604   -2.7592   23.2832 H   0  0  0  0  0  0
  -22.4083  -11.9885   22.4872 H   0  0  0  0  0  0
  -21.1060  -13.1208   22.2650 H   0  0  0  0  0  0
  -24.6302  -15.8405   20.4865 H   0  0  0  0  0  0
  -26.2515  -15.6278   20.0575 H   0  0  0  0  0  0
  -26.7293  -32.5326   23.1091 H   0  0  0  0  0  0
  -24.9850  -33.9598   25.0191 H   0  0  0  0  0  0
  -22.7465  -31.2903   21.3769 H   0  0  0  0  0  0
  -23.3703  -35.9604   23.3281 H   0  0  0  0  0  0
  -24.3516  -36.8982   22.2064 H   0  0  0  0  0  0
  -23.7214  -37.6459   23.6743 H   0  0  0  0  0  0
  -26.1382  -31.4667   20.6001 H   0  0  0  0  0  0
  -26.8767  -30.7902   22.0176 H   0  0  0  0  0  0
  -28.1274  -28.7986   21.2558 H   0  0  0  0  0  0
  -25.9423  -25.8700   18.9570 H   0  0  0  0  0  0
  -23.9921  -27.3020   18.9699 H   0  0  0  0  0  0
  -23.7976  -30.5587   19.3967 H   0  0  0  0  0  0
  -22.7830  -29.2253   19.8575 H   0  0  0  0  0  0
  -25.1246  -36.1853   25.0797 H   0  0  0  0  0  0
  -21.0008  -28.3373   24.1352 H   0  0  0  0  0  0
  -20.5673  -26.2398   23.3633 H   0  0  0  0  0  0
  -21.6657  -26.7452   22.1210 H   0  0  0  0  0  0
  -19.6919  -25.6299   21.1287 H   0  0  0  0  0  0
  -19.6683  -27.3154   20.6700 H   0  0  0  0  0  0
  -17.4204  -26.6713   21.4040 H   0  0  0  0  0  0
  -18.0337  -26.0087   22.9012 H   0  0  0  0  0  0
  -19.7989  -30.7302   24.2250 H   0  0  0  0  0  0
  -17.5076  -31.6282   24.5193 H   0  0  0  0  0  0
  -15.5394  -30.3033   23.7680 H   0  0  0  0  0  0
  -15.8700  -28.0848   22.7124 H   0  0  0  0  0  0
  -24.5876  -30.7058   25.7773 H   0  0  0  0  0  0
  -24.8763  -32.2906   26.4816 H   0  0  0  0  0  0
  -25.7919  -30.8999   27.0306 H   0  0  0  0  0  0
  -26.3076  -29.6681   24.1336 H   0  0  0  0  0  0
  -27.4007  -29.7323   25.4966 H   0  0  0  0  0  0
  -27.8968  -30.4256   23.9718 H   0  0  0  0  0  0
  -27.2687  -33.3741   26.2023 H   0  0  0  0  0  0
  -28.3916  -32.6850   25.0415 H   0  0  0  0  0  0
  -28.0649  -31.8568   26.5559 H   0  0  0  0  0  0
  -28.2530  -38.0111   24.7561 H   0  0  0  0  0  0
  -28.1118  -36.2660   24.6215 H   0  0  0  0  0  0
  -27.2306  -37.1344   25.8865 H   0  0  0  0  0  0
  -20.9515  -29.8823   21.6776 H   0  0  0  0  0  0
  -26.0109  -38.2815   24.1485 H   0  0  0  0  0  0
  -27.7925  -17.2844   19.4557 H   0  0  0  0  0  0
  -27.2645  -19.6360   19.0999 H   0  0  0  0  0  0
  -31.3405  -18.4374   21.5627 H   0  0  0  0  0  0
  -30.1720  -16.7377   22.9938 H   0  0  0  0  0  0
  -29.8969  -15.0184   22.8883 H   0  0  0  0  0  0
  -28.5531  -16.1311   22.6863 H   0  0  0  0  0  0
  -27.0285  -24.4425   20.2221 H   0  0  0  0  0  0
  -28.0212  -24.6107   18.8162 H   0  0  0  0  0  0
  -28.8512  -23.2323   21.4697 H   0  0  0  0  0  0
  -29.9526  -23.4209   20.1468 H   0  0  0  0  0  0
  1 25  1  0  0  0
  1 30  2  0  0  0
  1 80  1  0  0  0
  2  3  1  0  0  0
  2 25  1  0  0  0
  2 83  1  0  0  0
  2 84  1  0  0  0
  3  4  1  0  0  0
  3 85  1  0  0  0
  3 86  1  0  0  0
  4  5  1  0  0  0
  4 87  1  0  0  0
  4 88  1  0  0  0
  5  6  1  0  0  0
  5 26  1  0  0  0
  5 89  1  0  0  0
  6 25  1  0  0  0
  6 90  1  0  0  0
  6 91  1  0  0  0
  7  8  2  0  0  0
  7 26  1  0  0  0
  7 29  1  0  0  0
  8  9  1  0  0  0
  8 22  1  0  0  0
  9 10  1  0  0  0
  9 27  2  0  0  0
 10 11  2  0  0  0
 10 15  1  0  0  0
 11 12  1  0  0  0
 11 92  1  0  0  0
 12 13  2  0  0  0
 12 93  1  0  0  0
 13 14  1  0  0  0
 13 31  1  0  0  0
 14 15  2  0  0  0
 14 94  1  0  0  0
 15 95  1  0  0  0
 16 17  2  0  0  0
 16 21  1  0  0  0
 16 31  1  0  0  0
 17 18  1  0  0  0
 17 96  1  0  0  0
 18 19  2  0  0  0
 18 97  1  0  0  0
 19 20  1  0  0  0
 19 24  1  0  0  0
 20 21  2  0  0  0
 20 98  1  0  0  0
 21 23  1  0  0  0
 22 28  1  0  0  0
 22 32  2  0  0  0
 26 27  1  0  0  0
 28 99  1  0  0  0
 28100  1  0  0  0
 29101  1  0  0  0
 29102  1  0  0  0
 33 34  1  0  0  0
 33 66  1  0  0  0
 33 70  2  0  0  0
 34 36  1  0  0  0
 34 59  1  0  0  0
 34103  1  0  0  0
 35 44  2  0  0  0
 35 45  1  0  0  0
 35 68  1  0  0  0
 36 56  1  0  0  0
 36104  1  0  0  0
 37 39  1  0  0  0
 37 47  1  0  0  0
 37 66  1  0  0  0
 37105  1  0  0  0
 38 43  2  0  0  0
 38 46  1  0  0  0
 38 47  1  0  0  0
 39 64  1  0  0  0
 39 67  2  0  0  0
 40 52  1  0  0  0
 40 53  2  0  0  0
 40 58  1  0  0  0
 41106  1  0  0  0
 41107  1  0  0  0
 41108  1  0  0  0
 41 48  1  0  0  0
 42 43  1  0  0  0
 42 66  1  0  0  0
 42109  1  0  0  0
 42110  1  0  0  0
 43 44  1  0  0  0
 44111  1  0  0  0
 45 46  2  0  0  0
 45112  1  0  0  0
 46113  1  0  0  0
 47114  1  0  0  0
 47115  1  0  0  0
 48 56  1  0  0  0
 48 65  1  0  0  0
 48116  1  0  0  0
 49 50  1  0  0  0
 49 53  1  0  0  0
 49 64  1  0  0  0
 49117  1  0  0  0
 50 51  1  0  0  0
 50118  1  0  0  0
 50119  1  0  0  0
 51 52  1  0  0  0
 51120  1  0  0  0
 51121  1  0  0  0
 52122  1  0  0  0
 52123  1  0  0  0
 53 54  1  0  0  0
 54 55  2  0  0  0
 54124  1  0  0  0
 55 57  1  0  0  0
 55125  1  0  0  0
 56 69  2  0  0  0
 57 58  2  0  0  0
 57126  1  0  0  0
 58127  1  0  0  0
 59 60  1  0  0  0
 59 61  1  0  0  0
 59 62  1  0  0  0
 60128  1  0  0  0
 60129  1  0  0  0
 60130  1  0  0  0
 61131  1  0  0  0
 61132  1  0  0  0
 61133  1  0  0  0
 62134  1  0  0  0
 62135  1  0  0  0
 62136  1  0  0  0
 63 65  1  0  0  0
 63137  1  0  0  0
 63138  1  0  0  0
 63139  1  0  0  0
 64140  1  0  0  0
 65141  1  0  0  0
 68 78  1  0  0  0
 71 72  2  0  0  0
 71 74  1  0  0  0
 71142  1  0  0  0
 72 75  1  0  0  0
 72143  1  0  0  0
 73 74  2  0  0  0
 73 76  1  0  0  0
 73144  1  0  0  0
 74 80  1  0  0  0
 75 76  2  0  0  0
 75 81  1  0  0  0
 76 82  1  0  0  0
 77 80  1  0  0  0
 77145  1  0  0  0
 77146  1  0  0  0
 77147  1  0  0  0
 78 79  1  0  0  0
 78148  1  0  0  0
 78149  1  0  0  0
 79 81  1  0  0  0
 79150  1  0  0  0
 79151  1  0  0  0
M  ISO  4   1 100  68 101  78 101  80 100
M  END
> <chiral flag>
0

> <version>
0

> <s_m_source_file>
/data/baiqing/PycharmProjects/Reinvent-master-3.2/result/LINK_invent/BTK/process_docking_weight1_custom_product_contain_oxygen_bond_distance_aromatic_linkinvent_7_9_3/rearranged_h_0010.sdf

> <i_m_source_file_index>
12

> <r_mmod_Potential_Energy-OPLS-2005>
680.898010253906

> <r_mmod_Stretch_Energy-OPLS-2005>
239.020202636719

> <r_mmod_Bend_Energy-OPLS-2005>
284.776184082031

> <r_mmod_Torsional_Energy-OPLS-2005>
310.008209228516

> <r_mmod_Improper_Torsional_Energy-OPLS-2005>
5.87072706222534

> <r_mmod_Van_der_Waal_Energy-OPLS-2005>
135.038879394531

> <r_mmod_Electrostatic_Energy-OPLS-2005>
-278.127838134766

> <r_mmod_Solvation_Energy-OPLS-2005>
-195.857055664062

> <b_mmod_Minimization_Converged-OPLS-2005>
0

> <r_mmod_RMS_Derivative-OPLS-2005>
4.48634338378906

$$$$
12
                    3D
 Structure written by MMmdl.
151160  0  0  1  0            999 V2000
  -30.3844  -15.3972   20.3167 C   0  0  0  0  0  0
  -30.4420  -12.8947   19.5352 C   0  0  0  0  0  0
  -29.5483  -12.5913   18.3023 C   0  0  0  0  0  0
  -28.1019  -12.2846   18.7302 C   0  0  0  0  0  0
  -27.6020  -13.2716   19.8113 C   0  0  2  0  0  0
  -28.6295  -13.5269   20.9325 C   0  0  0  0  0  0
  -25.2396  -13.8213   20.5774 C   0  0  0  0  0  0
  -24.1738  -13.0413   20.9257 C   0  0  0  0  0  0
  -24.6388  -11.6906   20.8758 C   0  0  0  0  0  0
  -23.9080  -10.4279   21.0406 C   0  0  0  0  0  0
  -24.3629   -9.4198   21.9185 C   0  0  0  0  0  0
  -23.6298   -8.2239   22.0755 C   0  0  0  0  0  0
  -22.4281   -8.0279   21.3542 C   0  0  0  0  0  0
  -21.9915   -9.0253   20.4648 C   0  0  0  0  0  0
  -22.7250  -10.2128   20.3056 C   0  0  0  0  0  0
  -21.6858   -6.0731   22.5274 C   0  0  0  0  0  0
  -21.4021   -6.5636   23.8207 C   0  0  0  0  0  0
  -21.3661   -5.6789   24.9171 C   0  0  0  0  0  0
  -21.6045   -4.3051   24.7222 C   0  0  0  0  0  0
  -21.8819   -3.8142   23.4343 C   0  0  0  0  0  0
  -21.9194   -4.6958   22.3398 C   0  0  0  0  0  0
  -22.7760  -13.5182   21.1898 C   0  0  0  0  0  0
  -22.1660   -4.2141   21.0977 F   0  0  0  0  0  0
  -21.5628   -3.4535   25.7737 F   0  0  0  0  0  0
  -29.8512  -14.0608   20.3008 N   0  0  0  0  0  0
  -26.2794  -12.9458   20.3213 N   0  0  0  0  0  0
  -25.9323  -11.6571   20.5709 N   0  0  0  0  0  0
  -22.0412  -12.8181   22.0455 N   0  0  0  0  0  0
  -25.4060  -15.1956   20.4268 N   0  0  0  0  0  0
  -31.6234  -15.3690   20.2347 O   0  0  0  0  0  0
  -21.6642   -6.8879   21.4239 O   0  0  0  0  0  0
  -22.3443  -14.5482   20.6731 O   0  0  0  0  0  0
  -24.6700  -31.8147   23.1625 C   0  0  0  0  0  0
  -25.9347  -32.4539   23.8124 C   0  0  1  0  0  0
  -27.2256  -26.8507   20.2011 C   0  0  0  0  0  0
  -25.5979  -33.8355   24.2027 N   0  0  0  0  0  0
  -23.4887  -30.4225   21.5129 C   0  0  2  0  0  0
  -24.9434  -28.7881   20.1197 C   0  0  0  0  0  0
  -22.7698  -29.4397   22.4749 C   0  0  0  0  0  0
  -18.0330  -28.1409   22.8463 C   0  0  0  0  0  0
  -24.1496  -36.7189   23.2650 C   0  0  0  0  0  0
  -26.0619  -30.5973   21.4028 C   0  0  0  0  0  0
  -26.1303  -29.1767   20.7535 C   0  0  0  0  0  0
  -27.2644  -28.2334   20.7604 C   0  0  0  0  0  0
  -26.0056  -26.6290   19.5220 C   0  0  0  0  0  0
  -24.9106  -27.5362   19.4824 C   0  0  0  0  0  0
  -23.7343  -29.7272   20.1445 C   0  0  0  0  0  0
  -25.4137  -36.2936   24.0296 C   0  0  1  0  0  0
  -20.5956  -28.3759   23.1166 C   0  0  2  0  0  0
  -20.6798  -26.9431   22.5398 C   0  0  0  0  0  0
  -19.5775  -26.6370   21.5208 C   0  0  0  0  0  0
  -18.1960  -26.7941   22.1620 C   0  0  0  0  0  0
  -19.1593  -28.8906   23.2802 C   0  0  0  0  0  0
  -18.9501  -30.1494   23.8842 C   0  0  0  0  0  0
  -17.6493  -30.6597   24.0550 C   0  0  0  0  0  0
  -25.9107  -34.9321   23.4988 C   0  0  0  0  0  0
  -16.5383  -29.9082   23.6342 C   0  0  0  0  0  0
  -16.7311  -28.6502   23.0362 C   0  0  0  0  0  0
  -26.4571  -31.6517   25.0688 C   0  0  0  0  0  0
  -25.3682  -31.3787   26.1336 C   0  0  0  0  0  0
  -27.0480  -30.2874   24.6480 C   0  0  0  0  0  0
  -27.6049  -32.4344   25.7496 C   0  0  0  0  0  0
  -27.5569  -37.1749   24.8466 C   0  0  0  0  0  0
  -21.4360  -29.3038   22.3506 N   0  0  0  0  0  0
  -26.4277  -37.3681   23.9408 N   0  0  0  0  0  0
  -24.7623  -30.9741   22.0795 N   0  0  0  0  0  0
  -23.4212  -28.7977   23.3027 O   0  0  0  0  0  0
  -28.2423  -25.7313   20.2247 O   0  0  0  0  0  0
  -26.5730  -34.8871   22.4594 O   0  0  0  0  0  0
  -23.5752  -32.1148   23.6675 O   0  0  0  0  0  0
  -27.8815  -18.0175   18.6187 C   0  0  0  0  0  0
  -28.5844  -16.8764   19.0842 C   0  0  0  0  0  0
  -28.0852  -19.3458   19.0745 C   0  0  0  0  0  0
  -29.7531  -18.3937   20.5442 C   0  0  0  0  0  0
  -29.5785  -16.8982   20.0886 C   0  0  0  0  0  0
  -29.0166  -19.7027   20.0718 C   0  0  0  0  0  0
  -28.5487  -23.4092   21.7213 C   0  0  0  0  0  0
  -28.5526  -21.7938   21.6934 C   0  0  0  0  0  0
  -28.7276  -22.6155   19.5822 C   0  0  0  0  0  0
  -28.0836  -24.0509   20.3692 C   0  0  2  0  0  0
  -29.0189  -21.2502   20.3995 N   0  0  0  0  0  0
  -31.4544  -13.1189   19.1961 H   0  0  0  0  0  0
  -30.5354  -12.0151   20.1742 H   0  0  0  0  0  0
  -29.9593  -11.7561   17.7329 H   0  0  0  0  0  0
  -29.5546  -13.4516   17.6318 H   0  0  0  0  0  0
  -28.0827  -11.2693   19.1274 H   0  0  0  0  0  0
  -27.4366  -12.2888   17.8659 H   0  0  0  0  0  0
  -27.4761  -14.2073   19.2774 H   0  0  0  0  0  0
  -28.8267  -12.6218   21.5091 H   0  0  0  0  0  0
  -28.2407  -14.2636   21.6373 H   0  0  0  0  0  0
  -25.2773   -9.5680   22.4760 H   0  0  0  0  0  0
  -24.0003   -7.4634   22.7484 H   0  0  0  0  0  0
  -21.0840   -8.8780   19.8962 H   0  0  0  0  0  0
  -22.3708  -10.9669   19.6168 H   0  0  0  0  0  0
  -21.2020   -7.6146   23.9708 H   0  0  0  0  0  0
  -21.1483   -6.0520   25.9072 H   0  0  0  0  0  0
  -22.0599   -2.7603   23.2843 H   0  0  0  0  0  0
  -22.4038  -11.9862   22.4870 H   0  0  0  0  0  0
  -21.1027  -13.1202   22.2644 H   0  0  0  0  0  0
  -24.6416  -15.8482   20.5614 H   0  0  0  0  0  0
  -26.2660  -15.6480   20.1428 H   0  0  0  0  0  0
  -26.7423  -32.5058   23.0840 H   0  0  0  0  0  0
  -25.0053  -33.9413   25.0129 H   0  0  0  0  0  0
  -22.8069  -31.2560   21.3323 H   0  0  0  0  0  0
  -23.3764  -35.9514   23.3278 H   0  0  0  0  0  0
  -24.3571  -36.8874   22.2071 H   0  0  0  0  0  0
  -23.7251  -37.6364   23.6734 H   0  0  0  0  0  0
  -26.2485  -31.3313   20.6176 H   0  0  0  0  0  0
  -26.9197  -30.6601   22.0605 H   0  0  0  0  0  0
  -28.1673  -28.5377   21.2708 H   0  0  0  0  0  0
  -25.8728  -25.6771   19.0279 H   0  0  0  0  0  0
  -24.0114  -27.2313   18.9649 H   0  0  0  0  0  0
  -23.8998  -30.4895   19.3823 H   0  0  0  0  0  0
  -22.8424  -29.1856   19.8241 H   0  0  0  0  0  0
  -25.1340  -36.1718   25.0788 H   0  0  0  0  0  0
  -21.0051  -28.3373   24.1287 H   0  0  0  0  0  0
  -20.5654  -26.2383   23.3648 H   0  0  0  0  0  0
  -21.6663  -26.7382   22.1219 H   0  0  0  0  0  0
  -19.6927  -25.6263   21.1280 H   0  0  0  0  0  0
  -19.6713  -27.3144   20.6708 H   0  0  0  0  0  0
  -17.4222  -26.6678   21.4030 H   0  0  0  0  0  0
  -18.0361  -26.0099   22.9035 H   0  0  0  0  0  0
  -19.7977  -30.7326   24.2189 H   0  0  0  0  0  0
  -17.5042  -31.6271   24.5163 H   0  0  0  0  0  0
  -15.5380  -30.2963   23.7693 H   0  0  0  0  0  0
  -15.8714  -28.0797   22.7109 H   0  0  0  0  0  0
  -24.5869  -30.7137   25.7636 H   0  0  0  0  0  0
  -24.8868  -32.2995   26.4639 H   0  0  0  0  0  0
  -25.7897  -30.9023   27.0198 H   0  0  0  0  0  0
  -26.3162  -29.6526   24.1474 H   0  0  0  0  0  0
  -27.3965  -29.7270   25.5166 H   0  0  0  0  0  0
  -27.9122  -30.4031   23.9938 H   0  0  0  0  0  0
  -27.2607  -33.3687   26.1942 H   0  0  0  0  0  0
  -28.3929  -32.6840   25.0378 H   0  0  0  0  0  0
  -28.0649  -31.8564   26.5523 H   0  0  0  0  0  0
  -28.2561  -38.0067   24.7506 H   0  0  0  0  0  0
  -28.1090  -36.2590   24.6301 H   0  0  0  0  0  0
  -27.2287  -37.1402   25.8869 H   0  0  0  0  0  0
  -20.9629  -29.8728   21.6624 H   0  0  0  0  0  0
  -26.0117  -38.2737   24.1411 H   0  0  0  0  0  0
  -27.1473  -17.8663   17.8397 H   0  0  0  0  0  0
  -28.3795  -15.9437   18.5845 H   0  0  0  0  0  0
  -27.4794  -20.1193   18.6258 H   0  0  0  0  0  0
  -30.5233  -18.5464   21.2867 H   0  0  0  0  0  0
  -29.5671  -23.7458   21.9191 H   0  0  0  0  0  0
  -27.9442  -23.7770   22.5509 H   0  0  0  0  0  0
  -27.5381  -21.4304   21.8635 H   0  0  0  0  0  0
  -29.1621  -21.3991   22.5079 H   0  0  0  0  0  0
  -29.6895  -22.9001   19.1534 H   0  0  0  0  0  0
  -28.1031  -22.3817   18.7190 H   0  0  0  0  0  0
  -27.0030  -23.9113   20.3307 H   0  0  0  0  0  0
  1 25  1  0  0  0
  1 30  2  0  0  0
  1 75  1  0  0  0
  2  3  1  0  0  0
  2 25  1  0  0  0
  2 82  1  0  0  0
  2 83  1  0  0  0
  3  4  1  0  0  0
  3 84  1  0  0  0
  3 85  1  0  0  0
  4  5  1  0  0  0
  4 86  1  0  0  0
  4 87  1  0  0  0
  5  6  1  0  0  0
  5 26  1  0  0  0
  5 88  1  0  0  0
  6 25  1  0  0  0
  6 89  1  0  0  0
  6 90  1  0  0  0
  7  8  2  0  0  0
  7 26  1  0  0  0
  7 29  1  0  0  0
  8  9  1  0  0  0
  8 22  1  0  0  0
  9 10  1  0  0  0
  9 27  2  0  0  0
 10 11  2  0  0  0
 10 15  1  0  0  0
 11 12  1  0  0  0
 11 91  1  0  0  0
 12 13  2  0  0  0
 12 92  1  0  0  0
 13 14  1  0  0  0
 13 31  1  0  0  0
 14 15  2  0  0  0
 14 93  1  0  0  0
 15 94  1  0  0  0
 16 17  2  0  0  0
 16 21  1  0  0  0
 16 31  1  0  0  0
 17 18  1  0  0  0
 17 95  1  0  0  0
 18 19  2  0  0  0
 18 96  1  0  0  0
 19 20  1  0  0  0
 19 24  1  0  0  0
 20 21  2  0  0  0
 20 97  1  0  0  0
 21 23  1  0  0  0
 22 28  1  0  0  0
 22 32  2  0  0  0
 26 27  1  0  0  0
 28 98  1  0  0  0
 28 99  1  0  0  0
 29100  1  0  0  0
 29101  1  0  0  0
 33 34  1  0  0  0
 33 66  1  0  0  0
 33 70  2  0  0  0
 34 36  1  0  0  0
 34 59  1  0  0  0
 34102  1  0  0  0
 35 44  2  0  0  0
 35 45  1  0  0  0
 35 68  1  0  0  0
 36 56  1  0  0  0
 36103  1  0  0  0
 37 39  1  0  0  0
 37 47  1  0  0  0
 37 66  1  0  0  0
 37104  1  0  0  0
 38 43  2  0  0  0
 38 46  1  0  0  0
 38 47  1  0  0  0
 39 64  1  0  0  0
 39 67  2  0  0  0
 40 52  1  0  0  0
 40 53  2  0  0  0
 40 58  1  0  0  0
 41105  1  0  0  0
 41106  1  0  0  0
 41107  1  0  0  0
 41 48  1  0  0  0
 42 43  1  0  0  0
 42 66  1  0  0  0
 42108  1  0  0  0
 42109  1  0  0  0
 43 44  1  0  0  0
 44110  1  0  0  0
 45 46  2  0  0  0
 45111  1  0  0  0
 46112  1  0  0  0
 47113  1  0  0  0
 47114  1  0  0  0
 48 56  1  0  0  0
 48 65  1  0  0  0
 48115  1  0  0  0
 49 50  1  0  0  0
 49 53  1  0  0  0
 49 64  1  0  0  0
 49116  1  0  0  0
 50 51  1  0  0  0
 50117  1  0  0  0
 50118  1  0  0  0
 51 52  1  0  0  0
 51119  1  0  0  0
 51120  1  0  0  0
 52121  1  0  0  0
 52122  1  0  0  0
 53 54  1  0  0  0
 54 55  2  0  0  0
 54123  1  0  0  0
 55 57  1  0  0  0
 55124  1  0  0  0
 56 69  2  0  0  0
 57 58  2  0  0  0
 57125  1  0  0  0
 58126  1  0  0  0
 59 60  1  0  0  0
 59 61  1  0  0  0
 59 62  1  0  0  0
 60127  1  0  0  0
 60128  1  0  0  0
 60129  1  0  0  0
 61130  1  0  0  0
 61131  1  0  0  0
 61132  1  0  0  0
 62133  1  0  0  0
 62134  1  0  0  0
 62135  1  0  0  0
 63 65  1  0  0  0
 63136  1  0  0  0
 63137  1  0  0  0
 63138  1  0  0  0
 64139  1  0  0  0
 65140  1  0  0  0
 68 80  1  0  0  0
 71 72  2  0  0  0
 71 73  1  0  0  0
 71141  1  0  0  0
 72 75  1  0  0  0
 72142  1  0  0  0
 73 76  2  0  0  0
 73143  1  0  0  0
 74 75  2  0  0  0
 74 76  1  0  0  0
 74144  1  0  0  0
 76 81  1  0  0  0
 77 78  1  0  0  0
 77 80  1  0  0  0
 77145  1  0  0  0
 77146  1  0  0  0
 78 81  1  0  0  0
 78147  1  0  0  0
 78148  1  0  0  0
 79 80  1  0  0  0
 79 81  1  0  0  0
 79149  1  0  0  0
 79150  1  0  0  0
 80151  1  0  0  0
M  ISO  4   1 100  68 101  75 100  80 101
M  END
> <chiral flag>
0

> <version>
0

> <s_m_source_file>
/data/baiqing/PycharmProjects/Reinvent-master-3.2/result/LINK_invent/BTK/process_docking_weight1_custom_product_contain_oxygen_bond_distance_aromatic_linkinvent_7_9_3/rearranged_h_0010.sdf

> <i_m_source_file_index>
13

> <r_mmod_Potential_Energy-OPLS-2005>
1639.33984375

> <r_mmod_Stretch_Energy-OPLS-2005>
641.737854003906

> <r_mmod_Bend_Energy-OPLS-2005>
524.240051269531

> <r_mmod_Torsional_Energy-OPLS-2005>
283.690124511719

> <r_mmod_Improper_Torsional_Energy-OPLS-2005>
11.9204349517822

> <r_mmod_Van_der_Waal_Energy-OPLS-2005>
116.832092285156

> <r_mmod_Electrostatic_Energy-OPLS-2005>
-314.864959716797

> <r_mmod_Solvation_Energy-OPLS-2005>
-216.078567504883

> <b_mmod_Minimization_Converged-OPLS-2005>
0

> <r_mmod_RMS_Derivative-OPLS-2005>
0.853348314762115

$$$$
13
                    3D
 Structure written by MMmdl.
156164  0  0  1  0            999 V2000
  -30.5973  -14.7016   20.4805 C   0  0  0  0  0  0
  -30.4393  -12.4319   19.4415 C   0  0  0  0  0  0
  -29.5097  -12.5114   18.2101 C   0  0  0  0  0  0
  -28.0318  -12.3390   18.6188 C   0  0  0  0  0  0
  -27.6427  -13.2177   19.8372 C   0  0  2  0  0  0
  -28.6917  -13.1146   20.9655 C   0  0  0  0  0  0
  -25.2538  -13.8140   20.5636 C   0  0  0  0  0  0
  -24.1835  -13.0391   20.9185 C   0  0  0  0  0  0
  -24.6395  -11.6868   20.8724 C   0  0  0  0  0  0
  -23.9056  -10.4252   21.0361 C   0  0  0  0  0  0
  -24.3615   -9.4189   21.9137 C   0  0  0  0  0  0
  -23.6307   -8.2220   22.0725 C   0  0  0  0  0  0
  -22.4273   -8.0263   21.3518 C   0  0  0  0  0  0
  -21.9905   -9.0225   20.4612 C   0  0  0  0  0  0
  -22.7228  -10.2109   20.3009 C   0  0  0  0  0  0
  -21.6862   -6.0731   22.5276 C   0  0  0  0  0  0
  -21.4013   -6.5636   23.8216 C   0  0  0  0  0  0
  -21.3657   -5.6784   24.9180 C   0  0  0  0  0  0
  -21.6044   -4.3045   24.7231 C   0  0  0  0  0  0
  -21.8821   -3.8141   23.4345 C   0  0  0  0  0  0
  -21.9184   -4.6968   22.3399 C   0  0  0  0  0  0
  -22.7862  -13.5182   21.1859 C   0  0  0  0  0  0
  -22.1655   -4.2151   21.0977 F   0  0  0  0  0  0
  -21.5631   -3.4520   25.7732 F   0  0  0  0  0  0
  -29.9915  -13.4743   20.3838 N   0  0  0  0  0  0
  -26.2934  -12.9318   20.3166 N   0  0  0  0  0  0
  -25.9315  -11.6468   20.5691 N   0  0  0  0  0  0
  -22.0494  -12.8209   22.0426 N   0  0  0  0  0  0
  -25.4216  -15.1877   20.4066 N   0  0  0  0  0  0
  -31.8059  -14.8331   20.2479 O   0  0  0  0  0  0
  -21.6639   -6.8876   21.4230 O   0  0  0  0  0  0
  -22.3544  -14.5456   20.6657 O   0  0  0  0  0  0
  -24.6364  -31.8600   23.2018 C   0  0  0  0  0  0
  -25.9208  -32.4771   23.8362 C   0  0  1  0  0  0
  -27.2041  -27.2638   20.1293 C   0  0  0  0  0  0
  -25.6025  -33.8565   24.2337 N   0  0  0  0  0  0
  -23.4289  -30.4914   21.5444 C   0  0  2  0  0  0
  -24.8707  -28.9383   20.1135 C   0  0  0  0  0  0
  -22.7519  -29.4683   22.4894 C   0  0  0  0  0  0
  -18.0327  -28.1413   22.8464 C   0  0  0  0  0  0
  -24.1498  -36.7279   23.2631 C   0  0  0  0  0  0
  -25.9741  -30.7787   21.3727 C   0  0  0  0  0  0
  -26.0438  -29.3972   20.7239 C   0  0  0  0  0  0
  -27.2150  -28.5714   20.7258 C   0  0  0  0  0  0
  -26.0087  -26.8867   19.4724 C   0  0  0  0  0  0
  -24.8542  -27.6876   19.4851 C   0  0  0  0  0  0
  -23.6481  -29.8343   20.1578 C   0  0  0  0  0  0
  -25.4098  -36.3069   24.0353 C   0  0  1  0  0  0
  -20.5925  -28.3759   23.1236 C   0  0  2  0  0  0
  -20.6848  -26.9476   22.5390 C   0  0  0  0  0  0
  -19.5820  -26.6408   21.5214 C   0  0  0  0  0  0
  -18.1989  -26.7959   22.1602 C   0  0  0  0  0  0
  -19.1572  -28.8896   23.2858 C   0  0  0  0  0  0
  -18.9473  -30.1487   23.8887 C   0  0  0  0  0  0
  -17.6469  -30.6598   24.0565 C   0  0  0  0  0  0
  -25.9058  -34.9442   23.5127 C   0  0  0  0  0  0
  -16.5367  -29.9097   23.6315 C   0  0  0  0  0  0
  -16.7308  -28.6525   23.0319 C   0  0  0  0  0  0
  -26.4574  -31.6532   25.0715 C   0  0  0  0  0  0
  -25.3803  -31.3648   26.1444 C   0  0  0  0  0  0
  -27.0437  -30.2981   24.6103 C   0  0  0  0  0  0
  -27.6162  -32.4213   25.7494 C   0  0  0  0  0  0
  -27.5578  -37.1798   24.8465 C   0  0  0  0  0  0
  -21.4229  -29.3118   22.3624 N   0  0  0  0  0  0
  -26.4284  -37.3754   23.9434 N   0  0  0  0  0  0
  -24.7001  -31.0588   22.0977 N   0  0  0  0  0  0
  -23.4230  -28.8219   23.2985 O   0  0  0  0  0  0
  -28.2869  -26.3527   20.1719 O   0  0  0  0  0  0
  -26.5551  -34.8917   22.4655 O   0  0  0  0  0  0
  -23.5523  -32.1426   23.7326 O   0  0  0  0  0  0
  -30.2414  -17.3519   22.3403 C   0  0  0  0  0  0
  -30.2236  -18.6343   22.9291 C   0  0  0  0  0  0
  -29.6136  -18.3777   20.2201 C   0  0  0  0  0  0
  -29.6455  -19.7152   20.7965 C   0  0  0  0  0  0
  -29.9229  -17.1750   20.9762 C   0  0  0  0  0  0
  -29.9362  -19.7911   22.1737 C   0  0  0  0  0  0
  -27.2243  -21.9753   20.4994 C   0  0  0  0  0  0
  -29.4936  -21.0893   19.9983 C   0  0  0  0  0  0
  -29.0553  -23.6996   20.1870 C   0  0  0  0  0  0
  -27.9789  -24.8906   20.3954 C   0  0  0  0  0  0
  -29.7547  -15.7952   20.4906 N   0  0  0  0  0  0
  -28.6802  -22.2508   20.5982 N   0  3  1  0  0  0
  -29.9475  -21.0035   22.7809 F   0  0  0  0  0  0
  -31.4782  -12.5742   19.1438 H   0  0  0  0  0  0
  -30.3918  -11.4414   19.9017 H   0  0  0  0  0  0
  -29.7887  -11.7581   17.4757 H   0  0  0  0  0  0
  -29.6411  -13.4763   17.7208 H   0  0  0  0  0  0
  -27.8705  -11.2872   18.8532 H   0  0  0  0  0  0
  -27.3802  -12.5585   17.7717 H   0  0  0  0  0  0
  -27.6408  -14.2463   19.4757 H   0  0  0  0  0  0
  -28.7274  -12.1006   21.3692 H   0  0  0  0  0  0
  -28.4395  -13.7712   21.7992 H   0  0  0  0  0  0
  -25.2756   -9.5704   22.4720 H   0  0  0  0  0  0
  -24.0033   -7.4626   22.7435 H   0  0  0  0  0  0
  -21.0833   -8.8701   19.8955 H   0  0  0  0  0  0
  -22.3621  -10.9629   19.6136 H   0  0  0  0  0  0
  -21.1998   -7.6142   23.9738 H   0  0  0  0  0  0
  -21.1483   -6.0492   25.9085 H   0  0  0  0  0  0
  -22.0599   -2.7599   23.2825 H   0  0  0  0  0  0
  -22.4088  -11.9907   22.4897 H   0  0  0  0  0  0
  -21.1076  -13.1219   22.2510 H   0  0  0  0  0  0
  -24.6463  -15.8313   20.5278 H   0  0  0  0  0  0
  -26.2533  -15.6377   20.0483 H   0  0  0  0  0  0
  -26.7294  -32.5445   23.1121 H   0  0  0  0  0  0
  -25.0309  -33.9687   25.0579 H   0  0  0  0  0  0
  -22.7258  -31.3164   21.4029 H   0  0  0  0  0  0
  -23.3765  -35.9611   23.3248 H   0  0  0  0  0  0
  -24.3612  -36.8920   22.2060 H   0  0  0  0  0  0
  -23.7255  -37.6481   23.6644 H   0  0  0  0  0  0
  -26.0935  -31.5320   20.5917 H   0  0  0  0  0  0
  -26.8599  -30.8394   21.9918 H   0  0  0  0  0  0
  -28.1101  -28.9137   21.2256 H   0  0  0  0  0  0
  -25.9230  -25.9589   18.9294 H   0  0  0  0  0  0
  -23.9547  -27.3333   19.0010 H   0  0  0  0  0  0
  -23.7969  -30.6209   19.4171 H   0  0  0  0  0  0
  -22.7583  -29.2936   19.8303 H   0  0  0  0  0  0
  -25.1267  -36.1907   25.0843 H   0  0  0  0  0  0
  -21.0021  -28.3377   24.1356 H   0  0  0  0  0  0
  -20.5803  -26.2386   23.3613 H   0  0  0  0  0  0
  -21.6713  -26.7563   22.1148 H   0  0  0  0  0  0
  -19.6994  -25.6312   21.1279 H   0  0  0  0  0  0
  -19.6759  -27.3194   20.6727 H   0  0  0  0  0  0
  -17.4277  -26.6730   21.3977 H   0  0  0  0  0  0
  -18.0357  -26.0097   22.8986 H   0  0  0  0  0  0
  -19.7938  -30.7314   24.2266 H   0  0  0  0  0  0
  -17.5008  -31.6259   24.5194 H   0  0  0  0  0  0
  -15.5361  -30.2984   23.7626 H   0  0  0  0  0  0
  -15.8719  -28.0838   22.7000 H   0  0  0  0  0  0
  -24.5985  -30.6988   25.7769 H   0  0  0  0  0  0
  -24.8993  -32.2804   26.4887 H   0  0  0  0  0  0
  -25.8140  -30.8819   27.0208 H   0  0  0  0  0  0
  -26.3012  -29.6677   24.1203 H   0  0  0  0  0  0
  -27.4296  -29.7263   25.4545 H   0  0  0  0  0  0
  -27.8791  -30.4334   23.9233 H   0  0  0  0  0  0
  -27.2837  -33.3515   26.2100 H   0  0  0  0  0  0
  -28.3980  -32.6732   25.0317 H   0  0  0  0  0  0
  -28.0813  -31.8286   26.5379 H   0  0  0  0  0  0
  -28.2575  -38.0118   24.7508 H   0  0  0  0  0  0
  -28.1099  -36.2638   24.6264 H   0  0  0  0  0  0
  -27.2301  -37.1414   25.8874 H   0  0  0  0  0  0
  -20.9421  -29.8865   21.6837 H   0  0  0  0  0  0
  -26.0153  -38.2839   24.1399 H   0  0  0  0  0  0
  -30.4571  -16.4937   22.9617 H   0  0  0  0  0  0
  -30.4296  -18.7281   23.9852 H   0  0  0  0  0  0
  -29.3677  -18.2738   19.1714 H   0  0  0  0  0  0
  -26.9995  -20.9286   20.7017 H   0  0  0  0  0  0
  -26.8462  -22.2022   19.5000 H   0  0  0  0  0  0
  -26.6542  -22.5604   21.2214 H   0  0  0  0  0  0
  -29.1193  -20.8852   18.9950 H   0  0  0  0  0  0
  -30.5121  -21.4580   19.8532 H   0  0  0  0  0  0
  -29.9623  -23.9657   20.7309 H   0  0  0  0  0  0
  -29.3321  -23.6854   19.1330 H   0  0  0  0  0  0
  -27.5987  -24.8209   21.4141 H   0  0  0  0  0  0
  -27.1514  -24.5909   19.7605 H   0  0  0  0  0  0
  -28.7969  -15.5362   20.3104 H   0  0  0  0  0  0
  -28.8979  -22.1942   21.5850 H   0  0  0  0  0  0
  1 25  1  0  0  0
  1 30  2  0  0  0
  1 81  1  0  0  0
  2  3  1  0  0  0
  2 25  1  0  0  0
  2 84  1  0  0  0
  2 85  1  0  0  0
  3  4  1  0  0  0
  3 86  1  0  0  0
  3 87  1  0  0  0
  4  5  1  0  0  0
  4 88  1  0  0  0
  4 89  1  0  0  0
  5  6  1  0  0  0
  5 26  1  0  0  0
  5 90  1  0  0  0
  6 25  1  0  0  0
  6 91  1  0  0  0
  6 92  1  0  0  0
  7  8  2  0  0  0
  7 26  1  0  0  0
  7 29  1  0  0  0
  8  9  1  0  0  0
  8 22  1  0  0  0
  9 10  1  0  0  0
  9 27  2  0  0  0
 10 11  2  0  0  0
 10 15  1  0  0  0
 11 12  1  0  0  0
 11 93  1  0  0  0
 12 13  2  0  0  0
 12 94  1  0  0  0
 13 14  1  0  0  0
 13 31  1  0  0  0
 14 15  2  0  0  0
 14 95  1  0  0  0
 15 96  1  0  0  0
 16 17  2  0  0  0
 16 21  1  0  0  0
 16 31  1  0  0  0
 17 18  1  0  0  0
 17 97  1  0  0  0
 18 19  2  0  0  0
 18 98  1  0  0  0
 19 20  1  0  0  0
 19 24  1  0  0  0
 20 21  2  0  0  0
 20 99  1  0  0  0
 21 23  1  0  0  0
 22 28  1  0  0  0
 22 32  2  0  0  0
 26 27  1  0  0  0
 28100  1  0  0  0
 28101  1  0  0  0
 29102  1  0  0  0
 29103  1  0  0  0
 33 34  1  0  0  0
 33 66  1  0  0  0
 33 70  2  0  0  0
 34 36  1  0  0  0
 34 59  1  0  0  0
 34104  1  0  0  0
 35 44  2  0  0  0
 35 45  1  0  0  0
 35 68  1  0  0  0
 36 56  1  0  0  0
 36105  1  0  0  0
 37 39  1  0  0  0
 37 47  1  0  0  0
 37 66  1  0  0  0
 37106  1  0  0  0
 38 43  2  0  0  0
 38 46  1  0  0  0
 38 47  1  0  0  0
 39 64  1  0  0  0
 39 67  2  0  0  0
 40 52  1  0  0  0
 40 53  2  0  0  0
 40 58  1  0  0  0
 41107  1  0  0  0
 41108  1  0  0  0
 41109  1  0  0  0
 41 48  1  0  0  0
 42 43  1  0  0  0
 42 66  1  0  0  0
 42110  1  0  0  0
 42111  1  0  0  0
 43 44  1  0  0  0
 44112  1  0  0  0
 45 46  2  0  0  0
 45113  1  0  0  0
 46114  1  0  0  0
 47115  1  0  0  0
 47116  1  0  0  0
 48 56  1  0  0  0
 48 65  1  0  0  0
 48117  1  0  0  0
 49 50  1  0  0  0
 49 53  1  0  0  0
 49 64  1  0  0  0
 49118  1  0  0  0
 50 51  1  0  0  0
 50119  1  0  0  0
 50120  1  0  0  0
 51 52  1  0  0  0
 51121  1  0  0  0
 51122  1  0  0  0
 52123  1  0  0  0
 52124  1  0  0  0
 53 54  1  0  0  0
 54 55  2  0  0  0
 54125  1  0  0  0
 55 57  1  0  0  0
 55126  1  0  0  0
 56 69  2  0  0  0
 57 58  2  0  0  0
 57127  1  0  0  0
 58128  1  0  0  0
 59 60  1  0  0  0
 59 61  1  0  0  0
 59 62  1  0  0  0
 60129  1  0  0  0
 60130  1  0  0  0
 60131  1  0  0  0
 61132  1  0  0  0
 61133  1  0  0  0
 61134  1  0  0  0
 62135  1  0  0  0
 62136  1  0  0  0
 62137  1  0  0  0
 63 65  1  0  0  0
 63138  1  0  0  0
 63139  1  0  0  0
 63140  1  0  0  0
 64141  1  0  0  0
 65142  1  0  0  0
 68 80  1  0  0  0
 71 72  2  0  0  0
 71 75  1  0  0  0
 71143  1  0  0  0
 72 76  1  0  0  0
 72144  1  0  0  0
 73 74  1  0  0  0
 73 75  2  0  0  0
 73145  1  0  0  0
 74 76  2  0  0  0
 74 78  1  0  0  0
 75 81  1  0  0  0
 76 83  1  0  0  0
 77146  1  0  0  0
 77147  1  0  0  0
 77148  1  0  0  0
 77 82  1  0  0  0
 78 82  1  0  0  0
 78149  1  0  0  0
 78150  1  0  0  0
 79 80  1  0  0  0
 79 82  1  0  0  0
 79151  1  0  0  0
 79152  1  0  0  0
 80153  1  0  0  0
 80154  1  0  0  0
 81155  1  0  0  0
 82156  1  0  0  0
M  CHG  1  82   1
M  ISO  4   1 100  68 101  80 101  81 100
M  END
> <chiral flag>
0

> <version>
0

> <s_m_source_file>
/data/baiqing/PycharmProjects/Reinvent-master-3.2/result/LINK_invent/BTK/process_docking_weight1_custom_product_contain_oxygen_bond_distance_aromatic_linkinvent_7_9_3/rearranged_h_0010.sdf

> <i_m_source_file_index>
14

> <r_mmod_Potential_Energy-OPLS-2005>
40.1313056945801

> <r_mmod_Stretch_Energy-OPLS-2005>
116.480628967285

> <r_mmod_Bend_Energy-OPLS-2005>
156.025741577148

> <r_mmod_Torsional_Energy-OPLS-2005>
259.783203125

> <r_mmod_Improper_Torsional_Energy-OPLS-2005>
10.5896501541138

> <r_mmod_Van_der_Waal_Energy-OPLS-2005>
140.149017333984

> <r_mmod_Electrostatic_Energy-OPLS-2005>
-288.724639892578

> <r_mmod_Solvation_Energy-OPLS-2005>
-433.774322509766

> <b_mmod_Minimization_Converged-OPLS-2005>
0

> <r_mmod_RMS_Derivative-OPLS-2005>
4.08584928512573

$$$$
14
                    3D
 Structure written by MMmdl.
163172  0  0  1  0            999 V2000
  -30.6855  -14.4402   20.5730 C   0  0  0  0  0  0
  -30.4255  -12.2868   19.4138 C   0  0  0  0  0  0
  -29.4961  -12.5149   18.2028 C   0  0  0  0  0  0
  -28.0143  -12.3822   18.6102 C   0  0  0  0  0  0
  -27.6672  -13.2011   19.8817 C   0  0  2  0  0  0
  -28.7056  -12.9406   20.9967 C   0  0  0  0  0  0
  -25.2617  -13.8143   20.5668 C   0  0  0  0  0  0
  -24.1856  -13.0436   20.9159 C   0  0  0  0  0  0
  -24.6400  -11.6897   20.8722 C   0  0  0  0  0  0
  -23.9067  -10.4285   21.0408 C   0  0  0  0  0  0
  -24.3617   -9.4201   21.9191 C   0  0  0  0  0  0
  -23.6291   -8.2240   22.0766 C   0  0  0  0  0  0
  -22.4272   -8.0283   21.3556 C   0  0  0  0  0  0
  -21.9906   -9.0252   20.4658 C   0  0  0  0  0  0
  -22.7237  -10.2131   20.3062 C   0  0  0  0  0  0
  -21.6848   -6.0735   22.5281 C   0  0  0  0  0  0
  -21.4010   -6.5642   23.8212 C   0  0  0  0  0  0
  -21.3663   -5.6800   24.9173 C   0  0  0  0  0  0
  -21.6046   -4.3059   24.7226 C   0  0  0  0  0  0
  -21.8826   -3.8151   23.4347 C   0  0  0  0  0  0
  -21.9190   -4.6964   22.3398 C   0  0  0  0  0  0
  -22.7884  -13.5250   21.1823 C   0  0  0  0  0  0
  -22.1671   -4.2156   21.0977 F   0  0  0  0  0  0
  -21.5619   -3.4539   25.7733 F   0  0  0  0  0  0
  -30.0431  -13.2480   20.4584 N   0  0  0  0  0  0
  -26.3053  -12.9303   20.3379 N   0  0  0  0  0  0
  -25.9329  -11.6465   20.5761 N   0  0  0  0  0  0
  -22.0512  -12.8261   22.0382 N   0  0  0  0  0  0
  -25.4356  -15.1853   20.4065 N   0  0  0  0  0  0
  -31.8041  -14.6505   20.0936 O   0  0  0  0  0  0
  -21.6646   -6.8877   21.4245 O   0  0  0  0  0  0
  -22.3588  -14.5562   20.6671 O   0  0  0  0  0  0
  -24.6130  -31.8707   23.2106 C   0  0  0  0  0  0
  -25.9037  -32.4839   23.8392 C   0  0  1  0  0  0
  -27.2446  -27.4549   20.0812 C   0  0  0  0  0  0
  -25.5906  -33.8633   24.2331 N   0  0  0  0  0  0
  -23.3980  -30.4934   21.5511 C   0  0  2  0  0  0
  -24.8426  -28.9557   20.1185 C   0  0  0  0  0  0
  -22.7392  -29.4673   22.5002 C   0  0  0  0  0  0
  -18.0272  -28.1395   22.8514 C   0  0  0  0  0  0
  -24.1481  -36.7314   23.2632 C   0  0  0  0  0  0
  -25.9235  -30.8402   21.3579 C   0  0  0  0  0  0
  -25.9984  -29.4728   20.7114 C   0  0  0  0  0  0
  -27.1949  -28.7260   20.6956 C   0  0  0  0  0  0
  -26.0590  -26.9354   19.5103 C   0  0  0  0  0  0
  -24.8650  -27.6832   19.5213 C   0  0  0  0  0  0
  -23.6050  -29.8228   20.1658 C   0  0  0  0  0  0
  -25.4101  -36.3123   24.0337 C   0  0  1  0  0  0
  -20.5856  -28.3665   23.1345 C   0  0  2  0  0  0
  -20.6754  -26.9401   22.5440 C   0  0  0  0  0  0
  -19.5730  -26.6395   21.5239 C   0  0  0  0  0  0
  -18.1906  -26.7947   22.1641 C   0  0  0  0  0  0
  -19.1521  -28.8845   23.2930 C   0  0  0  0  0  0
  -18.9452  -30.1449   23.8942 C   0  0  0  0  0  0
  -17.6459  -30.6601   24.0580 C   0  0  0  0  0  0
  -25.9036  -34.9491   23.5126 C   0  0  0  0  0  0
  -16.5342  -29.9113   23.6329 C   0  0  0  0  0  0
  -16.7266  -28.6527   23.0359 C   0  0  0  0  0  0
  -26.4467  -31.6612   25.0717 C   0  0  0  0  0  0
  -25.3745  -31.3733   26.1478 C   0  0  0  0  0  0
  -27.0281  -30.3065   24.6050 C   0  0  0  0  0  0
  -27.6051  -32.4314   25.7497 C   0  0  0  0  0  0
  -27.5575  -37.1819   24.8465 C   0  0  0  0  0  0
  -21.4126  -29.3032   22.3749 N   0  0  0  0  0  0
  -26.4287  -37.3810   23.9413 N   0  0  0  0  0  0
  -24.6633  -31.0820   22.0998 N   0  0  0  0  0  0
  -23.4180  -28.8212   23.3029 O   0  0  0  0  0  0
  -28.4659  -26.8100   20.0892 O   0  0  0  0  0  0
  -26.5592  -34.8942   22.4684 O   0  0  0  0  0  0
  -23.5331  -32.1441   23.7523 O   0  0  0  0  0  0
  -30.0080  -18.5623   19.0779 C   0  0  0  0  0  0
  -30.3796  -17.2935   19.5670 C   0  0  0  0  0  0
  -28.7308  -17.5014   21.3424 C   0  0  0  0  0  0
  -28.9743  -19.2971   19.6974 C   0  0  0  0  0  0
  -29.7257  -16.7338   20.6933 C   0  0  0  0  0  0
  -28.3553  -18.7695   20.8500 C   0  0  0  0  0  0
  -28.8686  -24.5267   17.0036 C   0  0  0  0  0  0
  -28.5728  -25.8222   17.7842 C   0  0  0  0  0  0
  -29.4246  -23.3952   17.8879 C   0  0  0  0  0  0
  -28.2312  -24.3097   19.8928 C   0  0  0  0  0  0
  -28.7624  -25.6462   19.3075 C   0  0  2  0  0  0
  -28.4803  -20.5920   19.0611 C   0  0  0  0  0  0
  -28.9005  -21.8881   19.7927 C   0  0  0  0  0  0
  -29.9664  -15.4074   21.1719 N   0  0  0  0  0  0
  -28.5121  -23.1125   19.0320 N   0  3  2  0  0  0
  -27.3725  -19.4670   21.4680 F   0  0  0  0  0  0
  -31.4700  -12.3895   19.1135 H   0  0  0  0  0  0
  -30.3239  -11.2664   19.7865 H   0  0  0  0  0  0
  -29.7307  -11.8050   17.4087 H   0  0  0  0  0  0
  -29.6742  -13.5081   17.7868 H   0  0  0  0  0  0
  -27.8106  -11.3249   18.7838 H   0  0  0  0  0  0
  -27.3701  -12.6828   17.7830 H   0  0  0  0  0  0
  -27.7230  -14.2552   19.6099 H   0  0  0  0  0  0
  -28.6711  -11.8936   21.3020 H   0  0  0  0  0  0
  -28.4670  -13.5084   21.8966 H   0  0  0  0  0  0
  -25.2765   -9.5674   22.4763 H   0  0  0  0  0  0
  -23.9998   -7.4631   22.7488 H   0  0  0  0  0  0
  -21.0838   -8.8765   19.8969 H   0  0  0  0  0  0
  -22.3695  -10.9668   19.6164 H   0  0  0  0  0  0
  -21.2008   -7.6152   23.9708 H   0  0  0  0  0  0
  -21.1484   -6.0536   25.9075 H   0  0  0  0  0  0
  -22.0603   -2.7617   23.2844 H   0  0  0  0  0  0
  -22.4119  -11.9921   22.4777 H   0  0  0  0  0  0
  -21.1143  -13.1332   22.2596 H   0  0  0  0  0  0
  -24.6675  -15.8412   20.4989 H   0  0  0  0  0  0
  -26.2904  -15.6175   20.0805 H   0  0  0  0  0  0
  -26.7117  -32.5561   23.1167 H   0  0  0  0  0  0
  -25.0119  -33.9798   25.0519 H   0  0  0  0  0  0
  -22.6866  -31.3097   21.4125 H   0  0  0  0  0  0
  -23.3748  -35.9645   23.3326 H   0  0  0  0  0  0
  -24.3571  -36.8891   22.2040 H   0  0  0  0  0  0
  -23.7237  -37.6529   23.6626 H   0  0  0  0  0  0
  -26.0266  -31.6015   20.5838 H   0  0  0  0  0  0
  -26.8165  -30.9011   21.9685 H   0  0  0  0  0  0
  -28.0914  -29.1302   21.1455 H   0  0  0  0  0  0
  -26.0299  -25.9621   19.0474 H   0  0  0  0  0  0
  -23.9709  -27.2727   19.0719 H   0  0  0  0  0  0
  -23.7161  -30.5971   19.4056 H   0  0  0  0  0  0
  -22.7294  -29.2421   19.8685 H   0  0  0  0  0  0
  -25.1279  -36.1982   25.0832 H   0  0  0  0  0  0
  -20.9961  -28.3222   24.1462 H   0  0  0  0  0  0
  -20.5661  -26.2273   23.3622 H   0  0  0  0  0  0
  -21.6627  -26.7451   22.1218 H   0  0  0  0  0  0
  -19.6885  -25.6311   21.1255 H   0  0  0  0  0  0
  -19.6673  -27.3224   20.6782 H   0  0  0  0  0  0
  -17.4180  -26.6731   21.4028 H   0  0  0  0  0  0
  -18.0268  -26.0077   22.9021 H   0  0  0  0  0  0
  -19.7925  -30.7256   24.2328 H   0  0  0  0  0  0
  -17.5019  -31.6292   24.5177 H   0  0  0  0  0  0
  -15.5348  -30.3044   23.7636 H   0  0  0  0  0  0
  -15.8657  -28.0872   22.7057 H   0  0  0  0  0  0
  -24.5911  -30.7076   25.7837 H   0  0  0  0  0  0
  -24.8946  -32.2901   26.4921 H   0  0  0  0  0  0
  -25.8105  -30.8924   27.0242 H   0  0  0  0  0  0
  -26.2818  -29.6876   24.1046 H   0  0  0  0  0  0
  -27.4030  -29.7236   25.4473 H   0  0  0  0  0  0
  -27.8663  -30.4424   23.9208 H   0  0  0  0  0  0
  -27.2674  -33.3595   26.2122 H   0  0  0  0  0  0
  -28.3850  -32.6896   25.0322 H   0  0  0  0  0  0
  -28.0729  -31.8404   26.5380 H   0  0  0  0  0  0
  -28.2609  -38.0104   24.7505 H   0  0  0  0  0  0
  -28.1057  -36.2638   24.6293 H   0  0  0  0  0  0
  -27.2298  -37.1467   25.8871 H   0  0  0  0  0  0
  -20.9273  -29.8790   21.7014 H   0  0  0  0  0  0
  -26.0174  -38.2887   24.1428 H   0  0  0  0  0  0
  -30.4970  -18.9489   18.1942 H   0  0  0  0  0  0
  -31.1483  -16.7551   19.0324 H   0  0  0  0  0  0
  -28.2159  -17.1097   22.2075 H   0  0  0  0  0  0
  -29.5672  -24.7363   16.1933 H   0  0  0  0  0  0
  -27.9534  -24.1819   16.5197 H   0  0  0  0  0  0
  -27.5731  -26.1610   17.5209 H   0  0  0  0  0  0
  -29.2404  -26.6143   17.4446 H   0  0  0  0  0  0
  -30.4197  -23.6487   18.2595 H   0  0  0  0  0  0
  -29.5585  -22.5088   17.2679 H   0  0  0  0  0  0
  -27.1592  -24.3528   20.0754 H   0  0  0  0  0  0
  -28.6922  -24.1807   20.8737 H   0  0  0  0  0  0
  -29.8451  -25.5846   19.4351 H   0  0  0  0  0  0
  -27.3920  -20.5442   19.0077 H   0  0  0  0  0  0
  -28.8182  -20.6003   18.0259 H   0  0  0  0  0  0
  -29.9762  -21.8988   19.9785 H   0  0  0  0  0  0
  -28.4211  -21.8928   20.7725 H   0  0  0  0  0  0
  -29.2360  -15.0423   21.7641 H   0  0  0  0  0  0
  -27.6216  -22.8890   18.6118 H   0  0  0  0  0  0
  1 25  1  0  0  0
  1 30  2  0  0  0
  1 84  1  0  0  0
  2  3  1  0  0  0
  2 25  1  0  0  0
  2 87  1  0  0  0
  2 88  1  0  0  0
  3  4  1  0  0  0
  3 89  1  0  0  0
  3 90  1  0  0  0
  4  5  1  0  0  0
  4 91  1  0  0  0
  4 92  1  0  0  0
  5  6  1  0  0  0
  5 26  1  0  0  0
  5 93  1  0  0  0
  6 25  1  0  0  0
  6 94  1  0  0  0
  6 95  1  0  0  0
  7  8  2  0  0  0
  7 26  1  0  0  0
  7 29  1  0  0  0
  8  9  1  0  0  0
  8 22  1  0  0  0
  9 10  1  0  0  0
  9 27  2  0  0  0
 10 11  2  0  0  0
 10 15  1  0  0  0
 11 12  1  0  0  0
 11 96  1  0  0  0
 12 13  2  0  0  0
 12 97  1  0  0  0
 13 14  1  0  0  0
 13 31  1  0  0  0
 14 15  2  0  0  0
 14 98  1  0  0  0
 15 99  1  0  0  0
 16 17  2  0  0  0
 16 21  1  0  0  0
 16 31  1  0  0  0
 17 18  1  0  0  0
 17100  1  0  0  0
 18 19  2  0  0  0
 18101  1  0  0  0
 19 20  1  0  0  0
 19 24  1  0  0  0
 20 21  2  0  0  0
 20102  1  0  0  0
 21 23  1  0  0  0
 22 28  1  0  0  0
 22 32  2  0  0  0
 26 27  1  0  0  0
 28103  1  0  0  0
 28104  1  0  0  0
 29105  1  0  0  0
 29106  1  0  0  0
 33 34  1  0  0  0
 33 66  1  0  0  0
 33 70  2  0  0  0
 34 36  1  0  0  0
 34 59  1  0  0  0
 34107  1  0  0  0
 35 44  2  0  0  0
 35 45  1  0  0  0
 35 68  1  0  0  0
 36 56  1  0  0  0
 36108  1  0  0  0
 37 39  1  0  0  0
 37 47  1  0  0  0
 37 66  1  0  0  0
 37109  1  0  0  0
 38 43  2  0  0  0
 38 46  1  0  0  0
 38 47  1  0  0  0
 39 64  1  0  0  0
 39 67  2  0  0  0
 40 52  1  0  0  0
 40 53  2  0  0  0
 40 58  1  0  0  0
 41110  1  0  0  0
 41111  1  0  0  0
 41112  1  0  0  0
 41 48  1  0  0  0
 42 43  1  0  0  0
 42 66  1  0  0  0
 42113  1  0  0  0
 42114  1  0  0  0
 43 44  1  0  0  0
 44115  1  0  0  0
 45 46  2  0  0  0
 45116  1  0  0  0
 46117  1  0  0  0
 47118  1  0  0  0
 47119  1  0  0  0
 48 56  1  0  0  0
 48 65  1  0  0  0
 48120  1  0  0  0
 49 50  1  0  0  0
 49 53  1  0  0  0
 49 64  1  0  0  0
 49121  1  0  0  0
 50 51  1  0  0  0
 50122  1  0  0  0
 50123  1  0  0  0
 51 52  1  0  0  0
 51124  1  0  0  0
 51125  1  0  0  0
 52126  1  0  0  0
 52127  1  0  0  0
 53 54  1  0  0  0
 54 55  2  0  0  0
 54128  1  0  0  0
 55 57  1  0  0  0
 55129  1  0  0  0
 56 69  2  0  0  0
 57 58  2  0  0  0
 57130  1  0  0  0
 58131  1  0  0  0
 59 60  1  0  0  0
 59 61  1  0  0  0
 59 62  1  0  0  0
 60132  1  0  0  0
 60133  1  0  0  0
 60134  1  0  0  0
 61135  1  0  0  0
 61136  1  0  0  0
 61137  1  0  0  0
 62138  1  0  0  0
 62139  1  0  0  0
 62140  1  0  0  0
 63 65  1  0  0  0
 63141  1  0  0  0
 63142  1  0  0  0
 63143  1  0  0  0
 64144  1  0  0  0
 65145  1  0  0  0
 68 81  1  0  0  0
 71 72  2  0  0  0
 71 74  1  0  0  0
 71146  1  0  0  0
 72 75  1  0  0  0
 72147  1  0  0  0
 73 75  2  0  0  0
 73 76  1  0  0  0
 73148  1  0  0  0
 74 76  2  0  0  0
 74 82  1  0  0  0
 75 84  1  0  0  0
 76 86  1  0  0  0
 77 78  1  0  0  0
 77 79  1  0  0  0
 77149  1  0  0  0
 77150  1  0  0  0
 78 81  1  0  0  0
 78151  1  0  0  0
 78152  1  0  0  0
 79 85  1  0  0  0
 79153  1  0  0  0
 79154  1  0  0  0
 80 81  1  0  0  0
 80 85  1  0  0  0
 80155  1  0  0  0
 80156  1  0  0  0
 81157  1  0  0  0
 82 83  1  0  0  0
 82158  1  0  0  0
 82159  1  0  0  0
 83160  1  0  0  0
 83161  1  0  0  0
 83 85  1  0  0  0
 84162  1  0  0  0
 85163  1  0  0  0
M  CHG  1  85   1
M  ISO  4   1 100  68 101  81 101  84 100
M  END
> <chiral flag>
0

> <version>
0

> <s_m_source_file>
/data/baiqing/PycharmProjects/Reinvent-master-3.2/result/LINK_invent/BTK/process_docking_weight1_custom_product_contain_oxygen_bond_distance_aromatic_linkinvent_7_9_3/rearranged_h_0010.sdf

> <i_m_source_file_index>
15

> <r_mmod_Potential_Energy-OPLS-2005>
-42.7982635498047

> <r_mmod_Stretch_Energy-OPLS-2005>
38.0040130615234

> <r_mmod_Bend_Energy-OPLS-2005>
124.002906799316

> <r_mmod_Torsional_Energy-OPLS-2005>
269.443634033203

> <r_mmod_Improper_Torsional_Energy-OPLS-2005>
4.97189903259277

> <r_mmod_Van_der_Waal_Energy-OPLS-2005>
164.466018676758

> <r_mmod_Electrostatic_Energy-OPLS-2005>
-229.329818725586

> <r_mmod_Solvation_Energy-OPLS-2005>
-425.226409912109

> <b_mmod_Minimization_Converged-OPLS-2005>
0

> <r_mmod_RMS_Derivative-OPLS-2005>
1.62386190891266

$$$$
15
                    3D
 Structure written by MMmdl.
156164  0  0  1  0            999 V2000
  -30.6227  -14.6204   20.5328 C   0  0  0  0  0  0
  -30.4436  -12.3904   19.4494 C   0  0  0  0  0  0
  -29.5081  -12.5178   18.2242 C   0  0  0  0  0  0
  -28.0300  -12.3569   18.6349 C   0  0  0  0  0  0
  -27.6580  -13.2148   19.8739 C   0  0  2  0  0  0
  -28.7018  -13.0412   21.0008 C   0  0  0  0  0  0
  -25.2569  -13.8166   20.5699 C   0  0  0  0  0  0
  -24.1835  -13.0439   20.9203 C   0  0  0  0  0  0
  -24.6406  -11.6902   20.8767 C   0  0  0  0  0  0
  -23.9091  -10.4288   21.0429 C   0  0  0  0  0  0
  -24.3638   -9.4188   21.9197 C   0  0  0  0  0  0
  -23.6296   -8.2230   22.0755 C   0  0  0  0  0  0
  -22.4271   -8.0286   21.3553 C   0  0  0  0  0  0
  -21.9928   -9.0266   20.4653 C   0  0  0  0  0  0
  -22.7274  -10.2135   20.3062 C   0  0  0  0  0  0
  -21.6850   -6.0743   22.5289 C   0  0  0  0  0  0
  -21.4010   -6.5640   23.8223 C   0  0  0  0  0  0
  -21.3654   -5.6792   24.9179 C   0  0  0  0  0  0
  -21.6045   -4.3056   24.7237 C   0  0  0  0  0  0
  -21.8816   -3.8152   23.4355 C   0  0  0  0  0  0
  -21.9190   -4.6972   22.3410 C   0  0  0  0  0  0
  -22.7855  -13.5231   21.1864 C   0  0  0  0  0  0
  -22.1652   -4.2160   21.0989 F   0  0  0  0  0  0
  -21.5638   -3.4539   25.7745 F   0  0  0  0  0  0
  -30.0204  -13.3933   20.4449 N   0  0  0  0  0  0
  -26.3005  -12.9348   20.3364 N   0  0  0  0  0  0
  -25.9338  -11.6506   20.5792 N   0  0  0  0  0  0
  -22.0499  -12.8212   22.0412 N   0  0  0  0  0  0
  -25.4308  -15.1891   20.4106 N   0  0  0  0  0  0
  -31.7720  -14.8057   20.1195 O   0  0  0  0  0  0
  -21.6629   -6.8885   21.4248 O   0  0  0  0  0  0
  -22.3540  -14.5546   20.6718 O   0  0  0  0  0  0
  -24.6249  -31.8604   23.2040 C   0  0  0  0  0  0
  -25.9107  -32.4780   23.8352 C   0  0  1  0  0  0
  -27.2245  -27.3257   20.1089 C   0  0  0  0  0  0
  -25.5919  -33.8577   24.2271 N   0  0  0  0  0  0
  -23.4184  -30.4827   21.5493 C   0  0  2  0  0  0
  -24.8643  -28.9426   20.1094 C   0  0  0  0  0  0
  -22.7488  -29.4601   22.4969 C   0  0  0  0  0  0
  -18.0285  -28.1401   22.8491 C   0  0  0  0  0  0
  -24.1492  -36.7299   23.2635 C   0  0  0  0  0  0
  -25.9600  -30.7884   21.3767 C   0  0  0  0  0  0
  -26.0321  -29.4176   20.7186 C   0  0  0  0  0  0
  -27.2137  -28.6201   20.7108 C   0  0  0  0  0  0
  -26.0339  -26.9070   19.4664 C   0  0  0  0  0  0
  -24.8683  -27.6936   19.4721 C   0  0  0  0  0  0
  -23.6319  -29.8214   20.1631 C   0  0  0  0  0  0
  -25.4114  -36.3083   24.0323 C   0  0  1  0  0  0
  -20.5885  -28.3687   23.1311 C   0  0  2  0  0  0
  -20.6790  -26.9415   22.5425 C   0  0  0  0  0  0
  -19.5760  -26.6393   21.5239 C   0  0  0  0  0  0
  -18.1931  -26.7939   22.1640 C   0  0  0  0  0  0
  -19.1535  -28.8870   23.2888 C   0  0  0  0  0  0
  -18.9455  -30.1483   23.8884 C   0  0  0  0  0  0
  -17.6449  -30.6593   24.0577 C   0  0  0  0  0  0
  -25.9054  -34.9450   23.5101 C   0  0  0  0  0  0
  -16.5343  -29.9093   23.6338 C   0  0  0  0  0  0
  -16.7269  -28.6526   23.0332 C   0  0  0  0  0  0
  -26.4486  -31.6585   25.0719 C   0  0  0  0  0  0
  -25.3695  -31.3726   26.1433 C   0  0  0  0  0  0
  -27.0321  -30.3002   24.6170 C   0  0  0  0  0  0
  -27.6059  -32.4311   25.7484 C   0  0  0  0  0  0
  -27.5583  -37.1796   24.8456 C   0  0  0  0  0  0
  -21.4205  -29.3018   22.3709 N   0  0  0  0  0  0
  -26.4290  -37.3777   23.9408 N   0  0  0  0  0  0
  -24.6866  -31.0607   22.0999 N   0  0  0  0  0  0
  -23.4221  -28.8124   23.3026 O   0  0  0  0  0  0
  -28.3486  -26.4868   20.1710 O   0  0  0  0  0  0
  -26.5631  -34.8919   22.4671 O   0  0  0  0  0  0
  -23.5416  -32.1401   23.7366 O   0  0  0  0  0  0
  -30.9222  -19.2816   20.3666 C   0  0  0  0  0  0
  -30.9536  -17.8527   20.3791 C   0  0  0  0  0  0
  -28.7484  -17.8413   21.3412 C   0  0  0  0  0  0
  -29.8142  -20.0288   20.8588 C   0  0  0  0  0  0
  -29.8673  -17.0907   20.8857 C   0  0  0  0  0  0
  -28.7170  -19.2669   21.3303 C   0  0  0  0  0  0
  -29.0566  -22.1451   18.7731 C   0  0  0  0  0  0
  -29.8835  -21.5940   21.0345 C   0  0  0  0  0  0
  -29.2668  -24.0150   20.4422 C   0  0  0  0  0  0
  -28.1638  -25.0395   19.9250 C   0  0  0  0  0  0
  -29.8138  -15.6311   20.9741 N   0  0  0  0  0  0
  -29.0135  -22.5218   20.2067 N   0  3  1  0  0  0
  -27.6240  -19.9085   21.8082 F   0  0  0  0  0  0
  -31.4829  -12.5269   19.1443 H   0  0  0  0  0  0
  -30.3879  -11.3892   19.8800 H   0  0  0  0  0  0
  -29.7709  -11.7720   17.4731 H   0  0  0  0  0  0
  -29.6509  -13.4892   17.7476 H   0  0  0  0  0  0
  -27.8645  -11.3021   18.8546 H   0  0  0  0  0  0
  -27.3750  -12.5977   17.7969 H   0  0  0  0  0  0
  -27.6830  -14.2570   19.5533 H   0  0  0  0  0  0
  -28.7095  -12.0081   21.3546 H   0  0  0  0  0  0
  -28.4444  -13.6477   21.8707 H   0  0  0  0  0  0
  -25.2792   -9.5634   22.4769 H   0  0  0  0  0  0
  -24.0006   -7.4610   22.7452 H   0  0  0  0  0  0
  -21.0873   -8.8799   19.8949 H   0  0  0  0  0  0
  -22.3769  -10.9675   19.6157 H   0  0  0  0  0  0
  -21.1990   -7.6150   23.9734 H   0  0  0  0  0  0
  -21.1479   -6.0522   25.9089 H   0  0  0  0  0  0
  -22.0601   -2.7620   23.2859 H   0  0  0  0  0  0
  -22.4129  -11.9861   22.4780 H   0  0  0  0  0  0
  -21.1118  -13.1224   22.2628 H   0  0  0  0  0  0
  -24.6690  -15.8485   20.5245 H   0  0  0  0  0  0
  -26.2789  -15.6217   20.0692 H   0  0  0  0  0  0
  -26.7158  -32.5448   23.1088 H   0  0  0  0  0  0
  -25.0050  -33.9725   25.0408 H   0  0  0  0  0  0
  -22.7091  -31.3014   21.4099 H   0  0  0  0  0  0
  -23.3761  -35.9629   23.3289 H   0  0  0  0  0  0
  -24.3572  -36.8928   22.2048 H   0  0  0  0  0  0
  -23.7242  -37.6493   23.6672 H   0  0  0  0  0  0
  -26.0897  -31.5479   20.6045 H   0  0  0  0  0  0
  -26.8432  -30.8386   22.0030 H   0  0  0  0  0  0
  -28.1090  -28.9774   21.1988 H   0  0  0  0  0  0
  -25.9698  -25.9602   18.9515 H   0  0  0  0  0  0
  -23.9775  -27.3297   18.9776 H   0  0  0  0  0  0
  -23.7455  -30.6008   19.4088 H   0  0  0  0  0  0
  -22.7530  -29.2484   19.8644 H   0  0  0  0  0  0
  -25.1292  -36.1927   25.0813 H   0  0  0  0  0  0
  -20.9964  -28.3255   24.1442 H   0  0  0  0  0  0
  -20.5746  -26.2278   23.3611 H   0  0  0  0  0  0
  -21.6646  -26.7480   22.1171 H   0  0  0  0  0  0
  -19.6921  -25.6313   21.1252 H   0  0  0  0  0  0
  -19.6706  -27.3233   20.6793 H   0  0  0  0  0  0
  -17.4210  -26.6703   21.4033 H   0  0  0  0  0  0
  -18.0312  -26.0087   22.9037 H   0  0  0  0  0  0
  -19.7924  -30.7328   24.2222 H   0  0  0  0  0  0
  -17.4990  -31.6263   24.5204 H   0  0  0  0  0  0
  -15.5344  -30.2984   23.7675 H   0  0  0  0  0  0
  -15.8672  -28.0863   22.7010 H   0  0  0  0  0  0
  -24.5895  -30.7058   25.7739 H   0  0  0  0  0  0
  -24.8866  -32.2899   26.4813 H   0  0  0  0  0  0
  -25.7985  -30.8918   27.0234 H   0  0  0  0  0  0
  -26.2893  -29.6765   24.1187 H   0  0  0  0  0  0
  -27.4010  -29.7236   25.4663 H   0  0  0  0  0  0
  -27.8767  -30.4285   23.9397 H   0  0  0  0  0  0
  -27.2695  -33.3636   26.2029 H   0  0  0  0  0  0
  -28.3885  -32.6819   25.0311 H   0  0  0  0  0  0
  -28.0716  -31.8448   26.5419 H   0  0  0  0  0  0
  -28.2575  -38.0117   24.7527 H   0  0  0  0  0  0
  -28.1104  -36.2646   24.6252 H   0  0  0  0  0  0
  -27.2301  -37.1395   25.8857 H   0  0  0  0  0  0
  -20.9406  -29.8698   21.6872 H   0  0  0  0  0  0
  -26.0172  -38.2848   24.1429 H   0  0  0  0  0  0
  -31.7975  -19.8061   20.0088 H   0  0  0  0  0  0
  -31.8398  -17.3529   20.0135 H   0  0  0  0  0  0
  -27.8840  -17.3223   21.7307 H   0  0  0  0  0  0
  -28.6608  -21.1388   18.6306 H   0  0  0  0  0  0
  -30.0801  -22.1541   18.3970 H   0  0  0  0  0  0
  -28.4596  -22.8099   18.1509 H   0  0  0  0  0  0
  -30.9208  -21.8866   20.8639 H   0  0  0  0  0  0
  -29.6961  -21.8110   22.0879 H   0  0  0  0  0  0
  -29.3654  -24.1693   21.5170 H   0  0  0  0  0  0
  -30.2367  -24.2790   20.0180 H   0  0  0  0  0  0
  -27.2213  -24.7197   20.3725 H   0  0  0  0  0  0
  -28.0538  -24.9266   18.8467 H   0  0  0  0  0  0
  -28.9436  -15.2683   21.3335 H   0  0  0  0  0  0
  -28.0693  -22.3440   20.5176 H   0  0  0  0  0  0
  1 25  1  0  0  0
  1 30  2  0  0  0
  1 81  1  0  0  0
  2  3  1  0  0  0
  2 25  1  0  0  0
  2 84  1  0  0  0
  2 85  1  0  0  0
  3  4  1  0  0  0
  3 86  1  0  0  0
  3 87  1  0  0  0
  4  5  1  0  0  0
  4 88  1  0  0  0
  4 89  1  0  0  0
  5  6  1  0  0  0
  5 26  1  0  0  0
  5 90  1  0  0  0
  6 25  1  0  0  0
  6 91  1  0  0  0
  6 92  1  0  0  0
  7  8  2  0  0  0
  7 26  1  0  0  0
  7 29  1  0  0  0
  8  9  1  0  0  0
  8 22  1  0  0  0
  9 10  1  0  0  0
  9 27  2  0  0  0
 10 11  2  0  0  0
 10 15  1  0  0  0
 11 12  1  0  0  0
 11 93  1  0  0  0
 12 13  2  0  0  0
 12 94  1  0  0  0
 13 14  1  0  0  0
 13 31  1  0  0  0
 14 15  2  0  0  0
 14 95  1  0  0  0
 15 96  1  0  0  0
 16 17  2  0  0  0
 16 21  1  0  0  0
 16 31  1  0  0  0
 17 18  1  0  0  0
 17 97  1  0  0  0
 18 19  2  0  0  0
 18 98  1  0  0  0
 19 20  1  0  0  0
 19 24  1  0  0  0
 20 21  2  0  0  0
 20 99  1  0  0  0
 21 23  1  0  0  0
 22 28  1  0  0  0
 22 32  2  0  0  0
 26 27  1  0  0  0
 28100  1  0  0  0
 28101  1  0  0  0
 29102  1  0  0  0
 29103  1  0  0  0
 33 34  1  0  0  0
 33 66  1  0  0  0
 33 70  2  0  0  0
 34 36  1  0  0  0
 34 59  1  0  0  0
 34104  1  0  0  0
 35 44  2  0  0  0
 35 45  1  0  0  0
 35 68  1  0  0  0
 36 56  1  0  0  0
 36105  1  0  0  0
 37 39  1  0  0  0
 37 47  1  0  0  0
 37 66  1  0  0  0
 37106  1  0  0  0
 38 43  2  0  0  0
 38 46  1  0  0  0
 38 47  1  0  0  0
 39 64  1  0  0  0
 39 67  2  0  0  0
 40 52  1  0  0  0
 40 53  2  0  0  0
 40 58  1  0  0  0
 41107  1  0  0  0
 41108  1  0  0  0
 41109  1  0  0  0
 41 48  1  0  0  0
 42 43  1  0  0  0
 42 66  1  0  0  0
 42110  1  0  0  0
 42111  1  0  0  0
 43 44  1  0  0  0
 44112  1  0  0  0
 45 46  2  0  0  0
 45113  1  0  0  0
 46114  1  0  0  0
 47115  1  0  0  0
 47116  1  0  0  0
 48 56  1  0  0  0
 48 65  1  0  0  0
 48117  1  0  0  0
 49 50  1  0  0  0
 49 53  1  0  0  0
 49 64  1  0  0  0
 49118  1  0  0  0
 50 51  1  0  0  0
 50119  1  0  0  0
 50120  1  0  0  0
 51 52  1  0  0  0
 51121  1  0  0  0
 51122  1  0  0  0
 52123  1  0  0  0
 52124  1  0  0  0
 53 54  1  0  0  0
 54 55  2  0  0  0
 54125  1  0  0  0
 55 57  1  0  0  0
 55126  1  0  0  0
 56 69  2  0  0  0
 57 58  2  0  0  0
 57127  1  0  0  0
 58128  1  0  0  0
 59 60  1  0  0  0
 59 61  1  0  0  0
 59 62  1  0  0  0
 60129  1  0  0  0
 60130  1  0  0  0
 60131  1  0  0  0
 61132  1  0  0  0
 61133  1  0  0  0
 61134  1  0  0  0
 62135  1  0  0  0
 62136  1  0  0  0
 62137  1  0  0  0
 63 65  1  0  0  0
 63138  1  0  0  0
 63139  1  0  0  0
 63140  1  0  0  0
 64141  1  0  0  0
 65142  1  0  0  0
 68 80  1  0  0  0
 71 72  2  0  0  0
 71 74  1  0  0  0
 71143  1  0  0  0
 72 75  1  0  0  0
 72144  1  0  0  0
 73 75  2  0  0  0
 73 76  1  0  0  0
 73145  1  0  0  0
 74 76  2  0  0  0
 74 78  1  0  0  0
 75 81  1  0  0  0
 76 83  1  0  0  0
 77146  1  0  0  0
 77147  1  0  0  0
 77148  1  0  0  0
 77 82  1  0  0  0
 78 82  1  0  0  0
 78149  1  0  0  0
 78150  1  0  0  0
 79 80  1  0  0  0
 79 82  1  0  0  0
 79151  1  0  0  0
 79152  1  0  0  0
 80153  1  0  0  0
 80154  1  0  0  0
 81155  1  0  0  0
 82156  1  0  0  0
M  CHG  1  82   1
M  ISO  4   1 100  68 101  80 101  81 100
M  END
> <chiral flag>
0

> <version>
0

> <s_m_source_file>
/data/baiqing/PycharmProjects/Reinvent-master-3.2/result/LINK_invent/BTK/process_docking_weight1_custom_product_contain_oxygen_bond_distance_aromatic_linkinvent_7_9_3/rearranged_h_0010.sdf

> <i_m_source_file_index>
16

> <r_mmod_Potential_Energy-OPLS-2005>
-72.4477767944336

> <r_mmod_Stretch_Energy-OPLS-2005>
77.2074813842773

> <r_mmod_Bend_Energy-OPLS-2005>
137.644012451172

> <r_mmod_Torsional_Energy-OPLS-2005>
204.07666015625

> <r_mmod_Improper_Torsional_Energy-OPLS-2005>
4.14148139953613

> <r_mmod_Van_der_Waal_Energy-OPLS-2005>
145.579650878906

> <r_mmod_Electrostatic_Energy-OPLS-2005>
-253.568542480469

> <r_mmod_Solvation_Energy-OPLS-2005>
-431.46044921875

> <b_mmod_Minimization_Converged-OPLS-2005>
0

> <r_mmod_RMS_Derivative-OPLS-2005>
1.99835777282715

$$$$
16
                    3D
 Structure written by MMmdl.
148156  0  0  1  0            999 V2000
  -30.5089  -14.9122   20.4351 C   0  0  0  0  0  0
  -30.4555  -12.5616   19.4901 C   0  0  0  0  0  0
  -29.5264  -12.5317   18.2520 C   0  0  0  0  0  0
  -28.0565  -12.3206   18.6662 C   0  0  0  0  0  0
  -27.6389  -13.2354   19.8464 C   0  0  2  0  0  0
  -28.6835  -13.2119   20.9840 C   0  0  0  0  0  0
  -25.2500  -13.8182   20.5681 C   0  0  0  0  0  0
  -24.1806  -13.0431   20.9230 C   0  0  0  0  0  0
  -24.6402  -11.6911   20.8760 C   0  0  0  0  0  0
  -23.9076  -10.4289   21.0416 C   0  0  0  0  0  0
  -24.3624   -9.4201   21.9190 C   0  0  0  0  0  0
  -23.6294   -8.2240   22.0758 C   0  0  0  0  0  0
  -22.4276   -8.0282   21.3547 C   0  0  0  0  0  0
  -21.9915   -9.0259   20.4652 C   0  0  0  0  0  0
  -22.7249  -10.2135   20.3063 C   0  0  0  0  0  0
  -21.6853   -6.0736   22.5279 C   0  0  0  0  0  0
  -21.4015   -6.5640   23.8212 C   0  0  0  0  0  0
  -21.3659   -5.6793   24.9175 C   0  0  0  0  0  0
  -21.6044   -4.3056   24.7225 C   0  0  0  0  0  0
  -21.8818   -3.8147   23.4347 C   0  0  0  0  0  0
  -21.9192   -4.6963   22.3402 C   0  0  0  0  0  0
  -22.7826  -13.5218   21.1880 C   0  0  0  0  0  0
  -22.1661   -4.2149   21.0979 F   0  0  0  0  0  0
  -21.5626   -3.4539   25.7738 F   0  0  0  0  0  0
  -29.9682  -13.6307   20.4025 N   0  0  0  0  0  0
  -26.2925  -12.9392   20.3247 N   0  0  0  0  0  0
  -25.9332  -11.6537   20.5742 N   0  0  0  0  0  0
  -22.0465  -12.8213   22.0434 N   0  0  0  0  0  0
  -25.4162  -15.1901   20.4026 N   0  0  0  0  0  0
  -31.6970  -15.0562   20.1234 O   0  0  0  0  0  0
  -21.6639   -6.8881   21.4242 O   0  0  0  0  0  0
  -22.3518  -14.5520   20.6717 O   0  0  0  0  0  0
  -24.6422  -31.8456   23.1895 C   0  0  0  0  0  0
  -25.9199  -32.4704   23.8282 C   0  0  1  0  0  0
  -27.2214  -27.1519   20.1469 C   0  0  0  0  0  0
  -25.5952  -33.8509   24.2201 N   0  0  0  0  0  0
  -23.4453  -30.4654   21.5351 C   0  0  2  0  0  0
  -24.8953  -28.8959   20.1105 C   0  0  0  0  0  0
  -22.7562  -29.4552   22.4864 C   0  0  0  0  0  0
  -18.0305  -28.1392   22.8480 C   0  0  0  0  0  0
  -24.1492  -36.7261   23.2642 C   0  0  0  0  0  0
  -26.0006  -30.7245   21.3860 C   0  0  0  0  0  0
  -26.0728  -29.3373   20.7273 C   0  0  0  0  0  0
  -27.2369  -28.4820   20.7280 C   0  0  0  0  0  0
  -26.0152  -26.8096   19.4937 C   0  0  0  0  0  0
  -24.8787  -27.6448   19.4786 C   0  0  0  0  0  0
  -23.6712  -29.7962   20.1539 C   0  0  0  0  0  0
  -25.4122  -36.3038   24.0318 C   0  0  1  0  0  0
  -20.5917  -28.3717   23.1239 C   0  0  2  0  0  0
  -20.6789  -26.9422   22.5403 C   0  0  0  0  0  0
  -19.5760  -26.6380   21.5213 C   0  0  0  0  0  0
  -18.1944  -26.7931   22.1628 C   0  0  0  0  0  0
  -19.1562  -28.8873   23.2853 C   0  0  0  0  0  0
  -18.9477  -30.1469   23.8878 C   0  0  0  0  0  0
  -17.6473  -30.6589   24.0558 C   0  0  0  0  0  0
  -25.9071  -34.9412   23.5068 C   0  0  0  0  0  0
  -16.5365  -29.9082   23.6333 C   0  0  0  0  0  0
  -16.7289  -28.6500   23.0357 C   0  0  0  0  0  0
  -26.4522  -31.6564   25.0716 C   0  0  0  0  0  0
  -25.3712  -31.3749   26.1414 C   0  0  0  0  0  0
  -27.0385  -30.2963   24.6283 C   0  0  0  0  0  0
  -27.6053  -32.4328   25.7502 C   0  0  0  0  0  0
  -27.5575  -37.1788   24.8465 C   0  0  0  0  0  0
  -21.4255  -29.3048   22.3615 N   0  0  0  0  0  0
  -26.4286  -37.3749   23.9408 N   0  0  0  0  0  0
  -24.7158  -31.0325   22.0923 N   0  0  0  0  0  0
  -23.4210  -28.8096   23.3008 O   0  0  0  0  0  0
  -28.2796  -26.1752   20.2158 O   0  0  0  0  0  0
  -26.5655  -34.8906   22.4645 O   0  0  0  0  0  0
  -23.5543  -32.1325   23.7122 O   0  0  0  0  0  0
  -30.4979  -18.5502   20.3681 C   0  0  0  0  0  0
  -30.1918  -19.9876   20.3030 C   0  0  0  0  0  0
  -28.2013  -18.0915   20.6159 C   0  0  0  0  0  0
  -29.5058  -17.5125   20.5303 C   0  0  0  0  0  0
  -28.8604  -20.5427   20.3787 C   0  0  0  0  0  0
  -27.8953  -19.4982   20.5370 C   0  0  0  0  0  0
  -27.9814  -24.6559   20.0800 C   0  0  0  0  0  0
  -28.9666  -23.3090   20.3181 C   0  0  0  0  0  0
  -29.6181  -15.9877   20.6567 N   0  0  0  0  0  0
  -28.3436  -21.9122   20.2867 O   0  0  0  0  0  0
  -26.5907  -19.8568   20.6201 F   0  0  0  0  0  0
  -31.4867  -12.7370   19.1791 H   0  0  0  0  0  0
  -30.4561  -11.5962   19.9987 H   0  0  0  0  0  0
  -29.8377  -11.7454   17.5632 H   0  0  0  0  0  0
  -29.6191  -13.4710   17.7045 H   0  0  0  0  0  0
  -27.9424  -11.2750   18.9545 H   0  0  0  0  0  0
  -27.3955  -12.4747   17.8124 H   0  0  0  0  0  0
  -27.6160  -14.2467   19.4405 H   0  0  0  0  0  0
  -28.7608  -12.2155   21.4218 H   0  0  0  0  0  0
  -28.3869  -13.8773   21.7964 H   0  0  0  0  0  0
  -25.2769   -9.5672   22.4767 H   0  0  0  0  0  0
  -24.0000   -7.4629   22.7477 H   0  0  0  0  0  0
  -21.0844   -8.8784   19.8957 H   0  0  0  0  0  0
  -22.3712  -10.9678   19.6174 H   0  0  0  0  0  0
  -21.2010   -7.6149   23.9716 H   0  0  0  0  0  0
  -21.1480   -6.0523   25.9077 H   0  0  0  0  0  0
  -22.0597   -2.7608   23.2848 H   0  0  0  0  0  0
  -22.4083  -11.9878   22.4830 H   0  0  0  0  0  0
  -21.1084  -13.1242   22.2641 H   0  0  0  0  0  0
  -24.6295  -15.8261   20.4770 H   0  0  0  0  0  0
  -26.2182  -15.6066   19.9499 H   0  0  0  0  0  0
  -26.7265  -32.5316   23.1014 H   0  0  0  0  0  0
  -25.0077  -33.9626   25.0333 H   0  0  0  0  0  0
  -22.7472  -31.2910   21.3818 H   0  0  0  0  0  0
  -23.3757  -35.9590   23.3292 H   0  0  0  0  0  0
  -24.3578  -36.8903   22.2059 H   0  0  0  0  0  0
  -23.7245  -37.6454   23.6684 H   0  0  0  0  0  0
  -26.1536  -31.4794   20.6136 H   0  0  0  0  0  0
  -26.8721  -30.7754   22.0269 H   0  0  0  0  0  0
  -28.1335  -28.8156   21.2313 H   0  0  0  0  0  0
  -25.9102  -25.8553   19.0018 H   0  0  0  0  0  0
  -23.9801  -27.3016   18.9846 H   0  0  0  0  0  0
  -23.8070  -30.5716   19.3992 H   0  0  0  0  0  0
  -22.7864  -29.2380   19.8427 H   0  0  0  0  0  0
  -25.1309  -36.1869   25.0810 H   0  0  0  0  0  0
  -21.0010  -28.3306   24.1360 H   0  0  0  0  0  0
  -20.5685  -26.2330   23.3621 H   0  0  0  0  0  0
  -21.6654  -26.7429   22.1199 H   0  0  0  0  0  0
  -19.6921  -25.6286   21.1255 H   0  0  0  0  0  0
  -19.6694  -27.3179   20.6734 H   0  0  0  0  0  0
  -17.4210  -26.6673   21.4035 H   0  0  0  0  0  0
  -18.0346  -26.0078   22.9030 H   0  0  0  0  0  0
  -19.7952  -30.7291   24.2241 H   0  0  0  0  0  0
  -17.5025  -31.6268   24.5163 H   0  0  0  0  0  0
  -15.5364  -30.2977   23.7663 H   0  0  0  0  0  0
  -15.8691  -28.0808   22.7085 H   0  0  0  0  0  0
  -24.5894  -30.7094   25.7734 H   0  0  0  0  0  0
  -24.8898  -32.2930   26.4792 H   0  0  0  0  0  0
  -25.7998  -30.8952   27.0222 H   0  0  0  0  0  0
  -26.2998  -29.6690   24.1281 H   0  0  0  0  0  0
  -27.3997  -29.7256   25.4848 H   0  0  0  0  0  0
  -27.8906  -30.4204   23.9597 H   0  0  0  0  0  0
  -27.2645  -33.3646   26.2028 H   0  0  0  0  0  0
  -28.3892  -32.6860   25.0352 H   0  0  0  0  0  0
  -28.0689  -31.8488   26.5463 H   0  0  0  0  0  0
  -28.2585  -38.0091   24.7510 H   0  0  0  0  0  0
  -28.1079  -36.2622   24.6295 H   0  0  0  0  0  0
  -27.2293  -37.1437   25.8868 H   0  0  0  0  0  0
  -20.9461  -29.8768   21.6802 H   0  0  0  0  0  0
  -26.0155  -38.2818   24.1409 H   0  0  0  0  0  0
  -31.5349  -18.2525   20.2974 H   0  0  0  0  0  0
  -31.0171  -20.6732   20.1773 H   0  0  0  0  0  0
  -27.3590  -17.4297   20.7477 H   0  0  0  0  0  0
  -27.1214  -24.4889   20.7294 H   0  0  0  0  0  0
  -27.6025  -24.5258   19.0670 H   0  0  0  0  0  0
  -29.4518  -23.4117   21.2888 H   0  0  0  0  0  0
  -29.7707  -23.3307   19.5826 H   0  0  0  0  0  0
  -28.7268  -15.5824   20.8973 H   0  0  0  0  0  0
  1 25  1  0  0  0
  1 30  2  0  0  0
  1 79  1  0  0  0
  2  3  1  0  0  0
  2 25  1  0  0  0
  2 82  1  0  0  0
  2 83  1  0  0  0
  3  4  1  0  0  0
  3 84  1  0  0  0
  3 85  1  0  0  0
  4  5  1  0  0  0
  4 86  1  0  0  0
  4 87  1  0  0  0
  5  6  1  0  0  0
  5 26  1  0  0  0
  5 88  1  0  0  0
  6 25  1  0  0  0
  6 89  1  0  0  0
  6 90  1  0  0  0
  7  8  2  0  0  0
  7 26  1  0  0  0
  7 29  1  0  0  0
  8  9  1  0  0  0
  8 22  1  0  0  0
  9 10  1  0  0  0
  9 27  2  0  0  0
 10 11  2  0  0  0
 10 15  1  0  0  0
 11 12  1  0  0  0
 11 91  1  0  0  0
 12 13  2  0  0  0
 12 92  1  0  0  0
 13 14  1  0  0  0
 13 31  1  0  0  0
 14 15  2  0  0  0
 14 93  1  0  0  0
 15 94  1  0  0  0
 16 17  2  0  0  0
 16 21  1  0  0  0
 16 31  1  0  0  0
 17 18  1  0  0  0
 17 95  1  0  0  0
 18 19  2  0  0  0
 18 96  1  0  0  0
 19 20  1  0  0  0
 19 24  1  0  0  0
 20 21  2  0  0  0
 20 97  1  0  0  0
 21 23  1  0  0  0
 22 28  1  0  0  0
 22 32  2  0  0  0
 26 27  1  0  0  0
 28 98  1  0  0  0
 28 99  1  0  0  0
 29100  1  0  0  0
 29101  1  0  0  0
 33 34  1  0  0  0
 33 66  1  0  0  0
 33 70  2  0  0  0
 34 36  1  0  0  0
 34 59  1  0  0  0
 34102  1  0  0  0
 35 44  2  0  0  0
 35 45  1  0  0  0
 35 68  1  0  0  0
 36 56  1  0  0  0
 36103  1  0  0  0
 37 39  1  0  0  0
 37 47  1  0  0  0
 37 66  1  0  0  0
 37104  1  0  0  0
 38 43  2  0  0  0
 38 46  1  0  0  0
 38 47  1  0  0  0
 39 64  1  0  0  0
 39 67  2  0  0  0
 40 52  1  0  0  0
 40 53  2  0  0  0
 40 58  1  0  0  0
 41105  1  0  0  0
 41106  1  0  0  0
 41107  1  0  0  0
 41 48  1  0  0  0
 42 43  1  0  0  0
 42 66  1  0  0  0
 42108  1  0  0  0
 42109  1  0  0  0
 43 44  1  0  0  0
 44110  1  0  0  0
 45 46  2  0  0  0
 45111  1  0  0  0
 46112  1  0  0  0
 47113  1  0  0  0
 47114  1  0  0  0
 48 56  1  0  0  0
 48 65  1  0  0  0
 48115  1  0  0  0
 49 50  1  0  0  0
 49 53  1  0  0  0
 49 64  1  0  0  0
 49116  1  0  0  0
 50 51  1  0  0  0
 50117  1  0  0  0
 50118  1  0  0  0
 51 52  1  0  0  0
 51119  1  0  0  0
 51120  1  0  0  0
 52121  1  0  0  0
 52122  1  0  0  0
 53 54  1  0  0  0
 54 55  2  0  0  0
 54123  1  0  0  0
 55 57  1  0  0  0
 55124  1  0  0  0
 56 69  2  0  0  0
 57 58  2  0  0  0
 57125  1  0  0  0
 58126  1  0  0  0
 59 60  1  0  0  0
 59 61  1  0  0  0
 59 62  1  0  0  0
 60127  1  0  0  0
 60128  1  0  0  0
 60129  1  0  0  0
 61130  1  0  0  0
 61131  1  0  0  0
 61132  1  0  0  0
 62133  1  0  0  0
 62134  1  0  0  0
 62135  1  0  0  0
 63 65  1  0  0  0
 63136  1  0  0  0
 63137  1  0  0  0
 63138  1  0  0  0
 64139  1  0  0  0
 65140  1  0  0  0
 68 77  1  0  0  0
 71 72  2  0  0  0
 71 74  1  0  0  0
 71141  1  0  0  0
 72 75  1  0  0  0
 72142  1  0  0  0
 73 74  2  0  0  0
 73 76  1  0  0  0
 73143  1  0  0  0
 74 79  1  0  0  0
 75 76  2  0  0  0
 75 80  1  0  0  0
 76 81  1  0  0  0
 77 78  1  0  0  0
 77144  1  0  0  0
 77145  1  0  0  0
 78 80  1  0  0  0
 78146  1  0  0  0
 78147  1  0  0  0
 79148  1  0  0  0
M  ISO  4   1 100  68 101  77 101  79 100
M  END
> <chiral flag>
0

> <version>
0

> <s_m_source_file>
/data/baiqing/PycharmProjects/Reinvent-master-3.2/result/LINK_invent/BTK/process_docking_weight1_custom_product_contain_oxygen_bond_distance_aromatic_linkinvent_7_9_3/rearranged_h_0010.sdf

> <i_m_source_file_index>
17

> <r_mmod_Potential_Energy-OPLS-2005>
491.091247558594

> <r_mmod_Stretch_Energy-OPLS-2005>
216.953765869141

> <r_mmod_Bend_Energy-OPLS-2005>
302.484619140625

> <r_mmod_Torsional_Energy-OPLS-2005>
212.021713256836

> <r_mmod_Improper_Torsional_Energy-OPLS-2005>
4.76716709136963

> <r_mmod_Van_der_Waal_Energy-OPLS-2005>
130.573699951172

> <r_mmod_Electrostatic_Energy-OPLS-2005>
-337.487060546875

> <r_mmod_Solvation_Energy-OPLS-2005>
-212.451721191406

> <b_mmod_Minimization_Converged-OPLS-2005>
0

> <r_mmod_RMS_Derivative-OPLS-2005>
0.366873770952225

$$$$
17
                    3D
 Structure written by MMmdl.
169178  0  0  1  0            999 V2000
  -30.6365  -14.6477   20.4754 C   0  0  0  0  0  0
  -30.4398  -12.3933   19.4497 C   0  0  0  0  0  0
  -29.5012  -12.4975   18.2269 C   0  0  0  0  0  0
  -28.0273  -12.3317   18.6493 C   0  0  0  0  0  0
  -27.6506  -13.2080   19.8737 C   0  0  2  0  0  0
  -28.7078  -13.0899   20.9965 C   0  0  0  0  0  0
  -25.2487  -13.8033   20.5797 C   0  0  0  0  0  0
  -24.1735  -13.0302   20.9120 C   0  0  0  0  0  0
  -24.6355  -11.6805   20.8715 C   0  0  0  0  0  0
  -23.9037  -10.4220   21.0393 C   0  0  0  0  0  0
  -24.3601   -9.4152   21.9180 C   0  0  0  0  0  0
  -23.6273   -8.2204   22.0755 C   0  0  0  0  0  0
  -22.4256   -8.0250   21.3543 C   0  0  0  0  0  0
  -21.9880   -9.0217   20.4648 C   0  0  0  0  0  0
  -22.7214  -10.2081   20.3044 C   0  0  0  0  0  0
  -21.6840   -6.0729   22.5289 C   0  0  0  0  0  0
  -21.4004   -6.5639   23.8219 C   0  0  0  0  0  0
  -21.3656   -5.6796   24.9182 C   0  0  0  0  0  0
  -21.6042   -4.3057   24.7233 C   0  0  0  0  0  0
  -21.8821   -3.8146   23.4355 C   0  0  0  0  0  0
  -21.9186   -4.6959   22.3407 C   0  0  0  0  0  0
  -22.7786  -13.5149   21.1816 C   0  0  0  0  0  0
  -22.1661   -4.2144   21.0987 F   0  0  0  0  0  0
  -21.5624   -3.4545   25.7747 F   0  0  0  0  0  0
  -30.0193  -13.4249   20.4171 N   0  0  0  0  0  0
  -26.2979  -12.9264   20.3486 N   0  0  0  0  0  0
  -25.9305  -11.6424   20.5825 N   0  0  0  0  0  0
  -22.0413  -12.8182   22.0389 N   0  0  0  0  0  0
  -25.4134  -15.1752   20.4539 N   0  0  0  0  0  0
  -31.8105  -14.7984   20.1324 O   0  0  0  0  0  0
  -21.6611   -6.8862   21.4253 O   0  0  0  0  0  0
  -22.3556  -14.5526   20.6734 O   0  0  0  0  0  0
  -24.6247  -31.8614   23.2037 C   0  0  0  0  0  0
  -25.9099  -32.4790   23.8361 C   0  0  1  0  0  0
  -27.2296  -27.3355   20.1102 C   0  0  0  0  0  0
  -25.5914  -33.8590   24.2284 N   0  0  0  0  0  0
  -23.4173  -30.4859   21.5465 C   0  0  2  0  0  0
  -24.8635  -28.9428   20.1120 C   0  0  0  0  0  0
  -22.7456  -29.4635   22.4936 C   0  0  0  0  0  0
  -18.0289  -28.1378   22.8491 C   0  0  0  0  0  0
  -24.1485  -36.7301   23.2638 C   0  0  0  0  0  0
  -25.9566  -30.7981   21.3708 C   0  0  0  0  0  0
  -26.0321  -29.4265   20.7124 C   0  0  0  0  0  0
  -27.2177  -28.6354   20.7008 C   0  0  0  0  0  0
  -26.0341  -26.9004   19.4887 C   0  0  0  0  0  0
  -24.8656  -27.6843   19.4927 C   0  0  0  0  0  0
  -23.6304  -29.8213   20.1613 C   0  0  0  0  0  0
  -25.4110  -36.3092   24.0330 C   0  0  1  0  0  0
  -20.5883  -28.3683   23.1284 C   0  0  2  0  0  0
  -20.6771  -26.9409   22.5401 C   0  0  0  0  0  0
  -19.5751  -26.6383   21.5200 C   0  0  0  0  0  0
  -18.1934  -26.7926   22.1620 C   0  0  0  0  0  0
  -19.1539  -28.8846   23.2888 C   0  0  0  0  0  0
  -18.9463  -30.1445   23.8911 C   0  0  0  0  0  0
  -17.6466  -30.6584   24.0560 C   0  0  0  0  0  0
  -25.9046  -34.9458   23.5107 C   0  0  0  0  0  0
  -16.5357  -29.9086   23.6323 C   0  0  0  0  0  0
  -16.7276  -28.6496   23.0357 C   0  0  0  0  0  0
  -26.4491  -31.6601   25.0726 C   0  0  0  0  0  0
  -25.3734  -31.3735   26.1460 C   0  0  0  0  0  0
  -27.0321  -30.3032   24.6153 C   0  0  0  0  0  0
  -27.6055  -32.4330   25.7491 C   0  0  0  0  0  0
  -27.5580  -37.1804   24.8465 C   0  0  0  0  0  0
  -21.4172  -29.3048   22.3683 N   0  0  0  0  0  0
  -26.4291  -37.3784   23.9410 N   0  0  0  0  0  0
  -24.6851  -31.0636   22.0980 N   0  0  0  0  0  0
  -23.4185  -28.8168   23.3005 O   0  0  0  0  0  0
  -28.3615  -26.5065   20.1568 O   0  0  0  0  0  0
  -26.5615  -34.8924   22.4671 O   0  0  0  0  0  0
  -23.5414  -32.1398   23.7378 O   0  0  0  0  0  0
  -31.1404  -19.2841   21.0767 C   0  0  0  0  0  0
  -31.0714  -17.8597   21.0891 C   0  0  0  0  0  0
  -29.0283  -19.4056   19.9428 C   0  0  0  0  0  0
  -30.1190  -20.1008   20.5169 C   0  0  0  0  0  0
  -28.9447  -17.9775   19.9517 C   0  0  0  0  0  0
  -29.9642  -17.1610   20.5454 C   0  0  0  0  0  0
  -27.7036  -17.5564   15.5870 C   0  0  0  0  0  0
  -26.5173  -16.6583   15.9266 C   0  0  0  0  0  0
  -28.1367  -18.0834   16.9544 C   0  0  0  0  0  0
  -26.8233  -16.1257   17.3336 C   0  0  0  0  0  0
  -27.7092  -17.3552   19.3127 C   0  0  0  0  0  0
  -30.2838  -21.6678   20.5058 C   0  0  0  0  0  0
  -29.3700  -24.0799   20.3871 C   0  0  0  0  0  0
  -28.1638  -25.0469   20.0293 C   0  0  0  0  0  0
  -29.7978  -15.7102   20.6924 N   0  0  0  0  0  0
  -27.9116  -16.9652   17.8954 N   0  3  0  0  0  0
  -29.0920  -22.5812   20.3258 N   0  3  0  0  0  0
  -31.4791  -12.5172   19.1397 H   0  0  0  0  0  0
  -30.3766  -11.4027   19.9031 H   0  0  0  0  0  0
  -29.7619  -11.7395   17.4871 H   0  0  0  0  0  0
  -29.6389  -13.4616   17.7372 H   0  0  0  0  0  0
  -27.8754  -11.2793   18.8917 H   0  0  0  0  0  0
  -27.3652  -12.5471   17.8102 H   0  0  0  0  0  0
  -27.6519  -14.2350   19.5197 H   0  0  0  0  0  0
  -28.7278  -12.0778   21.4035 H   0  0  0  0  0  0
  -28.4605  -13.7418   21.8365 H   0  0  0  0  0  0
  -25.2747   -9.5637   22.4745 H   0  0  0  0  0  0
  -23.9974   -7.4606   22.7484 H   0  0  0  0  0  0
  -21.0800   -8.8753   19.8971 H   0  0  0  0  0  0
  -22.3684  -10.9627   19.6151 H   0  0  0  0  0  0
  -21.1998   -7.6150   23.9725 H   0  0  0  0  0  0
  -21.1472   -6.0525   25.9086 H   0  0  0  0  0  0
  -22.0598   -2.7608   23.2860 H   0  0  0  0  0  0
  -22.3961  -11.9797   22.4738 H   0  0  0  0  0  0
  -21.1063  -13.1276   22.2642 H   0  0  0  0  0  0
  -24.5565  -15.6708   20.6775 H   0  0  0  0  0  0
  -26.1528  -15.5088   21.0575 H   0  0  0  0  0  0
  -26.7162  -32.5467   23.1110 H   0  0  0  0  0  0
  -25.0056  -33.9735   25.0424 H   0  0  0  0  0  0
  -22.7114  -31.3067   21.4044 H   0  0  0  0  0  0
  -23.3743  -35.9637   23.3304 H   0  0  0  0  0  0
  -24.3576  -36.8915   22.2050 H   0  0  0  0  0  0
  -23.7237  -37.6506   23.6654 H   0  0  0  0  0  0
  -26.0821  -31.5633   20.6036 H   0  0  0  0  0  0
  -26.8390  -30.8481   21.9969 H   0  0  0  0  0  0
  -28.1153  -29.0049   21.1766 H   0  0  0  0  0  0
  -25.9690  -25.9425   18.9955 H   0  0  0  0  0  0
  -23.9687  -27.3084   19.0186 H   0  0  0  0  0  0
  -23.7487  -30.5982   19.4054 H   0  0  0  0  0  0
  -22.7505  -29.2513   19.8593 H   0  0  0  0  0  0
  -25.1288  -36.1947   25.0823 H   0  0  0  0  0  0
  -20.9984  -28.3252   24.1401 H   0  0  0  0  0  0
  -20.5651  -26.2297   23.3599 H   0  0  0  0  0  0
  -21.6646  -26.7426   22.1211 H   0  0  0  0  0  0
  -19.6912  -25.6292   21.1238 H   0  0  0  0  0  0
  -19.6688  -27.3184   20.6722 H   0  0  0  0  0  0
  -17.4195  -26.6662   21.4031 H   0  0  0  0  0  0
  -18.0352  -26.0062   22.9014 H   0  0  0  0  0  0
  -19.7940  -30.7250   24.2293 H   0  0  0  0  0  0
  -17.5024  -31.6273   24.5150 H   0  0  0  0  0  0
  -15.5358  -30.2995   23.7635 H   0  0  0  0  0  0
  -15.8677  -28.0812   22.7079 H   0  0  0  0  0  0
  -24.5897  -30.7096   25.7795 H   0  0  0  0  0  0
  -24.8940  -32.2901   26.4907 H   0  0  0  0  0  0
  -25.8068  -30.8899   27.0222 H   0  0  0  0  0  0
  -26.2883  -29.6796   24.1182 H   0  0  0  0  0  0
  -27.4037  -29.7276   25.4638 H   0  0  0  0  0  0
  -27.8744  -30.4332   23.9354 H   0  0  0  0  0  0
  -27.2670  -33.3618   26.2091 H   0  0  0  0  0  0
  -28.3854  -32.6910   25.0316 H   0  0  0  0  0  0
  -28.0737  -31.8444   26.5388 H   0  0  0  0  0  0
  -28.2603  -38.0097   24.7508 H   0  0  0  0  0  0
  -28.1069  -36.2628   24.6292 H   0  0  0  0  0  0
  -27.2301  -37.1457   25.8869 H   0  0  0  0  0  0
  -20.9336  -29.8789   21.6918 H   0  0  0  0  0  0
  -26.0175  -38.2859   24.1410 H   0  0  0  0  0  0
  -32.0086  -19.7565   21.5157 H   0  0  0  0  0  0
  -31.8749  -17.3076   21.5566 H   0  0  0  0  0  0
  -28.2256  -19.9704   19.4894 H   0  0  0  0  0  0
  -27.4469  -18.3535   14.8884 H   0  0  0  0  0  0
  -28.5058  -16.9664   15.1410 H   0  0  0  0  0  0
  -26.3679  -15.8612   15.1972 H   0  0  0  0  0  0
  -25.6028  -17.2520   15.9534 H   0  0  0  0  0  0
  -27.5083  -18.9330   17.2281 H   0  0  0  0  0  0
  -29.1736  -18.4208   16.9624 H   0  0  0  0  0  0
  -27.1561  -15.0890   17.2922 H   0  0  0  0  0  0
  -25.9216  -16.1504   17.9464 H   0  0  0  0  0  0
  -26.8533  -18.0257   19.4053 H   0  0  0  0  0  0
  -27.4579  -16.4777   19.8943 H   0  0  0  0  0  0
  -31.0075  -21.9073   19.7258 H   0  0  0  0  0  0
  -30.7618  -21.9473   21.4459 H   0  0  0  0  0  0
  -29.7228  -24.3188   21.3906 H   0  0  0  0  0  0
  -30.1980  -24.3042   19.7145 H   0  0  0  0  0  0
  -27.3181  -24.7627   20.6569 H   0  0  0  0  0  0
  -27.8741  -24.8361   18.9995 H   0  0  0  0  0  0
  -28.8656  -15.4047   20.9186 H   0  0  0  0  0  0
  -28.7449  -16.3973   17.8609 H   0  0  0  0  0  0
  -28.4164  -22.3450   21.0358 H   0  0  0  0  0  0
  -28.6827  -22.3667   19.4317 H   0  0  0  0  0  0
  1 25  1  0  0  0
  1 30  2  0  0  0
  1 85  1  0  0  0
  2  3  1  0  0  0
  2 25  1  0  0  0
  2 88  1  0  0  0
  2 89  1  0  0  0
  3  4  1  0  0  0
  3 90  1  0  0  0
  3 91  1  0  0  0
  4  5  1  0  0  0
  4 92  1  0  0  0
  4 93  1  0  0  0
  5  6  1  0  0  0
  5 26  1  0  0  0
  5 94  1  0  0  0
  6 25  1  0  0  0
  6 95  1  0  0  0
  6 96  1  0  0  0
  7  8  2  0  0  0
  7 26  1  0  0  0
  7 29  1  0  0  0
  8  9  1  0  0  0
  8 22  1  0  0  0
  9 10  1  0  0  0
  9 27  2  0  0  0
 10 11  2  0  0  0
 10 15  1  0  0  0
 11 12  1  0  0  0
 11 97  1  0  0  0
 12 13  2  0  0  0
 12 98  1  0  0  0
 13 14  1  0  0  0
 13 31  1  0  0  0
 14 15  2  0  0  0
 14 99  1  0  0  0
 15100  1  0  0  0
 16 17  2  0  0  0
 16 21  1  0  0  0
 16 31  1  0  0  0
 17 18  1  0  0  0
 17101  1  0  0  0
 18 19  2  0  0  0
 18102  1  0  0  0
 19 20  1  0  0  0
 19 24  1  0  0  0
 20 21  2  0  0  0
 20103  1  0  0  0
 21 23  1  0  0  0
 22 28  1  0  0  0
 22 32  2  0  0  0
 26 27  1  0  0  0
 28104  1  0  0  0
 28105  1  0  0  0
 29106  1  0  0  0
 29107  1  0  0  0
 33 34  1  0  0  0
 33 66  1  0  0  0
 33 70  2  0  0  0
 34 36  1  0  0  0
 34 59  1  0  0  0
 34108  1  0  0  0
 35 44  2  0  0  0
 35 45  1  0  0  0
 35 68  1  0  0  0
 36 56  1  0  0  0
 36109  1  0  0  0
 37 39  1  0  0  0
 37 47  1  0  0  0
 37 66  1  0  0  0
 37110  1  0  0  0
 38 43  2  0  0  0
 38 46  1  0  0  0
 38 47  1  0  0  0
 39 64  1  0  0  0
 39 67  2  0  0  0
 40 52  1  0  0  0
 40 53  2  0  0  0
 40 58  1  0  0  0
 41111  1  0  0  0
 41112  1  0  0  0
 41113  1  0  0  0
 41 48  1  0  0  0
 42 43  1  0  0  0
 42 66  1  0  0  0
 42114  1  0  0  0
 42115  1  0  0  0
 43 44  1  0  0  0
 44116  1  0  0  0
 45 46  2  0  0  0
 45117  1  0  0  0
 46118  1  0  0  0
 47119  1  0  0  0
 47120  1  0  0  0
 48 56  1  0  0  0
 48 65  1  0  0  0
 48121  1  0  0  0
 49 50  1  0  0  0
 49 53  1  0  0  0
 49 64  1  0  0  0
 49122  1  0  0  0
 50 51  1  0  0  0
 50123  1  0  0  0
 50124  1  0  0  0
 51 52  1  0  0  0
 51125  1  0  0  0
 51126  1  0  0  0
 52127  1  0  0  0
 52128  1  0  0  0
 53 54  1  0  0  0
 54 55  2  0  0  0
 54129  1  0  0  0
 55 57  1  0  0  0
 55130  1  0  0  0
 56 69  2  0  0  0
 57 58  2  0  0  0
 57131  1  0  0  0
 58132  1  0  0  0
 59 60  1  0  0  0
 59 61  1  0  0  0
 59 62  1  0  0  0
 60133  1  0  0  0
 60134  1  0  0  0
 60135  1  0  0  0
 61136  1  0  0  0
 61137  1  0  0  0
 61138  1  0  0  0
 62139  1  0  0  0
 62140  1  0  0  0
 62141  1  0  0  0
 63 65  1  0  0  0
 63142  1  0  0  0
 63143  1  0  0  0
 63144  1  0  0  0
 64145  1  0  0  0
 65146  1  0  0  0
 68 84  1  0  0  0
 71 72  2  0  0  0
 71 74  1  0  0  0
 71147  1  0  0  0
 72 76  1  0  0  0
 72148  1  0  0  0
 73 74  2  0  0  0
 73 75  1  0  0  0
 73149  1  0  0  0
 74 82  1  0  0  0
 75 76  2  0  0  0
 75 81  1  0  0  0
 76 85  1  0  0  0
 77 78  1  0  0  0
 77 79  1  0  0  0
 77150  1  0  0  0
 77151  1  0  0  0
 78 80  1  0  0  0
 78152  1  0  0  0
 78153  1  0  0  0
 79 86  1  0  0  0
 79154  1  0  0  0
 79155  1  0  0  0
 80 86  1  0  0  0
 80156  1  0  0  0
 80157  1  0  0  0
 81158  1  0  0  0
 81159  1  0  0  0
 81 86  1  0  0  0
 82 87  1  0  0  0
 82160  1  0  0  0
 82161  1  0  0  0
 83 84  1  0  0  0
 83 87  1  0  0  0
 83162  1  0  0  0
 83163  1  0  0  0
 84164  1  0  0  0
 84165  1  0  0  0
 85166  1  0  0  0
 86167  1  0  0  0
 87168  1  0  0  0
 87169  1  0  0  0
M  CHG  2  86   1  87   1
M  ISO  4   1 100  68 101  84 101  85 100
M  END
> <chiral flag>
0

> <version>
0

> <s_m_source_file>
/data/baiqing/PycharmProjects/Reinvent-master-3.2/result/LINK_invent/BTK/process_docking_weight1_custom_product_contain_oxygen_bond_distance_aromatic_linkinvent_7_9_3/rearranged_h_0010.sdf

> <i_m_source_file_index>
18

> <r_mmod_Potential_Energy-OPLS-2005>
-154.675033569336

> <r_mmod_Stretch_Energy-OPLS-2005>
76.8672866821289

> <r_mmod_Bend_Energy-OPLS-2005>
150.108489990234

> <r_mmod_Torsional_Energy-OPLS-2005>
294.943237304688

> <r_mmod_Improper_Torsional_Energy-OPLS-2005>
12.1221008300781

> <r_mmod_Van_der_Waal_Energy-OPLS-2005>
129.760208129883

> <r_mmod_Electrostatic_Energy-OPLS-2005>
38.8101043701172

> <r_mmod_Solvation_Energy-OPLS-2005>
-904.715270996094

> <b_mmod_Minimization_Converged-OPLS-2005>
0

> <r_mmod_RMS_Derivative-OPLS-2005>
1.62949502468109

$$$$
18
                    3D
 Structure written by MMmdl.
151159  0  0  1  0            999 V2000
  -30.5519  -14.9058   20.4293 C   0  0  0  0  0  0
  -30.4466  -12.5293   19.5087 C   0  0  0  0  0  0
  -29.5289  -12.5305   18.2625 C   0  0  0  0  0  0
  -28.0549  -12.3303   18.6667 C   0  0  0  0  0  0
  -27.6347  -13.2469   19.8460 C   0  0  2  0  0  0
  -28.6646  -13.2326   20.9930 C   0  0  0  0  0  0
  -25.2473  -13.8221   20.5703 C   0  0  0  0  0  0
  -24.1773  -13.0445   20.9183 C   0  0  0  0  0  0
  -24.6387  -11.6928   20.8717 C   0  0  0  0  0  0
  -23.9075  -10.4297   21.0390 C   0  0  0  0  0  0
  -24.3625   -9.4215   21.9174 C   0  0  0  0  0  0
  -23.6298   -8.2251   22.0753 C   0  0  0  0  0  0
  -22.4278   -8.0284   21.3546 C   0  0  0  0  0  0
  -21.9913   -9.0253   20.4646 C   0  0  0  0  0  0
  -22.7243  -10.2130   20.3047 C   0  0  0  0  0  0
  -21.6858   -6.0736   22.5278 C   0  0  0  0  0  0
  -21.4018   -6.5639   23.8211 C   0  0  0  0  0  0
  -21.3662   -5.6792   24.9174 C   0  0  0  0  0  0
  -21.6045   -4.3054   24.7225 C   0  0  0  0  0  0
  -21.8820   -3.8147   23.4347 C   0  0  0  0  0  0
  -21.9195   -4.6963   22.3402 C   0  0  0  0  0  0
  -22.7798  -13.5214   21.1863 C   0  0  0  0  0  0
  -22.1661   -4.2148   21.0980 F   0  0  0  0  0  0
  -21.5631   -3.4539   25.7739 F   0  0  0  0  0  0
  -29.9659  -13.5928   20.4265 N   0  0  0  0  0  0
  -26.2894  -12.9453   20.3233 N   0  0  0  0  0  0
  -25.9319  -11.6578   20.5703 N   0  0  0  0  0  0
  -22.0460  -12.8198   22.0427 N   0  0  0  0  0  0
  -25.4184  -15.1950   20.4213 N   0  0  0  0  0  0
  -31.7189  -15.0645   20.0595 O   0  0  0  0  0  0
  -21.6646   -6.8878   21.4240 O   0  0  0  0  0  0
  -22.3473  -14.5521   20.6722 O   0  0  0  0  0  0
  -24.6418  -31.8451   23.1893 C   0  0  0  0  0  0
  -25.9195  -32.4702   23.8280 C   0  0  1  0  0  0
  -27.2197  -27.1503   20.1471 C   0  0  0  0  0  0
  -25.5948  -33.8508   24.2194 N   0  0  0  0  0  0
  -23.4452  -30.4643   21.5344 C   0  0  2  0  0  0
  -24.8956  -28.8948   20.1077 C   0  0  0  0  0  0
  -22.7559  -29.4549   22.4862 C   0  0  0  0  0  0
  -18.0302  -28.1396   22.8480 C   0  0  0  0  0  0
  -24.1492  -36.7257   23.2642 C   0  0  0  0  0  0
  -26.0001  -30.7222   21.3875 C   0  0  0  0  0  0
  -26.0711  -29.3351   20.7285 C   0  0  0  0  0  0
  -27.2329  -28.4778   20.7338 C   0  0  0  0  0  0
  -26.0210  -26.8128   19.4794 C   0  0  0  0  0  0
  -24.8826  -27.6465   19.4681 C   0  0  0  0  0  0
  -23.6710  -29.7944   20.1531 C   0  0  0  0  0  0
  -25.4124  -36.3036   24.0316 C   0  0  1  0  0  0
  -20.5913  -28.3721   23.1239 C   0  0  2  0  0  0
  -20.6787  -26.9425   22.5405 C   0  0  0  0  0  0
  -19.5760  -26.6382   21.5213 C   0  0  0  0  0  0
  -18.1941  -26.7935   22.1623 C   0  0  0  0  0  0
  -19.1558  -28.8876   23.2853 C   0  0  0  0  0  0
  -18.9475  -30.1472   23.8879 C   0  0  0  0  0  0
  -17.6473  -30.6594   24.0559 C   0  0  0  0  0  0
  -25.9073  -34.9411   23.5065 C   0  0  0  0  0  0
  -16.5364  -29.9087   23.6337 C   0  0  0  0  0  0
  -16.7287  -28.6504   23.0361 C   0  0  0  0  0  0
  -26.4522  -31.6568   25.0718 C   0  0  0  0  0  0
  -25.3708  -31.3752   26.1414 C   0  0  0  0  0  0
  -27.0391  -30.2966   24.6296 C   0  0  0  0  0  0
  -27.6052  -32.4336   25.7504 C   0  0  0  0  0  0
  -27.5576  -37.1785   24.8465 C   0  0  0  0  0  0
  -21.4252  -29.3047   22.3611 N   0  0  0  0  0  0
  -26.4288  -37.3748   23.9407 N   0  0  0  0  0  0
  -24.7154  -31.0314   22.0924 N   0  0  0  0  0  0
  -23.4206  -28.8098   23.3012 O   0  0  0  0  0  0
  -28.2742  -26.1718   20.2358 O   0  0  0  0  0  0
  -26.5659  -34.8906   22.4643 O   0  0  0  0  0  0
  -23.5539  -32.1323   23.7120 O   0  0  0  0  0  0
  -29.7690  -19.9387   21.2465 C   0  0  0  0  0  0
  -30.0275  -18.5084   21.4072 C   0  0  0  0  0  0
  -28.6877  -19.4767   19.2097 C   0  0  0  0  0  0
  -28.9504  -18.0559   19.3565 C   0  0  0  0  0  0
  -29.0518  -20.5077   20.1402 C   0  0  0  0  0  0
  -29.6358  -17.4778   20.4765 C   0  0  0  0  0  0
  -28.4083  -17.1228   18.2880 C   0  0  0  0  0  0
  -28.9343  -23.3276   20.4563 C   0  0  0  0  0  0
  -28.0268  -24.6620   19.9689 C   0  0  0  0  0  0
  -28.6311  -21.9121   19.8881 N   0  0  0  0  0  0
  -29.6072  -16.0409   20.7563 O   0  0  0  0  0  0
  -31.4848  -12.6903   19.2137 H   0  0  0  0  0  0
  -30.4207  -11.5593   20.0076 H   0  0  0  0  0  0
  -29.8355  -11.7493   17.5657 H   0  0  0  0  0  0
  -29.6366  -13.4765   17.7294 H   0  0  0  0  0  0
  -27.9314  -11.2847   18.9510 H   0  0  0  0  0  0
  -27.4009  -12.4915   17.8091 H   0  0  0  0  0  0
  -27.6146  -14.2596   19.4433 H   0  0  0  0  0  0
  -28.7122  -12.2496   21.4636 H   0  0  0  0  0  0
  -28.3779  -13.9372   21.7750 H   0  0  0  0  0  0
  -25.2770   -9.5698   22.4745 H   0  0  0  0  0  0
  -24.0009   -7.4647   22.7474 H   0  0  0  0  0  0
  -21.0846   -8.8769   19.8951 H   0  0  0  0  0  0
  -22.3697  -10.9665   19.6155 H   0  0  0  0  0  0
  -21.2006   -7.6147   23.9715 H   0  0  0  0  0  0
  -21.1486   -6.0523   25.9077 H   0  0  0  0  0  0
  -22.0595   -2.7608   23.2851 H   0  0  0  0  0  0
  -22.4094  -11.9863   22.4808 H   0  0  0  0  0  0
  -21.1079  -13.1216   22.2651 H   0  0  0  0  0  0
  -24.6606  -15.8553   20.5565 H   0  0  0  0  0  0
  -26.2927  -15.6384   20.1714 H   0  0  0  0  0  0
  -26.7260  -32.5312   23.1008 H   0  0  0  0  0  0
  -25.0073  -33.9628   25.0327 H   0  0  0  0  0  0
  -22.7472  -31.2900   21.3810 H   0  0  0  0  0  0
  -23.3760  -35.9582   23.3293 H   0  0  0  0  0  0
  -24.3575  -36.8901   22.2059 H   0  0  0  0  0  0
  -23.7240  -37.6447   23.6687 H   0  0  0  0  0  0
  -26.1552  -31.4776   20.6161 H   0  0  0  0  0  0
  -26.8703  -30.7711   22.0303 H   0  0  0  0  0  0
  -28.1263  -28.8077   21.2450 H   0  0  0  0  0  0
  -25.9279  -25.8620   18.9764 H   0  0  0  0  0  0
  -23.9862  -27.3064   18.9678 H   0  0  0  0  0  0
  -23.8053  -30.5694   19.3975 H   0  0  0  0  0  0
  -22.7865  -29.2348   19.8435 H   0  0  0  0  0  0
  -25.1313  -36.1866   25.0807 H   0  0  0  0  0  0
  -21.0005  -28.3311   24.1360 H   0  0  0  0  0  0
  -20.5684  -26.2334   23.3624 H   0  0  0  0  0  0
  -21.6653  -26.7436   22.1203 H   0  0  0  0  0  0
  -19.6924  -25.6287   21.1258 H   0  0  0  0  0  0
  -19.6698  -27.3180   20.6734 H   0  0  0  0  0  0
  -17.4210  -26.6681   21.4026 H   0  0  0  0  0  0
  -18.0342  -26.0083   22.9026 H   0  0  0  0  0  0
  -19.7949  -30.7294   24.2241 H   0  0  0  0  0  0
  -17.5025  -31.6273   24.5163 H   0  0  0  0  0  0
  -15.5363  -30.2984   23.7671 H   0  0  0  0  0  0
  -15.8686  -28.0815   22.7092 H   0  0  0  0  0  0
  -24.5893  -30.7097   25.7729 H   0  0  0  0  0  0
  -24.8892  -32.2933   26.4788 H   0  0  0  0  0  0
  -25.7992  -30.8956   27.0223 H   0  0  0  0  0  0
  -26.3009  -29.6688   24.1293 H   0  0  0  0  0  0
  -27.3995  -29.7267   25.4869 H   0  0  0  0  0  0
  -27.8919  -30.4205   23.9618 H   0  0  0  0  0  0
  -27.2643  -33.3653   26.2030 H   0  0  0  0  0  0
  -28.3889  -32.6872   25.0352 H   0  0  0  0  0  0
  -28.0692  -31.8497   26.5462 H   0  0  0  0  0  0
  -28.2586  -38.0090   24.7515 H   0  0  0  0  0  0
  -28.1081  -36.2619   24.6291 H   0  0  0  0  0  0
  -27.2293  -37.1432   25.8868 H   0  0  0  0  0  0
  -20.9460  -29.8759   21.6790 H   0  0  0  0  0  0
  -26.0156  -38.2815   24.1412 H   0  0  0  0  0  0
  -30.0989  -20.6009   22.0342 H   0  0  0  0  0  0
  -30.5089  -18.1941   22.3221 H   0  0  0  0  0  0
  -28.1361  -19.7810   18.3314 H   0  0  0  0  0  0
  -28.2563  -17.6458   17.3435 H   0  0  0  0  0  0
  -27.4519  -16.7050   18.6013 H   0  0  0  0  0  0
  -29.0965  -16.2989   18.0978 H   0  0  0  0  0  0
  -28.8936  -23.2659   21.5445 H   0  0  0  0  0  0
  -29.9780  -23.5379   20.2195 H   0  0  0  0  0  0
  -27.0229  -24.4524   20.3385 H   0  0  0  0  0  0
  -27.9513  -24.5899   18.8835 H   0  0  0  0  0  0
  -28.0473  -21.9866   19.0580 H   0  0  0  0  0  0
  1 25  1  0  0  0
  1 30  2  0  0  0
  1 81  1  0  0  0
  2  3  1  0  0  0
  2 25  1  0  0  0
  2 82  1  0  0  0
  2 83  1  0  0  0
  3  4  1  0  0  0
  3 84  1  0  0  0
  3 85  1  0  0  0
  4  5  1  0  0  0
  4 86  1  0  0  0
  4 87  1  0  0  0
  5  6  1  0  0  0
  5 26  1  0  0  0
  5 88  1  0  0  0
  6 25  1  0  0  0
  6 89  1  0  0  0
  6 90  1  0  0  0
  7  8  2  0  0  0
  7 26  1  0  0  0
  7 29  1  0  0  0
  8  9  1  0  0  0
  8 22  1  0  0  0
  9 10  1  0  0  0
  9 27  2  0  0  0
 10 11  2  0  0  0
 10 15  1  0  0  0
 11 12  1  0  0  0
 11 91  1  0  0  0
 12 13  2  0  0  0
 12 92  1  0  0  0
 13 14  1  0  0  0
 13 31  1  0  0  0
 14 15  2  0  0  0
 14 93  1  0  0  0
 15 94  1  0  0  0
 16 17  2  0  0  0
 16 21  1  0  0  0
 16 31  1  0  0  0
 17 18  1  0  0  0
 17 95  1  0  0  0
 18 19  2  0  0  0
 18 96  1  0  0  0
 19 20  1  0  0  0
 19 24  1  0  0  0
 20 21  2  0  0  0
 20 97  1  0  0  0
 21 23  1  0  0  0
 22 28  1  0  0  0
 22 32  2  0  0  0
 26 27  1  0  0  0
 28 98  1  0  0  0
 28 99  1  0  0  0
 29100  1  0  0  0
 29101  1  0  0  0
 33 34  1  0  0  0
 33 66  1  0  0  0
 33 70  2  0  0  0
 34 36  1  0  0  0
 34 59  1  0  0  0
 34102  1  0  0  0
 35 44  2  0  0  0
 35 45  1  0  0  0
 35 68  1  0  0  0
 36 56  1  0  0  0
 36103  1  0  0  0
 37 39  1  0  0  0
 37 47  1  0  0  0
 37 66  1  0  0  0
 37104  1  0  0  0
 38 43  2  0  0  0
 38 46  1  0  0  0
 38 47  1  0  0  0
 39 64  1  0  0  0
 39 67  2  0  0  0
 40 52  1  0  0  0
 40 53  2  0  0  0
 40 58  1  0  0  0
 41105  1  0  0  0
 41106  1  0  0  0
 41107  1  0  0  0
 41 48  1  0  0  0
 42 43  1  0  0  0
 42 66  1  0  0  0
 42108  1  0  0  0
 42109  1  0  0  0
 43 44  1  0  0  0
 44110  1  0  0  0
 45 46  2  0  0  0
 45111  1  0  0  0
 46112  1  0  0  0
 47113  1  0  0  0
 47114  1  0  0  0
 48 56  1  0  0  0
 48 65  1  0  0  0
 48115  1  0  0  0
 49 50  1  0  0  0
 49 53  1  0  0  0
 49 64  1  0  0  0
 49116  1  0  0  0
 50 51  1  0  0  0
 50117  1  0  0  0
 50118  1  0  0  0
 51 52  1  0  0  0
 51119  1  0  0  0
 51120  1  0  0  0
 52121  1  0  0  0
 52122  1  0  0  0
 53 54  1  0  0  0
 54 55  2  0  0  0
 54123  1  0  0  0
 55 57  1  0  0  0
 55124  1  0  0  0
 56 69  2  0  0  0
 57 58  2  0  0  0
 57125  1  0  0  0
 58126  1  0  0  0
 59 60  1  0  0  0
 59 61  1  0  0  0
 59 62  1  0  0  0
 60127  1  0  0  0
 60128  1  0  0  0
 60129  1  0  0  0
 61130  1  0  0  0
 61131  1  0  0  0
 61132  1  0  0  0
 62133  1  0  0  0
 62134  1  0  0  0
 62135  1  0  0  0
 63 65  1  0  0  0
 63136  1  0  0  0
 63137  1  0  0  0
 63138  1  0  0  0
 64139  1  0  0  0
 65140  1  0  0  0
 68 79  1  0  0  0
 71 72  2  0  0  0
 71 75  1  0  0  0
 71141  1  0  0  0
 72 76  1  0  0  0
 72142  1  0  0  0
 73 74  1  0  0  0
 73 75  2  0  0  0
 73143  1  0  0  0
 74 76  2  0  0  0
 74 77  1  0  0  0
 75 80  1  0  0  0
 76 81  1  0  0  0
 77144  1  0  0  0
 77145  1  0  0  0
 77146  1  0  0  0
 78 79  1  0  0  0
 78 80  1  0  0  0
 78147  1  0  0  0
 78148  1  0  0  0
 79149  1  0  0  0
 79150  1  0  0  0
 80151  1  0  0  0
M  ISO  4   1 100  68 101  79 101  81 100
M  END
> <chiral flag>
0

> <version>
0

> <s_m_source_file>
/data/baiqing/PycharmProjects/Reinvent-master-3.2/result/LINK_invent/BTK/process_docking_weight1_custom_product_contain_oxygen_bond_distance_aromatic_linkinvent_7_9_3/rearranged_h_0010.sdf

> <i_m_source_file_index>
19

> <r_mmod_Potential_Energy-OPLS-2005>
447.419982910156

> <r_mmod_Stretch_Energy-OPLS-2005>
223.260238647461

> <r_mmod_Bend_Energy-OPLS-2005>
269.424041748047

> <r_mmod_Torsional_Energy-OPLS-2005>
175.270965576172

> <r_mmod_Improper_Torsional_Energy-OPLS-2005>
6.25090456008911

> <r_mmod_Van_der_Waal_Energy-OPLS-2005>
125.006042480469

> <r_mmod_Electrostatic_Energy-OPLS-2005>
-312.056579589844

> <r_mmod_Solvation_Energy-OPLS-2005>
-209.550857543945

> <b_mmod_Minimization_Converged-OPLS-2005>
0

> <r_mmod_RMS_Derivative-OPLS-2005>
0.353348076343536

$$$$
19
                    3D
 Structure written by MMmdl.
153161  0  0  1  0            999 V2000
  -30.5134  -15.0665   20.3890 C   0  0  0  0  0  0
  -30.4585  -12.6588   19.5178 C   0  0  0  0  0  0
  -29.5456  -12.4873   18.2768 C   0  0  0  0  0  0
  -28.0975  -12.1923   18.7132 C   0  0  0  0  0  0
  -27.6208  -13.1853   19.7918 C   0  0  2  0  0  0
  -28.6546  -13.3218   20.9410 C   0  0  0  0  0  0
  -25.2385  -13.7918   20.5411 C   0  0  0  0  0  0
  -24.1731  -13.0257   20.9199 C   0  0  0  0  0  0
  -24.6344  -11.6771   20.8758 C   0  0  0  0  0  0
  -23.9025  -10.4195   21.0450 C   0  0  0  0  0  0
  -24.3589   -9.4135   21.9227 C   0  0  0  0  0  0
  -23.6254   -8.2183   22.0786 C   0  0  0  0  0  0
  -22.4238   -8.0243   21.3560 C   0  0  0  0  0  0
  -21.9881   -9.0213   20.4657 C   0  0  0  0  0  0
  -22.7219  -10.2075   20.3077 C   0  0  0  0  0  0
  -21.6827   -6.0713   22.5280 C   0  0  0  0  0  0
  -21.3988   -6.5630   23.8211 C   0  0  0  0  0  0
  -21.3648   -5.6787   24.9178 C   0  0  0  0  0  0
  -21.6046   -4.3052   24.7230 C   0  0  0  0  0  0
  -21.8822   -3.8136   23.4355 C   0  0  0  0  0  0
  -21.9188   -4.6947   22.3409 C   0  0  0  0  0  0
  -22.7782  -13.5132   21.1870 C   0  0  0  0  0  0
  -22.1665   -4.2141   21.0983 F   0  0  0  0  0  0
  -21.5632   -3.4534   25.7743 F   0  0  0  0  0  0
  -29.9277  -13.7814   20.3586 N   0  0  0  0  0  0
  -26.2800  -12.9091   20.2917 N   0  0  0  0  0  0
  -25.9233  -11.6313   20.5645 N   0  0  0  0  0  0
  -22.0395  -12.8141   22.0426 N   0  0  0  0  0  0
  -25.3725  -15.1566   20.3460 N   0  0  0  0  0  0
  -31.7326  -15.0829   20.1823 O   0  0  0  0  0  0
  -21.6604   -6.8844   21.4243 O   0  0  0  0  0  0
  -22.3522  -14.5464   20.6740 O   0  0  0  0  0  0
  -24.6430  -31.8432   23.1839 C   0  0  0  0  0  0
  -25.9189  -32.4686   23.8263 C   0  0  1  0  0  0
  -27.2488  -27.1242   20.1788 C   0  0  0  0  0  0
  -25.5917  -33.8492   24.2174 N   0  0  0  0  0  0
  -23.4497  -30.4540   21.5301 C   0  0  2  0  0  0
  -24.9057  -28.8589   20.1300 C   0  0  0  0  0  0
  -22.7566  -29.4523   22.4884 C   0  0  0  0  0  0
  -18.0315  -28.1380   22.8482 C   0  0  0  0  0  0
  -24.1477  -36.7265   23.2639 C   0  0  0  0  0  0
  -26.0018  -30.7133   21.3810 C   0  0  0  0  0  0
  -26.0810  -29.3130   20.7422 C   0  0  0  0  0  0
  -27.2525  -28.4668   20.7392 C   0  0  0  0  0  0
  -26.0409  -26.7576   19.5481 C   0  0  0  0  0  0
  -24.8968  -27.5928   19.5208 C   0  0  0  0  0  0
  -23.6816  -29.7649   20.1572 C   0  0  0  0  0  0
  -25.4108  -36.3034   24.0307 C   0  0  1  0  0  0
  -20.5934  -28.3714   23.1233 C   0  0  2  0  0  0
  -20.6791  -26.9425   22.5401 C   0  0  0  0  0  0
  -19.5762  -26.6385   21.5199 C   0  0  0  0  0  0
  -18.1949  -26.7924   22.1608 C   0  0  0  0  0  0
  -19.1574  -28.8867   23.2846 C   0  0  0  0  0  0
  -18.9488  -30.1461   23.8870 C   0  0  0  0  0  0
  -17.6489  -30.6589   24.0557 C   0  0  0  0  0  0
  -25.9066  -34.9402   23.5066 C   0  0  0  0  0  0
  -16.5379  -29.9084   23.6323 C   0  0  0  0  0  0
  -16.7304  -28.6494   23.0357 C   0  0  0  0  0  0
  -26.4505  -31.6556   25.0713 C   0  0  0  0  0  0
  -25.3682  -31.3737   26.1411 C   0  0  0  0  0  0
  -27.0363  -30.2947   24.6279 C   0  0  0  0  0  0
  -27.6051  -32.4325   25.7482 C   0  0  0  0  0  0
  -27.5578  -37.1774   24.8459 C   0  0  0  0  0  0
  -21.4274  -29.3038   22.3603 N   0  0  0  0  0  0
  -26.4274  -37.3745   23.9418 N   0  0  0  0  0  0
  -24.7180  -31.0260   22.0876 N   0  0  0  0  0  0
  -23.4196  -28.8099   23.3064 O   0  0  0  0  0  0
  -28.3742  -26.2281   20.0605 O   0  0  0  0  0  0
  -26.5686  -34.8905   22.4665 O   0  0  0  0  0  0
  -23.5539  -32.1313   23.7030 O   0  0  0  0  0  0
  -27.5498  -17.6838   20.0402 C   0  0  0  0  0  0
  -28.3245  -16.5263   20.2702 C   0  0  0  0  0  0
  -28.1004  -18.9707   20.0502 C   0  0  0  0  0  0
  -30.2534  -17.9139   20.4923 C   0  0  0  0  0  0
  -29.7271  -16.5073   20.4161 C   0  0  0  0  0  0
  -29.4493  -19.1871   20.3539 C   0  0  0  0  0  0
  -31.0010  -20.8501   21.3302 C   0  0  0  0  0  0
  -28.2950  -23.2149   20.3018 C   0  0  0  0  0  0
  -29.2816  -21.9205   19.7964 C   0  0  0  0  0  0
  -28.6309  -24.8294   20.7124 C   0  0  0  0  0  0
  -29.7788  -20.6333   20.5627 N   0  0  0  0  0  0
  -31.4852  -12.8415   19.1975 H   0  0  0  0  0  0
  -30.4923  -11.7306   20.0921 H   0  0  0  0  0  0
  -29.9172  -11.6724   17.6520 H   0  0  0  0  0  0
  -29.5818  -13.3882   17.6645 H   0  0  0  0  0  0
  -28.0825  -11.1821   19.1262 H   0  0  0  0  0  0
  -27.4213  -12.1813   17.8576 H   0  0  0  0  0  0
  -27.5430  -14.0920   19.2037 H   0  0  0  0  0  0
  -28.7862  -12.3637   21.4456 H   0  0  0  0  0  0
  -28.3098  -14.0095   21.7139 H   0  0  0  0  0  0
  -25.2735   -9.5617   22.4805 H   0  0  0  0  0  0
  -23.9954   -7.4575   22.7513 H   0  0  0  0  0  0
  -21.0817   -8.8752   19.8950 H   0  0  0  0  0  0
  -22.3706  -10.9630   19.6188 H   0  0  0  0  0  0
  -21.1960   -7.6132   23.9708 H   0  0  0  0  0  0
  -21.1468   -6.0512   25.9073 H   0  0  0  0  0  0
  -22.0604   -2.7600   23.2852 H   0  0  0  0  0  0
  -22.4007  -11.9819   22.4835 H   0  0  0  0  0  0
  -21.1029  -13.1196   22.2624 H   0  0  0  0  0  0
  -24.5476  -15.7448   20.3809 H   0  0  0  0  0  0
  -26.1118  -15.5489   19.7780 H   0  0  0  0  0  0
  -26.7266  -32.5305   23.1003 H   0  0  0  0  0  0
  -24.9963  -33.9594   25.0253 H   0  0  0  0  0  0
  -22.7513  -31.2773   21.3649 H   0  0  0  0  0  0
  -23.3737  -35.9608   23.3306 H   0  0  0  0  0  0
  -24.3549  -36.8916   22.2060 H   0  0  0  0  0  0
  -23.7255  -37.6456   23.6694 H   0  0  0  0  0  0
  -26.1427  -31.4548   20.5941 H   0  0  0  0  0  0
  -26.8753  -30.7841   22.0177 H   0  0  0  0  0  0
  -28.1638  -28.8289   21.1959 H   0  0  0  0  0  0
  -25.9821  -25.7934   19.0630 H   0  0  0  0  0  0
  -24.0001  -27.2361   19.0339 H   0  0  0  0  0  0
  -23.8206  -30.5292   19.3917 H   0  0  0  0  0  0
  -22.7953  -29.2048   19.8521 H   0  0  0  0  0  0
  -25.1292  -36.1860   25.0800 H   0  0  0  0  0  0
  -21.0005  -28.3318   24.1354 H   0  0  0  0  0  0
  -20.5676  -26.2338   23.3630 H   0  0  0  0  0  0
  -21.6660  -26.7423   22.1213 H   0  0  0  0  0  0
  -19.6930  -25.6290   21.1243 H   0  0  0  0  0  0
  -19.6699  -27.3171   20.6720 H   0  0  0  0  0  0
  -17.4228  -26.6685   21.4008 H   0  0  0  0  0  0
  -18.0337  -26.0059   22.8990 H   0  0  0  0  0  0
  -19.7977  -30.7267   24.2242 H   0  0  0  0  0  0
  -17.5058  -31.6262   24.5165 H   0  0  0  0  0  0
  -15.5379  -30.2977   23.7673 H   0  0  0  0  0  0
  -15.8699  -28.0802   22.7089 H   0  0  0  0  0  0
  -24.5895  -30.7035   25.7735 H   0  0  0  0  0  0
  -24.8799  -32.2891   26.4758 H   0  0  0  0  0  0
  -25.7960  -30.8978   27.0246 H   0  0  0  0  0  0
  -26.2961  -29.6653   24.1305 H   0  0  0  0  0  0
  -27.4000  -29.7268   25.4858 H   0  0  0  0  0  0
  -27.8865  -30.4193   23.9572 H   0  0  0  0  0  0
  -27.2699  -33.3713   26.1907 H   0  0  0  0  0  0
  -28.3916  -32.6738   25.0317 H   0  0  0  0  0  0
  -28.0637  -31.8533   26.5503 H   0  0  0  0  0  0
  -28.2560  -38.0109   24.7541 H   0  0  0  0  0  0
  -28.1124  -36.2637   24.6242 H   0  0  0  0  0  0
  -27.2307  -37.1363   25.8866 H   0  0  0  0  0  0
  -20.9511  -29.8752   21.6760 H   0  0  0  0  0  0
  -26.0145  -38.2806   24.1455 H   0  0  0  0  0  0
  -26.4827  -17.6022   19.8898 H   0  0  0  0  0  0
  -27.7815  -15.6251   20.3598 H   0  0  0  0  0  0
  -27.4383  -19.8140   19.9145 H   0  0  0  0  0  0
  -31.3161  -18.0044   20.6726 H   0  0  0  0  0  0
  -30.8482  -21.6409   22.0668 H   0  0  0  0  0  0
  -31.8098  -21.1638   20.6701 H   0  0  0  0  0  0
  -31.3373  -19.9629   21.8682 H   0  0  0  0  0  0
  -27.6202  -22.8219   21.0653 H   0  0  0  0  0  0
  -27.6211  -23.3448   19.4547 H   0  0  0  0  0  0
  -30.1757  -22.3826   19.3732 H   0  0  0  0  0  0
  -28.7747  -21.5185   18.9170 H   0  0  0  0  0  0
  -29.7151  -24.8359   20.8152 H   0  0  0  0  0  0
  -28.2914  -24.9551   21.7418 H   0  0  0  0  0  0
  1 25  1  0  0  0
  1 30  2  0  0  0
  1 75  1  0  0  0
  2  3  1  0  0  0
  2 25  1  0  0  0
  2 82  1  0  0  0
  2 83  1  0  0  0
  3  4  1  0  0  0
  3 84  1  0  0  0
  3 85  1  0  0  0
  4  5  1  0  0  0
  4 86  1  0  0  0
  4 87  1  0  0  0
  5  6  1  0  0  0
  5 26  1  0  0  0
  5 88  1  0  0  0
  6 25  1  0  0  0
  6 89  1  0  0  0
  6 90  1  0  0  0
  7  8  2  0  0  0
  7 26  1  0  0  0
  7 29  1  0  0  0
  8  9  1  0  0  0
  8 22  1  0  0  0
  9 10  1  0  0  0
  9 27  2  0  0  0
 10 11  2  0  0  0
 10 15  1  0  0  0
 11 12  1  0  0  0
 11 91  1  0  0  0
 12 13  2  0  0  0
 12 92  1  0  0  0
 13 14  1  0  0  0
 13 31  1  0  0  0
 14 15  2  0  0  0
 14 93  1  0  0  0
 15 94  1  0  0  0
 16 17  2  0  0  0
 16 21  1  0  0  0
 16 31  1  0  0  0
 17 18  1  0  0  0
 17 95  1  0  0  0
 18 19  2  0  0  0
 18 96  1  0  0  0
 19 20  1  0  0  0
 19 24  1  0  0  0
 20 21  2  0  0  0
 20 97  1  0  0  0
 21 23  1  0  0  0
 22 28  1  0  0  0
 22 32  2  0  0  0
 26 27  1  0  0  0
 28 98  1  0  0  0
 28 99  1  0  0  0
 29100  1  0  0  0
 29101  1  0  0  0
 33 34  1  0  0  0
 33 66  1  0  0  0
 33 70  2  0  0  0
 34 36  1  0  0  0
 34 59  1  0  0  0
 34102  1  0  0  0
 35 44  2  0  0  0
 35 45  1  0  0  0
 35 68  1  0  0  0
 36 56  1  0  0  0
 36103  1  0  0  0
 37 39  1  0  0  0
 37 47  1  0  0  0
 37 66  1  0  0  0
 37104  1  0  0  0
 38 43  2  0  0  0
 38 46  1  0  0  0
 38 47  1  0  0  0
 39 64  1  0  0  0
 39 67  2  0  0  0
 40 52  1  0  0  0
 40 53  2  0  0  0
 40 58  1  0  0  0
 41105  1  0  0  0
 41106  1  0  0  0
 41107  1  0  0  0
 41 48  1  0  0  0
 42 43  1  0  0  0
 42 66  1  0  0  0
 42108  1  0  0  0
 42109  1  0  0  0
 43 44  1  0  0  0
 44110  1  0  0  0
 45 46  2  0  0  0
 45111  1  0  0  0
 46112  1  0  0  0
 47113  1  0  0  0
 47114  1  0  0  0
 48 56  1  0  0  0
 48 65  1  0  0  0
 48115  1  0  0  0
 49 50  1  0  0  0
 49 53  1  0  0  0
 49 64  1  0  0  0
 49116  1  0  0  0
 50 51  1  0  0  0
 50117  1  0  0  0
 50118  1  0  0  0
 51 52  1  0  0  0
 51119  1  0  0  0
 51120  1  0  0  0
 52121  1  0  0  0
 52122  1  0  0  0
 53 54  1  0  0  0
 54 55  2  0  0  0
 54123  1  0  0  0
 55 57  1  0  0  0
 55124  1  0  0  0
 56 69  2  0  0  0
 57 58  2  0  0  0
 57125  1  0  0  0
 58126  1  0  0  0
 59 60  1  0  0  0
 59 61  1  0  0  0
 59 62  1  0  0  0
 60127  1  0  0  0
 60128  1  0  0  0
 60129  1  0  0  0
 61130  1  0  0  0
 61131  1  0  0  0
 61132  1  0  0  0
 62133  1  0  0  0
 62134  1  0  0  0
 62135  1  0  0  0
 63 65  1  0  0  0
 63136  1  0  0  0
 63137  1  0  0  0
 63138  1  0  0  0
 64139  1  0  0  0
 65140  1  0  0  0
 68 80  1  0  0  0
 71 72  2  0  0  0
 71 73  1  0  0  0
 71141  1  0  0  0
 72 75  1  0  0  0
 72142  1  0  0  0
 73 76  2  0  0  0
 73143  1  0  0  0
 74 75  2  0  0  0
 74 76  1  0  0  0
 74144  1  0  0  0
 76 81  1  0  0  0
 77 81  1  0  0  0
 77145  1  0  0  0
 77146  1  0  0  0
 77147  1  0  0  0
 78 79  1  0  0  0
 78 80  1  0  0  0
 78148  1  0  0  0
 78149  1  0  0  0
 79 81  1  0  0  0
 79150  1  0  0  0
 79151  1  0  0  0
 80152  1  0  0  0
 80153  1  0  0  0
M  ISO  4   1 100  68 101  75 100  80 101
M  END
> <chiral flag>
0

> <version>
0

> <s_m_source_file>
/data/baiqing/PycharmProjects/Reinvent-master-3.2/result/LINK_invent/BTK/process_docking_weight1_custom_product_contain_oxygen_bond_distance_aromatic_linkinvent_7_9_3/rearranged_h_0010.sdf

> <i_m_source_file_index>
20

> <r_mmod_Potential_Energy-OPLS-2005>
794.385681152344

> <r_mmod_Stretch_Energy-OPLS-2005>
303.262298583984

> <r_mmod_Bend_Energy-OPLS-2005>
374.174743652344

> <r_mmod_Torsional_Energy-OPLS-2005>
249.549743652344

> <r_mmod_Improper_Torsional_Energy-OPLS-2005>
8.89950942993164

> <r_mmod_Van_der_Waal_Energy-OPLS-2005>
142.050262451172

> <r_mmod_Electrostatic_Energy-OPLS-2005>
-312.507049560547

> <r_mmod_Solvation_Energy-OPLS-2005>
-206.828735351562

> <b_mmod_Minimization_Converged-OPLS-2005>
0

> <r_mmod_RMS_Derivative-OPLS-2005>
3.78035593032837

$$$$
20
                    3D
 Structure written by MMmdl.
151159  0  0  1  0            999 V2000
  -30.6207  -14.6404   20.5017 C   0  0  0  0  0  0
  -30.4366  -12.3919   19.4535 C   0  0  0  0  0  0
  -29.5098  -12.5192   18.2233 C   0  0  0  0  0  0
  -28.0301  -12.3614   18.6287 C   0  0  0  0  0  0
  -27.6546  -13.2197   19.8662 C   0  0  2  0  0  0
  -28.6989  -13.0661   20.9954 C   0  0  0  0  0  0
  -25.2562  -13.8176   20.5677 C   0  0  0  0  0  0
  -24.1832  -13.0437   20.9184 C   0  0  0  0  0  0
  -24.6408  -11.6909   20.8734 C   0  0  0  0  0  0
  -23.9071  -10.4294   21.0403 C   0  0  0  0  0  0
  -24.3624   -9.4210   21.9184 C   0  0  0  0  0  0
  -23.6305   -8.2243   22.0754 C   0  0  0  0  0  0
  -22.4286   -8.0284   21.3541 C   0  0  0  0  0  0
  -21.9914   -9.0260   20.4646 C   0  0  0  0  0  0
  -22.7240  -10.2138   20.3055 C   0  0  0  0  0  0
  -21.6857   -6.0737   22.5278 C   0  0  0  0  0  0
  -21.4014   -6.5640   23.8212 C   0  0  0  0  0  0
  -21.3660   -5.6793   24.9175 C   0  0  0  0  0  0
  -21.6046   -4.3057   24.7221 C   0  0  0  0  0  0
  -21.8818   -3.8145   23.4342 C   0  0  0  0  0  0
  -21.9192   -4.6963   22.3399 C   0  0  0  0  0  0
  -22.7853  -13.5234   21.1843 C   0  0  0  0  0  0
  -22.1661   -4.2148   21.0977 F   0  0  0  0  0  0
  -21.5634   -3.4541   25.7733 F   0  0  0  0  0  0
  -30.0151  -13.4116   20.4353 N   0  0  0  0  0  0
  -26.2997  -12.9363   20.3319 N   0  0  0  0  0  0
  -25.9335  -11.6512   20.5749 N   0  0  0  0  0  0
  -22.0486  -12.8240   22.0403 N   0  0  0  0  0  0
  -25.4262  -15.1899   20.4079 N   0  0  0  0  0  0
  -31.7816  -14.8007   20.1137 O   0  0  0  0  0  0
  -21.6645   -6.8881   21.4242 O   0  0  0  0  0  0
  -22.3545  -14.5541   20.6689 O   0  0  0  0  0  0
  -24.6261  -31.8609   23.2045 C   0  0  0  0  0  0
  -25.9106  -32.4786   23.8370 C   0  0  1  0  0  0
  -27.2208  -27.3184   20.1168 C   0  0  0  0  0  0
  -25.5922  -33.8588   24.2296 N   0  0  0  0  0  0
  -23.4191  -30.4865   21.5481 C   0  0  2  0  0  0
  -24.8644  -28.9431   20.1147 C   0  0  0  0  0  0
  -22.7475  -29.4631   22.4947 C   0  0  0  0  0  0
  -18.0285  -28.1384   22.8493 C   0  0  0  0  0  0
  -24.1484  -36.7305   23.2639 C   0  0  0  0  0  0
  -25.9610  -30.7917   21.3754 C   0  0  0  0  0  0
  -26.0348  -29.4188   20.7191 C   0  0  0  0  0  0
  -27.2166  -28.6186   20.7108 C   0  0  0  0  0  0
  -26.0277  -26.9035   19.4793 C   0  0  0  0  0  0
  -24.8629  -27.6902   19.4870 C   0  0  0  0  0  0
  -23.6338  -29.8253   20.1625 C   0  0  0  0  0  0
  -25.4108  -36.3093   24.0334 C   0  0  1  0  0  0
  -20.5887  -28.3687   23.1297 C   0  0  2  0  0  0
  -20.6778  -26.9412   22.5417 C   0  0  0  0  0  0
  -19.5748  -26.6383   21.5224 C   0  0  0  0  0  0
  -18.1930  -26.7927   22.1635 C   0  0  0  0  0  0
  -19.1538  -28.8852   23.2889 C   0  0  0  0  0  0
  -18.9458  -30.1459   23.8898 C   0  0  0  0  0  0
  -17.6457  -30.6586   24.0566 C   0  0  0  0  0  0
  -25.9048  -34.9459   23.5116 C   0  0  0  0  0  0
  -16.5350  -29.9089   23.6324 C   0  0  0  0  0  0
  -16.7273  -28.6507   23.0345 C   0  0  0  0  0  0
  -26.4484  -31.6584   25.0734 C   0  0  0  0  0  0
  -25.3716  -31.3731   26.1462 C   0  0  0  0  0  0
  -27.0320  -30.3006   24.6178 C   0  0  0  0  0  0
  -27.6040  -32.4319   25.7509 C   0  0  0  0  0  0
  -27.5581  -37.1809   24.8464 C   0  0  0  0  0  0
  -21.4188  -29.3042   22.3692 N   0  0  0  0  0  0
  -26.4287  -37.3788   23.9414 N   0  0  0  0  0  0
  -24.6878  -31.0628   22.0996 N   0  0  0  0  0  0
  -23.4204  -28.8162   23.3016 O   0  0  0  0  0  0
  -28.3380  -26.4663   20.1474 O   0  0  0  0  0  0
  -26.5621  -34.8920   22.4686 O   0  0  0  0  0  0
  -23.5426  -32.1409   23.7376 O   0  0  0  0  0  0
  -30.9863  -17.8445   20.1353 C   0  0  0  0  0  0
  -30.9685  -19.2641   19.9932 C   0  0  0  0  0  0
  -28.7959  -17.9532   21.1125 C   0  0  0  0  0  0
  -29.8921  -17.1406   20.7028 C   0  0  0  0  0  0
  -29.8751  -20.0780   20.4000 C   0  0  0  0  0  0
  -28.7766  -19.3749   20.9706 C   0  0  0  0  0  0
  -29.2657  -23.9632   20.2182 C   0  0  0  0  0  0
  -28.0896  -25.0186   20.3689 C   0  0  0  0  0  0
  -28.9132  -22.4303   20.4994 C   0  0  0  0  0  0
  -29.8096  -15.6840   20.8721 N   0  0  0  0  0  0
  -29.9850  -21.4758   20.2123 O   0  0  0  0  0  0
  -27.6825  -20.0505   21.3985 F   0  0  0  0  0  0
  -31.4800  -12.5130   19.1578 H   0  0  0  0  0  0
  -30.3636  -11.3933   19.8877 H   0  0  0  0  0  0
  -29.7745  -11.7737   17.4721 H   0  0  0  0  0  0
  -29.6578  -13.4925   17.7514 H   0  0  0  0  0  0
  -27.8564  -11.3069   18.8449 H   0  0  0  0  0  0
  -27.3814  -12.6100   17.7878 H   0  0  0  0  0  0
  -27.6751  -14.2577   19.5349 H   0  0  0  0  0  0
  -28.7070  -12.0412   21.3704 H   0  0  0  0  0  0
  -28.4466  -13.6905   21.8533 H   0  0  0  0  0  0
  -25.2762   -9.5698   22.4766 H   0  0  0  0  0  0
  -24.0009   -7.4636   22.7478 H   0  0  0  0  0  0
  -21.0837   -8.8783   19.8964 H   0  0  0  0  0  0
  -22.3691  -10.9683   19.6175 H   0  0  0  0  0  0
  -21.2008   -7.6150   23.9716 H   0  0  0  0  0  0
  -21.1488   -6.0523   25.9081 H   0  0  0  0  0  0
  -22.0595   -2.7607   23.2840 H   0  0  0  0  0  0
  -22.4089  -11.9910   22.4815 H   0  0  0  0  0  0
  -21.1103  -13.1286   22.2588 H   0  0  0  0  0  0
  -24.6535  -15.8392   20.5078 H   0  0  0  0  0  0
  -26.2659  -15.6258   20.0488 H   0  0  0  0  0  0
  -26.7176  -32.5454   23.1120 H   0  0  0  0  0  0
  -25.0041  -33.9736   25.0421 H   0  0  0  0  0  0
  -22.7122  -31.3072   21.4089 H   0  0  0  0  0  0
  -23.3742  -35.9641   23.3296 H   0  0  0  0  0  0
  -24.3581  -36.8930   22.2055 H   0  0  0  0  0  0
  -23.7231  -37.6505   23.6659 H   0  0  0  0  0  0
  -26.0901  -31.5536   20.6055 H   0  0  0  0  0  0
  -26.8432  -30.8433   22.0018 H   0  0  0  0  0  0
  -28.1141  -28.9809   21.1926 H   0  0  0  0  0  0
  -25.9631  -25.9651   18.9527 H   0  0  0  0  0  0
  -23.9688  -27.3238   19.0015 H   0  0  0  0  0  0
  -23.7580  -30.6052   19.4102 H   0  0  0  0  0  0
  -22.7510  -29.2610   19.8558 H   0  0  0  0  0  0
  -25.1278  -36.1954   25.0826 H   0  0  0  0  0  0
  -20.9986  -28.3259   24.1416 H   0  0  0  0  0  0
  -20.5700  -26.2292   23.3614 H   0  0  0  0  0  0
  -21.6645  -26.7453   22.1199 H   0  0  0  0  0  0
  -19.6912  -25.6297   21.1248 H   0  0  0  0  0  0
  -19.6681  -27.3198   20.6759 H   0  0  0  0  0  0
  -17.4202  -26.6681   21.4034 H   0  0  0  0  0  0
  -18.0319  -26.0066   22.9030 H   0  0  0  0  0  0
  -19.7934  -30.7281   24.2258 H   0  0  0  0  0  0
  -17.5009  -31.6264   24.5173 H   0  0  0  0  0  0
  -15.5352  -30.2993   23.7638 H   0  0  0  0  0  0
  -15.8675  -28.0836   22.7043 H   0  0  0  0  0  0
  -24.5875  -30.7096   25.7793 H   0  0  0  0  0  0
  -24.8922  -32.2904   26.4894 H   0  0  0  0  0  0
  -25.8038  -30.8898   27.0234 H   0  0  0  0  0  0
  -26.2896  -29.6772   24.1177 H   0  0  0  0  0  0
  -27.3990  -29.7243   25.4681 H   0  0  0  0  0  0
  -27.8778  -30.4287   23.9419 H   0  0  0  0  0  0
  -27.2638  -33.3610   26.2096 H   0  0  0  0  0  0
  -28.3847  -32.6897   25.0339 H   0  0  0  0  0  0
  -28.0707  -31.8436   26.5420 H   0  0  0  0  0  0
  -28.2592  -38.0112   24.7515 H   0  0  0  0  0  0
  -28.1081  -36.2644   24.6274 H   0  0  0  0  0  0
  -27.2308  -37.1443   25.8869 H   0  0  0  0  0  0
  -20.9359  -29.8783   21.6922 H   0  0  0  0  0  0
  -26.0170  -38.2865   24.1414 H   0  0  0  0  0  0
  -31.8602  -17.3082   19.7940 H   0  0  0  0  0  0
  -31.8306  -19.7434   19.5523 H   0  0  0  0  0  0
  -27.9270  -17.4854   21.5514 H   0  0  0  0  0  0
  -30.0869  -24.2585   20.8705 H   0  0  0  0  0  0
  -29.6558  -24.0408   19.2037 H   0  0  0  0  0  0
  -27.6780  -24.9194   21.3744 H   0  0  0  0  0  0
  -27.3178  -24.6505   19.6997 H   0  0  0  0  0  0
  -28.0446  -22.1532   19.9005 H   0  0  0  0  0  0
  -28.6236  -22.3281   21.5461 H   0  0  0  0  0  0
  -28.9203  -15.3590   21.2197 H   0  0  0  0  0  0
  1 25  1  0  0  0
  1 30  2  0  0  0
  1 80  1  0  0  0
  2  3  1  0  0  0
  2 25  1  0  0  0
  2 83  1  0  0  0
  2 84  1  0  0  0
  3  4  1  0  0  0
  3 85  1  0  0  0
  3 86  1  0  0  0
  4  5  1  0  0  0
  4 87  1  0  0  0
  4 88  1  0  0  0
  5  6  1  0  0  0
  5 26  1  0  0  0
  5 89  1  0  0  0
  6 25  1  0  0  0
  6 90  1  0  0  0
  6 91  1  0  0  0
  7  8  2  0  0  0
  7 26  1  0  0  0
  7 29  1  0  0  0
  8  9  1  0  0  0
  8 22  1  0  0  0
  9 10  1  0  0  0
  9 27  2  0  0  0
 10 11  2  0  0  0
 10 15  1  0  0  0
 11 12  1  0  0  0
 11 92  1  0  0  0
 12 13  2  0  0  0
 12 93  1  0  0  0
 13 14  1  0  0  0
 13 31  1  0  0  0
 14 15  2  0  0  0
 14 94  1  0  0  0
 15 95  1  0  0  0
 16 17  2  0  0  0
 16 21  1  0  0  0
 16 31  1  0  0  0
 17 18  1  0  0  0
 17 96  1  0  0  0
 18 19  2  0  0  0
 18 97  1  0  0  0
 19 20  1  0  0  0
 19 24  1  0  0  0
 20 21  2  0  0  0
 20 98  1  0  0  0
 21 23  1  0  0  0
 22 28  1  0  0  0
 22 32  2  0  0  0
 26 27  1  0  0  0
 28 99  1  0  0  0
 28100  1  0  0  0
 29101  1  0  0  0
 29102  1  0  0  0
 33 34  1  0  0  0
 33 66  1  0  0  0
 33 70  2  0  0  0
 34 36  1  0  0  0
 34 59  1  0  0  0
 34103  1  0  0  0
 35 44  2  0  0  0
 35 45  1  0  0  0
 35 68  1  0  0  0
 36 56  1  0  0  0
 36104  1  0  0  0
 37 39  1  0  0  0
 37 47  1  0  0  0
 37 66  1  0  0  0
 37105  1  0  0  0
 38 43  2  0  0  0
 38 46  1  0  0  0
 38 47  1  0  0  0
 39 64  1  0  0  0
 39 67  2  0  0  0
 40 52  1  0  0  0
 40 53  2  0  0  0
 40 58  1  0  0  0
 41106  1  0  0  0
 41107  1  0  0  0
 41108  1  0  0  0
 41 48  1  0  0  0
 42 43  1  0  0  0
 42 66  1  0  0  0
 42109  1  0  0  0
 42110  1  0  0  0
 43 44  1  0  0  0
 44111  1  0  0  0
 45 46  2  0  0  0
 45112  1  0  0  0
 46113  1  0  0  0
 47114  1  0  0  0
 47115  1  0  0  0
 48 56  1  0  0  0
 48 65  1  0  0  0
 48116  1  0  0  0
 49 50  1  0  0  0
 49 53  1  0  0  0
 49 64  1  0  0  0
 49117  1  0  0  0
 50 51  1  0  0  0
 50118  1  0  0  0
 50119  1  0  0  0
 51 52  1  0  0  0
 51120  1  0  0  0
 51121  1  0  0  0
 52122  1  0  0  0
 52123  1  0  0  0
 53 54  1  0  0  0
 54 55  2  0  0  0
 54124  1  0  0  0
 55 57  1  0  0  0
 55125  1  0  0  0
 56 69  2  0  0  0
 57 58  2  0  0  0
 57126  1  0  0  0
 58127  1  0  0  0
 59 60  1  0  0  0
 59 61  1  0  0  0
 59 62  1  0  0  0
 60128  1  0  0  0
 60129  1  0  0  0
 60130  1  0  0  0
 61131  1  0  0  0
 61132  1  0  0  0
 61133  1  0  0  0
 62134  1  0  0  0
 62135  1  0  0  0
 62136  1  0  0  0
 63 65  1  0  0  0
 63137  1  0  0  0
 63138  1  0  0  0
 63139  1  0  0  0
 64140  1  0  0  0
 65141  1  0  0  0
 68 78  1  0  0  0
 71 72  2  0  0  0
 71 74  1  0  0  0
 71142  1  0  0  0
 72 75  1  0  0  0
 72143  1  0  0  0
 73 74  2  0  0  0
 73 76  1  0  0  0
 73144  1  0  0  0
 74 80  1  0  0  0
 75 76  2  0  0  0
 75 81  1  0  0  0
 76 82  1  0  0  0
 77 78  1  0  0  0
 77 79  1  0  0  0
 77145  1  0  0  0
 77146  1  0  0  0
 78147  1  0  0  0
 78148  1  0  0  0
 79 81  1  0  0  0
 79149  1  0  0  0
 79150  1  0  0  0
 80151  1  0  0  0
M  ISO  4   1 100  68 101  78 101  80 100
M  END
> <chiral flag>
0

> <version>
0

> <s_m_source_file>
/data/baiqing/PycharmProjects/Reinvent-master-3.2/result/LINK_invent/BTK/process_docking_weight1_custom_product_contain_oxygen_bond_distance_aromatic_linkinvent_7_9_3/rearranged_h_0010.sdf

> <i_m_source_file_index>
21

> <r_mmod_Potential_Energy-OPLS-2005>
74.7860946655273

> <r_mmod_Stretch_Energy-OPLS-2005>
79.5826568603516

> <r_mmod_Bend_Energy-OPLS-2005>
147.580917358398

> <r_mmod_Torsional_Energy-OPLS-2005>
214.559097290039

> <r_mmod_Improper_Torsional_Energy-OPLS-2005>
3.90157985687256

> <r_mmod_Van_der_Waal_Energy-OPLS-2005>
146.884353637695

> <r_mmod_Electrostatic_Energy-OPLS-2005>
-358.382598876953

> <r_mmod_Solvation_Energy-OPLS-2005>
-207.118133544922

> <b_mmod_Minimization_Converged-OPLS-2005>
0

> <r_mmod_RMS_Derivative-OPLS-2005>
1.06894218921661

$$$$
21
                    3D
 Structure written by MMmdl.
151159  0  0  1  0            999 V2000
  -30.5184  -14.9133   20.4488 C   0  0  0  0  0  0
  -30.4537  -12.5641   19.4961 C   0  0  0  0  0  0
  -29.5267  -12.5371   18.2565 C   0  0  0  0  0  0
  -28.0568  -12.3264   18.6694 C   0  0  0  0  0  0
  -27.6400  -13.2395   19.8514 C   0  0  2  0  0  0
  -28.6835  -13.2143   20.9904 C   0  0  0  0  0  0
  -25.2468  -13.8172   20.5628 C   0  0  0  0  0  0
  -24.1792  -13.0419   20.9214 C   0  0  0  0  0  0
  -24.6407  -11.6906   20.8765 C   0  0  0  0  0  0
  -23.9083  -10.4284   21.0418 C   0  0  0  0  0  0
  -24.3628   -9.4197   21.9194 C   0  0  0  0  0  0
  -23.6296   -8.2236   22.0758 C   0  0  0  0  0  0
  -22.4278   -8.0280   21.3546 C   0  0  0  0  0  0
  -21.9919   -9.0257   20.4650 C   0  0  0  0  0  0
  -22.7255  -10.2133   20.3064 C   0  0  0  0  0  0
  -21.6852   -6.0736   22.5279 C   0  0  0  0  0  0
  -21.4014   -6.5640   23.8213 C   0  0  0  0  0  0
  -21.3659   -5.6793   24.9175 C   0  0  0  0  0  0
  -21.6045   -4.3056   24.7225 C   0  0  0  0  0  0
  -21.8819   -3.8147   23.4347 C   0  0  0  0  0  0
  -21.9192   -4.6963   22.3402 C   0  0  0  0  0  0
  -22.7814  -13.5203   21.1870 C   0  0  0  0  0  0
  -22.1662   -4.2149   21.0979 F   0  0  0  0  0  0
  -21.5627   -3.4540   25.7738 F   0  0  0  0  0  0
  -29.9702  -13.6335   20.4127 N   0  0  0  0  0  0
  -26.2929  -12.9407   20.3270 N   0  0  0  0  0  0
  -25.9347  -11.6548   20.5776 N   0  0  0  0  0  0
  -22.0463  -12.8201   22.0434 N   0  0  0  0  0  0
  -25.4061  -15.1875   20.3876 N   0  0  0  0  0  0
  -31.6950  -15.0540   20.0961 O   0  0  0  0  0  0
  -21.6639   -6.8880   21.4242 O   0  0  0  0  0  0
  -22.3498  -14.5508   20.6714 O   0  0  0  0  0  0
  -24.6430  -31.8455   23.1896 C   0  0  0  0  0  0
  -25.9205  -32.4704   23.8283 C   0  0  1  0  0  0
  -27.2207  -27.1482   20.1460 C   0  0  0  0  0  0
  -25.5955  -33.8509   24.2199 N   0  0  0  0  0  0
  -23.4460  -30.4658   21.5353 C   0  0  2  0  0  0
  -24.8954  -28.8957   20.1121 C   0  0  0  0  0  0
  -22.7567  -29.4556   22.4865 C   0  0  0  0  0  0
  -18.0306  -28.1395   22.8477 C   0  0  0  0  0  0
  -24.1491  -36.7258   23.2641 C   0  0  0  0  0  0
  -26.0022  -30.7231   21.3870 C   0  0  0  0  0  0
  -26.0741  -29.3359   20.7276 C   0  0  0  0  0  0
  -27.2381  -28.4795   20.7258 C   0  0  0  0  0  0
  -26.0118  -26.8081   19.4964 C   0  0  0  0  0  0
  -24.8766  -27.6443   19.4819 C   0  0  0  0  0  0
  -23.6721  -29.7967   20.1545 C   0  0  0  0  0  0
  -25.4123  -36.3037   24.0316 C   0  0  1  0  0  0
  -20.5918  -28.3721   23.1235 C   0  0  2  0  0  0
  -20.6790  -26.9425   22.5401 C   0  0  0  0  0  0
  -19.5762  -26.6380   21.5211 C   0  0  0  0  0  0
  -18.1945  -26.7933   22.1625 C   0  0  0  0  0  0
  -19.1563  -28.8876   23.2848 C   0  0  0  0  0  0
  -18.9479  -30.1472   23.8874 C   0  0  0  0  0  0
  -17.6475  -30.6590   24.0559 C   0  0  0  0  0  0
  -25.9073  -34.9412   23.5065 C   0  0  0  0  0  0
  -16.5366  -29.9083   23.6336 C   0  0  0  0  0  0
  -16.7290  -28.6502   23.0356 C   0  0  0  0  0  0
  -26.4528  -31.6568   25.0720 C   0  0  0  0  0  0
  -25.3715  -31.3756   26.1417 C   0  0  0  0  0  0
  -27.0394  -30.2966   24.6296 C   0  0  0  0  0  0
  -27.6057  -32.4336   25.7507 C   0  0  0  0  0  0
  -27.5577  -37.1785   24.8465 C   0  0  0  0  0  0
  -21.4260  -29.3049   22.3611 N   0  0  0  0  0  0
  -26.4288  -37.3748   23.9409 N   0  0  0  0  0  0
  -24.7169  -31.0321   22.0925 N   0  0  0  0  0  0
  -23.4213  -28.8102   23.3012 O   0  0  0  0  0  0
  -28.2809  -26.1712   20.2041 O   0  0  0  0  0  0
  -26.5657  -34.8906   22.4643 O   0  0  0  0  0  0
  -23.5550  -32.1327   23.7121 O   0  0  0  0  0  0
  -30.3184  -18.4859   19.9208 C   0  0  0  0  0  0
  -30.0266  -19.9256   19.8717 C   0  0  0  0  0  0
  -28.2468  -19.5938   21.3713 C   0  0  0  0  0  0
  -28.5369  -18.1795   21.4468 C   0  0  0  0  0  0
  -29.5729  -17.5237   20.6995 C   0  0  0  0  0  0
  -28.9452  -20.5599   20.5850 C   0  0  0  0  0  0
  -27.6801  -17.3480   22.3878 C   0  0  0  0  0  0
  -27.9766  -24.6459   20.1466 C   0  0  0  0  0  0
  -28.9948  -23.3065   20.2617 C   0  0  0  0  0  0
  -29.6630  -15.9932   20.7657 N   0  0  0  0  0  0
  -28.4123  -21.9248   20.5748 O   0  0  0  0  0  0
  -31.4859  -12.7347   19.1864 H   0  0  0  0  0  0
  -30.4510  -11.5975   20.0023 H   0  0  0  0  0  0
  -29.8382  -11.7510   17.5675 H   0  0  0  0  0  0
  -29.6208  -13.4770   17.7103 H   0  0  0  0  0  0
  -27.9424  -11.2803   18.9560 H   0  0  0  0  0  0
  -27.3958  -12.4827   17.8161 H   0  0  0  0  0  0
  -27.6191  -14.2531   19.4504 H   0  0  0  0  0  0
  -28.7597  -12.2172   21.4265 H   0  0  0  0  0  0
  -28.3839  -13.8768   21.8040 H   0  0  0  0  0  0
  -25.2772   -9.5668   22.4773 H   0  0  0  0  0  0
  -24.0000   -7.4625   22.7477 H   0  0  0  0  0  0
  -21.0850   -8.8784   19.8955 H   0  0  0  0  0  0
  -22.3718  -10.9676   19.6176 H   0  0  0  0  0  0
  -21.2007   -7.6149   23.9716 H   0  0  0  0  0  0
  -21.1480   -6.0524   25.9079 H   0  0  0  0  0  0
  -22.0598   -2.7608   23.2848 H   0  0  0  0  0  0
  -22.4086  -11.9868   22.4827 H   0  0  0  0  0  0
  -21.1082  -13.1227   22.2642 H   0  0  0  0  0  0
  -24.6229  -15.8264   20.4705 H   0  0  0  0  0  0
  -26.2250  -15.6191   19.9796 H   0  0  0  0  0  0
  -26.7272  -32.5316   23.1014 H   0  0  0  0  0  0
  -25.0086  -33.9627   25.0335 H   0  0  0  0  0  0
  -22.7479  -31.2915   21.3819 H   0  0  0  0  0  0
  -23.3759  -35.9583   23.3292 H   0  0  0  0  0  0
  -24.3576  -36.8901   22.2058 H   0  0  0  0  0  0
  -23.7239  -37.6447   23.6686 H   0  0  0  0  0  0
  -26.1575  -31.4788   20.6158 H   0  0  0  0  0  0
  -26.8728  -30.7722   22.0294 H   0  0  0  0  0  0
  -28.1370  -28.8137   21.2247 H   0  0  0  0  0  0
  -25.9006  -25.8572   19.0008 H   0  0  0  0  0  0
  -23.9769  -27.3015   18.9893 H   0  0  0  0  0  0
  -23.8091  -30.5716   19.3995 H   0  0  0  0  0  0
  -22.7870  -29.2388   19.8433 H   0  0  0  0  0  0
  -25.1310  -36.1867   25.0808 H   0  0  0  0  0  0
  -21.0011  -28.3309   24.1356 H   0  0  0  0  0  0
  -20.5685  -26.2335   23.3620 H   0  0  0  0  0  0
  -21.6656  -26.7431   22.1199 H   0  0  0  0  0  0
  -19.6923  -25.6285   21.1255 H   0  0  0  0  0  0
  -19.6697  -27.3178   20.6730 H   0  0  0  0  0  0
  -17.4213  -26.6675   21.4031 H   0  0  0  0  0  0
  -18.0347  -26.0081   22.9028 H   0  0  0  0  0  0
  -19.7955  -30.7295   24.2232 H   0  0  0  0  0  0
  -17.5028  -31.6268   24.5164 H   0  0  0  0  0  0
  -15.5365  -30.2978   23.7671 H   0  0  0  0  0  0
  -15.8692  -28.0812   22.7084 H   0  0  0  0  0  0
  -24.5892  -30.7108   25.7736 H   0  0  0  0  0  0
  -24.8908  -32.2939   26.4799 H   0  0  0  0  0  0
  -25.7998  -30.8953   27.0223 H   0  0  0  0  0  0
  -26.3012  -29.6688   24.1293 H   0  0  0  0  0  0
  -27.4000  -29.7265   25.4869 H   0  0  0  0  0  0
  -27.8923  -30.4206   23.9620 H   0  0  0  0  0  0
  -27.2646  -33.3651   26.2038 H   0  0  0  0  0  0
  -28.3893  -32.6875   25.0355 H   0  0  0  0  0  0
  -28.0699  -31.8495   26.5463 H   0  0  0  0  0  0
  -28.2586  -38.0089   24.7516 H   0  0  0  0  0  0
  -28.1081  -36.2619   24.6289 H   0  0  0  0  0  0
  -27.2295  -37.1427   25.8868 H   0  0  0  0  0  0
  -20.9470  -29.8765   21.6792 H   0  0  0  0  0  0
  -26.0155  -38.2816   24.1415 H   0  0  0  0  0  0
  -31.1286  -18.1183   19.3072 H   0  0  0  0  0  0
  -30.6357  -20.5409   19.2249 H   0  0  0  0  0  0
  -27.4171  -19.9665   21.9553 H   0  0  0  0  0  0
  -26.9652  -17.9613   22.9370 H   0  0  0  0  0  0
  -28.3053  -16.8382   23.1216 H   0  0  0  0  0  0
  -27.1161  -16.5983   21.8387 H   0  0  0  0  0  0
  -27.2255  -24.4986   20.9233 H   0  0  0  0  0  0
  -27.4511  -24.4744   19.2093 H   0  0  0  0  0  0
  -29.7196  -23.5100   21.0500 H   0  0  0  0  0  0
  -29.5768  -23.2284   19.3433 H   0  0  0  0  0  0
  -28.8076  -15.6037   21.1294 H   0  0  0  0  0  0
  1 25  1  0  0  0
  1 30  2  0  0  0
  1 80  1  0  0  0
  2  3  1  0  0  0
  2 25  1  0  0  0
  2 82  1  0  0  0
  2 83  1  0  0  0
  3  4  1  0  0  0
  3 84  1  0  0  0
  3 85  1  0  0  0
  4  5  1  0  0  0
  4 86  1  0  0  0
  4 87  1  0  0  0
  5  6  1  0  0  0
  5 26  1  0  0  0
  5 88  1  0  0  0
  6 25  1  0  0  0
  6 89  1  0  0  0
  6 90  1  0  0  0
  7  8  2  0  0  0
  7 26  1  0  0  0
  7 29  1  0  0  0
  8  9  1  0  0  0
  8 22  1  0  0  0
  9 10  1  0  0  0
  9 27  2  0  0  0
 10 11  2  0  0  0
 10 15  1  0  0  0
 11 12  1  0  0  0
 11 91  1  0  0  0
 12 13  2  0  0  0
 12 92  1  0  0  0
 13 14  1  0  0  0
 13 31  1  0  0  0
 14 15  2  0  0  0
 14 93  1  0  0  0
 15 94  1  0  0  0
 16 17  2  0  0  0
 16 21  1  0  0  0
 16 31  1  0  0  0
 17 18  1  0  0  0
 17 95  1  0  0  0
 18 19  2  0  0  0
 18 96  1  0  0  0
 19 20  1  0  0  0
 19 24  1  0  0  0
 20 21  2  0  0  0
 20 97  1  0  0  0
 21 23  1  0  0  0
 22 28  1  0  0  0
 22 32  2  0  0  0
 26 27  1  0  0  0
 28 98  1  0  0  0
 28 99  1  0  0  0
 29100  1  0  0  0
 29101  1  0  0  0
 33 34  1  0  0  0
 33 66  1  0  0  0
 33 70  2  0  0  0
 34 36  1  0  0  0
 34 59  1  0  0  0
 34102  1  0  0  0
 35 44  2  0  0  0
 35 45  1  0  0  0
 35 68  1  0  0  0
 36 56  1  0  0  0
 36103  1  0  0  0
 37 39  1  0  0  0
 37 47  1  0  0  0
 37 66  1  0  0  0
 37104  1  0  0  0
 38 43  2  0  0  0
 38 46  1  0  0  0
 38 47  1  0  0  0
 39 64  1  0  0  0
 39 67  2  0  0  0
 40 52  1  0  0  0
 40 53  2  0  0  0
 40 58  1  0  0  0
 41105  1  0  0  0
 41106  1  0  0  0
 41107  1  0  0  0
 41 48  1  0  0  0
 42 43  1  0  0  0
 42 66  1  0  0  0
 42108  1  0  0  0
 42109  1  0  0  0
 43 44  1  0  0  0
 44110  1  0  0  0
 45 46  2  0  0  0
 45111  1  0  0  0
 46112  1  0  0  0
 47113  1  0  0  0
 47114  1  0  0  0
 48 56  1  0  0  0
 48 65  1  0  0  0
 48115  1  0  0  0
 49 50  1  0  0  0
 49 53  1  0  0  0
 49 64  1  0  0  0
 49116  1  0  0  0
 50 51  1  0  0  0
 50117  1  0  0  0
 50118  1  0  0  0
 51 52  1  0  0  0
 51119  1  0  0  0
 51120  1  0  0  0
 52121  1  0  0  0
 52122  1  0  0  0
 53 54  1  0  0  0
 54 55  2  0  0  0
 54123  1  0  0  0
 55 57  1  0  0  0
 55124  1  0  0  0
 56 69  2  0  0  0
 57 58  2  0  0  0
 57125  1  0  0  0
 58126  1  0  0  0
 59 60  1  0  0  0
 59 61  1  0  0  0
 59 62  1  0  0  0
 60127  1  0  0  0
 60128  1  0  0  0
 60129  1  0  0  0
 61130  1  0  0  0
 61131  1  0  0  0
 61132  1  0  0  0
 62133  1  0  0  0
 62134  1  0  0  0
 62135  1  0  0  0
 63 65  1  0  0  0
 63136  1  0  0  0
 63137  1  0  0  0
 63138  1  0  0  0
 64139  1  0  0  0
 65140  1  0  0  0
 68 78  1  0  0  0
 71 72  2  0  0  0
 71 75  1  0  0  0
 71141  1  0  0  0
 72 76  1  0  0  0
 72142  1  0  0  0
 73 74  1  0  0  0
 73 76  2  0  0  0
 73143  1  0  0  0
 74 75  2  0  0  0
 74 77  1  0  0  0
 75 80  1  0  0  0
 76 81  1  0  0  0
 77144  1  0  0  0
 77145  1  0  0  0
 77146  1  0  0  0
 78 79  1  0  0  0
 78147  1  0  0  0
 78148  1  0  0  0
 79 81  1  0  0  0
 79149  1  0  0  0
 79150  1  0  0  0
 80151  1  0  0  0
M  ISO  4   1 100  68 101  78 101  80 100
M  END
> <chiral flag>
0

> <version>
0

> <s_m_source_file>
/data/baiqing/PycharmProjects/Reinvent-master-3.2/result/LINK_invent/BTK/process_docking_weight1_custom_product_contain_oxygen_bond_distance_aromatic_linkinvent_7_9_3/rearranged_h_0010.sdf

> <i_m_source_file_index>
22

> <r_mmod_Potential_Energy-OPLS-2005>
450.374176025391

> <r_mmod_Stretch_Energy-OPLS-2005>
220.072540283203

> <r_mmod_Bend_Energy-OPLS-2005>
300.924438476562

> <r_mmod_Torsional_Energy-OPLS-2005>
220.343322753906

> <r_mmod_Improper_Torsional_Energy-OPLS-2005>
3.81109833717346

> <r_mmod_Van_der_Waal_Energy-OPLS-2005>
132.919097900391

> <r_mmod_Electrostatic_Energy-OPLS-2005>
-390.617248535156

> <r_mmod_Solvation_Energy-OPLS-2005>
-211.13166809082

> <b_mmod_Minimization_Converged-OPLS-2005>
0

> <r_mmod_RMS_Derivative-OPLS-2005>
0.254078179597855

$$$$
22
                    3D
 Structure written by MMmdl.
152160  0  0  1  0            999 V2000
  -30.6085  -14.7099   20.4707 C   0  0  0  0  0  0
  -30.4357  -12.4277   19.4844 C   0  0  0  0  0  0
  -29.5149  -12.5038   18.2453 C   0  0  0  0  0  0
  -28.0394  -12.3332   18.6543 C   0  0  0  0  0  0
  -27.6508  -13.2257   19.8620 C   0  0  2  0  0  0
  -28.6881  -13.1334   21.0023 C   0  0  0  0  0  0
  -25.2570  -13.8198   20.5739 C   0  0  0  0  0  0
  -24.1826  -13.0448   20.9199 C   0  0  0  0  0  0
  -24.6405  -11.6928   20.8753 C   0  0  0  0  0  0
  -23.9079  -10.4303   21.0410 C   0  0  0  0  0  0
  -24.3629   -9.4217   21.9192 C   0  0  0  0  0  0
  -23.6305   -8.2251   22.0770 C   0  0  0  0  0  0
  -22.4283   -8.0301   21.3555 C   0  0  0  0  0  0
  -21.9909   -9.0276   20.4655 C   0  0  0  0  0  0
  -22.7243  -10.2153   20.3064 C   0  0  0  0  0  0
  -21.6859   -6.0745   22.5274 C   0  0  0  0  0  0
  -21.4013   -6.5647   23.8207 C   0  0  0  0  0  0
  -21.3658   -5.6803   24.9173 C   0  0  0  0  0  0
  -21.6042   -4.3062   24.7223 C   0  0  0  0  0  0
  -21.8824   -3.8153   23.4343 C   0  0  0  0  0  0
  -21.9201   -4.6975   22.3400 C   0  0  0  0  0  0
  -22.7852  -13.5256   21.1854 C   0  0  0  0  0  0
  -22.1670   -4.2162   21.0976 F   0  0  0  0  0  0
  -21.5621   -3.4542   25.7729 F   0  0  0  0  0  0
  -30.0016  -13.4757   20.4392 N   0  0  0  0  0  0
  -26.2976  -12.9382   20.3303 N   0  0  0  0  0  0
  -25.9332  -11.6528   20.5764 N   0  0  0  0  0  0
  -22.0484  -12.8261   22.0410 N   0  0  0  0  0  0
  -25.4319  -15.1923   20.4242 N   0  0  0  0  0  0
  -31.7685  -14.8387   20.0636 O   0  0  0  0  0  0
  -21.6648   -6.8894   21.4240 O   0  0  0  0  0  0
  -22.3542  -14.5560   20.6703 O   0  0  0  0  0  0
  -24.6274  -31.8587   23.2022 C   0  0  0  0  0  0
  -25.9118  -32.4767   23.8352 C   0  0  1  0  0  0
  -27.2009  -27.2729   20.1334 C   0  0  0  0  0  0
  -25.5922  -33.8576   24.2280 N   0  0  0  0  0  0
  -23.4205  -30.4850   21.5455 C   0  0  2  0  0  0
  -24.8674  -28.9431   20.1046 C   0  0  0  0  0  0
  -22.7469  -29.4630   22.4925 C   0  0  0  0  0  0
  -18.0305  -28.1358   22.8498 C   0  0  0  0  0  0
  -24.1495  -36.7292   23.2635 C   0  0  0  0  0  0
  -25.9666  -30.7747   21.3826 C   0  0  0  0  0  0
  -26.0372  -29.3996   20.7254 C   0  0  0  0  0  0
  -27.2050  -28.5738   20.7375 C   0  0  0  0  0  0
  -26.0226  -26.9058   19.4439 C   0  0  0  0  0  0
  -24.8665  -27.7054   19.4479 C   0  0  0  0  0  0
  -23.6357  -29.8249   20.1575 C   0  0  0  0  0  0
  -25.4101  -36.3076   24.0334 C   0  0  1  0  0  0
  -20.5897  -28.3687   23.1274 C   0  0  2  0  0  0
  -20.6800  -26.9442   22.5319 C   0  0  0  0  0  0
  -19.5759  -26.6439   21.5137 C   0  0  0  0  0  0
  -18.1963  -26.7924   22.1602 C   0  0  0  0  0  0
  -19.1546  -28.8836   23.2898 C   0  0  0  0  0  0
  -18.9450  -30.1441   23.8886 C   0  0  0  0  0  0
  -17.6457  -30.6573   24.0550 C   0  0  0  0  0  0
  -25.9035  -34.9449   23.5097 C   0  0  0  0  0  0
  -16.5360  -29.9042   23.6334 C   0  0  0  0  0  0
  -16.7292  -28.6464   23.0339 C   0  0  0  0  0  0
  -26.4503  -31.6567   25.0710 C   0  0  0  0  0  0
  -25.3749  -31.3700   26.1441 C   0  0  0  0  0  0
  -27.0337  -30.2990   24.6151 C   0  0  0  0  0  0
  -27.6062  -32.4295   25.7479 C   0  0  0  0  0  0
  -27.5573  -37.1791   24.8462 C   0  0  0  0  0  0
  -21.4182  -29.3068   22.3689 N   0  0  0  0  0  0
  -26.4279  -37.3761   23.9417 N   0  0  0  0  0  0
  -24.6904  -31.0572   22.0986 N   0  0  0  0  0  0
  -23.4198  -28.8151   23.2990 O   0  0  0  0  0  0
  -28.2658  -26.3500   20.2387 O   0  0  0  0  0  0
  -26.5611  -34.8920   22.4668 O   0  0  0  0  0  0
  -23.5445  -32.1414   23.7328 O   0  0  0  0  0  0
  -29.5376  -18.3360   18.0355 C   0  0  0  0  0  0
  -29.7680  -17.1482   18.7561 C   0  0  0  0  0  0
  -29.3054  -19.5627   18.6880 C   0  0  0  0  0  0
  -29.5045  -18.4127   20.8211 C   0  0  0  0  0  0
  -29.7517  -17.1322   20.1678 C   0  0  0  0  0  0
  -29.2929  -19.6618   20.0980 C   0  0  0  0  0  0
  -28.8162  -23.6695   20.6378 C   0  0  0  0  0  0
  -28.6183  -22.2078   19.9810 C   0  0  0  0  0  0
  -27.9681  -24.8930   20.0153 C   0  0  0  0  0  0
  -29.8594  -15.8148   20.8379 N   0  0  0  0  0  0
  -29.0824  -20.9589   20.7123 N   0  0  0  0  0  0
  -31.4766  -12.5459   19.1804 H   0  0  0  0  0  0
  -30.3763  -11.4444   19.9529 H   0  0  0  0  0  0
  -29.7933  -11.7371   17.5227 H   0  0  0  0  0  0
  -29.6510  -13.4613   17.7406 H   0  0  0  0  0  0
  -27.8884  -11.2839   18.9096 H   0  0  0  0  0  0
  -27.3862  -12.5397   17.8055 H   0  0  0  0  0  0
  -27.6578  -14.2520   19.4927 H   0  0  0  0  0  0
  -28.7104  -12.1313   21.4313 H   0  0  0  0  0  0
  -28.4226  -13.8082   21.8176 H   0  0  0  0  0  0
  -25.2770   -9.5697   22.4779 H   0  0  0  0  0  0
  -24.0015   -7.4645   22.7493 H   0  0  0  0  0  0
  -21.0832   -8.8791   19.8972 H   0  0  0  0  0  0
  -22.3686  -10.9700   19.6189 H   0  0  0  0  0  0
  -21.2001   -7.6153   23.9707 H   0  0  0  0  0  0
  -21.1465   -6.0531   25.9072 H   0  0  0  0  0  0
  -22.0601   -2.7612   23.2835 H   0  0  0  0  0  0
  -22.4089  -11.9938   22.4814 H   0  0  0  0  0  0
  -21.1113  -13.1314   22.2608 H   0  0  0  0  0  0
  -24.6768  -15.8551   20.5659 H   0  0  0  0  0  0
  -26.2954  -15.6300   20.1271 H   0  0  0  0  0  0
  -26.7162  -32.5437   23.1075 H   0  0  0  0  0  0
  -25.0071  -33.9701   25.0425 H   0  0  0  0  0  0
  -22.7154  -31.3077   21.4042 H   0  0  0  0  0  0
  -23.3743  -35.9635   23.3287 H   0  0  0  0  0  0
  -24.3607  -36.8909   22.2054 H   0  0  0  0  0  0
  -23.7256  -37.6490   23.6669 H   0  0  0  0  0  0
  -26.0976  -31.5335   20.6103 H   0  0  0  0  0  0
  -26.8466  -30.8271   22.0127 H   0  0  0  0  0  0
  -28.0904  -28.9049   21.2590 H   0  0  0  0  0  0
  -25.9566  -25.9732   18.9031 H   0  0  0  0  0  0
  -23.9826  -27.3609   18.9295 H   0  0  0  0  0  0
  -23.7491  -30.6029   19.4007 H   0  0  0  0  0  0
  -22.7575  -29.2504   19.8584 H   0  0  0  0  0  0
  -25.1283  -36.1918   25.0827 H   0  0  0  0  0  0
  -20.9996  -28.3245   24.1398 H   0  0  0  0  0  0
  -20.5808  -26.2283   23.3485 H   0  0  0  0  0  0
  -21.6638  -26.7527   22.1050 H   0  0  0  0  0  0
  -19.6916  -25.6364   21.1111 H   0  0  0  0  0  0
  -19.6639  -27.3298   20.6708 H   0  0  0  0  0  0
  -18.0408  -26.0067   22.9008 H   0  0  0  0  0  0
  -17.4210  -26.6659   21.4020 H   0  0  0  0  0  0
  -19.7906  -30.7281   24.2252 H   0  0  0  0  0  0
  -17.5007  -31.6267   24.5147 H   0  0  0  0  0  0
  -15.5344  -30.2917   23.7633 H   0  0  0  0  0  0
  -15.8722  -28.0779   22.7004 H   0  0  0  0  0  0
  -24.5905  -30.7068   25.7772 H   0  0  0  0  0  0
  -24.8966  -32.2871   26.4915 H   0  0  0  0  0  0
  -25.8088  -30.8842   27.0192 H   0  0  0  0  0  0
  -26.2908  -29.6737   24.1177 H   0  0  0  0  0  0
  -27.4038  -29.7246   25.4653 H   0  0  0  0  0  0
  -27.8795  -30.4273   23.9381 H   0  0  0  0  0  0
  -27.2660  -33.3566   26.2117 H   0  0  0  0  0  0
  -28.3849  -32.6886   25.0287 H   0  0  0  0  0  0
  -28.0763  -31.8371   26.5345 H   0  0  0  0  0  0
  -28.2575  -38.0100   24.7502 H   0  0  0  0  0  0
  -28.1077  -36.2626   24.6283 H   0  0  0  0  0  0
  -27.2312  -37.1438   25.8870 H   0  0  0  0  0  0
  -20.9345  -29.8816   21.6943 H   0  0  0  0  0  0
  -26.0159  -38.2836   24.1398 H   0  0  0  0  0  0
  -29.5312  -18.3071   16.9554 H   0  0  0  0  0  0
  -29.9228  -16.2341   18.1993 H   0  0  0  0  0  0
  -29.1365  -20.4235   18.0595 H   0  0  0  0  0  0
  -29.4756  -18.4361   21.9012 H   0  0  0  0  0  0
  -28.5836  -23.6153   21.7030 H   0  0  0  0  0  0
  -29.8750  -23.9218   20.5830 H   0  0  0  0  0  0
  -29.1241  -22.2584   19.0176 H   0  0  0  0  0  0
  -27.5595  -22.0733   19.7467 H   0  0  0  0  0  0
  -26.9564  -24.7033   20.3790 H   0  0  0  0  0  0
  -27.9329  -24.7492   18.9359 H   0  0  0  0  0  0
  -29.0767  -15.5888   21.4318 H   0  0  0  0  0  0
  -28.9741  -20.9715   21.7259 H   0  0  0  0  0  0
  1 25  1  0  0  0
  1 30  2  0  0  0
  1 80  1  0  0  0
  2  3  1  0  0  0
  2 25  1  0  0  0
  2 82  1  0  0  0
  2 83  1  0  0  0
  3  4  1  0  0  0
  3 84  1  0  0  0
  3 85  1  0  0  0
  4  5  1  0  0  0
  4 86  1  0  0  0
  4 87  1  0  0  0
  5  6  1  0  0  0
  5 26  1  0  0  0
  5 88  1  0  0  0
  6 25  1  0  0  0
  6 89  1  0  0  0
  6 90  1  0  0  0
  7  8  2  0  0  0
  7 26  1  0  0  0
  7 29  1  0  0  0
  8  9  1  0  0  0
  8 22  1  0  0  0
  9 10  1  0  0  0
  9 27  2  0  0  0
 10 11  2  0  0  0
 10 15  1  0  0  0
 11 12  1  0  0  0
 11 91  1  0  0  0
 12 13  2  0  0  0
 12 92  1  0  0  0
 13 14  1  0  0  0
 13 31  1  0  0  0
 14 15  2  0  0  0
 14 93  1  0  0  0
 15 94  1  0  0  0
 16 17  2  0  0  0
 16 21  1  0  0  0
 16 31  1  0  0  0
 17 18  1  0  0  0
 17 95  1  0  0  0
 18 19  2  0  0  0
 18 96  1  0  0  0
 19 20  1  0  0  0
 19 24  1  0  0  0
 20 21  2  0  0  0
 20 97  1  0  0  0
 21 23  1  0  0  0
 22 28  1  0  0  0
 22 32  2  0  0  0
 26 27  1  0  0  0
 28 98  1  0  0  0
 28 99  1  0  0  0
 29100  1  0  0  0
 29101  1  0  0  0
 33 34  1  0  0  0
 33 66  1  0  0  0
 33 70  2  0  0  0
 34 36  1  0  0  0
 34 59  1  0  0  0
 34102  1  0  0  0
 35 44  2  0  0  0
 35 45  1  0  0  0
 35 68  1  0  0  0
 36 56  1  0  0  0
 36103  1  0  0  0
 37 39  1  0  0  0
 37 47  1  0  0  0
 37 66  1  0  0  0
 37104  1  0  0  0
 38 43  2  0  0  0
 38 46  1  0  0  0
 38 47  1  0  0  0
 39 64  1  0  0  0
 39 67  2  0  0  0
 40 52  1  0  0  0
 40 53  2  0  0  0
 40 58  1  0  0  0
 41105  1  0  0  0
 41106  1  0  0  0
 41107  1  0  0  0
 41 48  1  0  0  0
 42 43  1  0  0  0
 42 66  1  0  0  0
 42108  1  0  0  0
 42109  1  0  0  0
 43 44  1  0  0  0
 44110  1  0  0  0
 45 46  2  0  0  0
 45111  1  0  0  0
 46112  1  0  0  0
 47113  1  0  0  0
 47114  1  0  0  0
 48 56  1  0  0  0
 48 65  1  0  0  0
 48115  1  0  0  0
 49 50  1  0  0  0
 49 53  1  0  0  0
 49 64  1  0  0  0
 49116  1  0  0  0
 50 51  1  0  0  0
 50117  1  0  0  0
 50118  1  0  0  0
 51 52  1  0  0  0
 51119  1  0  0  0
 51120  1  0  0  0
 52121  1  0  0  0
 52122  1  0  0  0
 53 54  1  0  0  0
 54 55  2  0  0  0
 54123  1  0  0  0
 55 57  1  0  0  0
 55124  1  0  0  0
 56 69  2  0  0  0
 57 58  2  0  0  0
 57125  1  0  0  0
 58126  1  0  0  0
 59 60  1  0  0  0
 59 61  1  0  0  0
 59 62  1  0  0  0
 60127  1  0  0  0
 60128  1  0  0  0
 60129  1  0  0  0
 61130  1  0  0  0
 61131  1  0  0  0
 61132  1  0  0  0
 62133  1  0  0  0
 62134  1  0  0  0
 62135  1  0  0  0
 63 65  1  0  0  0
 63136  1  0  0  0
 63137  1  0  0  0
 63138  1  0  0  0
 64139  1  0  0  0
 65140  1  0  0  0
 68 79  1  0  0  0
 71 72  2  0  0  0
 71 73  1  0  0  0
 71141  1  0  0  0
 72 75  1  0  0  0
 72142  1  0  0  0
 73 76  2  0  0  0
 73143  1  0  0  0
 74 75  2  0  0  0
 74 76  1  0  0  0
 74144  1  0  0  0
 75 80  1  0  0  0
 76 81  1  0  0  0
 77 78  1  0  0  0
 77 79  1  0  0  0
 77145  1  0  0  0
 77146  1  0  0  0
 78 81  1  0  0  0
 78147  1  0  0  0
 78148  1  0  0  0
 79149  1  0  0  0
 79150  1  0  0  0
 80151  1  0  0  0
 81152  1  0  0  0
M  ISO  4   1 100  68 101  79 101  80 100
M  END
> <chiral flag>
0

> <version>
0

> <s_m_source_file>
/data/baiqing/PycharmProjects/Reinvent-master-3.2/result/LINK_invent/BTK/process_docking_weight1_custom_product_contain_oxygen_bond_distance_aromatic_linkinvent_7_9_3/rearranged_h_0010.sdf

> <i_m_source_file_index>
23

> <r_mmod_Potential_Energy-OPLS-2005>
183.344848632812

> <r_mmod_Stretch_Energy-OPLS-2005>
112.931335449219

> <r_mmod_Bend_Energy-OPLS-2005>
159.335586547852

> <r_mmod_Torsional_Energy-OPLS-2005>
235.026733398438

> <r_mmod_Improper_Torsional_Energy-OPLS-2005>
5.55153560638428

> <r_mmod_Van_der_Waal_Energy-OPLS-2005>
146.871185302734

> <r_mmod_Electrostatic_Energy-OPLS-2005>
-329.543792724609

> <r_mmod_Solvation_Energy-OPLS-2005>
-226.561737060547

> <b_mmod_Minimization_Converged-OPLS-2005>
0

> <r_mmod_RMS_Derivative-OPLS-2005>
3.45960974693298

$$$$
23
                    3D
 Structure written by MMmdl.
149157  0  0  1  0            999 V2000
  -30.5285  -15.0075   20.3891 C   0  0  0  0  0  0
  -30.4383  -12.6236   19.5114 C   0  0  0  0  0  0
  -29.5299  -12.5405   18.2629 C   0  0  0  0  0  0
  -28.0619  -12.3228   18.6738 C   0  0  0  0  0  0
  -27.6283  -13.2553   19.8358 C   0  0  2  0  0  0
  -28.6679  -13.3075   20.9747 C   0  0  0  0  0  0
  -25.2454  -13.8216   20.5677 C   0  0  0  0  0  0
  -24.1788  -13.0435   20.9213 C   0  0  0  0  0  0
  -24.6411  -11.6925   20.8727 C   0  0  0  0  0  0
  -23.9079  -10.4303   21.0391 C   0  0  0  0  0  0
  -24.3627   -9.4226   21.9171 C   0  0  0  0  0  0
  -23.6308   -8.2251   22.0754 C   0  0  0  0  0  0
  -22.4300   -8.0271   21.3529 C   0  0  0  0  0  0
  -21.9920   -9.0245   20.4643 C   0  0  0  0  0  0
  -22.7238  -10.2134   20.3050 C   0  0  0  0  0  0
  -21.6860   -6.0738   22.5279 C   0  0  0  0  0  0
  -21.4015   -6.5640   23.8214 C   0  0  0  0  0  0
  -21.3669   -5.6792   24.9169 C   0  0  0  0  0  0
  -21.6037   -4.3059   24.7221 C   0  0  0  0  0  0
  -21.8819   -3.8144   23.4349 C   0  0  0  0  0  0
  -21.9198   -4.6963   22.3397 C   0  0  0  0  0  0
  -22.7810  -13.5208   21.1861 C   0  0  0  0  0  0
  -22.1661   -4.2159   21.0976 F   0  0  0  0  0  0
  -21.5637   -3.4536   25.7728 F   0  0  0  0  0  0
  -29.9365  -13.7378   20.3744 N   0  0  0  0  0  0
  -26.2895  -12.9458   20.3214 N   0  0  0  0  0  0
  -25.9354  -11.6588   20.5708 N   0  0  0  0  0  0
  -22.0432  -12.8232   22.0419 N   0  0  0  0  0  0
  -25.4114  -15.1942   20.4099 N   0  0  0  0  0  0
  -31.7361  -15.0279   20.1275 O   0  0  0  0  0  0
  -21.6647   -6.8875   21.4237 O   0  0  0  0  0  0
  -22.3507  -14.5501   20.6674 O   0  0  0  0  0  0
  -24.6465  -31.8375   23.1848 C   0  0  0  0  0  0
  -25.9210  -32.4662   23.8249 C   0  0  1  0  0  0
  -27.2147  -27.0794   20.1547 C   0  0  0  0  0  0
  -25.5933  -33.8473   24.2150 N   0  0  0  0  0  0
  -23.4544  -30.4526   21.5321 C   0  0  2  0  0  0
  -24.9058  -28.8695   20.1128 C   0  0  0  0  0  0
  -22.7587  -29.4485   22.4863 C   0  0  0  0  0  0
  -18.0294  -28.1380   22.8492 C   0  0  0  0  0  0
  -24.1496  -36.7230   23.2647 C   0  0  0  0  0  0
  -26.0156  -30.6900   21.3953 C   0  0  0  0  0  0
  -26.0857  -29.2969   20.7343 C   0  0  0  0  0  0
  -27.2404  -28.4187   20.7364 C   0  0  0  0  0  0
  -26.0077  -26.7653   19.4931 C   0  0  0  0  0  0
  -24.8823  -27.6197   19.4764 C   0  0  0  0  0  0
  -23.6846  -29.7775   20.1534 C   0  0  0  0  0  0
  -25.4138  -36.3013   24.0309 C   0  0  1  0  0  0
  -20.5913  -28.3692   23.1251 C   0  0  2  0  0  0
  -20.6774  -26.9394   22.5415 C   0  0  0  0  0  0
  -19.5749  -26.6366   21.5220 C   0  0  0  0  0  0
  -18.1934  -26.7920   22.1632 C   0  0  0  0  0  0
  -19.1556  -28.8860   23.2860 C   0  0  0  0  0  0
  -18.9465  -30.1464   23.8875 C   0  0  0  0  0  0
  -17.6461  -30.6589   24.0544 C   0  0  0  0  0  0
  -25.9087  -34.9388   23.5050 C   0  0  0  0  0  0
  -16.5351  -29.9075   23.6344 C   0  0  0  0  0  0
  -16.7279  -28.6486   23.0383 C   0  0  0  0  0  0
  -26.4511  -31.6563   25.0722 C   0  0  0  0  0  0
  -25.3665  -31.3772   26.1391 C   0  0  0  0  0  0
  -27.0371  -30.2946   24.6356 C   0  0  0  0  0  0
  -27.6035  -32.4338   25.7499 C   0  0  0  0  0  0
  -27.5576  -37.1783   24.8469 C   0  0  0  0  0  0
  -21.4268  -29.3014   22.3617 N   0  0  0  0  0  0
  -26.4299  -37.3725   23.9395 N   0  0  0  0  0  0
  -24.7260  -31.0165   22.0914 N   0  0  0  0  0  0
  -23.4215  -28.8049   23.3032 O   0  0  0  0  0  0
  -28.2519  -26.0618   20.2254 O   0  0  0  0  0  0
  -26.5694  -34.8888   22.4643 O   0  0  0  0  0  0
  -23.5570  -32.1268   23.7032 O   0  0  0  0  0  0
  -31.1876  -18.0114   19.4307 C   0  0  0  0  0  0
  -31.4941  -19.3084   18.9743 C   0  0  0  0  0  0
  -29.2003  -18.9668   20.4258 C   0  0  0  0  0  0
  -30.0212  -17.7256   20.1683 C   0  0  0  0  0  0
  -29.4969  -20.3847   19.9936 C   0  0  0  0  0  0
  -30.6900  -20.4453   19.2089 C   0  0  0  0  0  0
  -29.0097  -23.1795   20.3747 C   0  0  0  0  0  0
  -27.9849  -24.5145   20.0337 C   0  0  0  0  0  0
  -29.7667  -16.2274   20.5280 N   0  0  0  0  0  0
  -28.6661  -21.6321   20.2086 N   0  0  0  0  0  0
  -31.2631  -22.0120   18.2836 Br  0  0  0  0  0  0
  -31.4745  -12.7762   19.2054 H   0  0  0  0  0  0
  -30.4280  -11.6788   20.0563 H   0  0  0  0  0  0
  -29.8605  -11.7357   17.6056 H   0  0  0  0  0  0
  -29.6168  -13.4616   17.6852 H   0  0  0  0  0  0
  -27.9569  -11.2818   18.9773 H   0  0  0  0  0  0
  -27.4035  -12.4550   17.8147 H   0  0  0  0  0  0
  -27.5845  -14.2548   19.4038 H   0  0  0  0  0  0
  -28.7672  -12.3362   21.4603 H   0  0  0  0  0  0
  -28.3600  -14.0116   21.7493 H   0  0  0  0  0  0
  -25.2766   -9.5718   22.4757 H   0  0  0  0  0  0
  -24.0021   -7.4653   22.7488 H   0  0  0  0  0  0
  -21.0841   -8.8757   19.8962 H   0  0  0  0  0  0
  -22.3670  -10.9669   19.6176 H   0  0  0  0  0  0
  -21.2002   -7.6153   23.9715 H   0  0  0  0  0  0
  -21.1490   -6.0520   25.9071 H   0  0  0  0  0  0
  -22.0592   -2.7610   23.2833 H   0  0  0  0  0  0
  -22.4049  -11.9944   22.4891 H   0  0  0  0  0  0
  -21.1039  -13.1262   22.2528 H   0  0  0  0  0  0
  -24.6339  -15.8391   20.5064 H   0  0  0  0  0  0
  -26.2468  -15.6327   20.0445 H   0  0  0  0  0  0
  -26.7261  -32.5239   23.0953 H   0  0  0  0  0  0
  -24.9992  -33.9585   25.0234 H   0  0  0  0  0  0
  -22.7590  -31.2792   21.3725 H   0  0  0  0  0  0
  -23.3764  -35.9558   23.3327 H   0  0  0  0  0  0
  -24.3553  -36.8851   22.2056 H   0  0  0  0  0  0
  -23.7257  -37.6429   23.6682 H   0  0  0  0  0  0
  -26.1841  -31.4455   20.6261 H   0  0  0  0  0  0
  -26.8796  -30.7346   22.0474 H   0  0  0  0  0  0
  -28.1385  -28.7395   21.2469 H   0  0  0  0  0  0
  -25.9002  -25.8099   19.0019 H   0  0  0  0  0  0
  -23.9825  -27.2865   18.9800 H   0  0  0  0  0  0
  -23.8235  -30.5476   19.3931 H   0  0  0  0  0  0
  -22.7995  -29.2183   19.8464 H   0  0  0  0  0  0
  -25.1342  -36.1831   25.0802 H   0  0  0  0  0  0
  -20.9996  -28.3262   24.1376 H   0  0  0  0  0  0
  -20.5661  -26.2293   23.3626 H   0  0  0  0  0  0
  -21.6640  -26.7397   22.1215 H   0  0  0  0  0  0
  -19.6907  -25.6276   21.1260 H   0  0  0  0  0  0
  -19.6700  -27.3164   20.6748 H   0  0  0  0  0  0
  -17.4208  -26.6675   21.4036 H   0  0  0  0  0  0
  -18.0325  -26.0062   22.9026 H   0  0  0  0  0  0
  -19.7940  -30.7287   24.2242 H   0  0  0  0  0  0
  -17.5012  -31.6277   24.5124 H   0  0  0  0  0  0
  -15.5353  -30.2963   23.7687 H   0  0  0  0  0  0
  -15.8674  -28.0785   22.7140 H   0  0  0  0  0  0
  -24.5850  -30.7123   25.7688 H   0  0  0  0  0  0
  -24.8842  -32.2961   26.4741 H   0  0  0  0  0  0
  -25.7910  -30.8975   27.0219 H   0  0  0  0  0  0
  -26.2996  -29.6668   24.1344 H   0  0  0  0  0  0
  -27.3917  -29.7256   25.4959 H   0  0  0  0  0  0
  -27.8940  -30.4151   23.9722 H   0  0  0  0  0  0
  -27.2625  -33.3654   26.2019 H   0  0  0  0  0  0
  -28.3869  -32.6875   25.0346 H   0  0  0  0  0  0
  -28.0671  -31.8503   26.5459 H   0  0  0  0  0  0
  -28.2613  -38.0061   24.7483 H   0  0  0  0  0  0
  -28.1061  -36.2592   24.6355 H   0  0  0  0  0  0
  -27.2277  -37.1483   25.8866 H   0  0  0  0  0  0
  -20.9486  -29.8696   21.6764 H   0  0  0  0  0  0
  -26.0167  -38.2796   24.1376 H   0  0  0  0  0  0
  -31.8739  -17.2264   19.1541 H   0  0  0  0  0  0
  -32.3800  -19.4316   18.3694 H   0  0  0  0  0  0
  -28.2876  -18.8213   20.9852 H   0  0  0  0  0  0
  -29.2502  -23.2732   21.4340 H   0  0  0  0  0  0
  -29.9517  -23.4065   19.8927 H   0  0  0  0  0  0
  -27.0579  -24.3168   20.5717 H   0  0  0  0  0  0
  -27.7226  -24.4084   18.9817 H   0  0  0  0  0  0
  -28.8336  -16.0495   20.8676 H   0  0  0  0  0  0
  -27.7243  -21.4228   20.5301 H   0  0  0  0  0  0
  1 25  1  0  0  0
  1 30  2  0  0  0
  1 79  1  0  0  0
  2  3  1  0  0  0
  2 25  1  0  0  0
  2 82  1  0  0  0
  2 83  1  0  0  0
  3  4  1  0  0  0
  3 84  1  0  0  0
  3 85  1  0  0  0
  4  5  1  0  0  0
  4 86  1  0  0  0
  4 87  1  0  0  0
  5  6  1  0  0  0
  5 26  1  0  0  0
  5 88  1  0  0  0
  6 25  1  0  0  0
  6 89  1  0  0  0
  6 90  1  0  0  0
  7  8  2  0  0  0
  7 26  1  0  0  0
  7 29  1  0  0  0
  8  9  1  0  0  0
  8 22  1  0  0  0
  9 10  1  0  0  0
  9 27  2  0  0  0
 10 11  2  0  0  0
 10 15  1  0  0  0
 11 12  1  0  0  0
 11 91  1  0  0  0
 12 13  2  0  0  0
 12 92  1  0  0  0
 13 14  1  0  0  0
 13 31  1  0  0  0
 14 15  2  0  0  0
 14 93  1  0  0  0
 15 94  1  0  0  0
 16 17  2  0  0  0
 16 21  1  0  0  0
 16 31  1  0  0  0
 17 18  1  0  0  0
 17 95  1  0  0  0
 18 19  2  0  0  0
 18 96  1  0  0  0
 19 20  1  0  0  0
 19 24  1  0  0  0
 20 21  2  0  0  0
 20 97  1  0  0  0
 21 23  1  0  0  0
 22 28  1  0  0  0
 22 32  2  0  0  0
 26 27  1  0  0  0
 28 98  1  0  0  0
 28 99  1  0  0  0
 29100  1  0  0  0
 29101  1  0  0  0
 33 34  1  0  0  0
 33 66  1  0  0  0
 33 70  2  0  0  0
 34 36  1  0  0  0
 34 59  1  0  0  0
 34102  1  0  0  0
 35 44  2  0  0  0
 35 45  1  0  0  0
 35 68  1  0  0  0
 36 56  1  0  0  0
 36103  1  0  0  0
 37 39  1  0  0  0
 37 47  1  0  0  0
 37 66  1  0  0  0
 37104  1  0  0  0
 38 43  2  0  0  0
 38 46  1  0  0  0
 38 47  1  0  0  0
 39 64  1  0  0  0
 39 67  2  0  0  0
 40 52  1  0  0  0
 40 53  2  0  0  0
 40 58  1  0  0  0
 41105  1  0  0  0
 41106  1  0  0  0
 41107  1  0  0  0
 41 48  1  0  0  0
 42 43  1  0  0  0
 42 66  1  0  0  0
 42108  1  0  0  0
 42109  1  0  0  0
 43 44  1  0  0  0
 44110  1  0  0  0
 45 46  2  0  0  0
 45111  1  0  0  0
 46112  1  0  0  0
 47113  1  0  0  0
 47114  1  0  0  0
 48 56  1  0  0  0
 48 65  1  0  0  0
 48115  1  0  0  0
 49 50  1  0  0  0
 49 53  1  0  0  0
 49 64  1  0  0  0
 49116  1  0  0  0
 50 51  1  0  0  0
 50117  1  0  0  0
 50118  1  0  0  0
 51 52  1  0  0  0
 51119  1  0  0  0
 51120  1  0  0  0
 52121  1  0  0  0
 52122  1  0  0  0
 53 54  1  0  0  0
 54 55  2  0  0  0
 54123  1  0  0  0
 55 57  1  0  0  0
 55124  1  0  0  0
 56 69  2  0  0  0
 57 58  2  0  0  0
 57125  1  0  0  0
 58126  1  0  0  0
 59 60  1  0  0  0
 59 61  1  0  0  0
 59 62  1  0  0  0
 60127  1  0  0  0
 60128  1  0  0  0
 60129  1  0  0  0
 61130  1  0  0  0
 61131  1  0  0  0
 61132  1  0  0  0
 62133  1  0  0  0
 62134  1  0  0  0
 62135  1  0  0  0
 63 65  1  0  0  0
 63136  1  0  0  0
 63137  1  0  0  0
 63138  1  0  0  0
 64139  1  0  0  0
 65140  1  0  0  0
 68 78  1  0  0  0
 71 72  2  0  0  0
 71 74  1  0  0  0
 71141  1  0  0  0
 72 76  1  0  0  0
 72142  1  0  0  0
 73 74  2  0  0  0
 73 75  1  0  0  0
 73143  1  0  0  0
 74 79  1  0  0  0
 75 76  2  0  0  0
 75 80  1  0  0  0
 76 81  1  0  0  0
 77 78  1  0  0  0
 77 80  1  0  0  0
 77144  1  0  0  0
 77145  1  0  0  0
 78146  1  0  0  0
 78147  1  0  0  0
 79148  1  0  0  0
 80149  1  0  0  0
M  ISO  4   1 100  68 101  78 101  79 100
M  END
> <chiral flag>
0

> <version>
0

> <s_m_source_file>
/data/baiqing/PycharmProjects/Reinvent-master-3.2/result/LINK_invent/BTK/process_docking_weight1_custom_product_contain_oxygen_bond_distance_aromatic_linkinvent_7_9_3/rearranged_h_0010.sdf

> <i_m_source_file_index>
24

> <r_mmod_Potential_Energy-OPLS-2005>
680.290710449219

> <r_mmod_Stretch_Energy-OPLS-2005>
327.247833251953

> <r_mmod_Bend_Energy-OPLS-2005>
292.162658691406

> <r_mmod_Torsional_Energy-OPLS-2005>
214.231460571289

> <r_mmod_Improper_Torsional_Energy-OPLS-2005>
4.88759088516235

> <r_mmod_Van_der_Waal_Energy-OPLS-2005>
140.220733642578

> <r_mmod_Electrostatic_Energy-OPLS-2005>
-312.405456542969

> <r_mmod_Solvation_Energy-OPLS-2005>
-225.094482421875

> <b_mmod_Minimization_Converged-OPLS-2005>
0

> <r_mmod_RMS_Derivative-OPLS-2005>
2.52641344070435

$$$$
24
                    3D
 Structure written by MMmdl.
156164  0  0  1  0            999 V2000
  -30.6227  -14.6204   20.5328 C   0  0  0  0  0  0
  -30.4436  -12.3904   19.4494 C   0  0  0  0  0  0
  -29.5081  -12.5178   18.2242 C   0  0  0  0  0  0
  -28.0300  -12.3569   18.6349 C   0  0  0  0  0  0
  -27.6580  -13.2148   19.8739 C   0  0  2  0  0  0
  -28.7018  -13.0412   21.0008 C   0  0  0  0  0  0
  -25.2569  -13.8166   20.5699 C   0  0  0  0  0  0
  -24.1835  -13.0439   20.9203 C   0  0  0  0  0  0
  -24.6406  -11.6902   20.8767 C   0  0  0  0  0  0
  -23.9091  -10.4288   21.0429 C   0  0  0  0  0  0
  -24.3638   -9.4188   21.9197 C   0  0  0  0  0  0
  -23.6296   -8.2230   22.0755 C   0  0  0  0  0  0
  -22.4271   -8.0286   21.3553 C   0  0  0  0  0  0
  -21.9928   -9.0266   20.4653 C   0  0  0  0  0  0
  -22.7274  -10.2135   20.3062 C   0  0  0  0  0  0
  -21.6850   -6.0743   22.5289 C   0  0  0  0  0  0
  -21.4010   -6.5640   23.8223 C   0  0  0  0  0  0
  -21.3654   -5.6792   24.9179 C   0  0  0  0  0  0
  -21.6045   -4.3056   24.7237 C   0  0  0  0  0  0
  -21.8816   -3.8152   23.4355 C   0  0  0  0  0  0
  -21.9190   -4.6972   22.3410 C   0  0  0  0  0  0
  -22.7855  -13.5231   21.1864 C   0  0  0  0  0  0
  -22.1652   -4.2160   21.0989 F   0  0  0  0  0  0
  -21.5638   -3.4539   25.7745 F   0  0  0  0  0  0
  -30.0204  -13.3933   20.4449 N   0  0  0  0  0  0
  -26.3005  -12.9348   20.3364 N   0  0  0  0  0  0
  -25.9338  -11.6506   20.5792 N   0  0  0  0  0  0
  -22.0499  -12.8212   22.0412 N   0  0  0  0  0  0
  -25.4308  -15.1891   20.4106 N   0  0  0  0  0  0
  -31.7720  -14.8057   20.1195 O   0  0  0  0  0  0
  -21.6629   -6.8885   21.4248 O   0  0  0  0  0  0
  -22.3540  -14.5546   20.6718 O   0  0  0  0  0  0
  -24.6249  -31.8604   23.2040 C   0  0  0  0  0  0
  -25.9107  -32.4780   23.8352 C   0  0  1  0  0  0
  -27.2245  -27.3257   20.1089 C   0  0  0  0  0  0
  -25.5919  -33.8577   24.2271 N   0  0  0  0  0  0
  -23.4184  -30.4827   21.5493 C   0  0  2  0  0  0
  -24.8643  -28.9426   20.1094 C   0  0  0  0  0  0
  -22.7488  -29.4601   22.4969 C   0  0  0  0  0  0
  -18.0285  -28.1401   22.8491 C   0  0  0  0  0  0
  -24.1492  -36.7299   23.2635 C   0  0  0  0  0  0
  -25.9600  -30.7884   21.3767 C   0  0  0  0  0  0
  -26.0321  -29.4176   20.7186 C   0  0  0  0  0  0
  -27.2137  -28.6201   20.7108 C   0  0  0  0  0  0
  -26.0339  -26.9070   19.4664 C   0  0  0  0  0  0
  -24.8683  -27.6936   19.4721 C   0  0  0  0  0  0
  -23.6319  -29.8214   20.1631 C   0  0  0  0  0  0
  -25.4114  -36.3083   24.0323 C   0  0  1  0  0  0
  -20.5885  -28.3687   23.1311 C   0  0  2  0  0  0
  -20.6790  -26.9415   22.5425 C   0  0  0  0  0  0
  -19.5760  -26.6393   21.5239 C   0  0  0  0  0  0
  -18.1931  -26.7939   22.1640 C   0  0  0  0  0  0
  -19.1535  -28.8870   23.2888 C   0  0  0  0  0  0
  -18.9455  -30.1483   23.8884 C   0  0  0  0  0  0
  -17.6449  -30.6593   24.0577 C   0  0  0  0  0  0
  -25.9054  -34.9450   23.5101 C   0  0  0  0  0  0
  -16.5343  -29.9093   23.6338 C   0  0  0  0  0  0
  -16.7269  -28.6526   23.0332 C   0  0  0  0  0  0
  -26.4486  -31.6585   25.0719 C   0  0  0  0  0  0
  -25.3695  -31.3726   26.1433 C   0  0  0  0  0  0
  -27.0321  -30.3002   24.6170 C   0  0  0  0  0  0
  -27.6059  -32.4311   25.7484 C   0  0  0  0  0  0
  -27.5583  -37.1796   24.8456 C   0  0  0  0  0  0
  -21.4205  -29.3018   22.3709 N   0  0  0  0  0  0
  -26.4290  -37.3777   23.9408 N   0  0  0  0  0  0
  -24.6866  -31.0607   22.0999 N   0  0  0  0  0  0
  -23.4221  -28.8124   23.3026 O   0  0  0  0  0  0
  -28.3486  -26.4868   20.1710 O   0  0  0  0  0  0
  -26.5631  -34.8919   22.4671 O   0  0  0  0  0  0
  -23.5416  -32.1401   23.7366 O   0  0  0  0  0  0
  -30.9222  -19.2816   20.3666 C   0  0  0  0  0  0
  -30.9536  -17.8527   20.3791 C   0  0  0  0  0  0
  -28.7484  -17.8413   21.3412 C   0  0  0  0  0  0
  -29.8142  -20.0288   20.8588 C   0  0  0  0  0  0
  -29.8673  -17.0907   20.8857 C   0  0  0  0  0  0
  -28.7170  -19.2669   21.3303 C   0  0  0  0  0  0
  -29.0566  -22.1451   18.7731 C   0  0  0  0  0  0
  -29.8835  -21.5940   21.0345 C   0  0  0  0  0  0
  -29.2668  -24.0150   20.4422 C   0  0  0  0  0  0
  -28.1638  -25.0395   19.9250 C   0  0  0  0  0  0
  -29.8138  -15.6311   20.9741 N   0  0  0  0  0  0
  -29.0135  -22.5218   20.2067 N   0  3  1  0  0  0
  -27.6240  -19.9085   21.8082 F   0  0  0  0  0  0
  -31.4829  -12.5269   19.1443 H   0  0  0  0  0  0
  -30.3879  -11.3892   19.8800 H   0  0  0  0  0  0
  -29.7709  -11.7720   17.4731 H   0  0  0  0  0  0
  -29.6509  -13.4892   17.7476 H   0  0  0  0  0  0
  -27.8645  -11.3021   18.8546 H   0  0  0  0  0  0
  -27.3750  -12.5977   17.7969 H   0  0  0  0  0  0
  -27.6830  -14.2570   19.5533 H   0  0  0  0  0  0
  -28.7095  -12.0081   21.3546 H   0  0  0  0  0  0
  -28.4444  -13.6477   21.8707 H   0  0  0  0  0  0
  -25.2792   -9.5634   22.4769 H   0  0  0  0  0  0
  -24.0006   -7.4610   22.7452 H   0  0  0  0  0  0
  -21.0873   -8.8799   19.8949 H   0  0  0  0  0  0
  -22.3769  -10.9675   19.6157 H   0  0  0  0  0  0
  -21.1990   -7.6150   23.9734 H   0  0  0  0  0  0
  -21.1479   -6.0522   25.9089 H   0  0  0  0  0  0
  -22.0601   -2.7620   23.2859 H   0  0  0  0  0  0
  -22.4129  -11.9861   22.4780 H   0  0  0  0  0  0
  -21.1118  -13.1224   22.2628 H   0  0  0  0  0  0
  -24.6690  -15.8485   20.5245 H   0  0  0  0  0  0
  -26.2789  -15.6217   20.0692 H   0  0  0  0  0  0
  -26.7158  -32.5448   23.1088 H   0  0  0  0  0  0
  -25.0050  -33.9725   25.0408 H   0  0  0  0  0  0
  -22.7091  -31.3014   21.4099 H   0  0  0  0  0  0
  -23.3761  -35.9629   23.3289 H   0  0  0  0  0  0
  -24.3572  -36.8928   22.2048 H   0  0  0  0  0  0
  -23.7242  -37.6493   23.6672 H   0  0  0  0  0  0
  -26.0897  -31.5479   20.6045 H   0  0  0  0  0  0
  -26.8432  -30.8386   22.0030 H   0  0  0  0  0  0
  -28.1090  -28.9774   21.1988 H   0  0  0  0  0  0
  -25.9698  -25.9602   18.9515 H   0  0  0  0  0  0
  -23.9775  -27.3297   18.9776 H   0  0  0  0  0  0
  -23.7455  -30.6008   19.4088 H   0  0  0  0  0  0
  -22.7530  -29.2484   19.8644 H   0  0  0  0  0  0
  -25.1292  -36.1927   25.0813 H   0  0  0  0  0  0
  -20.9964  -28.3255   24.1442 H   0  0  0  0  0  0
  -20.5746  -26.2278   23.3611 H   0  0  0  0  0  0
  -21.6646  -26.7480   22.1171 H   0  0  0  0  0  0
  -19.6921  -25.6313   21.1252 H   0  0  0  0  0  0
  -19.6706  -27.3233   20.6793 H   0  0  0  0  0  0
  -17.4210  -26.6703   21.4033 H   0  0  0  0  0  0
  -18.0312  -26.0087   22.9037 H   0  0  0  0  0  0
  -19.7924  -30.7328   24.2222 H   0  0  0  0  0  0
  -17.4990  -31.6263   24.5204 H   0  0  0  0  0  0
  -15.5344  -30.2984   23.7675 H   0  0  0  0  0  0
  -15.8672  -28.0863   22.7010 H   0  0  0  0  0  0
  -24.5895  -30.7058   25.7739 H   0  0  0  0  0  0
  -24.8866  -32.2899   26.4813 H   0  0  0  0  0  0
  -25.7985  -30.8918   27.0234 H   0  0  0  0  0  0
  -26.2893  -29.6765   24.1187 H   0  0  0  0  0  0
  -27.4010  -29.7236   25.4663 H   0  0  0  0  0  0
  -27.8767  -30.4285   23.9397 H   0  0  0  0  0  0
  -27.2695  -33.3636   26.2029 H   0  0  0  0  0  0
  -28.3885  -32.6819   25.0311 H   0  0  0  0  0  0
  -28.0716  -31.8448   26.5419 H   0  0  0  0  0  0
  -28.2575  -38.0117   24.7527 H   0  0  0  0  0  0
  -28.1104  -36.2646   24.6252 H   0  0  0  0  0  0
  -27.2301  -37.1395   25.8857 H   0  0  0  0  0  0
  -20.9406  -29.8698   21.6872 H   0  0  0  0  0  0
  -26.0172  -38.2848   24.1429 H   0  0  0  0  0  0
  -31.7975  -19.8061   20.0088 H   0  0  0  0  0  0
  -31.8398  -17.3529   20.0135 H   0  0  0  0  0  0
  -27.8840  -17.3223   21.7307 H   0  0  0  0  0  0
  -28.6608  -21.1388   18.6306 H   0  0  0  0  0  0
  -30.0801  -22.1541   18.3970 H   0  0  0  0  0  0
  -28.4596  -22.8099   18.1509 H   0  0  0  0  0  0
  -30.9208  -21.8866   20.8639 H   0  0  0  0  0  0
  -29.6961  -21.8110   22.0879 H   0  0  0  0  0  0
  -29.3654  -24.1693   21.5170 H   0  0  0  0  0  0
  -30.2367  -24.2790   20.0180 H   0  0  0  0  0  0
  -27.2213  -24.7197   20.3725 H   0  0  0  0  0  0
  -28.0538  -24.9266   18.8467 H   0  0  0  0  0  0
  -28.9436  -15.2683   21.3335 H   0  0  0  0  0  0
  -28.0693  -22.3440   20.5176 H   0  0  0  0  0  0
  1 25  1  0  0  0
  1 30  2  0  0  0
  1 81  1  0  0  0
  2  3  1  0  0  0
  2 25  1  0  0  0
  2 84  1  0  0  0
  2 85  1  0  0  0
  3  4  1  0  0  0
  3 86  1  0  0  0
  3 87  1  0  0  0
  4  5  1  0  0  0
  4 88  1  0  0  0
  4 89  1  0  0  0
  5  6  1  0  0  0
  5 26  1  0  0  0
  5 90  1  0  0  0
  6 25  1  0  0  0
  6 91  1  0  0  0
  6 92  1  0  0  0
  7  8  2  0  0  0
  7 26  1  0  0  0
  7 29  1  0  0  0
  8  9  1  0  0  0
  8 22  1  0  0  0
  9 10  1  0  0  0
  9 27  2  0  0  0
 10 11  2  0  0  0
 10 15  1  0  0  0
 11 12  1  0  0  0
 11 93  1  0  0  0
 12 13  2  0  0  0
 12 94  1  0  0  0
 13 14  1  0  0  0
 13 31  1  0  0  0
 14 15  2  0  0  0
 14 95  1  0  0  0
 15 96  1  0  0  0
 16 17  2  0  0  0
 16 21  1  0  0  0
 16 31  1  0  0  0
 17 18  1  0  0  0
 17 97  1  0  0  0
 18 19  2  0  0  0
 18 98  1  0  0  0
 19 20  1  0  0  0
 19 24  1  0  0  0
 20 21  2  0  0  0
 20 99  1  0  0  0
 21 23  1  0  0  0
 22 28  1  0  0  0
 22 32  2  0  0  0
 26 27  1  0  0  0
 28100  1  0  0  0
 28101  1  0  0  0
 29102  1  0  0  0
 29103  1  0  0  0
 33 34  1  0  0  0
 33 66  1  0  0  0
 33 70  2  0  0  0
 34 36  1  0  0  0
 34 59  1  0  0  0
 34104  1  0  0  0
 35 44  2  0  0  0
 35 45  1  0  0  0
 35 68  1  0  0  0
 36 56  1  0  0  0
 36105  1  0  0  0
 37 39  1  0  0  0
 37 47  1  0  0  0
 37 66  1  0  0  0
 37106  1  0  0  0
 38 43  2  0  0  0
 38 46  1  0  0  0
 38 47  1  0  0  0
 39 64  1  0  0  0
 39 67  2  0  0  0
 40 52  1  0  0  0
 40 53  2  0  0  0
 40 58  1  0  0  0
 41107  1  0  0  0
 41108  1  0  0  0
 41109  1  0  0  0
 41 48  1  0  0  0
 42 43  1  0  0  0
 42 66  1  0  0  0
 42110  1  0  0  0
 42111  1  0  0  0
 43 44  1  0  0  0
 44112  1  0  0  0
 45 46  2  0  0  0
 45113  1  0  0  0
 46114  1  0  0  0
 47115  1  0  0  0
 47116  1  0  0  0
 48 56  1  0  0  0
 48 65  1  0  0  0
 48117  1  0  0  0
 49 50  1  0  0  0
 49 53  1  0  0  0
 49 64  1  0  0  0
 49118  1  0  0  0
 50 51  1  0  0  0
 50119  1  0  0  0
 50120  1  0  0  0
 51 52  1  0  0  0
 51121  1  0  0  0
 51122  1  0  0  0
 52123  1  0  0  0
 52124  1  0  0  0
 53 54  1  0  0  0
 54 55  2  0  0  0
 54125  1  0  0  0
 55 57  1  0  0  0
 55126  1  0  0  0
 56 69  2  0  0  0
 57 58  2  0  0  0
 57127  1  0  0  0
 58128  1  0  0  0
 59 60  1  0  0  0
 59 61  1  0  0  0
 59 62  1  0  0  0
 60129  1  0  0  0
 60130  1  0  0  0
 60131  1  0  0  0
 61132  1  0  0  0
 61133  1  0  0  0
 61134  1  0  0  0
 62135  1  0  0  0
 62136  1  0  0  0
 62137  1  0  0  0
 63 65  1  0  0  0
 63138  1  0  0  0
 63139  1  0  0  0
 63140  1  0  0  0
 64141  1  0  0  0
 65142  1  0  0  0
 68 80  1  0  0  0
 71 72  2  0  0  0
 71 74  1  0  0  0
 71143  1  0  0  0
 72 75  1  0  0  0
 72144  1  0  0  0
 73 75  2  0  0  0
 73 76  1  0  0  0
 73145  1  0  0  0
 74 76  2  0  0  0
 74 78  1  0  0  0
 75 81  1  0  0  0
 76 83  1  0  0  0
 77146  1  0  0  0
 77147  1  0  0  0
 77148  1  0  0  0
 77 82  1  0  0  0
 78 82  1  0  0  0
 78149  1  0  0  0
 78150  1  0  0  0
 79 80  1  0  0  0
 79 82  1  0  0  0
 79151  1  0  0  0
 79152  1  0  0  0
 80153  1  0  0  0
 80154  1  0  0  0
 81155  1  0  0  0
 82156  1  0  0  0
M  CHG  1  82   1
M  ISO  4   1 100  68 101  80 101  81 100
M  END
> <chiral flag>
0

> <version>
0

> <s_m_source_file>
/data/baiqing/PycharmProjects/Reinvent-master-3.2/result/LINK_invent/BTK/process_docking_weight1_custom_product_contain_oxygen_bond_distance_aromatic_linkinvent_7_9_3/rearranged_h_0010.sdf

> <i_m_source_file_index>
25

> <r_mmod_Potential_Energy-OPLS-2005>
-72.4477767944336

> <r_mmod_Stretch_Energy-OPLS-2005>
77.2074813842773

> <r_mmod_Bend_Energy-OPLS-2005>
137.644012451172

> <r_mmod_Torsional_Energy-OPLS-2005>
204.07666015625

> <r_mmod_Improper_Torsional_Energy-OPLS-2005>
4.14148139953613

> <r_mmod_Van_der_Waal_Energy-OPLS-2005>
145.579650878906

> <r_mmod_Electrostatic_Energy-OPLS-2005>
-253.568542480469

> <r_mmod_Solvation_Energy-OPLS-2005>
-431.46044921875

> <b_mmod_Minimization_Converged-OPLS-2005>
0

> <r_mmod_RMS_Derivative-OPLS-2005>
1.99835777282715

$$$$
25
                    3D
 Structure written by MMmdl.
146154  0  0  1  0            999 V2000
  -30.4119  -15.3235   20.3828 C   0  0  0  0  0  0
  -30.4380  -12.8401   19.5632 C   0  0  0  0  0  0
  -29.5494  -12.6029   18.3116 C   0  0  0  0  0  0
  -28.0959  -12.3105   18.7195 C   0  0  0  0  0  0
  -27.6122  -13.2807   19.8228 C   0  0  2  0  0  0
  -28.6313  -13.4555   20.9663 C   0  0  0  0  0  0
  -25.2391  -13.8256   20.5731 C   0  0  0  0  0  0
  -24.1743  -13.0439   20.9232 C   0  0  0  0  0  0
  -24.6403  -11.6937   20.8731 C   0  0  0  0  0  0
  -23.9098  -10.4295   21.0391 C   0  0  0  0  0  0
  -24.3641   -9.4212   21.9175 C   0  0  0  0  0  0
  -23.6308   -8.2251   22.0752 C   0  0  0  0  0  0
  -22.4288   -8.0287   21.3545 C   0  0  0  0  0  0
  -21.9928   -9.0260   20.4644 C   0  0  0  0  0  0
  -22.7265  -10.2134   20.3047 C   0  0  0  0  0  0
  -21.6859   -6.0740   22.5279 C   0  0  0  0  0  0
  -21.4018   -6.5642   23.8213 C   0  0  0  0  0  0
  -21.3661   -5.6794   24.9174 C   0  0  0  0  0  0
  -21.6044   -4.3056   24.7224 C   0  0  0  0  0  0
  -21.8819   -3.8149   23.4345 C   0  0  0  0  0  0
  -21.9194   -4.6966   22.3402 C   0  0  0  0  0  0
  -22.7763  -13.5189   21.1898 C   0  0  0  0  0  0
  -22.1662   -4.2152   21.0979 F   0  0  0  0  0  0
  -21.5627   -3.4539   25.7737 F   0  0  0  0  0  0
  -29.8761  -13.9896   20.3811 N   0  0  0  0  0  0
  -26.2810  -12.9535   20.3167 N   0  0  0  0  0  0
  -25.9338  -11.6635   20.5667 N   0  0  0  0  0  0
  -22.0431  -12.8166   22.0457 N   0  0  0  0  0  0
  -25.4047  -15.1994   20.4223 N   0  0  0  0  0  0
  -31.5995  -15.3162   20.0187 O   0  0  0  0  0  0
  -21.6648   -6.8886   21.4243 O   0  0  0  0  0  0
  -22.3433  -14.5490   20.6746 O   0  0  0  0  0  0
  -24.6656  -31.8193   23.1669 C   0  0  0  0  0  0
  -25.9323  -32.4564   23.8147 C   0  0  1  0  0  0
  -27.2220  -26.8915   20.1893 C   0  0  0  0  0  0
  -25.5976  -33.8381   24.2049 N   0  0  0  0  0  0
  -23.4826  -30.4283   21.5162 C   0  0  2  0  0  0
  -24.9381  -28.8081   20.1095 C   0  0  0  0  0  0
  -22.7681  -29.4414   22.4765 C   0  0  0  0  0  0
  -18.0324  -28.1411   22.8465 C   0  0  0  0  0  0
  -24.1494  -36.7197   23.2649 C   0  0  0  0  0  0
  -26.0529  -30.6131   21.4039 C   0  0  0  0  0  0
  -26.1203  -29.1991   20.7493 C   0  0  0  0  0  0
  -27.2525  -28.2613   20.7662 C   0  0  0  0  0  0
  -26.0146  -26.6654   19.4890 C   0  0  0  0  0  0
  -24.9131  -27.5633   19.4583 C   0  0  0  0  0  0
  -23.7249  -29.7396   20.1436 C   0  0  0  0  0  0
  -25.4137  -36.2953   24.0295 C   0  0  1  0  0  0
  -20.5950  -28.3757   23.1181 C   0  0  2  0  0  0
  -20.6798  -26.9434   22.5404 C   0  0  0  0  0  0
  -19.5773  -26.6376   21.5215 C   0  0  0  0  0  0
  -18.1955  -26.7943   22.1621 C   0  0  0  0  0  0
  -19.1587  -28.8906   23.2808 C   0  0  0  0  0  0
  -18.9497  -30.1494   23.8845 C   0  0  0  0  0  0
  -17.6489  -30.6599   24.0554 C   0  0  0  0  0  0
  -25.9104  -34.9337   23.4998 C   0  0  0  0  0  0
  -16.5379  -29.9085   23.6345 C   0  0  0  0  0  0
  -16.7306  -28.6506   23.0363 C   0  0  0  0  0  0
  -26.4564  -31.6528   25.0694 C   0  0  0  0  0  0
  -25.3680  -31.3791   26.1343 C   0  0  0  0  0  0
  -27.0471  -30.2889   24.6462 C   0  0  0  0  0  0
  -27.6045  -32.4351   25.7500 C   0  0  0  0  0  0
  -27.5569  -37.1756   24.8466 C   0  0  0  0  0  0
  -21.4347  -29.3037   22.3520 N   0  0  0  0  0  0
  -26.4278  -37.3694   23.9407 N   0  0  0  0  0  0
  -24.7551  -30.9819   22.0823 N   0  0  0  0  0  0
  -23.4212  -28.7993   23.3027 O   0  0  0  0  0  0
  -28.2177  -25.7718   20.3078 O   0  0  0  0  0  0
  -26.5723  -34.8881   22.4599 O   0  0  0  0  0  0
  -23.5718  -32.1182   23.6740 O   0  0  0  0  0  0
  -28.6197  -19.4257   21.8908 C   0  0  0  0  0  0
  -28.6145  -18.1747   22.5638 C   0  0  0  0  0  0
  -29.7016  -18.2337   20.0892 C   0  0  0  0  0  0
  -29.7107  -16.8276   20.7622 C   0  0  0  0  0  0
  -29.1505  -19.6029   20.5976 C   0  0  0  0  0  0
  -29.1330  -16.9532   22.0511 C   0  0  0  0  0  0
  -28.7223  -22.5417   20.5969 C   0  0  0  0  0  0
  -28.0933  -24.1417   19.9529 C   0  0  0  0  0  0
  -29.0346  -21.0190   19.9885 O   0  0  0  0  0  0
  -29.1192  -15.8867   22.8841 F   0  0  0  0  0  0
  -31.4617  -13.0328   19.2412 H   0  0  0  0  0  0
  -30.5004  -11.9324   20.1657 H   0  0  0  0  0  0
  -29.9449  -11.7812   17.7132 H   0  0  0  0  0  0
  -29.5789  -13.4889   17.6758 H   0  0  0  0  0  0
  -28.0547  -11.2852   19.0892 H   0  0  0  0  0  0
  -27.4364  -12.3516   17.8518 H   0  0  0  0  0  0
  -27.5290  -14.2493   19.3285 H   0  0  0  0  0  0
  -28.7997  -12.5175   21.4973 H   0  0  0  0  0  0
  -28.2239  -14.1463   21.6993 H   0  0  0  0  0  0
  -25.2785   -9.5689   22.4752 H   0  0  0  0  0  0
  -24.0013   -7.4645   22.7476 H   0  0  0  0  0  0
  -21.0857   -8.8782   19.8952 H   0  0  0  0  0  0
  -22.3721  -10.9672   19.6156 H   0  0  0  0  0  0
  -21.2013   -7.6151   23.9717 H   0  0  0  0  0  0
  -21.1482   -6.0524   25.9077 H   0  0  0  0  0  0
  -22.0596   -2.7611   23.2844 H   0  0  0  0  0  0
  -22.4070  -11.9835   22.4841 H   0  0  0  0  0  0
  -21.1043  -13.1169   22.2670 H   0  0  0  0  0  0
  -24.6413  -15.8538   20.5535 H   0  0  0  0  0  0
  -26.2623  -15.6465   20.1241 H   0  0  0  0  0  0
  -26.7393  -32.5090   23.0860 H   0  0  0  0  0  0
  -25.0061  -33.9452   25.0158 H   0  0  0  0  0  0
  -22.7977  -31.2608   21.3417 H   0  0  0  0  0  0
  -23.3768  -35.9515   23.3278 H   0  0  0  0  0  0
  -24.3568  -36.8880   22.2069 H   0  0  0  0  0  0
  -23.7241  -37.6370   23.6730 H   0  0  0  0  0  0
  -26.2376  -31.3516   20.6226 H   0  0  0  0  0  0
  -26.9111  -30.6716   22.0613 H   0  0  0  0  0  0
  -28.1425  -28.5564   21.3039 H   0  0  0  0  0  0
  -25.8822  -25.7178   18.9882 H   0  0  0  0  0  0
  -24.0168  -27.2593   18.9351 H   0  0  0  0  0  0
  -23.8819  -30.5064   19.3842 H   0  0  0  0  0  0
  -22.8341  -29.1947   19.8261 H   0  0  0  0  0  0
  -25.1338  -36.1743   25.0786 H   0  0  0  0  0  0
  -21.0038  -28.3369   24.1304 H   0  0  0  0  0  0
  -20.5674  -26.2377   23.3649 H   0  0  0  0  0  0
  -21.6661  -26.7403   22.1214 H   0  0  0  0  0  0
  -19.6931  -25.6273   21.1279 H   0  0  0  0  0  0
  -19.6714  -27.3156   20.6721 H   0  0  0  0  0  0
  -17.4224  -26.6685   21.4025 H   0  0  0  0  0  0
  -18.0349  -26.0098   22.9030 H   0  0  0  0  0  0
  -19.7972  -30.7325   24.2191 H   0  0  0  0  0  0
  -17.5041  -31.6273   24.5166 H   0  0  0  0  0  0
  -15.5377  -30.2970   23.7699 H   0  0  0  0  0  0
  -15.8707  -28.0807   22.7107 H   0  0  0  0  0  0
  -24.5880  -30.7121   25.7652 H   0  0  0  0  0  0
  -24.8848  -32.2995   26.4630 H   0  0  0  0  0  0
  -25.7901  -30.9050   27.0213 H   0  0  0  0  0  0
  -26.3149  -29.6549   24.1450 H   0  0  0  0  0  0
  -27.3965  -29.7274   25.5137 H   0  0  0  0  0  0
  -27.9104  -30.4060   23.9910 H   0  0  0  0  0  0
  -27.2604  -33.3700   26.1936 H   0  0  0  0  0  0
  -28.3928  -32.6836   25.0383 H   0  0  0  0  0  0
  -28.0633  -31.8575   26.5535 H   0  0  0  0  0  0
  -28.2565  -38.0071   24.7512 H   0  0  0  0  0  0
  -28.1086  -36.2595   24.6296 H   0  0  0  0  0  0
  -27.2283  -37.1399   25.8868 H   0  0  0  0  0  0
  -20.9610  -29.8717   21.6634 H   0  0  0  0  0  0
  -26.0122  -38.2750   24.1415 H   0  0  0  0  0  0
  -28.1879  -20.2723   22.4032 H   0  0  0  0  0  0
  -28.1981  -18.1513   23.5603 H   0  0  0  0  0  0
  -30.1572  -18.2616   19.1101 H   0  0  0  0  0  0
  -28.1196  -22.3577   21.4853 H   0  0  0  0  0  0
  -29.6975  -22.8072   21.0047 H   0  0  0  0  0  0
  -27.0203  -23.9742   19.8698 H   0  0  0  0  0  0
  -28.4309  -24.1335   18.9166 H   0  0  0  0  0  0
  1 25  1  0  0  0
  1 30  2  0  0  0
  1 74  1  0  0  0
  2  3  1  0  0  0
  2 25  1  0  0  0
  2 81  1  0  0  0
  2 82  1  0  0  0
  3  4  1  0  0  0
  3 83  1  0  0  0
  3 84  1  0  0  0
  4  5  1  0  0  0
  4 85  1  0  0  0
  4 86  1  0  0  0
  5  6  1  0  0  0
  5 26  1  0  0  0
  5 87  1  0  0  0
  6 25  1  0  0  0
  6 88  1  0  0  0
  6 89  1  0  0  0
  7  8  2  0  0  0
  7 26  1  0  0  0
  7 29  1  0  0  0
  8  9  1  0  0  0
  8 22  1  0  0  0
  9 10  1  0  0  0
  9 27  2  0  0  0
 10 11  2  0  0  0
 10 15  1  0  0  0
 11 12  1  0  0  0
 11 90  1  0  0  0
 12 13  2  0  0  0
 12 91  1  0  0  0
 13 14  1  0  0  0
 13 31  1  0  0  0
 14 15  2  0  0  0
 14 92  1  0  0  0
 15 93  1  0  0  0
 16 17  2  0  0  0
 16 21  1  0  0  0
 16 31  1  0  0  0
 17 18  1  0  0  0
 17 94  1  0  0  0
 18 19  2  0  0  0
 18 95  1  0  0  0
 19 20  1  0  0  0
 19 24  1  0  0  0
 20 21  2  0  0  0
 20 96  1  0  0  0
 21 23  1  0  0  0
 22 28  1  0  0  0
 22 32  2  0  0  0
 26 27  1  0  0  0
 28 97  1  0  0  0
 28 98  1  0  0  0
 29 99  1  0  0  0
 29100  1  0  0  0
 33 34  1  0  0  0
 33 66  1  0  0  0
 33 70  2  0  0  0
 34 36  1  0  0  0
 34 59  1  0  0  0
 34101  1  0  0  0
 35 44  2  0  0  0
 35 45  1  0  0  0
 35 68  1  0  0  0
 36 56  1  0  0  0
 36102  1  0  0  0
 37 39  1  0  0  0
 37 47  1  0  0  0
 37 66  1  0  0  0
 37103  1  0  0  0
 38 43  2  0  0  0
 38 46  1  0  0  0
 38 47  1  0  0  0
 39 64  1  0  0  0
 39 67  2  0  0  0
 40 52  1  0  0  0
 40 53  2  0  0  0
 40 58  1  0  0  0
 41104  1  0  0  0
 41105  1  0  0  0
 41106  1  0  0  0
 41 48  1  0  0  0
 42 43  1  0  0  0
 42 66  1  0  0  0
 42107  1  0  0  0
 42108  1  0  0  0
 43 44  1  0  0  0
 44109  1  0  0  0
 45 46  2  0  0  0
 45110  1  0  0  0
 46111  1  0  0  0
 47112  1  0  0  0
 47113  1  0  0  0
 48 56  1  0  0  0
 48 65  1  0  0  0
 48114  1  0  0  0
 49 50  1  0  0  0
 49 53  1  0  0  0
 49 64  1  0  0  0
 49115  1  0  0  0
 50 51  1  0  0  0
 50116  1  0  0  0
 50117  1  0  0  0
 51 52  1  0  0  0
 51118  1  0  0  0
 51119  1  0  0  0
 52120  1  0  0  0
 52121  1  0  0  0
 53 54  1  0  0  0
 54 55  2  0  0  0
 54122  1  0  0  0
 55 57  1  0  0  0
 55123  1  0  0  0
 56 69  2  0  0  0
 57 58  2  0  0  0
 57124  1  0  0  0
 58125  1  0  0  0
 59 60  1  0  0  0
 59 61  1  0  0  0
 59 62  1  0  0  0
 60126  1  0  0  0
 60127  1  0  0  0
 60128  1  0  0  0
 61129  1  0  0  0
 61130  1  0  0  0
 61131  1  0  0  0
 62132  1  0  0  0
 62133  1  0  0  0
 62134  1  0  0  0
 63 65  1  0  0  0
 63135  1  0  0  0
 63136  1  0  0  0
 63137  1  0  0  0
 64138  1  0  0  0
 65139  1  0  0  0
 68 78  1  0  0  0
 71 72  2  0  0  0
 71 75  1  0  0  0
 71140  1  0  0  0
 72 76  1  0  0  0
 72141  1  0  0  0
 73 74  1  0  0  0
 73 75  2  0  0  0
 73142  1  0  0  0
 74 76  2  0  0  0
 75 79  1  0  0  0
 76 80  1  0  0  0
 77 78  1  0  0  0
 77 79  1  0  0  0
 77143  1  0  0  0
 77144  1  0  0  0
 78145  1  0  0  0
 78146  1  0  0  0
M  ISO  4   1 100  68 101  74 100  78 101
M  END
> <chiral flag>
0

> <version>
0

> <s_m_source_file>
/data/baiqing/PycharmProjects/Reinvent-master-3.2/result/LINK_invent/BTK/process_docking_weight1_custom_product_contain_oxygen_bond_distance_aromatic_linkinvent_7_9_3/rearranged_h_0010.sdf

> <i_m_source_file_index>
26

> <r_mmod_Potential_Energy-OPLS-2005>
1444.35632324219

> <r_mmod_Stretch_Energy-OPLS-2005>
656.162353515625

> <r_mmod_Bend_Energy-OPLS-2005>
465.063415527344

> <r_mmod_Torsional_Energy-OPLS-2005>
194.676406860352

> <r_mmod_Improper_Torsional_Energy-OPLS-2005>
2.31922101974487

> <r_mmod_Van_der_Waal_Energy-OPLS-2005>
128.074234008789

> <r_mmod_Electrostatic_Energy-OPLS-2005>
-321.227661132812

> <r_mmod_Solvation_Energy-OPLS-2005>
-194.017868041992

> <b_mmod_Minimization_Converged-OPLS-2005>
1

> <r_mmod_RMS_Derivative-OPLS-2005>
0.0419221371412277

$$$$
26
                    3D
 Structure written by MMmdl.
151159  0  0  1  0            999 V2000
  -30.4356  -15.3461   20.3067 C   0  0  0  0  0  0
  -30.4442  -12.8587   19.5104 C   0  0  0  0  0  0
  -29.5372  -12.5601   18.2891 C   0  0  0  0  0  0
  -28.0988  -12.2405   18.7370 C   0  0  0  0  0  0
  -27.5996  -13.2300   19.8128 C   0  0  2  0  0  0
  -28.6450  -13.5053   20.9244 C   0  0  0  0  0  0
  -25.2336  -13.8047   20.5798 C   0  0  0  0  0  0
  -24.1680  -13.0297   20.9314 C   0  0  0  0  0  0
  -24.6329  -11.6804   20.8830 C   0  0  0  0  0  0
  -23.9024  -10.4214   21.0452 C   0  0  0  0  0  0
  -24.3585   -9.4137   21.9217 C   0  0  0  0  0  0
  -23.6264   -8.2180   22.0767 C   0  0  0  0  0  0
  -22.4250   -8.0239   21.3546 C   0  0  0  0  0  0
  -21.9884   -9.0213   20.4651 C   0  0  0  0  0  0
  -22.7213  -10.2083   20.3075 C   0  0  0  0  0  0
  -21.6833   -6.0717   22.5281 C   0  0  0  0  0  0
  -21.4001   -6.5626   23.8214 C   0  0  0  0  0  0
  -21.3656   -5.6780   24.9177 C   0  0  0  0  0  0
  -21.6048   -4.3044   24.7229 C   0  0  0  0  0  0
  -21.8820   -3.8134   23.4351 C   0  0  0  0  0  0
  -21.9188   -4.6948   22.3406 C   0  0  0  0  0  0
  -22.7708  -13.5116   21.1919 C   0  0  0  0  0  0
  -22.1657   -4.2138   21.0982 F   0  0  0  0  0  0
  -21.5632   -3.4531   25.7743 F   0  0  0  0  0  0
  -29.8660  -14.0273   20.2724 N   0  0  0  0  0  0
  -26.2762  -12.9256   20.3291 N   0  0  0  0  0  0
  -25.9254  -11.6413   20.5803 N   0  0  0  0  0  0
  -22.0334  -12.8151   22.0482 N   0  0  0  0  0  0
  -25.3788  -15.1779   20.4216 N   0  0  0  0  0  0
  -31.6735  -15.3125   20.2350 O   0  0  0  0  0  0
  -21.6609   -6.8849   21.4242 O   0  0  0  0  0  0
  -22.3430  -14.5431   20.6740 O   0  0  0  0  0  0
  -24.6628  -31.8223   23.1680 C   0  0  0  0  0  0
  -25.9307  -32.4583   23.8152 C   0  0  1  0  0  0
  -27.2382  -26.9300   20.1838 C   0  0  0  0  0  0
  -25.5968  -33.8396   24.2061 N   0  0  0  0  0  0
  -23.4791  -30.4302   21.5173 C   0  0  2  0  0  0
  -24.9370  -28.8141   20.1104 C   0  0  0  0  0  0
  -22.7670  -29.4425   22.4781 C   0  0  0  0  0  0
  -18.0322  -28.1409   22.8466 C   0  0  0  0  0  0
  -24.1495  -36.7209   23.2647 C   0  0  0  0  0  0
  -26.0469  -30.6284   21.3988 C   0  0  0  0  0  0
  -26.1179  -29.2172   20.7452 C   0  0  0  0  0  0
  -27.2585  -28.2952   20.7593 C   0  0  0  0  0  0
  -26.0291  -26.6792   19.4946 C   0  0  0  0  0  0
  -24.9181  -27.5656   19.4649 C   0  0  0  0  0  0
  -23.7197  -29.7396   20.1451 C   0  0  0  0  0  0
  -25.4136  -36.2967   24.0299 C   0  0  1  0  0  0
  -20.5946  -28.3753   23.1190 C   0  0  2  0  0  0
  -20.6798  -26.9433   22.5407 C   0  0  0  0  0  0
  -19.5773  -26.6372   21.5219 C   0  0  0  0  0  0
  -18.1954  -26.7940   22.1624 C   0  0  0  0  0  0
  -19.1583  -28.8903   23.2812 C   0  0  0  0  0  0
  -18.9494  -30.1492   23.8846 C   0  0  0  0  0  0
  -17.6486  -30.6598   24.0555 C   0  0  0  0  0  0
  -25.9099  -34.9349   23.5008 C   0  0  0  0  0  0
  -16.5376  -29.9085   23.6341 C   0  0  0  0  0  0
  -16.7304  -28.6506   23.0360 C   0  0  0  0  0  0
  -26.4557  -31.6529   25.0684 C   0  0  0  0  0  0
  -25.3676  -31.3782   26.1335 C   0  0  0  0  0  0
  -27.0458  -30.2895   24.6420 C   0  0  0  0  0  0
  -27.6045  -32.4339   25.7488 C   0  0  0  0  0  0
  -27.5572  -37.1760   24.8465 C   0  0  0  0  0  0
  -21.4337  -29.3038   22.3534 N   0  0  0  0  0  0
  -26.4283  -37.3702   23.9405 N   0  0  0  0  0  0
  -24.7507  -30.9876   22.0820 N   0  0  0  0  0  0
  -23.4212  -28.8007   23.3036 O   0  0  0  0  0  0
  -28.2584  -25.8428   20.2977 O   0  0  0  0  0  0
  -26.5719  -34.8890   22.4610 O   0  0  0  0  0  0
  -23.5694  -32.1198   23.6767 O   0  0  0  0  0  0
  -29.3814  -19.7970   20.6341 C   0  0  0  0  0  0
  -28.0473  -17.6993   18.6333 C   0  0  0  0  0  0
  -29.3699  -18.4080   18.4492 C   0  0  0  0  0  0
  -28.4731  -16.4161   19.3431 C   0  0  0  0  0  0
  -29.9053  -18.2965   19.8731 C   0  0  2  0  0  0
  -28.9136  -22.7207   20.6321 C   0  0  0  0  0  0
  -28.1668  -24.2248   19.9539 C   0  0  0  0  0  0
  -29.6777  -16.6430   20.1563 N   0  0  0  0  0  0
  -29.1543  -21.1563   20.0699 N   0  0  0  0  0  0
  -29.2079  -19.6993   21.8486 O   0  0  0  0  0  0
  -31.4548  -13.0774   19.1630 H   0  0  0  0  0  0
  -30.5384  -11.9806   20.1512 H   0  0  0  0  0  0
  -29.9422  -11.7291   17.7095 H   0  0  0  0  0  0
  -29.5315  -13.4239   17.6226 H   0  0  0  0  0  0
  -28.0936  -11.2289   19.1444 H   0  0  0  0  0  0
  -27.4240  -12.2290   17.8798 H   0  0  0  0  0  0
  -27.4401  -14.1229   19.2307 H   0  0  0  0  0  0
  -28.8475  -12.6080   21.5109 H   0  0  0  0  0  0
  -28.2640  -14.2511   21.6234 H   0  0  0  0  0  0
  -25.2728   -9.5616   22.4794 H   0  0  0  0  0  0
  -23.9971   -7.4566   22.7480 H   0  0  0  0  0  0
  -21.0816   -8.8736   19.8953 H   0  0  0  0  0  0
  -22.3690  -10.9631   19.6188 H   0  0  0  0  0  0
  -21.1987   -7.6133   23.9715 H   0  0  0  0  0  0
  -21.1479   -6.0508   25.9079 H   0  0  0  0  0  0
  -22.0607   -2.7598   23.2849 H   0  0  0  0  0  0
  -22.3922  -11.9821   22.4906 H   0  0  0  0  0  0
  -21.0958  -13.1209   22.2667 H   0  0  0  0  0  0
  -24.5989  -15.8149   20.5433 H   0  0  0  0  0  0
  -26.2151  -15.6368   20.0912 H   0  0  0  0  0  0
  -26.7378  -32.5126   23.0868 H   0  0  0  0  0  0
  -25.0044  -33.9469   25.0164 H   0  0  0  0  0  0
  -22.7924  -31.2612   21.3433 H   0  0  0  0  0  0
  -23.3769  -35.9529   23.3281 H   0  0  0  0  0  0
  -24.3568  -36.8886   22.2067 H   0  0  0  0  0  0
  -23.7244  -37.6385   23.6724 H   0  0  0  0  0  0
  -26.2253  -31.3681   20.6172 H   0  0  0  0  0  0
  -26.9075  -30.6879   22.0534 H   0  0  0  0  0  0
  -28.1498  -28.6010   21.2891 H   0  0  0  0  0  0
  -25.9075  -25.7257   19.0014 H   0  0  0  0  0  0
  -24.0219  -27.2499   18.9487 H   0  0  0  0  0  0
  -23.8709  -30.5058   19.3839 H   0  0  0  0  0  0
  -22.8307  -29.1897   19.8312 H   0  0  0  0  0  0
  -25.1335  -36.1764   25.0791 H   0  0  0  0  0  0
  -21.0034  -28.3366   24.1314 H   0  0  0  0  0  0
  -20.5680  -26.2372   23.3650 H   0  0  0  0  0  0
  -21.6660  -26.7408   22.1213 H   0  0  0  0  0  0
  -19.6932  -25.6270   21.1278 H   0  0  0  0  0  0
  -19.6713  -27.3156   20.6730 H   0  0  0  0  0  0
  -17.4224  -26.6684   21.4026 H   0  0  0  0  0  0
  -18.0348  -26.0094   22.9031 H   0  0  0  0  0  0
  -19.7968  -30.7324   24.2189 H   0  0  0  0  0  0
  -17.5037  -31.6271   24.5170 H   0  0  0  0  0  0
  -15.5374  -30.2972   23.7693 H   0  0  0  0  0  0
  -15.8704  -28.0810   22.7102 H   0  0  0  0  0  0
  -24.5869  -30.7126   25.7633 H   0  0  0  0  0  0
  -24.8852  -32.2985   26.4634 H   0  0  0  0  0  0
  -25.7896  -30.9019   27.0194 H   0  0  0  0  0  0
  -26.3128  -29.6561   24.1413 H   0  0  0  0  0  0
  -27.3980  -29.7270   25.5077 H   0  0  0  0  0  0
  -27.9071  -30.4079   23.9843 H   0  0  0  0  0  0
  -27.2611  -33.3684   26.1939 H   0  0  0  0  0  0
  -28.3919  -32.6830   25.0362 H   0  0  0  0  0  0
  -28.0643  -31.8547   26.5506 H   0  0  0  0  0  0
  -28.2571  -38.0072   24.7511 H   0  0  0  0  0  0
  -28.1087  -36.2597   24.6298 H   0  0  0  0  0  0
  -27.2285  -37.1408   25.8867 H   0  0  0  0  0  0
  -20.9602  -29.8714   21.6643 H   0  0  0  0  0  0
  -26.0133  -38.2764   24.1404 H   0  0  0  0  0  0
  -27.5433  -17.4999   17.6861 H   0  0  0  0  0  0
  -27.3622  -18.2827   19.2518 H   0  0  0  0  0  0
  -29.2529  -19.4235   18.0703 H   0  0  0  0  0  0
  -30.0097  -17.8721   17.7458 H   0  0  0  0  0  0
  -28.6640  -15.6788   18.5605 H   0  0  0  0  0  0
  -27.6813  -16.0873   20.0027 H   0  0  0  0  0  0
  -30.9890  -18.4141   19.8299 H   0  0  0  0  0  0
  -28.4474  -22.5864   21.6084 H   0  0  0  0  0  0
  -29.9299  -23.0291   20.8778 H   0  0  0  0  0  0
  -27.0987  -24.0104   19.9529 H   0  0  0  0  0  0
  -28.4353  -24.2007   18.8978 H   0  0  0  0  0  0
  -29.2758  -21.1503   19.0653 H   0  0  0  0  0  0
  1 25  1  0  0  0
  1 30  2  0  0  0
  1 78  1  0  0  0
  2  3  1  0  0  0
  2 25  1  0  0  0
  2 81  1  0  0  0
  2 82  1  0  0  0
  3  4  1  0  0  0
  3 83  1  0  0  0
  3 84  1  0  0  0
  4  5  1  0  0  0
  4 85  1  0  0  0
  4 86  1  0  0  0
  5  6  1  0  0  0
  5 26  1  0  0  0
  5 87  1  0  0  0
  6 25  1  0  0  0
  6 88  1  0  0  0
  6 89  1  0  0  0
  7  8  2  0  0  0
  7 26  1  0  0  0
  7 29  1  0  0  0
  8  9  1  0  0  0
  8 22  1  0  0  0
  9 10  1  0  0  0
  9 27  2  0  0  0
 10 11  2  0  0  0
 10 15  1  0  0  0
 11 12  1  0  0  0
 11 90  1  0  0  0
 12 13  2  0  0  0
 12 91  1  0  0  0
 13 14  1  0  0  0
 13 31  1  0  0  0
 14 15  2  0  0  0
 14 92  1  0  0  0
 15 93  1  0  0  0
 16 17  2  0  0  0
 16 21  1  0  0  0
 16 31  1  0  0  0
 17 18  1  0  0  0
 17 94  1  0  0  0
 18 19  2  0  0  0
 18 95  1  0  0  0
 19 20  1  0  0  0
 19 24  1  0  0  0
 20 21  2  0  0  0
 20 96  1  0  0  0
 21 23  1  0  0  0
 22 28  1  0  0  0
 22 32  2  0  0  0
 26 27  1  0  0  0
 28 97  1  0  0  0
 28 98  1  0  0  0
 29 99  1  0  0  0
 29100  1  0  0  0
 33 34  1  0  0  0
 33 66  1  0  0  0
 33 70  2  0  0  0
 34 36  1  0  0  0
 34 59  1  0  0  0
 34101  1  0  0  0
 35 44  2  0  0  0
 35 45  1  0  0  0
 35 68  1  0  0  0
 36 56  1  0  0  0
 36102  1  0  0  0
 37 39  1  0  0  0
 37 47  1  0  0  0
 37 66  1  0  0  0
 37103  1  0  0  0
 38 43  2  0  0  0
 38 46  1  0  0  0
 38 47  1  0  0  0
 39 64  1  0  0  0
 39 67  2  0  0  0
 40 52  1  0  0  0
 40 53  2  0  0  0
 40 58  1  0  0  0
 41104  1  0  0  0
 41105  1  0  0  0
 41106  1  0  0  0
 41 48  1  0  0  0
 42 43  1  0  0  0
 42 66  1  0  0  0
 42107  1  0  0  0
 42108  1  0  0  0
 43 44  1  0  0  0
 44109  1  0  0  0
 45 46  2  0  0  0
 45110  1  0  0  0
 46111  1  0  0  0
 47112  1  0  0  0
 47113  1  0  0  0
 48 56  1  0  0  0
 48 65  1  0  0  0
 48114  1  0  0  0
 49 50  1  0  0  0
 49 53  1  0  0  0
 49 64  1  0  0  0
 49115  1  0  0  0
 50 51  1  0  0  0
 50116  1  0  0  0
 50117  1  0  0  0
 51 52  1  0  0  0
 51118  1  0  0  0
 51119  1  0  0  0
 52120  1  0  0  0
 52121  1  0  0  0
 53 54  1  0  0  0
 54 55  2  0  0  0
 54122  1  0  0  0
 55 57  1  0  0  0
 55123  1  0  0  0
 56 69  2  0  0  0
 57 58  2  0  0  0
 57124  1  0  0  0
 58125  1  0  0  0
 59 60  1  0  0  0
 59 61  1  0  0  0
 59 62  1  0  0  0
 60126  1  0  0  0
 60127  1  0  0  0
 60128  1  0  0  0
 61129  1  0  0  0
 61130  1  0  0  0
 61131  1  0  0  0
 62132  1  0  0  0
 62133  1  0  0  0
 62134  1  0  0  0
 63 65  1  0  0  0
 63135  1  0  0  0
 63136  1  0  0  0
 63137  1  0  0  0
 64138  1  0  0  0
 65139  1  0  0  0
 68 77  1  0  0  0
 71 79  1  0  0  0
 71 80  2  0  0  0
 71 75  1  0  0  0
 72 73  1  0  0  0
 72 74  1  0  0  0
 72140  1  0  0  0
 72141  1  0  0  0
 73 75  1  0  0  0
 73142  1  0  0  0
 73143  1  0  0  0
 74 78  1  0  0  0
 74144  1  0  0  0
 74145  1  0  0  0
 75 78  1  0  0  0
 75146  1  0  0  0
 76 77  1  0  0  0
 76 79  1  0  0  0
 76147  1  0  0  0
 76148  1  0  0  0
 77149  1  0  0  0
 77150  1  0  0  0
 79151  1  0  0  0
M  ISO  4   1 100  68 101  77 101  78 100
M  END
> <chiral flag>
0

> <version>
0

> <s_m_source_file>
/data/baiqing/PycharmProjects/Reinvent-master-3.2/result/LINK_invent/BTK/process_docking_weight1_custom_product_contain_oxygen_bond_distance_aromatic_linkinvent_7_9_3/rearranged_h_0010.sdf

> <i_m_source_file_index>
27

> <r_mmod_Potential_Energy-OPLS-2005>
1428.60339355469

> <r_mmod_Stretch_Energy-OPLS-2005>
636.473327636719

> <r_mmod_Bend_Energy-OPLS-2005>
507.500549316406

> <r_mmod_Torsional_Energy-OPLS-2005>
270.4462890625

> <r_mmod_Improper_Torsional_Energy-OPLS-2005>
10.1523065567017

> <r_mmod_Van_der_Waal_Energy-OPLS-2005>
120.580345153809

> <r_mmod_Electrostatic_Energy-OPLS-2005>
-379.536407470703

> <r_mmod_Solvation_Energy-OPLS-2005>
-247.910186767578

> <b_mmod_Minimization_Converged-OPLS-2005>
0

> <r_mmod_RMS_Derivative-OPLS-2005>
0.772704601287842

$$$$
27
                    3D
 Structure written by MMmdl.
165173  0  0  1  0            999 V2000
  -30.0492  -16.3136   20.2629 C   0  0  0  0  0  0
  -30.3556  -13.5889   19.5543 C   0  0  0  0  0  0
  -29.5777  -12.8611   18.3950 C   0  0  0  0  0  0
  -28.2025  -12.3651   18.8527 C   0  0  0  0  0  0
  -27.5779  -13.3940   19.8107 C   0  0  2  0  0  0
  -28.5405  -14.0020   20.8836 C   0  0  0  0  0  0
  -25.2203  -13.8420   20.5903 C   0  0  0  0  0  0
  -24.1685  -13.0446   20.9338 C   0  0  0  0  0  0
  -24.6507  -11.6988   20.8739 C   0  0  0  0  0  0
  -23.9219  -10.4292   21.0343 C   0  0  0  0  0  0
  -24.3714   -9.4210   21.9150 C   0  0  0  0  0  0
  -23.6348   -8.2268   22.0743 C   0  0  0  0  0  0
  -22.4331   -8.0304   21.3538 C   0  0  0  0  0  0
  -21.9992   -9.0284   20.4640 C   0  0  0  0  0  0
  -22.7360  -10.2138   20.3023 C   0  0  0  0  0  0
  -21.6872   -6.0754   22.5279 C   0  0  0  0  0  0
  -21.4030   -6.5649   23.8216 C   0  0  0  0  0  0
  -21.3666   -5.6798   24.9175 C   0  0  0  0  0  0
  -21.6046   -4.3060   24.7220 C   0  0  0  0  0  0
  -21.8816   -3.8155   23.4337 C   0  0  0  0  0  0
  -21.9194   -4.6977   22.3397 C   0  0  0  0  0  0
  -22.7674  -13.5100   21.1948 C   0  0  0  0  0  0
  -22.1660   -4.2157   21.0976 F   0  0  0  0  0  0
  -21.5623   -3.4542   25.7732 F   0  0  0  0  0  0
  -29.6030  -14.8293   20.1932 N   0  0  0  0  0  0
  -26.2775  -12.9928   20.3354 N   0  0  0  0  0  0
  -25.9490  -11.6896   20.5647 N   0  0  0  0  0  0
  -22.0377  -12.8050   22.0501 N   0  0  0  0  0  0
  -25.3625  -15.2183   20.4352 N   0  0  0  0  0  0
  -31.2956  -16.1350   20.1511 O   0  0  0  0  0  0
  -21.6668   -6.8910   21.4247 O   0  0  0  0  0  0
  -22.3311  -14.5382   20.6777 O   0  0  0  0  0  0
  -24.7230  -31.7462   23.1240 C   0  0  0  0  0  0
  -25.9587  -32.4197   23.7929 C   0  0  1  0  0  0
  -27.2470  -26.2342   20.2268 C   0  0  0  0  0  0
  -25.5977  -33.8071   24.1716 N   0  0  0  0  0  0
  -23.5799  -30.3225   21.4826 C   0  0  2  0  0  0
  -25.0730  -28.6018   20.1053 C   0  0  0  0  0  0
  -22.8000  -29.3937   22.4590 C   0  0  0  0  0  0
  -18.0350  -28.1478   22.8384 C   0  0  0  0  0  0
  -24.1480  -36.7010   23.2662 C   0  0  0  0  0  0
  -26.1754  -30.3065   21.4932 C   0  0  0  0  0  0
  -26.2397  -28.8236   20.8401 C   0  0  0  0  0  0
  -27.2683  -27.6667   20.9033 C   0  0  0  0  0  0
  -26.1482  -26.4429   19.3189 C   0  0  0  0  0  0
  -25.0965  -27.4425   19.3148 C   0  0  0  0  0  0
  -23.8744  -29.5932   20.1305 C   0  0  0  0  0  0
  -25.4158  -36.2730   24.0242 C   0  0  1  0  0  0
  -20.6011  -28.3794   23.1106 C   0  0  2  0  0  0
  -20.6760  -26.9381   22.5530 C   0  0  0  0  0  0
  -19.5830  -26.6352   21.5228 C   0  0  0  0  0  0
  -18.1939  -26.8062   22.1432 C   0  0  0  0  0  0
  -19.1634  -28.8971   23.2703 C   0  0  0  0  0  0
  -18.9538  -30.1532   23.8796 C   0  0  0  0  0  0
  -17.6527  -30.6613   24.0578 C   0  0  0  0  0  0
  -25.9171  -34.9127   23.4848 C   0  0  0  0  0  0
  -16.5410  -29.9104   23.6396 C   0  0  0  0  0  0
  -16.7326  -28.6553   23.0359 C   0  0  0  0  0  0
  -26.4625  -31.6459   25.0776 C   0  0  0  0  0  0
  -25.3568  -31.3936   26.1297 C   0  0  0  0  0  0
  -27.0646  -30.2718   24.7132 C   0  0  0  0  0  0
  -27.5992  -32.4473   25.7574 C   0  0  0  0  0  0
  -27.5540  -37.1659   24.8478 C   0  0  0  0  0  0
  -21.4600  -29.2898   22.3330 N   0  0  0  0  0  0
  -26.4253  -37.3543   23.9400 N   0  0  0  0  0  0
  -24.8522  -30.8391   22.0806 N   0  0  0  0  0  0
  -23.4205  -28.7599   23.3137 O   0  0  0  0  0  0
  -27.8774  -24.6004   20.3619 O   0  0  0  0  0  0
  -26.5897  -34.8796   22.4536 O   0  0  0  0  0  0
  -23.6131  -32.0783   23.5807 O   0  0  0  0  0  0
  -28.2159  -24.1942   22.4422 C   0  0  0  0  0  0
  -29.1445  -23.0089   21.4774 C   0  0  0  0  0  0
  -26.5032  -24.5217   21.9979 C   0  0  0  0  0  0
  -27.0893  -22.5089   19.7090 C   0  0  0  0  0  0
  -28.5788  -21.8331   20.3237 C   0  0  0  0  0  0
  -25.9552  -23.6454   20.5052 C   0  0  0  0  0  0
  -22.1334  -23.8265   20.1965 C   0  0  0  0  0  0
  -29.3579  -19.8716   20.1224 C   0  0  0  0  0  0
  -24.5518  -23.8837   19.9357 C   0  0  0  0  0  0
  -24.3613  -21.8968   22.5306 C   0  0  0  0  0  0
  -25.7773  -22.1891   23.0781 C   0  0  0  0  0  0
  -23.5347  -23.1182   22.0834 C   0  0  0  0  0  0
  -26.9889  -22.3130   22.0284 C   0  0  0  0  0  0
  -29.3100  -17.8668   20.2870 N   0  0  0  0  0  0
  -23.4193  -23.2080   20.6073 N   0  3  1  0  0  0
  -31.3015  -13.9301   19.1369 H   0  0  0  0  0  0
  -30.6537  -12.8684   20.3198 H   0  0  0  0  0  0
  -30.1667  -12.0340   17.9985 H   0  0  0  0  0  0
  -29.4494  -13.5629   17.5692 H   0  0  0  0  0  0
  -28.3302  -11.4139   19.3723 H   0  0  0  0  0  0
  -27.5526  -12.1763   17.9962 H   0  0  0  0  0  0
  -27.3506  -14.2273   19.1434 H   0  0  0  0  0  0
  -28.9390  -13.2407   21.5558 H   0  0  0  0  0  0
  -27.9841  -14.6814   21.5284 H   0  0  0  0  0  0
  -25.2853   -9.5672   22.4740 H   0  0  0  0  0  0
  -24.0034   -7.4661   22.7480 H   0  0  0  0  0  0
  -21.0915   -8.8827   19.8950 H   0  0  0  0  0  0
  -22.3822  -10.9677   19.6129 H   0  0  0  0  0  0
  -21.2038   -7.6159   23.9722 H   0  0  0  0  0  0
  -21.1493   -6.0527   25.9076 H   0  0  0  0  0  0
  -22.0586   -2.7617   23.2841 H   0  0  0  0  0  0
  -22.4062  -11.9748   22.4900 H   0  0  0  0  0  0
  -21.0964  -13.0987   22.2689 H   0  0  0  0  0  0
  -24.5775  -15.8517   20.5444 H   0  0  0  0  0  0
  -26.1993  -15.6750   20.0975 H   0  0  0  0  0  0
  -26.7758  -32.4581   23.0718 H   0  0  0  0  0  0
  -24.9911  -33.9061   24.9708 H   0  0  0  0  0  0
  -22.9307  -31.1716   21.2581 H   0  0  0  0  0  0
  -23.3774  -35.9309   23.3271 H   0  0  0  0  0  0
  -24.3511  -36.8754   22.2091 H   0  0  0  0  0  0
  -23.7228  -37.6149   23.6821 H   0  0  0  0  0  0
  -26.4472  -31.0067   20.6986 H   0  0  0  0  0  0
  -26.9964  -30.3864   22.1873 H   0  0  0  0  0  0
  -28.0736  -27.8176   21.6114 H   0  0  0  0  0  0
  -26.0064  -25.6343   18.6205 H   0  0  0  0  0  0
  -24.2700  -27.2826   18.6373 H   0  0  0  0  0  0
  -24.0739  -30.3475   19.3664 H   0  0  0  0  0  0
  -22.9825  -29.0674   19.7870 H   0  0  0  0  0  0
  -25.1389  -36.1427   25.0735 H   0  0  0  0  0  0
  -21.0048  -28.3481   24.1236 H   0  0  0  0  0  0
  -20.5401  -26.2459   23.3837 H   0  0  0  0  0  0
  -21.6679  -26.7161   22.1548 H   0  0  0  0  0  0
  -19.6924  -25.6227   21.1338 H   0  0  0  0  0  0
  -19.6943  -27.3099   20.6730 H   0  0  0  0  0  0
  -17.4339  -26.7070   21.3652 H   0  0  0  0  0  0
  -18.0007  -26.0144   22.8687 H   0  0  0  0  0  0
  -19.8016  -30.7364   24.2145 H   0  0  0  0  0  0
  -17.5073  -31.6270   24.5233 H   0  0  0  0  0  0
  -15.5406  -30.2960   23.7818 H   0  0  0  0  0  0
  -15.8716  -28.0866   22.7109 H   0  0  0  0  0  0
  -24.5831  -30.7198   25.7584 H   0  0  0  0  0  0
  -24.8679  -32.3201   26.4327 H   0  0  0  0  0  0
  -25.7630  -30.9378   27.0329 H   0  0  0  0  0  0
  -26.3441  -29.6144   24.2260 H   0  0  0  0  0  0
  -27.3907  -29.7447   25.6097 H   0  0  0  0  0  0
  -27.9520  -30.3669   24.0888 H   0  0  0  0  0  0
  -27.2464  -33.3909   26.1744 H   0  0  0  0  0  0
  -28.3966  -32.6812   25.0516 H   0  0  0  0  0  0
  -28.0476  -31.8914   26.5809 H   0  0  0  0  0  0
  -28.2511  -37.9989   24.7506 H   0  0  0  0  0  0
  -28.1073  -36.2500   24.6329 H   0  0  0  0  0  0
  -27.2250  -37.1328   25.8879 H   0  0  0  0  0  0
  -21.0026  -29.8473   21.6258 H   0  0  0  0  0  0
  -26.0023  -38.2560   24.1437 H   0  0  0  0  0  0
  -28.6755  -24.7188   23.2690 H   0  0  0  0  0  0
  -30.1232  -22.8057   21.8922 H   0  0  0  0  0  0
  -25.8922  -25.2332   22.5359 H   0  0  0  0  0  0
  -26.6531  -21.9597   18.8865 H   0  0  0  0  0  0
  -22.0492  -23.8629   19.1077 H   0  0  0  0  0  0
  -22.0567  -24.8524   20.5630 H   0  0  0  0  0  0
  -21.2739  -23.2759   20.5754 H   0  0  0  0  0  0
  -30.3245  -20.0354   20.6057 H   0  0  0  0  0  0
  -29.6003  -19.9242   19.0606 H   0  0  0  0  0  0
  -24.5439  -23.6479   18.8728 H   0  0  0  0  0  0
  -24.3313  -24.9410   20.0218 H   0  0  0  0  0  0
  -23.7996  -21.4376   23.3488 H   0  0  0  0  0  0
  -24.3842  -21.1298   21.7535 H   0  0  0  0  0  0
  -25.9994  -21.3107   23.6917 H   0  0  0  0  0  0
  -25.7658  -22.9876   23.8237 H   0  0  0  0  0  0
  -23.8920  -24.0492   22.5187 H   0  0  0  0  0  0
  -22.5309  -22.9982   22.4953 H   0  0  0  0  0  0
  -26.6748  -21.3591   21.5723 H   0  0  0  0  0  0
  -27.7068  -21.8697   22.7412 H   0  0  0  0  0  0
  -28.3299  -17.6508   20.3889 H   0  0  0  0  0  0
  -23.3993  -22.2618   20.2577 H   0  0  0  0  0  0
  1 25  1  0  0  0
  1 30  2  0  0  0
  1 84  1  0  0  0
  2  3  1  0  0  0
  2 25  1  0  0  0
  2 86  1  0  0  0
  2 87  1  0  0  0
  3  4  1  0  0  0
  3 88  1  0  0  0
  3 89  1  0  0  0
  4  5  1  0  0  0
  4 90  1  0  0  0
  4 91  1  0  0  0
  5  6  1  0  0  0
  5 26  1  0  0  0
  5 92  1  0  0  0
  6 25  1  0  0  0
  6 93  1  0  0  0
  6 94  1  0  0  0
  7  8  2  0  0  0
  7 26  1  0  0  0
  7 29  1  0  0  0
  8  9  1  0  0  0
  8 22  1  0  0  0
  9 10  1  0  0  0
  9 27  2  0  0  0
 10 11  2  0  0  0
 10 15  1  0  0  0
 11 12  1  0  0  0
 11 95  1  0  0  0
 12 13  2  0  0  0
 12 96  1  0  0  0
 13 14  1  0  0  0
 13 31  1  0  0  0
 14 15  2  0  0  0
 14 97  1  0  0  0
 15 98  1  0  0  0
 16 17  2  0  0  0
 16 21  1  0  0  0
 16 31  1  0  0  0
 17 18  1  0  0  0
 17 99  1  0  0  0
 18 19  2  0  0  0
 18100  1  0  0  0
 19 20  1  0  0  0
 19 24  1  0  0  0
 20 21  2  0  0  0
 20101  1  0  0  0
 21 23  1  0  0  0
 22 28  1  0  0  0
 22 32  2  0  0  0
 26 27  1  0  0  0
 28102  1  0  0  0
 28103  1  0  0  0
 29104  1  0  0  0
 29105  1  0  0  0
 33 34  1  0  0  0
 33 66  1  0  0  0
 33 70  2  0  0  0
 34 36  1  0  0  0
 34 59  1  0  0  0
 34106  1  0  0  0
 35 44  2  0  0  0
 35 45  1  0  0  0
 35 68  1  0  0  0
 36 56  1  0  0  0
 36107  1  0  0  0
 37 39  1  0  0  0
 37 47  1  0  0  0
 37 66  1  0  0  0
 37108  1  0  0  0
 38 43  2  0  0  0
 38 46  1  0  0  0
 38 47  1  0  0  0
 39 64  1  0  0  0
 39 67  2  0  0  0
 40 52  1  0  0  0
 40 53  2  0  0  0
 40 58  1  0  0  0
 41109  1  0  0  0
 41110  1  0  0  0
 41111  1  0  0  0
 41 48  1  0  0  0
 42 43  1  0  0  0
 42 66  1  0  0  0
 42112  1  0  0  0
 42113  1  0  0  0
 43 44  1  0  0  0
 44114  1  0  0  0
 45 46  2  0  0  0
 45115  1  0  0  0
 46116  1  0  0  0
 47117  1  0  0  0
 47118  1  0  0  0
 48 56  1  0  0  0
 48 65  1  0  0  0
 48119  1  0  0  0
 49 50  1  0  0  0
 49 53  1  0  0  0
 49 64  1  0  0  0
 49120  1  0  0  0
 50 51  1  0  0  0
 50121  1  0  0  0
 50122  1  0  0  0
 51 52  1  0  0  0
 51123  1  0  0  0
 51124  1  0  0  0
 52125  1  0  0  0
 52126  1  0  0  0
 53 54  1  0  0  0
 54 55  2  0  0  0
 54127  1  0  0  0
 55 57  1  0  0  0
 55128  1  0  0  0
 56 69  2  0  0  0
 57 58  2  0  0  0
 57129  1  0  0  0
 58130  1  0  0  0
 59 60  1  0  0  0
 59 61  1  0  0  0
 59 62  1  0  0  0
 60131  1  0  0  0
 60132  1  0  0  0
 60133  1  0  0  0
 61134  1  0  0  0
 61135  1  0  0  0
 61136  1  0  0  0
 62137  1  0  0  0
 62138  1  0  0  0
 62139  1  0  0  0
 63 65  1  0  0  0
 63140  1  0  0  0
 63141  1  0  0  0
 63142  1  0  0  0
 64143  1  0  0  0
 65144  1  0  0  0
 68 83  1  0  0  0
 71 72  2  0  0  0
 71 73  1  0  0  0
 71145  1  0  0  0
 72 75  1  0  0  0
 72146  1  0  0  0
 73 76  2  0  0  0
 73147  1  0  0  0
 74 75  2  0  0  0
 74 76  1  0  0  0
 74148  1  0  0  0
 75 78  1  0  0  0
 76 79  1  0  0  0
 77149  1  0  0  0
 77150  1  0  0  0
 77151  1  0  0  0
 77 85  1  0  0  0
 78 84  1  0  0  0
 78152  1  0  0  0
 78153  1  0  0  0
 79 85  1  0  0  0
 79154  1  0  0  0
 79155  1  0  0  0
 80 81  1  0  0  0
 80 82  1  0  0  0
 80156  1  0  0  0
 80157  1  0  0  0
 81 83  1  0  0  0
 81158  1  0  0  0
 81159  1  0  0  0
 82 85  1  0  0  0
 82160  1  0  0  0
 82161  1  0  0  0
 83162  1  0  0  0
 83163  1  0  0  0
 84164  1  0  0  0
 85165  1  0  0  0
M  CHG  1  85   1
M  ISO  4   1 100  68 101  83 101  84 100
M  END
> <chiral flag>
0

> <version>
0

> <s_m_source_file>
/data/baiqing/PycharmProjects/Reinvent-master-3.2/result/LINK_invent/BTK/process_docking_weight1_custom_product_contain_oxygen_bond_distance_aromatic_linkinvent_7_9_3/rearranged_h_0010.sdf

> <i_m_source_file_index>
28

> <r_mmod_Potential_Energy-OPLS-2005>
11654.9248046875

> <r_mmod_Stretch_Energy-OPLS-2005>
6819.89892578125

> <r_mmod_Bend_Energy-OPLS-2005>
901.507141113281

> <r_mmod_Torsional_Energy-OPLS-2005>
342.9296875

> <r_mmod_Improper_Torsional_Energy-OPLS-2005>
10.1259508132935

> <r_mmod_Van_der_Waal_Energy-OPLS-2005>
2014.47790527344

> <r_mmod_Electrostatic_Energy-OPLS-2005>
-258.743957519531

> <r_mmod_Solvation_Energy-OPLS-2005>
-474.553192138672

> <b_mmod_Minimization_Converged-OPLS-2005>
0

> <r_mmod_RMS_Derivative-OPLS-2005>
8.96808242797852

$$$$
28
                    3D
 Structure written by MMmdl.
151159  0  0  1  0            999 V2000
  -30.6215  -14.6467   20.4927 C   0  0  0  0  0  0
  -30.4407  -12.3957   19.4503 C   0  0  0  0  0  0
  -29.5080  -12.5074   18.2234 C   0  0  0  0  0  0
  -28.0310  -12.3448   18.6369 C   0  0  0  0  0  0
  -27.6531  -13.2179   19.8634 C   0  0  2  0  0  0
  -28.7004  -13.0767   20.9916 C   0  0  0  0  0  0
  -25.2552  -13.8167   20.5692 C   0  0  0  0  0  0
  -24.1817  -13.0425   20.9166 C   0  0  0  0  0  0
  -24.6396  -11.6902   20.8726 C   0  0  0  0  0  0
  -23.9065  -10.4286   21.0398 C   0  0  0  0  0  0
  -24.3615   -9.4205   21.9181 C   0  0  0  0  0  0
  -23.6291   -8.2241   22.0754 C   0  0  0  0  0  0
  -22.4273   -8.0278   21.3545 C   0  0  0  0  0  0
  -21.9906   -9.0250   20.4646 C   0  0  0  0  0  0
  -22.7236  -10.2128   20.3050 C   0  0  0  0  0  0
  -21.6852   -6.0733   22.5280 C   0  0  0  0  0  0
  -21.4013   -6.5637   23.8213 C   0  0  0  0  0  0
  -21.3660   -5.6791   24.9175 C   0  0  0  0  0  0
  -21.6045   -4.3053   24.7225 C   0  0  0  0  0  0
  -21.8819   -3.8144   23.4346 C   0  0  0  0  0  0
  -21.9192   -4.6961   22.3403 C   0  0  0  0  0  0
  -22.7841  -13.5220   21.1842 C   0  0  0  0  0  0
  -22.1662   -4.2147   21.0981 F   0  0  0  0  0  0
  -21.5630   -3.4537   25.7739 F   0  0  0  0  0  0
  -30.0151  -13.4189   20.4251 N   0  0  0  0  0  0
  -26.2995  -12.9359   20.3338 N   0  0  0  0  0  0
  -25.9330  -11.6508   20.5761 N   0  0  0  0  0  0
  -22.0489  -12.8217   22.0407 N   0  0  0  0  0  0
  -25.4214  -15.1896   20.4180 N   0  0  0  0  0  0
  -31.7915  -14.8056   20.1326 O   0  0  0  0  0  0
  -21.6637   -6.8876   21.4242 O   0  0  0  0  0  0
  -22.3520  -14.5528   20.6698 O   0  0  0  0  0  0
  -24.6266  -31.8601   23.2031 C   0  0  0  0  0  0
  -25.9113  -32.4780   23.8358 C   0  0  1  0  0  0
  -27.2236  -27.3176   20.1118 C   0  0  0  0  0  0
  -25.5926  -33.8581   24.2283 N   0  0  0  0  0  0
  -23.4199  -30.4850   21.5463 C   0  0  2  0  0  0
  -24.8656  -28.9422   20.1113 C   0  0  0  0  0  0
  -22.7476  -29.4628   22.4939 C   0  0  0  0  0  0
  -18.0286  -28.1384   22.8487 C   0  0  0  0  0  0
  -24.1489  -36.7296   23.2639 C   0  0  0  0  0  0
  -25.9621  -30.7907   21.3744 C   0  0  0  0  0  0
  -26.0362  -29.4188   20.7147 C   0  0  0  0  0  0
  -27.2183  -28.6189   20.7045 C   0  0  0  0  0  0
  -26.0260  -26.8968   19.4857 C   0  0  0  0  0  0
  -24.8626  -27.6866   19.4884 C   0  0  0  0  0  0
  -23.6342  -29.8222   20.1610 C   0  0  0  0  0  0
  -25.4113  -36.3085   24.0330 C   0  0  1  0  0  0
  -20.5886  -28.3689   23.1283 C   0  0  2  0  0  0
  -20.6775  -26.9414   22.5408 C   0  0  0  0  0  0
  -19.5750  -26.6385   21.5212 C   0  0  0  0  0  0
  -18.1931  -26.7926   22.1626 C   0  0  0  0  0  0
  -19.1538  -28.8853   23.2880 C   0  0  0  0  0  0
  -18.9460  -30.1455   23.8897 C   0  0  0  0  0  0
  -17.6461  -30.6587   24.0563 C   0  0  0  0  0  0
  -25.9051  -34.9454   23.5107 C   0  0  0  0  0  0
  -16.5352  -29.9086   23.6329 C   0  0  0  0  0  0
  -16.7273  -28.6503   23.0352 C   0  0  0  0  0  0
  -26.4494  -31.6587   25.0728 C   0  0  0  0  0  0
  -25.3727  -31.3725   26.1454 C   0  0  0  0  0  0
  -27.0334  -30.3010   24.6182 C   0  0  0  0  0  0
  -27.6054  -32.4320   25.7498 C   0  0  0  0  0  0
  -27.5580  -37.1804   24.8465 C   0  0  0  0  0  0
  -21.4189  -29.3045   22.3680 N   0  0  0  0  0  0
  -26.4293  -37.3779   23.9407 N   0  0  0  0  0  0
  -24.6885  -31.0614   22.0981 N   0  0  0  0  0  0
  -23.4201  -28.8163   23.3014 O   0  0  0  0  0  0
  -28.3403  -26.4633   20.1602 O   0  0  0  0  0  0
  -26.5620  -34.8919   22.4674 O   0  0  0  0  0  0
  -23.5429  -32.1399   23.7358 O   0  0  0  0  0  0
  -31.1180  -17.8849   20.6034 C   0  0  0  0  0  0
  -31.1123  -19.3107   20.5262 C   0  0  0  0  0  0
  -28.7106  -19.3389   20.5192 C   0  0  0  0  0  0
  -29.9083  -17.1463   20.6525 C   0  0  0  0  0  0
  -29.9190  -20.0843   20.4854 C   0  0  0  0  0  0
  -28.7114  -17.9126   20.6067 C   0  0  0  0  0  0
  -29.2528  -23.9564   20.3436 C   0  0  0  0  0  0
  -28.1015  -25.0048   20.0220 C   0  0  0  0  0  0
  -28.8904  -22.3990   20.2827 C   0  0  0  0  0  0
  -29.7931  -15.6941   20.7921 N   0  0  0  0  0  0
  -30.0305  -21.4919   20.4337 O   0  0  0  0  0  0
  -27.5271  -17.2553   20.6481 F   0  0  0  0  0  0
  -31.4812  -12.5238   19.1468 H   0  0  0  0  0  0
  -30.3783  -11.4007   19.8940 H   0  0  0  0  0  0
  -29.7724  -11.7555   17.4787 H   0  0  0  0  0  0
  -29.6485  -13.4764   17.7417 H   0  0  0  0  0  0
  -27.8691  -11.2920   18.8707 H   0  0  0  0  0  0
  -27.3755  -12.5722   17.7955 H   0  0  0  0  0  0
  -27.6666  -14.2522   19.5190 H   0  0  0  0  0  0
  -28.7131  -12.0565   21.3781 H   0  0  0  0  0  0
  -28.4480  -13.7124   21.8419 H   0  0  0  0  0  0
  -25.2760   -9.5683   22.4755 H   0  0  0  0  0  0
  -23.9999   -7.4633   22.7474 H   0  0  0  0  0  0
  -21.0836   -8.8767   19.8954 H   0  0  0  0  0  0
  -22.3693  -10.9665   19.6157 H   0  0  0  0  0  0
  -21.2003   -7.6146   23.9716 H   0  0  0  0  0  0
  -21.1485   -6.0521   25.9079 H   0  0  0  0  0  0
  -22.0598   -2.7606   23.2846 H   0  0  0  0  0  0
  -22.4103  -11.9877   22.4793 H   0  0  0  0  0  0
  -21.1112  -13.1253   22.2622 H   0  0  0  0  0  0
  -24.6550  -15.8367   20.5619 H   0  0  0  0  0  0
  -26.2902  -15.6637   20.1983 H   0  0  0  0  0  0
  -26.7180  -32.5450   23.1107 H   0  0  0  0  0  0
  -25.0065  -33.9725   25.0423 H   0  0  0  0  0  0
  -22.7139  -31.3059   21.4047 H   0  0  0  0  0  0
  -23.3749  -35.9632   23.3306 H   0  0  0  0  0  0
  -24.3580  -36.8912   22.2052 H   0  0  0  0  0  0
  -23.7246  -37.6502   23.6657 H   0  0  0  0  0  0
  -26.0942  -31.5552   20.6075 H   0  0  0  0  0  0
  -26.8423  -30.8379   22.0041 H   0  0  0  0  0  0
  -28.1158  -28.9808   21.1864 H   0  0  0  0  0  0
  -25.9527  -25.9397   18.9927 H   0  0  0  0  0  0
  -23.9657  -27.3159   19.0113 H   0  0  0  0  0  0
  -23.7534  -30.5997   19.4055 H   0  0  0  0  0  0
  -22.7537  -29.2525   19.8581 H   0  0  0  0  0  0
  -25.1293  -36.1940   25.0823 H   0  0  0  0  0  0
  -20.9979  -28.3261   24.1404 H   0  0  0  0  0  0
  -20.5679  -26.2299   23.3607 H   0  0  0  0  0  0
  -21.6643  -26.7445   22.1199 H   0  0  0  0  0  0
  -19.6913  -25.6296   21.1242 H   0  0  0  0  0  0
  -19.6686  -27.3195   20.6741 H   0  0  0  0  0  0
  -17.4200  -26.6671   21.4030 H   0  0  0  0  0  0
  -18.0335  -26.0069   22.9023 H   0  0  0  0  0  0
  -19.7937  -30.7270   24.2269 H   0  0  0  0  0  0
  -17.5016  -31.6267   24.5164 H   0  0  0  0  0  0
  -15.5352  -30.2988   23.7651 H   0  0  0  0  0  0
  -15.8672  -28.0822   22.7068 H   0  0  0  0  0  0
  -24.5898  -30.7080   25.7780 H   0  0  0  0  0  0
  -24.8923  -32.2892   26.4885 H   0  0  0  0  0  0
  -25.8050  -30.8895   27.0226 H   0  0  0  0  0  0
  -26.2907  -29.6762   24.1207 H   0  0  0  0  0  0
  -27.4029  -29.7264   25.4687 H   0  0  0  0  0  0
  -27.8779  -30.4291   23.9407 H   0  0  0  0  0  0
  -27.2666  -33.3618   26.2077 H   0  0  0  0  0  0
  -28.3864  -32.6881   25.0327 H   0  0  0  0  0  0
  -28.0722  -31.8443   26.5414 H   0  0  0  0  0  0
  -28.2599  -38.0100   24.7509 H   0  0  0  0  0  0
  -28.1073  -36.2631   24.6294 H   0  0  0  0  0  0
  -27.2298  -37.1456   25.8868 H   0  0  0  0  0  0
  -20.9367  -29.8773   21.6895 H   0  0  0  0  0  0
  -26.0176  -38.2855   24.1401 H   0  0  0  0  0  0
  -32.0671  -17.3700   20.6429 H   0  0  0  0  0  0
  -32.0626  -19.8258   20.5039 H   0  0  0  0  0  0
  -27.7601  -19.8494   20.4918 H   0  0  0  0  0  0
  -29.6470  -24.1729   21.3364 H   0  0  0  0  0  0
  -30.0761  -24.1424   19.6539 H   0  0  0  0  0  0
  -27.2506  -24.7435   20.6531 H   0  0  0  0  0  0
  -27.7948  -24.8125   18.9934 H   0  0  0  0  0  0
  -28.4094  -22.1808   19.3285 H   0  0  0  0  0  0
  -28.1566  -22.1770   21.0583 H   0  0  0  0  0  0
  -28.8555  -15.3945   21.0126 H   0  0  0  0  0  0
  1 25  1  0  0  0
  1 30  2  0  0  0
  1 80  1  0  0  0
  2  3  1  0  0  0
  2 25  1  0  0  0
  2 83  1  0  0  0
  2 84  1  0  0  0
  3  4  1  0  0  0
  3 85  1  0  0  0
  3 86  1  0  0  0
  4  5  1  0  0  0
  4 87  1  0  0  0
  4 88  1  0  0  0
  5  6  1  0  0  0
  5 26  1  0  0  0
  5 89  1  0  0  0
  6 25  1  0  0  0
  6 90  1  0  0  0
  6 91  1  0  0  0
  7  8  2  0  0  0
  7 26  1  0  0  0
  7 29  1  0  0  0
  8  9  1  0  0  0
  8 22  1  0  0  0
  9 10  1  0  0  0
  9 27  2  0  0  0
 10 11  2  0  0  0
 10 15  1  0  0  0
 11 12  1  0  0  0
 11 92  1  0  0  0
 12 13  2  0  0  0
 12 93  1  0  0  0
 13 14  1  0  0  0
 13 31  1  0  0  0
 14 15  2  0  0  0
 14 94  1  0  0  0
 15 95  1  0  0  0
 16 17  2  0  0  0
 16 21  1  0  0  0
 16 31  1  0  0  0
 17 18  1  0  0  0
 17 96  1  0  0  0
 18 19  2  0  0  0
 18 97  1  0  0  0
 19 20  1  0  0  0
 19 24  1  0  0  0
 20 21  2  0  0  0
 20 98  1  0  0  0
 21 23  1  0  0  0
 22 28  1  0  0  0
 22 32  2  0  0  0
 26 27  1  0  0  0
 28 99  1  0  0  0
 28100  1  0  0  0
 29101  1  0  0  0
 29102  1  0  0  0
 33 34  1  0  0  0
 33 66  1  0  0  0
 33 70  2  0  0  0
 34 36  1  0  0  0
 34 59  1  0  0  0
 34103  1  0  0  0
 35 44  2  0  0  0
 35 45  1  0  0  0
 35 68  1  0  0  0
 36 56  1  0  0  0
 36104  1  0  0  0
 37 39  1  0  0  0
 37 47  1  0  0  0
 37 66  1  0  0  0
 37105  1  0  0  0
 38 43  2  0  0  0
 38 46  1  0  0  0
 38 47  1  0  0  0
 39 64  1  0  0  0
 39 67  2  0  0  0
 40 52  1  0  0  0
 40 53  2  0  0  0
 40 58  1  0  0  0
 41106  1  0  0  0
 41107  1  0  0  0
 41108  1  0  0  0
 41 48  1  0  0  0
 42 43  1  0  0  0
 42 66  1  0  0  0
 42109  1  0  0  0
 42110  1  0  0  0
 43 44  1  0  0  0
 44111  1  0  0  0
 45 46  2  0  0  0
 45112  1  0  0  0
 46113  1  0  0  0
 47114  1  0  0  0
 47115  1  0  0  0
 48 56  1  0  0  0
 48 65  1  0  0  0
 48116  1  0  0  0
 49 50  1  0  0  0
 49 53  1  0  0  0
 49 64  1  0  0  0
 49117  1  0  0  0
 50 51  1  0  0  0
 50118  1  0  0  0
 50119  1  0  0  0
 51 52  1  0  0  0
 51120  1  0  0  0
 51121  1  0  0  0
 52122  1  0  0  0
 52123  1  0  0  0
 53 54  1  0  0  0
 54 55  2  0  0  0
 54124  1  0  0  0
 55 57  1  0  0  0
 55125  1  0  0  0
 56 69  2  0  0  0
 57 58  2  0  0  0
 57126  1  0  0  0
 58127  1  0  0  0
 59 60  1  0  0  0
 59 61  1  0  0  0
 59 62  1  0  0  0
 60128  1  0  0  0
 60129  1  0  0  0
 60130  1  0  0  0
 61131  1  0  0  0
 61132  1  0  0  0
 61133  1  0  0  0
 62134  1  0  0  0
 62135  1  0  0  0
 62136  1  0  0  0
 63 65  1  0  0  0
 63137  1  0  0  0
 63138  1  0  0  0
 63139  1  0  0  0
 64140  1  0  0  0
 65141  1  0  0  0
 68 78  1  0  0  0
 71 72  2  0  0  0
 71 74  1  0  0  0
 71142  1  0  0  0
 72 75  1  0  0  0
 72143  1  0  0  0
 73 75  2  0  0  0
 73 76  1  0  0  0
 73144  1  0  0  0
 74 76  2  0  0  0
 74 80  1  0  0  0
 75 81  1  0  0  0
 76 82  1  0  0  0
 77 78  1  0  0  0
 77 79  1  0  0  0
 77145  1  0  0  0
 77146  1  0  0  0
 78147  1  0  0  0
 78148  1  0  0  0
 79 81  1  0  0  0
 79149  1  0  0  0
 79150  1  0  0  0
 80151  1  0  0  0
M  ISO  4   1 100  68 101  78 101  80 100
M  END
> <chiral flag>
0

> <version>
0

> <s_m_source_file>
/data/baiqing/PycharmProjects/Reinvent-master-3.2/result/LINK_invent/BTK/process_docking_weight1_custom_product_contain_oxygen_bond_distance_aromatic_linkinvent_7_9_3/rearranged_h_0010.sdf

> <i_m_source_file_index>
29

> <r_mmod_Potential_Energy-OPLS-2005>
8.48562717437744

> <r_mmod_Stretch_Energy-OPLS-2005>
78.0414810180664

> <r_mmod_Bend_Energy-OPLS-2005>
145.352081298828

> <r_mmod_Torsional_Energy-OPLS-2005>
209.226409912109

> <r_mmod_Improper_Torsional_Energy-OPLS-2005>
4.5839262008667

> <r_mmod_Van_der_Waal_Energy-OPLS-2005>
144.377670288086

> <r_mmod_Electrostatic_Energy-OPLS-2005>
-422.268218994141

> <r_mmod_Solvation_Energy-OPLS-2005>
-201.274765014648

> <b_mmod_Minimization_Converged-OPLS-2005>
0

> <r_mmod_RMS_Derivative-OPLS-2005>
0.238112762570381

$$$$
29
                    3D
 Structure written by MMmdl.
168177  0  0  1  0            999 V2000
  -30.7654  -14.4156   20.5884 C   0  0  0  0  0  0
  -30.4028  -12.2813   19.4196 C   0  0  0  0  0  0
  -29.4808  -12.4989   18.2059 C   0  0  0  0  0  0
  -28.0047  -12.3719   18.6192 C   0  0  0  0  0  0
  -27.6600  -13.2105   19.8784 C   0  0  2  0  0  0
  -28.7034  -13.0102   21.0014 C   0  0  0  0  0  0
  -25.2600  -13.8191   20.5715 C   0  0  0  0  0  0
  -24.1845  -13.0466   20.9208 C   0  0  0  0  0  0
  -24.6394  -11.6927   20.8769 C   0  0  0  0  0  0
  -23.9055  -10.4304   21.0427 C   0  0  0  0  0  0
  -24.3611   -9.4228   21.9218 C   0  0  0  0  0  0
  -23.6300   -8.2254   22.0781 C   0  0  0  0  0  0
  -22.4289   -8.0296   21.3562 C   0  0  0  0  0  0
  -21.9929   -9.0261   20.4659 C   0  0  0  0  0  0
  -22.7228  -10.2151   20.3073 C   0  0  0  0  0  0
  -21.6840   -6.0756   22.5279 C   0  0  0  0  0  0
  -21.4002   -6.5654   23.8215 C   0  0  0  0  0  0
  -21.3666   -5.6813   24.9191 C   0  0  0  0  0  0
  -21.6039   -4.3071   24.7231 C   0  0  0  0  0  0
  -21.8818   -3.8171   23.4344 C   0  0  0  0  0  0
  -21.9190   -4.6993   22.3402 C   0  0  0  0  0  0
  -22.7876  -13.5265   21.1878 C   0  0  0  0  0  0
  -22.1659   -4.2179   21.0985 F   0  0  0  0  0  0
  -21.5641   -3.4554   25.7743 F   0  0  0  0  0  0
  -30.0386  -13.2763   20.4411 N   0  0  0  0  0  0
  -26.3029  -12.9352   20.3413 N   0  0  0  0  0  0
  -25.9328  -11.6505   20.5813 N   0  0  0  0  0  0
  -22.0527  -12.8225   22.0418 N   0  0  0  0  0  0
  -25.4357  -15.1905   20.4114 N   0  0  0  0  0  0
  -31.8857  -14.5520   20.0876 O   0  0  0  0  0  0
  -21.6637   -6.8904   21.4253 O   0  0  0  0  0  0
  -22.3561  -14.5579   20.6748 O   0  0  0  0  0  0
  -24.6095  -31.8720   23.2156 C   0  0  0  0  0  0
  -25.9006  -32.4853   23.8436 C   0  0  1  0  0  0
  -27.2232  -27.4591   20.0718 C   0  0  0  0  0  0
  -25.5877  -33.8662   24.2343 N   0  0  0  0  0  0
  -23.3946  -30.4976   21.5582 C   0  0  2  0  0  0
  -24.8365  -28.9740   20.1172 C   0  0  0  0  0  0
  -22.7383  -29.4669   22.5028 C   0  0  0  0  0  0
  -18.0255  -28.1380   22.8520 C   0  0  0  0  0  0
  -24.1487  -36.7313   23.2641 C   0  0  0  0  0  0
  -25.9235  -30.8392   21.3721 C   0  0  0  0  0  0
  -25.9972  -29.4787   20.7148 C   0  0  0  0  0  0
  -27.1910  -28.7250   20.6951 C   0  0  0  0  0  0
  -26.0395  -26.9755   19.4571 C   0  0  0  0  0  0
  -24.8504  -27.7195   19.4907 C   0  0  0  0  0  0
  -23.5986  -29.8372   20.1713 C   0  0  0  0  0  0
  -25.4119  -36.3132   24.0335 C   0  0  1  0  0  0
  -20.5848  -28.3663   23.1342 C   0  0  2  0  0  0
  -20.6739  -26.9411   22.5432 C   0  0  0  0  0  0
  -19.5704  -26.6393   21.5234 C   0  0  0  0  0  0
  -18.1889  -26.7943   22.1639 C   0  0  0  0  0  0
  -19.1504  -28.8841   23.2921 C   0  0  0  0  0  0
  -18.9441  -30.1463   23.8913 C   0  0  0  0  0  0
  -17.6443  -30.6600   24.0576 C   0  0  0  0  0  0
  -25.9055  -34.9496   23.5143 C   0  0  0  0  0  0
  -16.5334  -29.9092   23.6336 C   0  0  0  0  0  0
  -16.7252  -28.6500   23.0376 C   0  0  0  0  0  0
  -26.4466  -31.6621   25.0753 C   0  0  0  0  0  0
  -25.3739  -31.3639   26.1475 C   0  0  0  0  0  0
  -27.0349  -30.3096   24.6131 C   0  0  0  0  0  0
  -27.6026  -32.4359   25.7523 C   0  0  0  0  0  0
  -27.5611  -37.1783   24.8466 C   0  0  0  0  0  0
  -21.4115  -29.3032   22.3762 N   0  0  0  0  0  0
  -26.4312  -37.3818   23.9427 N   0  0  0  0  0  0
  -24.6604  -31.0834   22.1061 N   0  0  0  0  0  0
  -23.4181  -28.8202   23.3033 O   0  0  0  0  0  0
  -28.4024  -26.7411   20.0950 O   0  0  0  0  0  0
  -26.5610  -34.8953   22.4701 O   0  0  0  0  0  0
  -23.5286  -32.1481   23.7547 O   0  0  0  0  0  0
  -31.8038  -23.7909   19.7755 C   0  0  0  0  0  0
  -30.3182  -22.5972   21.3040 C   0  0  0  0  0  0
  -30.7745  -24.7054   19.4836 C   0  0  0  0  0  0
  -29.2940  -23.5141   21.0198 C   0  0  0  0  0  0
  -29.8758  -17.7205   20.3429 C   0  0  0  0  0  0
  -30.4315  -18.9788   20.0357 C   0  0  0  0  0  0
  -31.8857  -17.1607   21.6021 C   0  0  0  0  0  0
  -31.5625  -22.7127   20.6546 C   0  0  0  0  0  0
  -29.5066  -24.5443   20.0789 C   0  0  0  0  0  0
  -32.4451  -18.4238   21.3035 C   0  0  0  0  0  0
  -30.6302  -16.7828   21.0737 C   0  0  0  0  0  0
  -31.7339  -19.3198   20.4656 C   0  0  0  0  0  0
  -33.8213  -18.7673   21.8500 C   0  0  0  0  0  0
  -31.9904  -20.9351   17.5285 C   0  0  0  0  0  0
  -32.5951  -21.6243   20.8338 C   0  0  0  0  0  0
  -28.3362  -25.3933   19.6399 C   0  0  0  0  0  0
  -32.9161  -20.3847   18.6224 C   0  0  0  0  0  0
  -30.1581  -15.4470   21.2018 N   0  0  0  0  0  0
  -32.3308  -20.4847   19.9585 N   0  0  0  0  0  0
  -31.4482  -12.3416   19.1134 H   0  0  0  0  0  0
  -30.2733  -11.2760   19.8243 H   0  0  0  0  0  0
  -29.7076  -11.7784   17.4184 H   0  0  0  0  0  0
  -29.6595  -13.4878   17.7808 H   0  0  0  0  0  0
  -27.8031  -11.3169   18.8093 H   0  0  0  0  0  0
  -27.3555  -12.6598   17.7914 H   0  0  0  0  0  0
  -27.7011  -14.2559   19.5740 H   0  0  0  0  0  0
  -28.6708  -11.9870   21.3803 H   0  0  0  0  0  0
  -28.4738  -13.6477   21.8575 H   0  0  0  0  0  0
  -25.2749   -9.5711   22.4802 H   0  0  0  0  0  0
  -24.0022   -7.4645   22.7489 H   0  0  0  0  0  0
  -21.0874   -8.8750   19.8940 H   0  0  0  0  0  0
  -22.3673  -10.9708   19.6176 H   0  0  0  0  0  0
  -21.1985   -7.6166   23.9722 H   0  0  0  0  0  0
  -21.1490   -6.0555   25.9093 H   0  0  0  0  0  0
  -22.0593   -2.7636   23.2836 H   0  0  0  0  0  0
  -22.4151  -11.9832   22.4705 H   0  0  0  0  0  0
  -21.1171  -13.1277   22.2684 H   0  0  0  0  0  0
  -24.6819  -15.8596   20.5287 H   0  0  0  0  0  0
  -26.2977  -15.6219   20.1002 H   0  0  0  0  0  0
  -26.7060  -32.5595   23.1188 H   0  0  0  0  0  0
  -25.0035  -33.9838   25.0492 H   0  0  0  0  0  0
  -22.6806  -31.3130   21.4234 H   0  0  0  0  0  0
  -23.3806  -35.9586   23.3260 H   0  0  0  0  0  0
  -24.3555  -36.8995   22.2059 H   0  0  0  0  0  0
  -23.7202  -37.6477   23.6714 H   0  0  0  0  0  0
  -26.0430  -31.6082   20.6083 H   0  0  0  0  0  0
  -26.8098  -30.8846   21.9949 H   0  0  0  0  0  0
  -28.0887  -29.1080   21.1608 H   0  0  0  0  0  0
  -25.9976  -26.0313   18.9367 H   0  0  0  0  0  0
  -23.9581  -27.3302   19.0201 H   0  0  0  0  0  0
  -23.7025  -30.6130   19.4103 H   0  0  0  0  0  0
  -22.7248  -29.2524   19.8820 H   0  0  0  0  0  0
  -25.1285  -36.1993   25.0823 H   0  0  0  0  0  0
  -20.9938  -28.3250   24.1463 H   0  0  0  0  0  0
  -20.5664  -26.2270   23.3600 H   0  0  0  0  0  0
  -21.6600  -26.7450   22.1231 H   0  0  0  0  0  0
  -19.6859  -25.6309   21.1243 H   0  0  0  0  0  0
  -19.6651  -27.3202   20.6764 H   0  0  0  0  0  0
  -17.4168  -26.6743   21.4017 H   0  0  0  0  0  0
  -18.0242  -26.0068   22.9005 H   0  0  0  0  0  0
  -19.7914  -30.7280   24.2283 H   0  0  0  0  0  0
  -17.4997  -31.6276   24.5185 H   0  0  0  0  0  0
  -15.5336  -30.3005   23.7649 H   0  0  0  0  0  0
  -15.8654  -28.0825   22.7102 H   0  0  0  0  0  0
  -24.5998  -30.6902   25.7780 H   0  0  0  0  0  0
  -24.8819  -32.2736   26.4913 H   0  0  0  0  0  0
  -25.8113  -30.8838   27.0244 H   0  0  0  0  0  0
  -26.2902  -29.6800   24.1257 H   0  0  0  0  0  0
  -27.4227  -29.7376   25.4579 H   0  0  0  0  0  0
  -27.8677  -30.4453   23.9227 H   0  0  0  0  0  0
  -27.2645  -33.3651   26.2127 H   0  0  0  0  0  0
  -28.3819  -32.6943   25.0339 H   0  0  0  0  0  0
  -28.0741  -31.8497   26.5421 H   0  0  0  0  0  0
  -28.2573  -38.0136   24.7640 H   0  0  0  0  0  0
  -28.1181  -36.2673   24.6190 H   0  0  0  0  0  0
  -27.2308  -37.1321   25.8860 H   0  0  0  0  0  0
  -20.9256  -29.8794   21.7028 H   0  0  0  0  0  0
  -26.0214  -38.2888   24.1510 H   0  0  0  0  0  0
  -32.7576  -23.8802   19.2715 H   0  0  0  0  0  0
  -30.1271  -21.7729   21.9788 H   0  0  0  0  0  0
  -30.9385  -25.4962   18.7630 H   0  0  0  0  0  0
  -28.3250  -23.3890   21.4844 H   0  0  0  0  0  0
  -28.9059  -17.4596   19.9453 H   0  0  0  0  0  0
  -29.8664  -19.6664   19.4215 H   0  0  0  0  0  0
  -32.4536  -16.4503   22.1845 H   0  0  0  0  0  0
  -34.3571  -17.8762   22.1778 H   0  0  0  0  0  0
  -33.7211  -19.4307   22.7102 H   0  0  0  0  0  0
  -34.4347  -19.2649   21.0983 H   0  0  0  0  0  0
  -32.4660  -20.8567   16.5511 H   0  0  0  0  0  0
  -31.7484  -21.9853   17.6919 H   0  0  0  0  0  0
  -31.0517  -20.3820   17.4845 H   0  0  0  0  0  0
  -32.5959  -21.3189   21.8799 H   0  0  0  0  0  0
  -33.5888  -22.0285   20.6266 H   0  0  0  0  0  0
  -27.4416  -24.8945   20.0157 H   0  0  0  0  0  0
  -28.2851  -25.3819   18.5499 H   0  0  0  0  0  0
  -33.8626  -20.9290   18.6047 H   0  0  0  0  0  0
  -33.1603  -19.3439   18.3980 H   0  0  0  0  0  0
  -29.1980  -15.3035   21.4783 H   0  0  0  0  0  0
  1 25  1  0  0  0
  1 30  2  0  0  0
  1 88  1  0  0  0
  2  3  1  0  0  0
  2 25  1  0  0  0
  2 90  1  0  0  0
  2 91  1  0  0  0
  3  4  1  0  0  0
  3 92  1  0  0  0
  3 93  1  0  0  0
  4  5  1  0  0  0
  4 94  1  0  0  0
  4 95  1  0  0  0
  5  6  1  0  0  0
  5 26  1  0  0  0
  5 96  1  0  0  0
  6 25  1  0  0  0
  6 97  1  0  0  0
  6 98  1  0  0  0
  7  8  2  0  0  0
  7 26  1  0  0  0
  7 29  1  0  0  0
  8  9  1  0  0  0
  8 22  1  0  0  0
  9 10  1  0  0  0
  9 27  2  0  0  0
 10 11  2  0  0  0
 10 15  1  0  0  0
 11 12  1  0  0  0
 11 99  1  0  0  0
 12 13  2  0  0  0
 12100  1  0  0  0
 13 14  1  0  0  0
 13 31  1  0  0  0
 14 15  2  0  0  0
 14101  1  0  0  0
 15102  1  0  0  0
 16 17  2  0  0  0
 16 21  1  0  0  0
 16 31  1  0  0  0
 17 18  1  0  0  0
 17103  1  0  0  0
 18 19  2  0  0  0
 18104  1  0  0  0
 19 20  1  0  0  0
 19 24  1  0  0  0
 20 21  2  0  0  0
 20105  1  0  0  0
 21 23  1  0  0  0
 22 28  1  0  0  0
 22 32  2  0  0  0
 26 27  1  0  0  0
 28106  1  0  0  0
 28107  1  0  0  0
 29108  1  0  0  0
 29109  1  0  0  0
 33 34  1  0  0  0
 33 66  1  0  0  0
 33 70  2  0  0  0
 34 36  1  0  0  0
 34 59  1  0  0  0
 34110  1  0  0  0
 35 44  2  0  0  0
 35 45  1  0  0  0
 35 68  1  0  0  0
 36 56  1  0  0  0
 36111  1  0  0  0
 37 39  1  0  0  0
 37 47  1  0  0  0
 37 66  1  0  0  0
 37112  1  0  0  0
 38 43  2  0  0  0
 38 46  1  0  0  0
 38 47  1  0  0  0
 39 64  1  0  0  0
 39 67  2  0  0  0
 40 52  1  0  0  0
 40 53  2  0  0  0
 40 58  1  0  0  0
 41113  1  0  0  0
 41114  1  0  0  0
 41115  1  0  0  0
 41 48  1  0  0  0
 42 43  1  0  0  0
 42 66  1  0  0  0
 42116  1  0  0  0
 42117  1  0  0  0
 43 44  1  0  0  0
 44118  1  0  0  0
 45 46  2  0  0  0
 45119  1  0  0  0
 46120  1  0  0  0
 47121  1  0  0  0
 47122  1  0  0  0
 48 56  1  0  0  0
 48 65  1  0  0  0
 48123  1  0  0  0
 49 50  1  0  0  0
 49 53  1  0  0  0
 49 64  1  0  0  0
 49124  1  0  0  0
 50 51  1  0  0  0
 50125  1  0  0  0
 50126  1  0  0  0
 51 52  1  0  0  0
 51127  1  0  0  0
 51128  1  0  0  0
 52129  1  0  0  0
 52130  1  0  0  0
 53 54  1  0  0  0
 54 55  2  0  0  0
 54131  1  0  0  0
 55 57  1  0  0  0
 55132  1  0  0  0
 56 69  2  0  0  0
 57 58  2  0  0  0
 57133  1  0  0  0
 58134  1  0  0  0
 59 60  1  0  0  0
 59 61  1  0  0  0
 59 62  1  0  0  0
 60135  1  0  0  0
 60136  1  0  0  0
 60137  1  0  0  0
 61138  1  0  0  0
 61139  1  0  0  0
 61140  1  0  0  0
 62141  1  0  0  0
 62142  1  0  0  0
 62143  1  0  0  0
 63 65  1  0  0  0
 63144  1  0  0  0
 63145  1  0  0  0
 63146  1  0  0  0
 64147  1  0  0  0
 65148  1  0  0  0
 68 86  1  0  0  0
 71 73  2  0  0  0
 71 78  1  0  0  0
 71149  1  0  0  0
 72 74  1  0  0  0
 72 78  2  0  0  0
 72150  1  0  0  0
 73 79  1  0  0  0
 73151  1  0  0  0
 74 79  2  0  0  0
 74152  1  0  0  0
 75 76  2  0  0  0
 75 81  1  0  0  0
 75153  1  0  0  0
 76 82  1  0  0  0
 76154  1  0  0  0
 77 80  1  0  0  0
 77 81  2  0  0  0
 77155  1  0  0  0
 78 85  1  0  0  0
 79 86  1  0  0  0
 80 82  2  0  0  0
 80 83  1  0  0  0
 81 88  1  0  0  0
 82 89  1  0  0  0
 83156  1  0  0  0
 83157  1  0  0  0
 83158  1  0  0  0
 84 87  1  0  0  0
 84159  1  0  0  0
 84160  1  0  0  0
 84161  1  0  0  0
 85 89  1  0  0  0
 85162  1  0  0  0
 85163  1  0  0  0
 86164  1  0  0  0
 86165  1  0  0  0
 87 89  1  0  0  0
 87166  1  0  0  0
 87167  1  0  0  0
 88168  1  0  0  0
M  ISO  4   1 100  68 101  86 101  88 100
M  END
> <chiral flag>
0

> <version>
0

> <s_m_source_file>
/data/baiqing/PycharmProjects/Reinvent-master-3.2/result/LINK_invent/BTK/process_docking_weight1_custom_product_contain_oxygen_bond_distance_aromatic_linkinvent_7_9_3/rearranged_h_0010.sdf

> <i_m_source_file_index>
30

> <r_mmod_Potential_Energy-OPLS-2005>
-13.7177324295044

> <r_mmod_Stretch_Energy-OPLS-2005>
33.8054847717285

> <r_mmod_Bend_Energy-OPLS-2005>
99.4747085571289

> <r_mmod_Torsional_Energy-OPLS-2005>
276.528961181641

> <r_mmod_Improper_Torsional_Energy-OPLS-2005>
5.28967475891113

> <r_mmod_Van_der_Waal_Energy-OPLS-2005>
176.528869628906

> <r_mmod_Electrostatic_Energy-OPLS-2005>
-407.350799560547

> <r_mmod_Solvation_Energy-OPLS-2005>
-210.601318359375

> <b_mmod_Minimization_Converged-OPLS-2005>
0

> <r_mmod_RMS_Derivative-OPLS-2005>
3.04422092437744

$$$$
30
                    3D
 Structure written by MMmdl.
156164  0  0  1  0            999 V2000
  -30.6150  -14.7232   20.4673 C   0  0  0  0  0  0
  -30.4331  -12.4433   19.4611 C   0  0  0  0  0  0
  -29.5065  -12.5026   18.2272 C   0  0  0  0  0  0
  -28.0323  -12.3296   18.6439 C   0  0  0  0  0  0
  -27.6412  -13.2272   19.8480 C   0  0  2  0  0  0
  -28.6884  -13.1528   20.9799 C   0  0  0  0  0  0
  -25.2507  -13.8184   20.5689 C   0  0  0  0  0  0
  -24.1799  -13.0433   20.9212 C   0  0  0  0  0  0
  -24.6390  -11.6911   20.8750 C   0  0  0  0  0  0
  -23.9066  -10.4290   21.0411 C   0  0  0  0  0  0
  -24.3620   -9.4202   21.9186 C   0  0  0  0  0  0
  -23.6293   -8.2236   22.0752 C   0  0  0  0  0  0
  -22.4275   -8.0278   21.3544 C   0  0  0  0  0  0
  -21.9909   -9.0252   20.4646 C   0  0  0  0  0  0
  -22.7239  -10.2132   20.3058 C   0  0  0  0  0  0
  -21.6849   -6.0734   22.5278 C   0  0  0  0  0  0
  -21.4016   -6.5638   23.8213 C   0  0  0  0  0  0
  -21.3661   -5.6789   24.9174 C   0  0  0  0  0  0
  -21.6043   -4.3053   24.7224 C   0  0  0  0  0  0
  -21.8818   -3.8145   23.4345 C   0  0  0  0  0  0
  -21.9192   -4.6962   22.3402 C   0  0  0  0  0  0
  -22.7820  -13.5218   21.1872 C   0  0  0  0  0  0
  -22.1660   -4.2149   21.0979 F   0  0  0  0  0  0
  -21.5630   -3.4536   25.7737 F   0  0  0  0  0  0
  -29.9881  -13.5018   20.3930 N   0  0  0  0  0  0
  -26.2934  -12.9385   20.3274 N   0  0  0  0  0  0
  -25.9317  -11.6531   20.5748 N   0  0  0  0  0  0
  -22.0467  -12.8209   22.0430 N   0  0  0  0  0  0
  -25.4169  -15.1911   20.4093 N   0  0  0  0  0  0
  -31.8135  -14.8161   20.1854 O   0  0  0  0  0  0
  -21.6636   -6.8877   21.4240 O   0  0  0  0  0  0
  -22.3504  -14.5526   20.6717 O   0  0  0  0  0  0
  -24.6296  -31.8565   23.1981 C   0  0  0  0  0  0
  -25.9123  -32.4763   23.8332 C   0  0  1  0  0  0
  -27.2226  -27.2786   20.1354 C   0  0  0  0  0  0
  -25.5923  -33.8567   24.2260 N   0  0  0  0  0  0
  -23.4261  -30.4776   21.5412 C   0  0  2  0  0  0
  -24.8736  -28.9199   20.1153 C   0  0  0  0  0  0
  -22.7496  -29.4608   22.4920 C   0  0  0  0  0  0
  -18.0292  -28.1385   22.8484 C   0  0  0  0  0  0
  -24.1487  -36.7286   23.2641 C   0  0  0  0  0  0
  -25.9695  -30.7756   21.3735 C   0  0  0  0  0  0
  -26.0441  -29.3972   20.7194 C   0  0  0  0  0  0
  -27.2250  -28.5908   20.7128 C   0  0  0  0  0  0
  -26.0317  -26.8583   19.5081 C   0  0  0  0  0  0
  -24.8710  -27.6578   19.4990 C   0  0  0  0  0  0
  -23.6442  -29.8067   20.1589 C   0  0  0  0  0  0
  -25.4114  -36.3077   24.0329 C   0  0  1  0  0  0
  -20.5894  -28.3696   23.1270 C   0  0  2  0  0  0
  -20.6777  -26.9415   22.5408 C   0  0  0  0  0  0
  -19.5752  -26.6384   21.5210 C   0  0  0  0  0  0
  -18.1934  -26.7927   22.1625 C   0  0  0  0  0  0
  -19.1545  -28.8858   23.2872 C   0  0  0  0  0  0
  -18.9466  -30.1457   23.8893 C   0  0  0  0  0  0
  -17.6465  -30.6587   24.0563 C   0  0  0  0  0  0
  -25.9054  -34.9446   23.5098 C   0  0  0  0  0  0
  -16.5357  -29.9085   23.6328 C   0  0  0  0  0  0
  -16.7279  -28.6502   23.0351 C   0  0  0  0  0  0
  -26.4494  -31.6587   25.0720 C   0  0  0  0  0  0
  -25.3719  -31.3733   26.1442 C   0  0  0  0  0  0
  -27.0343  -30.3009   24.6192 C   0  0  0  0  0  0
  -27.6052  -32.4327   25.7491 C   0  0  0  0  0  0
  -27.5578  -37.1799   24.8465 C   0  0  0  0  0  0
  -21.4204  -29.3046   22.3663 N   0  0  0  0  0  0
  -26.4289  -37.3775   23.9410 N   0  0  0  0  0  0
  -24.6941  -31.0544   22.0944 N   0  0  0  0  0  0
  -23.4201  -28.8150   23.3015 O   0  0  0  0  0  0
  -28.3301  -26.4095   20.1375 O   0  0  0  0  0  0
  -26.5631  -34.8919   22.4671 O   0  0  0  0  0  0
  -23.5447  -32.1376   23.7282 O   0  0  0  0  0  0
  -31.6873  -18.9812   21.6777 C   0  0  0  0  0  0
  -30.9028  -20.0414   21.1773 C   0  0  0  0  0  0
  -31.3346  -17.6329   21.4635 C   0  0  0  0  0  0
  -29.3587  -18.3965   20.2723 C   0  0  0  0  0  0
  -29.7132  -19.8015   20.4556 C   0  0  0  0  0  0
  -30.1674  -17.2841   20.7490 C   0  0  0  0  0  0
  -27.6255  -20.6616   19.1750 C   0  0  0  0  0  0
  -28.6988  -23.7176   19.8533 C   0  0  0  0  0  0
  -28.1688  -25.0128   20.6633 C   0  0  0  0  0  0
  -28.9765  -21.0622   19.7956 C   0  0  1  0  0  0
  -29.8171  -15.8521   20.5914 N   0  0  0  0  0  0
  -28.8154  -22.3653   20.5969 N   0  3  0  0  0  0
  -31.4730  -12.5712   19.1566 H   0  0  0  0  0  0
  -30.3782  -11.4651   19.9412 H   0  0  0  0  0  0
  -29.7847  -11.7316   17.5072 H   0  0  0  0  0  0
  -29.6334  -13.4583   17.7159 H   0  0  0  0  0  0
  -27.8871  -11.2807   18.9050 H   0  0  0  0  0  0
  -27.3734  -12.5251   17.7970 H   0  0  0  0  0  0
  -27.6362  -14.2488   19.4684 H   0  0  0  0  0  0
  -28.7210  -12.1529   21.4149 H   0  0  0  0  0  0
  -28.4296  -13.8329   21.7935 H   0  0  0  0  0  0
  -25.2766   -9.5677   22.4761 H   0  0  0  0  0  0
  -24.0004   -7.4624   22.7469 H   0  0  0  0  0  0
  -21.0840   -8.8772   19.8953 H   0  0  0  0  0  0
  -22.3697  -10.9672   19.6168 H   0  0  0  0  0  0
  -21.2009   -7.6146   23.9717 H   0  0  0  0  0  0
  -21.1485   -6.0519   25.9078 H   0  0  0  0  0  0
  -22.0597   -2.7608   23.2842 H   0  0  0  0  0  0
  -22.4086  -11.9876   22.4822 H   0  0  0  0  0  0
  -21.1085  -13.1233   22.2638 H   0  0  0  0  0  0
  -24.6427  -15.8377   20.5165 H   0  0  0  0  0  0
  -26.2541  -15.6348   20.0558 H   0  0  0  0  0  0
  -26.7193  -32.5420   23.1079 H   0  0  0  0  0  0
  -25.0064  -33.9709   25.0400 H   0  0  0  0  0  0
  -22.7216  -31.2988   21.3930 H   0  0  0  0  0  0
  -23.3753  -35.9614   23.3300 H   0  0  0  0  0  0
  -24.3577  -36.8912   22.2055 H   0  0  0  0  0  0
  -23.7233  -37.6484   23.6667 H   0  0  0  0  0  0
  -26.1038  -31.5349   20.6018 H   0  0  0  0  0  0
  -26.8487  -30.8277   22.0042 H   0  0  0  0  0  0
  -28.1263  -28.9560   21.1851 H   0  0  0  0  0  0
  -25.9913  -25.8915   19.0266 H   0  0  0  0  0  0
  -23.9742  -27.2871   19.0212 H   0  0  0  0  0  0
  -23.7696  -30.5805   19.4006 H   0  0  0  0  0  0
  -22.7626  -29.2394   19.8550 H   0  0  0  0  0  0
  -25.1293  -36.1929   25.0822 H   0  0  0  0  0  0
  -20.9987  -28.3275   24.1391 H   0  0  0  0  0  0
  -20.5669  -26.2311   23.3614 H   0  0  0  0  0  0
  -21.6647  -26.7435   22.1207 H   0  0  0  0  0  0
  -19.6914  -25.6293   21.1244 H   0  0  0  0  0  0
  -19.6685  -27.3191   20.6736 H   0  0  0  0  0  0
  -17.4201  -26.6671   21.4031 H   0  0  0  0  0  0
  -18.0338  -26.0072   22.9025 H   0  0  0  0  0  0
  -19.7943  -30.7273   24.2262 H   0  0  0  0  0  0
  -17.5021  -31.6265   24.5168 H   0  0  0  0  0  0
  -15.5357  -30.2987   23.7652 H   0  0  0  0  0  0
  -15.8679  -28.0820   22.7066 H   0  0  0  0  0  0
  -24.5893  -30.7084   25.7768 H   0  0  0  0  0  0
  -24.8910  -32.2901   26.4864 H   0  0  0  0  0  0
  -25.8037  -30.8912   27.0222 H   0  0  0  0  0  0
  -26.2924  -29.6755   24.1213 H   0  0  0  0  0  0
  -27.4031  -29.7274   25.4705 H   0  0  0  0  0  0
  -27.8796  -30.4294   23.9428 H   0  0  0  0  0  0
  -27.2667  -33.3638   26.2046 H   0  0  0  0  0  0
  -28.3871  -32.6868   25.0323 H   0  0  0  0  0  0
  -28.0707  -31.8465   26.5422 H   0  0  0  0  0  0
  -28.2595  -38.0096   24.7517 H   0  0  0  0  0  0
  -28.1077  -36.2629   24.6288 H   0  0  0  0  0  0
  -27.2300  -37.1442   25.8869 H   0  0  0  0  0  0
  -20.9390  -29.8772   21.6869 H   0  0  0  0  0  0
  -26.0171  -38.2851   24.1410 H   0  0  0  0  0  0
  -32.5914  -19.2065   22.2266 H   0  0  0  0  0  0
  -31.2496  -21.0533   21.3338 H   0  0  0  0  0  0
  -31.9768  -16.8649   21.8720 H   0  0  0  0  0  0
  -28.4641  -18.1559   19.7167 H   0  0  0  0  0  0
  -27.7547  -19.8872   18.4192 H   0  0  0  0  0  0
  -27.1419  -21.5002   18.6755 H   0  0  0  0  0  0
  -26.9367  -20.2826   19.9301 H   0  0  0  0  0  0
  -29.6862  -23.9461   19.4519 H   0  0  0  0  0  0
  -28.0543  -23.5902   18.9845 H   0  0  0  0  0  0
  -28.6892  -25.0228   21.6210 H   0  0  0  0  0  0
  -27.1255  -24.8394   20.9286 H   0  0  0  0  0  0
  -29.6317  -21.3310   18.9653 H   0  0  0  0  0  0
  -28.8293  -15.6527   20.5742 H   0  0  0  0  0  0
  -28.0100  -22.2427   21.1896 H   0  0  0  0  0  0
  -29.6079  -22.4360   21.2145 H   0  0  0  0  0  0
  1 25  1  0  0  0
  1 30  2  0  0  0
  1 81  1  0  0  0
  2  3  1  0  0  0
  2 25  1  0  0  0
  2 83  1  0  0  0
  2 84  1  0  0  0
  3  4  1  0  0  0
  3 85  1  0  0  0
  3 86  1  0  0  0
  4  5  1  0  0  0
  4 87  1  0  0  0
  4 88  1  0  0  0
  5  6  1  0  0  0
  5 26  1  0  0  0
  5 89  1  0  0  0
  6 25  1  0  0  0
  6 90  1  0  0  0
  6 91  1  0  0  0
  7  8  2  0  0  0
  7 26  1  0  0  0
  7 29  1  0  0  0
  8  9  1  0  0  0
  8 22  1  0  0  0
  9 10  1  0  0  0
  9 27  2  0  0  0
 10 11  2  0  0  0
 10 15  1  0  0  0
 11 12  1  0  0  0
 11 92  1  0  0  0
 12 13  2  0  0  0
 12 93  1  0  0  0
 13 14  1  0  0  0
 13 31  1  0  0  0
 14 15  2  0  0  0
 14 94  1  0  0  0
 15 95  1  0  0  0
 16 17  2  0  0  0
 16 21  1  0  0  0
 16 31  1  0  0  0
 17 18  1  0  0  0
 17 96  1  0  0  0
 18 19  2  0  0  0
 18 97  1  0  0  0
 19 20  1  0  0  0
 19 24  1  0  0  0
 20 21  2  0  0  0
 20 98  1  0  0  0
 21 23  1  0  0  0
 22 28  1  0  0  0
 22 32  2  0  0  0
 26 27  1  0  0  0
 28 99  1  0  0  0
 28100  1  0  0  0
 29101  1  0  0  0
 29102  1  0  0  0
 33 34  1  0  0  0
 33 66  1  0  0  0
 33 70  2  0  0  0
 34 36  1  0  0  0
 34 59  1  0  0  0
 34103  1  0  0  0
 35 44  2  0  0  0
 35 45  1  0  0  0
 35 68  1  0  0  0
 36 56  1  0  0  0
 36104  1  0  0  0
 37 39  1  0  0  0
 37 47  1  0  0  0
 37 66  1  0  0  0
 37105  1  0  0  0
 38 43  2  0  0  0
 38 46  1  0  0  0
 38 47  1  0  0  0
 39 64  1  0  0  0
 39 67  2  0  0  0
 40 52  1  0  0  0
 40 53  2  0  0  0
 40 58  1  0  0  0
 41106  1  0  0  0
 41107  1  0  0  0
 41108  1  0  0  0
 41 48  1  0  0  0
 42 43  1  0  0  0
 42 66  1  0  0  0
 42109  1  0  0  0
 42110  1  0  0  0
 43 44  1  0  0  0
 44111  1  0  0  0
 45 46  2  0  0  0
 45112  1  0  0  0
 46113  1  0  0  0
 47114  1  0  0  0
 47115  1  0  0  0
 48 56  1  0  0  0
 48 65  1  0  0  0
 48116  1  0  0  0
 49 50  1  0  0  0
 49 53  1  0  0  0
 49 64  1  0  0  0
 49117  1  0  0  0
 50 51  1  0  0  0
 50118  1  0  0  0
 50119  1  0  0  0
 51 52  1  0  0  0
 51120  1  0  0  0
 51121  1  0  0  0
 52122  1  0  0  0
 52123  1  0  0  0
 53 54  1  0  0  0
 54 55  2  0  0  0
 54124  1  0  0  0
 55 57  1  0  0  0
 55125  1  0  0  0
 56 69  2  0  0  0
 57 58  2  0  0  0
 57126  1  0  0  0
 58127  1  0  0  0
 59 60  1  0  0  0
 59 61  1  0  0  0
 59 62  1  0  0  0
 60128  1  0  0  0
 60129  1  0  0  0
 60130  1  0  0  0
 61131  1  0  0  0
 61132  1  0  0  0
 61133  1  0  0  0
 62134  1  0  0  0
 62135  1  0  0  0
 62136  1  0  0  0
 63 65  1  0  0  0
 63137  1  0  0  0
 63138  1  0  0  0
 63139  1  0  0  0
 64140  1  0  0  0
 65141  1  0  0  0
 68 79  1  0  0  0
 71 72  2  0  0  0
 71 73  1  0  0  0
 71142  1  0  0  0
 72 75  1  0  0  0
 72143  1  0  0  0
 73 76  2  0  0  0
 73144  1  0  0  0
 74 75  2  0  0  0
 74 76  1  0  0  0
 74145  1  0  0  0
 75 80  1  0  0  0
 76 81  1  0  0  0
 77146  1  0  0  0
 77147  1  0  0  0
 77148  1  0  0  0
 77 80  1  0  0  0
 78 79  1  0  0  0
 78 82  1  0  0  0
 78149  1  0  0  0
 78150  1  0  0  0
 79151  1  0  0  0
 79152  1  0  0  0
 80 82  1  0  0  0
 80153  1  0  0  0
 81154  1  0  0  0
 82155  1  0  0  0
 82156  1  0  0  0
M  CHG  1  82   1
M  ISO  4   1 100  68 101  79 101  81 100
M  END
> <chiral flag>
0

> <version>
0

> <s_m_source_file>
/data/baiqing/PycharmProjects/Reinvent-master-3.2/result/LINK_invent/BTK/process_docking_weight1_custom_product_contain_oxygen_bond_distance_aromatic_linkinvent_7_9_3/rearranged_h_0010.sdf

> <i_m_source_file_index>
31

> <r_mmod_Potential_Energy-OPLS-2005>
-23.7580966949463

> <r_mmod_Stretch_Energy-OPLS-2005>
116.570930480957

> <r_mmod_Bend_Energy-OPLS-2005>
151.639297485352

> <r_mmod_Torsional_Energy-OPLS-2005>
240.301498413086

> <r_mmod_Improper_Torsional_Energy-OPLS-2005>
6.89954137802124

> <r_mmod_Van_der_Waal_Energy-OPLS-2005>
136.168884277344

> <r_mmod_Electrostatic_Energy-OPLS-2005>
-286.303131103516

> <r_mmod_Solvation_Energy-OPLS-2005>
-463.792602539062

> <b_mmod_Minimization_Converged-OPLS-2005>
0

> <r_mmod_RMS_Derivative-OPLS-2005>
0.516516983509064

$$$$
31
                    3D
 Structure written by MMmdl.
157165  0  0  1  0            999 V2000
  -30.6915  -14.4067   20.6224 C   0  0  0  0  0  0
  -30.4399  -12.2788   19.4007 C   0  0  0  0  0  0
  -29.5012  -12.4920   18.1976 C   0  0  0  0  0  0
  -28.0174  -12.3617   18.6051 C   0  0  0  0  0  0
  -27.6719  -13.1816   19.8785 C   0  0  2  0  0  0
  -28.7087  -12.8983   20.9887 C   0  0  0  0  0  0
  -25.2687  -13.8114   20.5647 C   0  0  0  0  0  0
  -24.1893  -13.0443   20.9128 C   0  0  0  0  0  0
  -24.6379  -11.6888   20.8682 C   0  0  0  0  0  0
  -23.9037  -10.4287   21.0365 C   0  0  0  0  0  0
  -24.3607   -9.4215   21.9144 C   0  0  0  0  0  0
  -23.6305   -8.2246   22.0727 C   0  0  0  0  0  0
  -22.4300   -8.0260   21.3504 C   0  0  0  0  0  0
  -21.9900   -9.0233   20.4617 C   0  0  0  0  0  0
  -22.7208  -10.2126   20.3022 C   0  0  0  0  0  0
  -21.6851   -6.0739   22.5281 C   0  0  0  0  0  0
  -21.3998   -6.5641   23.8214 C   0  0  0  0  0  0
  -21.3666   -5.6800   24.9178 C   0  0  0  0  0  0
  -21.6051   -4.3065   24.7224 C   0  0  0  0  0  0
  -21.8832   -3.8144   23.4351 C   0  0  0  0  0  0
  -21.9191   -4.6963   22.3404 C   0  0  0  0  0  0
  -22.7925  -13.5278   21.1813 C   0  0  0  0  0  0
  -22.1674   -4.2144   21.0984 F   0  0  0  0  0  0
  -21.5619   -3.4556   25.7741 F   0  0  0  0  0  0
  -30.0470  -13.2233   20.4534 N   0  0  0  0  0  0
  -26.3078  -12.9211   20.3340 N   0  0  0  0  0  0
  -25.9294  -11.6402   20.5714 N   0  0  0  0  0  0
  -22.0588  -12.8242   22.0362 N   0  0  0  0  0  0
  -25.4496  -15.1815   20.4099 N   0  0  0  0  0  0
  -31.7673  -14.6923   20.0860 O   0  0  0  0  0  0
  -21.6639   -6.8880   21.4243 O   0  0  0  0  0  0
  -22.3625  -14.5619   20.6698 O   0  0  0  0  0  0
  -24.6131  -31.8690   23.2113 C   0  0  0  0  0  0
  -25.9020  -32.4801   23.8436 C   0  0  1  0  0  0
  -27.2483  -27.4679   20.0749 C   0  0  0  0  0  0
  -25.5878  -33.8602   24.2353 N   0  0  0  0  0  0
  -23.4014  -30.4924   21.5467 C   0  0  2  0  0  0
  -24.8486  -28.9568   20.1182 C   0  0  0  0  0  0
  -22.7400  -29.4700   22.4975 C   0  0  0  0  0  0
  -18.0295  -28.1374   22.8540 C   0  0  0  0  0  0
  -24.1470  -36.7322   23.2644 C   0  0  0  0  0  0
  -25.9283  -30.8401   21.3643 C   0  0  0  0  0  0
  -26.0045  -29.4770   20.7102 C   0  0  0  0  0  0
  -27.2063  -28.7391   20.6868 C   0  0  0  0  0  0
  -26.0709  -26.9534   19.4827 C   0  0  0  0  0  0
  -24.8736  -27.6911   19.5051 C   0  0  0  0  0  0
  -23.6111  -29.8194   20.1633 C   0  0  0  0  0  0
  -25.4091  -36.3099   24.0344 C   0  0  1  0  0  0
  -20.5882  -28.3737   23.1372 C   0  0  2  0  0  0
  -20.6837  -26.9485   22.5476 C   0  0  0  0  0  0
  -19.5809  -26.6401   21.5272 C   0  0  0  0  0  0
  -18.1987  -26.7907   22.1699 C   0  0  0  0  0  0
  -19.1528  -28.8876   23.2917 C   0  0  0  0  0  0
  -18.9425  -30.1511   23.8873 C   0  0  0  0  0  0
  -17.6406  -30.6615   24.0520 C   0  0  0  0  0  0
  -25.9017  -34.9456   23.5146 C   0  0  0  0  0  0
  -16.5320  -29.9078   23.6286 C   0  0  0  0  0  0
  -16.7281  -28.6482   23.0357 C   0  0  0  0  0  0
  -26.4475  -31.6583   25.0764 C   0  0  0  0  0  0
  -25.3770  -31.3677   26.1536 C   0  0  0  0  0  0
  -27.0317  -30.3031   24.6140 C   0  0  0  0  0  0
  -27.6050  -32.4320   25.7530 C   0  0  0  0  0  0
  -27.5567  -37.1811   24.8468 C   0  0  0  0  0  0
  -21.4122  -29.3092   22.3751 N   0  0  0  0  0  0
  -26.4284  -37.3777   23.9397 N   0  0  0  0  0  0
  -24.6643  -31.0840   22.0973 N   0  0  0  0  0  0
  -23.4187  -28.8270   23.3013 O   0  0  0  0  0  0
  -28.4571  -26.8046   20.0482 O   0  0  0  0  0  0
  -26.5596  -34.8913   22.4708 O   0  0  0  0  0  0
  -23.5341  -32.1413   23.7534 O   0  0  0  0  0  0
  -27.8815  -21.1431   22.7181 C   0  0  0  0  0  0
  -27.5072  -19.8802   23.2052 C   0  0  0  0  0  0
  -28.7459  -18.8103   21.3963 C   0  0  0  0  0  0
  -28.6876  -21.2619   21.5575 C   0  0  0  0  0  0
  -27.9361  -18.7168   22.5473 C   0  0  0  0  0  0
  -29.1119  -20.0823   20.9001 C   0  0  0  0  0  0
  -29.1840  -17.5285   20.7065 C   0  0  0  0  0  0
  -29.4006  -24.8934   21.1547 C   0  0  0  0  0  0
  -30.2053  -16.7169   21.5334 C   0  0  0  0  0  0
  -28.4569  -25.3784   20.0420 C   0  0  0  0  0  0
  -28.8923  -23.6277   21.8489 C   0  0  0  0  0  0
  -29.9948  -15.2857   21.3527 N   0  0  0  0  0  0
  -29.0789  -22.4772   21.0287 O   0  0  0  0  0  0
  -27.5674  -17.5036   23.0274 F   0  0  0  0  0  0
  -29.8762  -20.1818   19.7852 F   0  0  0  0  0  0
  -31.4808  -12.4039   19.0960 H   0  0  0  0  0  0
  -30.3600  -11.2554   19.7686 H   0  0  0  0  0  0
  -29.7366  -11.7684   17.4149 H   0  0  0  0  0  0
  -29.6824  -13.4781   17.7713 H   0  0  0  0  0  0
  -27.8135  -11.3043   18.7814 H   0  0  0  0  0  0
  -27.3757  -12.6547   17.7714 H   0  0  0  0  0  0
  -27.7365  -14.2366   19.6100 H   0  0  0  0  0  0
  -28.6753  -11.8462   21.2709 H   0  0  0  0  0  0
  -28.4610  -13.4289   21.9092 H   0  0  0  0  0  0
  -25.2751   -9.5751   22.4708 H   0  0  0  0  0  0
  -24.0034   -7.4669   22.7465 H   0  0  0  0  0  0
  -21.0816   -8.8752   19.8943 H   0  0  0  0  0  0
  -22.3635  -10.9668   19.6143 H   0  0  0  0  0  0
  -21.1973   -7.6146   23.9714 H   0  0  0  0  0  0
  -21.1480   -6.0524   25.9092 H   0  0  0  0  0  0
  -22.0599   -2.7606   23.2850 H   0  0  0  0  0  0
  -22.4246  -11.9884   22.4699 H   0  0  0  0  0  0
  -21.1198  -13.1217   22.2627 H   0  0  0  0  0  0
  -24.6997  -15.8481   20.5529 H   0  0  0  0  0  0
  -26.3158  -15.6158   20.1172 H   0  0  0  0  0  0
  -26.7094  -32.5516   23.1216 H   0  0  0  0  0  0
  -24.9990  -33.9765   25.0479 H   0  0  0  0  0  0
  -22.6895  -31.3066   21.4019 H   0  0  0  0  0  0
  -23.3703  -35.9680   23.3322 H   0  0  0  0  0  0
  -24.3572  -36.8928   22.2055 H   0  0  0  0  0  0
  -23.7255  -37.6548   23.6653 H   0  0  0  0  0  0
  -26.0500  -31.6094   20.6009 H   0  0  0  0  0  0
  -26.8109  -30.8836   21.9901 H   0  0  0  0  0  0
  -28.1017  -29.1416   21.1401 H   0  0  0  0  0  0
  -26.0631  -25.9991   18.9765 H   0  0  0  0  0  0
  -23.9862  -27.2877   19.0379 H   0  0  0  0  0  0
  -23.7198  -30.5892   19.3989 H   0  0  0  0  0  0
  -22.7375  -29.2373   19.8675 H   0  0  0  0  0  0
  -25.1258  -36.1976   25.0843 H   0  0  0  0  0  0
  -20.9983  -28.3318   24.1482 H   0  0  0  0  0  0
  -20.5808  -26.2393   23.3697 H   0  0  0  0  0  0
  -21.6748  -26.7581   22.1307 H   0  0  0  0  0  0
  -19.7012  -25.6287   21.1375 H   0  0  0  0  0  0
  -19.6646  -27.3177   20.6757 H   0  0  0  0  0  0
  -17.4232  -26.6557   21.4160 H   0  0  0  0  0  0
  -18.0499  -26.0035   22.9110 H   0  0  0  0  0  0
  -19.7910  -30.7374   24.2138 H   0  0  0  0  0  0
  -17.4882  -31.6339   24.5015 H   0  0  0  0  0  0
  -15.5308  -30.2986   23.7536 H   0  0  0  0  0  0
  -15.8707  -28.0789   22.7047 H   0  0  0  0  0  0
  -24.5912  -30.7045   25.7903 H   0  0  0  0  0  0
  -24.9013  -32.2830   26.5069 H   0  0  0  0  0  0
  -25.8177  -30.8814   27.0245 H   0  0  0  0  0  0
  -26.2866  -29.6770   24.1223 H   0  0  0  0  0  0
  -27.4109  -29.7287   25.4599 H   0  0  0  0  0  0
  -27.8680  -30.4349   23.9273 H   0  0  0  0  0  0
  -27.2636  -33.3579   26.2174 H   0  0  0  0  0  0
  -28.3834  -32.6951   25.0352 H   0  0  0  0  0  0
  -28.0735  -31.8414   26.5418 H   0  0  0  0  0  0
  -28.2600  -38.0091   24.7474 H   0  0  0  0  0  0
  -28.1044  -36.2625   24.6318 H   0  0  0  0  0  0
  -27.2293  -37.1483   25.8877 H   0  0  0  0  0  0
  -20.9246  -29.8816   21.6996 H   0  0  0  0  0  0
  -26.0174  -38.2857   24.1377 H   0  0  0  0  0  0
  -27.5212  -22.0054   23.2572 H   0  0  0  0  0  0
  -26.8822  -19.8072   24.0830 H   0  0  0  0  0  0
  -29.5974  -17.7512   19.7223 H   0  0  0  0  0  0
  -28.2805  -16.9419   20.5227 H   0  0  0  0  0  0
  -29.4644  -25.6672   21.9197 H   0  0  0  0  0  0
  -30.4158  -24.7552   20.7824 H   0  0  0  0  0  0
  -31.2260  -17.0248   21.3048 H   0  0  0  0  0  0
  -30.0576  -16.8973   22.5984 H   0  0  0  0  0  0
  -27.4670  -24.9623   20.2173 H   0  0  0  0  0  0
  -28.7913  -25.0131   19.0699 H   0  0  0  0  0  0
  -27.8360  -23.7742   22.0861 H   0  0  0  0  0  0
  -29.4270  -23.4932   22.7909 H   0  0  0  0  0  0
  -29.1367  -14.9203   21.7386 H   0  0  0  0  0  0
  1 25  1  0  0  0
  1 30  2  0  0  0
  1 82  1  0  0  0
  2  3  1  0  0  0
  2 25  1  0  0  0
  2 86  1  0  0  0
  2 87  1  0  0  0
  3  4  1  0  0  0
  3 88  1  0  0  0
  3 89  1  0  0  0
  4  5  1  0  0  0
  4 90  1  0  0  0
  4 91  1  0  0  0
  5  6  1  0  0  0
  5 26  1  0  0  0
  5 92  1  0  0  0
  6 25  1  0  0  0
  6 93  1  0  0  0
  6 94  1  0  0  0
  7  8  2  0  0  0
  7 26  1  0  0  0
  7 29  1  0  0  0
  8  9  1  0  0  0
  8 22  1  0  0  0
  9 10  1  0  0  0
  9 27  2  0  0  0
 10 11  2  0  0  0
 10 15  1  0  0  0
 11 12  1  0  0  0
 11 95  1  0  0  0
 12 13  2  0  0  0
 12 96  1  0  0  0
 13 14  1  0  0  0
 13 31  1  0  0  0
 14 15  2  0  0  0
 14 97  1  0  0  0
 15 98  1  0  0  0
 16 17  2  0  0  0
 16 21  1  0  0  0
 16 31  1  0  0  0
 17 18  1  0  0  0
 17 99  1  0  0  0
 18 19  2  0  0  0
 18100  1  0  0  0
 19 20  1  0  0  0
 19 24  1  0  0  0
 20 21  2  0  0  0
 20101  1  0  0  0
 21 23  1  0  0  0
 22 28  1  0  0  0
 22 32  2  0  0  0
 26 27  1  0  0  0
 28102  1  0  0  0
 28103  1  0  0  0
 29104  1  0  0  0
 29105  1  0  0  0
 33 34  1  0  0  0
 33 66  1  0  0  0
 33 70  2  0  0  0
 34 36  1  0  0  0
 34 59  1  0  0  0
 34106  1  0  0  0
 35 44  2  0  0  0
 35 45  1  0  0  0
 35 68  1  0  0  0
 36 56  1  0  0  0
 36107  1  0  0  0
 37 39  1  0  0  0
 37 47  1  0  0  0
 37 66  1  0  0  0
 37108  1  0  0  0
 38 43  2  0  0  0
 38 46  1  0  0  0
 38 47  1  0  0  0
 39 64  1  0  0  0
 39 67  2  0  0  0
 40 52  1  0  0  0
 40 53  2  0  0  0
 40 58  1  0  0  0
 41109  1  0  0  0
 41110  1  0  0  0
 41111  1  0  0  0
 41 48  1  0  0  0
 42 43  1  0  0  0
 42 66  1  0  0  0
 42112  1  0  0  0
 42113  1  0  0  0
 43 44  1  0  0  0
 44114  1  0  0  0
 45 46  2  0  0  0
 45115  1  0  0  0
 46116  1  0  0  0
 47117  1  0  0  0
 47118  1  0  0  0
 48 56  1  0  0  0
 48 65  1  0  0  0
 48119  1  0  0  0
 49 50  1  0  0  0
 49 53  1  0  0  0
 49 64  1  0  0  0
 49120  1  0  0  0
 50 51  1  0  0  0
 50121  1  0  0  0
 50122  1  0  0  0
 51 52  1  0  0  0
 51123  1  0  0  0
 51124  1  0  0  0
 52125  1  0  0  0
 52126  1  0  0  0
 53 54  1  0  0  0
 54 55  2  0  0  0
 54127  1  0  0  0
 55 57  1  0  0  0
 55128  1  0  0  0
 56 69  2  0  0  0
 57 58  2  0  0  0
 57129  1  0  0  0
 58130  1  0  0  0
 59 60  1  0  0  0
 59 61  1  0  0  0
 59 62  1  0  0  0
 60131  1  0  0  0
 60132  1  0  0  0
 60133  1  0  0  0
 61134  1  0  0  0
 61135  1  0  0  0
 61136  1  0  0  0
 62137  1  0  0  0
 62138  1  0  0  0
 62139  1  0  0  0
 63 65  1  0  0  0
 63140  1  0  0  0
 63141  1  0  0  0
 63142  1  0  0  0
 64143  1  0  0  0
 65144  1  0  0  0
 68 80  1  0  0  0
 71 72  2  0  0  0
 71 74  1  0  0  0
 71145  1  0  0  0
 72 75  1  0  0  0
 72146  1  0  0  0
 73 75  2  0  0  0
 73 76  1  0  0  0
 73 77  1  0  0  0
 74 76  2  0  0  0
 74 83  1  0  0  0
 75 84  1  0  0  0
 76 85  1  0  0  0
 77 79  1  0  0  0
 77147  1  0  0  0
 77148  1  0  0  0
 78 80  1  0  0  0
 78 81  1  0  0  0
 78149  1  0  0  0
 78150  1  0  0  0
 79 82  1  0  0  0
 79151  1  0  0  0
 79152  1  0  0  0
 80153  1  0  0  0
 80154  1  0  0  0
 81 83  1  0  0  0
 81155  1  0  0  0
 81156  1  0  0  0
 82157  1  0  0  0
M  ISO  4   1 100  68 101  80 101  82 100
M  END
> <chiral flag>
0

> <version>
0

> <s_m_source_file>
/data/baiqing/PycharmProjects/Reinvent-master-3.2/result/LINK_invent/BTK/process_docking_weight1_custom_product_contain_oxygen_bond_distance_aromatic_linkinvent_7_9_3/rearranged_h_0010.sdf

> <i_m_source_file_index>
32

> <r_mmod_Potential_Energy-OPLS-2005>
-76.1879653930664

> <r_mmod_Stretch_Energy-OPLS-2005>
32.9460868835449

> <r_mmod_Bend_Energy-OPLS-2005>
98.3858795166016

> <r_mmod_Torsional_Energy-OPLS-2005>
214.352722167969

> <r_mmod_Improper_Torsional_Energy-OPLS-2005>
2.69266867637634

> <r_mmod_Van_der_Waal_Energy-OPLS-2005>
164.852935791016

> <r_mmod_Electrostatic_Energy-OPLS-2005>
-392.244171142578

> <r_mmod_Solvation_Energy-OPLS-2005>
-206.642135620117

> <b_mmod_Minimization_Converged-OPLS-2005>
0

> <r_mmod_RMS_Derivative-OPLS-2005>
4.01204824447632

$$$$
32
                    3D
 Structure written by MMmdl.
154162  0  0  1  0            999 V2000
  -30.6258  -14.6618   20.5785 C   0  0  0  0  0  0
  -30.4222  -12.4295   19.4512 C   0  0  0  0  0  0
  -29.4978  -12.5530   18.2204 C   0  0  0  0  0  0
  -28.0218  -12.3638   18.6143 C   0  0  0  0  0  0
  -27.6381  -13.2081   19.8533 C   0  0  2  0  0  0
  -28.6705  -13.0664   20.9834 C   0  0  0  0  0  0
  -25.2491  -13.8166   20.5639 C   0  0  0  0  0  0
  -24.1765  -13.0450   20.9134 C   0  0  0  0  0  0
  -24.6306  -11.6904   20.8693 C   0  0  0  0  0  0
  -23.8998  -10.4309   21.0388 C   0  0  0  0  0  0
  -24.3589   -9.4248   21.9156 C   0  0  0  0  0  0
  -23.6298   -8.2274   22.0759 C   0  0  0  0  0  0
  -22.4275   -8.0287   21.3568 C   0  0  0  0  0  0
  -21.9870   -9.0239   20.4663 C   0  0  0  0  0  0
  -22.7164  -10.2128   20.3068 C   0  0  0  0  0  0
  -21.6866   -6.0724   22.5276 C   0  0  0  0  0  0
  -21.4006   -6.5622   23.8202 C   0  0  0  0  0  0
  -21.3662   -5.6781   24.9166 C   0  0  0  0  0  0
  -21.6067   -4.3047   24.7217 C   0  0  0  0  0  0
  -21.8823   -3.8135   23.4339 C   0  0  0  0  0  0
  -21.9203   -4.6951   22.3400 C   0  0  0  0  0  0
  -22.7806  -13.5256   21.1846 C   0  0  0  0  0  0
  -22.1681   -4.2133   21.0976 F   0  0  0  0  0  0
  -21.5663   -3.4534   25.7732 F   0  0  0  0  0  0
  -29.9915  -13.4418   20.4482 N   0  0  0  0  0  0
  -26.2857  -12.9300   20.3203 N   0  0  0  0  0  0
  -25.9210  -11.6467   20.5634 N   0  0  0  0  0  0
  -22.0490  -12.8262   22.0426 N   0  0  0  0  0  0
  -25.4299  -15.1896   20.4058 N   0  0  0  0  0  0
  -31.7242  -14.8472   20.0420 O   0  0  0  0  0  0
  -21.6680   -6.8860   21.4239 O   0  0  0  0  0  0
  -22.3486  -14.5575   20.6702 O   0  0  0  0  0  0
  -24.6251  -31.8571   23.2012 C   0  0  0  0  0  0
  -25.9079  -32.4783   23.8376 C   0  0  1  0  0  0
  -27.2348  -27.3145   20.1314 C   0  0  0  0  0  0
  -25.5861  -33.8586   24.2257 N   0  0  0  0  0  0
  -23.4259  -30.4755   21.5408 C   0  0  2  0  0  0
  -24.8750  -28.9189   20.1230 C   0  0  0  0  0  0
  -22.7494  -29.4599   22.4925 C   0  0  0  0  0  0
  -18.0282  -28.1414   22.8485 C   0  0  0  0  0  0
  -24.1478  -36.7303   23.2648 C   0  0  0  0  0  0
  -25.9671  -30.7844   21.3801 C   0  0  0  0  0  0
  -26.0431  -29.4111   20.7196 C   0  0  0  0  0  0
  -27.2291  -28.6203   20.7091 C   0  0  0  0  0  0
  -26.0449  -26.8614   19.5263 C   0  0  0  0  0  0
  -24.8742  -27.6466   19.5240 C   0  0  0  0  0  0
  -23.6456  -29.8018   20.1613 C   0  0  0  0  0  0
  -25.4109  -36.3080   24.0320 C   0  0  1  0  0  0
  -20.5881  -28.3698   23.1267 C   0  0  2  0  0  0
  -20.6773  -26.9417   22.5401 C   0  0  0  0  0  0
  -19.5750  -26.6383   21.5209 C   0  0  0  0  0  0
  -18.1931  -26.7958   22.1630 C   0  0  0  0  0  0
  -19.1541  -28.8877   23.2875 C   0  0  0  0  0  0
  -18.9478  -30.1482   23.8891 C   0  0  0  0  0  0
  -17.6482  -30.6613   24.0568 C   0  0  0  0  0  0
  -25.9040  -34.9454   23.5092 C   0  0  0  0  0  0
  -16.5368  -29.9119   23.6348 C   0  0  0  0  0  0
  -16.7268  -28.6538   23.0366 C   0  0  0  0  0  0
  -26.4443  -31.6668   25.0805 C   0  0  0  0  0  0
  -25.3664  -31.3851   26.1534 C   0  0  0  0  0  0
  -27.0298  -30.3082   24.6346 C   0  0  0  0  0  0
  -27.5995  -32.4455   25.7538 C   0  0  0  0  0  0
  -27.5573  -37.1803   24.8453 C   0  0  0  0  0  0
  -21.4208  -29.3036   22.3655 N   0  0  0  0  0  0
  -26.4284  -37.3779   23.9404 N   0  0  0  0  0  0
  -24.6907  -31.0571   22.0966 N   0  0  0  0  0  0
  -23.4191  -28.8143   23.3026 O   0  0  0  0  0  0
  -28.3593  -26.4819   20.1192 O   0  0  0  0  0  0
  -26.5656  -34.8906   22.4678 O   0  0  0  0  0  0
  -23.5400  -32.1354   23.7318 O   0  0  0  0  0  0
  -28.5203  -18.7666   19.5302 C   0  0  0  0  0  0
  -30.0362  -19.5627   21.1942 C   0  0  0  0  0  0
  -29.7962  -17.0752   20.8552 C   0  0  0  0  0  0
  -29.0810  -19.8906   20.1973 C   0  0  0  0  0  0
  -28.8600  -17.4115   19.8386 C   0  0  0  0  0  0
  -30.3911  -18.2058   21.5044 C   0  0  0  0  0  0
  -29.9143  -15.4288   22.7519 C   0  0  0  0  0  0
  -28.5522  -23.8173   19.8498 C   0  0  0  0  0  0
  -28.2563  -25.1279   20.7177 C   0  0  0  0  0  0
  -28.8391  -22.4171   20.5935 C   0  0  0  0  0  0
  -30.0131  -15.6715   21.3012 N   0  0  0  0  0  0
  -28.7070  -21.1952   19.7800 O   0  0  0  0  0  0
  -28.2324  -16.4226   19.1613 F   0  0  0  0  0  0
  -31.3433  -18.0110   22.4475 F   0  0  0  0  0  0
  -31.4626  -12.5588   19.1460 H   0  0  0  0  0  0
  -30.3638  -11.4230   19.8714 H   0  0  0  0  0  0
  -29.7748  -11.8290   17.4538 H   0  0  0  0  0  0
  -29.6263  -13.5410   17.7738 H   0  0  0  0  0  0
  -27.8536  -11.3052   18.8072 H   0  0  0  0  0  0
  -27.3800  -12.6280   17.7740 H   0  0  0  0  0  0
  -27.6501  -14.2402   19.5250 H   0  0  0  0  0  0
  -28.6867  -12.0417   21.3538 H   0  0  0  0  0  0
  -28.3441  -13.6763   21.8226 H   0  0  0  0  0  0
  -25.2736   -9.5759   22.4703 H   0  0  0  0  0  0
  -24.0043   -7.4669   22.7473 H   0  0  0  0  0  0
  -21.0815   -8.8714   19.8971 H   0  0  0  0  0  0
  -22.3590  -10.9657   19.6200 H   0  0  0  0  0  0
  -21.1980   -7.6121   23.9700 H   0  0  0  0  0  0
  -21.1499   -6.0505   25.9064 H   0  0  0  0  0  0
  -22.0600   -2.7598   23.2834 H   0  0  0  0  0  0
  -22.4074  -11.9832   22.4670 H   0  0  0  0  0  0
  -21.1170  -13.1368   22.2803 H   0  0  0  0  0  0
  -24.6667  -15.8517   20.4927 H   0  0  0  0  0  0
  -26.2839  -15.6076   20.0540 H   0  0  0  0  0  0
  -26.7170  -32.5426   23.1152 H   0  0  0  0  0  0
  -24.9901  -33.9747   25.0321 H   0  0  0  0  0  0
  -22.7207  -31.2950   21.3892 H   0  0  0  0  0  0
  -23.3733  -35.9647   23.3327 H   0  0  0  0  0  0
  -24.3548  -36.8922   22.2057 H   0  0  0  0  0  0
  -23.7254  -37.6507   23.6683 H   0  0  0  0  0  0
  -26.1135  -31.5537   20.6209 H   0  0  0  0  0  0
  -26.8395  -30.8216   22.0223 H   0  0  0  0  0  0
  -28.1320  -28.9919   21.1741 H   0  0  0  0  0  0
  -26.0172  -25.8847   19.0629 H   0  0  0  0  0  0
  -23.9729  -27.2569   19.0706 H   0  0  0  0  0  0
  -23.7775  -30.5730   19.4019 H   0  0  0  0  0  0
  -22.7678  -29.2320   19.8535 H   0  0  0  0  0  0
  -25.1296  -36.1929   25.0820 H   0  0  0  0  0  0
  -20.9975  -28.3282   24.1390 H   0  0  0  0  0  0
  -20.5663  -26.2318   23.3609 H   0  0  0  0  0  0
  -21.6645  -26.7439   22.1202 H   0  0  0  0  0  0
  -19.6908  -25.6281   21.1271 H   0  0  0  0  0  0
  -19.6708  -27.3165   20.6715 H   0  0  0  0  0  0
  -17.4192  -26.6680   21.4049 H   0  0  0  0  0  0
  -18.0356  -26.0127   22.9050 H   0  0  0  0  0  0
  -19.7948  -30.7302   24.2270 H   0  0  0  0  0  0
  -17.5031  -31.6299   24.5173 H   0  0  0  0  0  0
  -15.5363  -30.3026   23.7692 H   0  0  0  0  0  0
  -15.8665  -28.0851   22.7108 H   0  0  0  0  0  0
  -24.5741  -30.7331   25.7845 H   0  0  0  0  0  0
  -24.8969  -32.3044   26.5050 H   0  0  0  0  0  0
  -25.7932  -30.8919   27.0275 H   0  0  0  0  0  0
  -26.2916  -29.6874   24.1261 H   0  0  0  0  0  0
  -27.3809  -29.7335   25.4926 H   0  0  0  0  0  0
  -27.8860  -30.4347   23.9724 H   0  0  0  0  0  0
  -27.2576  -33.3721   26.2160 H   0  0  0  0  0  0
  -28.3734  -32.7114   25.0333 H   0  0  0  0  0  0
  -28.0765  -31.8613   26.5410 H   0  0  0  0  0  0
  -28.2587  -38.0103   24.7487 H   0  0  0  0  0  0
  -28.1075  -36.2627   24.6290 H   0  0  0  0  0  0
  -27.2294  -37.1461   25.8859 H   0  0  0  0  0  0
  -20.9419  -29.8735   21.6820 H   0  0  0  0  0  0
  -26.0161  -38.2849   24.1424 H   0  0  0  0  0  0
  -27.7879  -18.9405   18.7538 H   0  0  0  0  0  0
  -30.5409  -20.3604   21.7192 H   0  0  0  0  0  0
  -30.5801  -16.0575   23.3372 H   0  0  0  0  0  0
  -30.1571  -14.4004   23.0345 H   0  0  0  0  0  0
  -28.8957  -15.6243   23.0864 H   0  0  0  0  0  0
  -29.4132  -24.0259   19.2158 H   0  0  0  0  0  0
  -27.7143  -23.6919   19.1624 H   0  0  0  0  0  0
  -28.9712  -25.1341   21.5411 H   0  0  0  0  0  0
  -27.2862  -25.0133   21.2056 H   0  0  0  0  0  0
  -28.1611  -22.3143   21.4410 H   0  0  0  0  0  0
  -29.8442  -22.4606   21.0124 H   0  0  0  0  0  0
  1 25  1  0  0  0
  1 30  2  0  0  0
  1 81  1  0  0  0
  2  3  1  0  0  0
  2 25  1  0  0  0
  2 85  1  0  0  0
  2 86  1  0  0  0
  3  4  1  0  0  0
  3 87  1  0  0  0
  3 88  1  0  0  0
  4  5  1  0  0  0
  4 89  1  0  0  0
  4 90  1  0  0  0
  5  6  1  0  0  0
  5 26  1  0  0  0
  5 91  1  0  0  0
  6 25  1  0  0  0
  6 92  1  0  0  0
  6 93  1  0  0  0
  7  8  2  0  0  0
  7 26  1  0  0  0
  7 29  1  0  0  0
  8  9  1  0  0  0
  8 22  1  0  0  0
  9 10  1  0  0  0
  9 27  2  0  0  0
 10 11  2  0  0  0
 10 15  1  0  0  0
 11 12  1  0  0  0
 11 94  1  0  0  0
 12 13  2  0  0  0
 12 95  1  0  0  0
 13 14  1  0  0  0
 13 31  1  0  0  0
 14 15  2  0  0  0
 14 96  1  0  0  0
 15 97  1  0  0  0
 16 17  2  0  0  0
 16 21  1  0  0  0
 16 31  1  0  0  0
 17 18  1  0  0  0
 17 98  1  0  0  0
 18 19  2  0  0  0
 18 99  1  0  0  0
 19 20  1  0  0  0
 19 24  1  0  0  0
 20 21  2  0  0  0
 20100  1  0  0  0
 21 23  1  0  0  0
 22 28  1  0  0  0
 22 32  2  0  0  0
 26 27  1  0  0  0
 28101  1  0  0  0
 28102  1  0  0  0
 29103  1  0  0  0
 29104  1  0  0  0
 33 34  1  0  0  0
 33 66  1  0  0  0
 33 70  2  0  0  0
 34 36  1  0  0  0
 34 59  1  0  0  0
 34105  1  0  0  0
 35 44  2  0  0  0
 35 45  1  0  0  0
 35 68  1  0  0  0
 36 56  1  0  0  0
 36106  1  0  0  0
 37 39  1  0  0  0
 37 47  1  0  0  0
 37 66  1  0  0  0
 37107  1  0  0  0
 38 43  2  0  0  0
 38 46  1  0  0  0
 38 47  1  0  0  0
 39 64  1  0  0  0
 39 67  2  0  0  0
 40 52  1  0  0  0
 40 53  2  0  0  0
 40 58  1  0  0  0
 41108  1  0  0  0
 41109  1  0  0  0
 41110  1  0  0  0
 41 48  1  0  0  0
 42 43  1  0  0  0
 42 66  1  0  0  0
 42111  1  0  0  0
 42112  1  0  0  0
 43 44  1  0  0  0
 44113  1  0  0  0
 45 46  2  0  0  0
 45114  1  0  0  0
 46115  1  0  0  0
 47116  1  0  0  0
 47117  1  0  0  0
 48 56  1  0  0  0
 48 65  1  0  0  0
 48118  1  0  0  0
 49 50  1  0  0  0
 49 53  1  0  0  0
 49 64  1  0  0  0
 49119  1  0  0  0
 50 51  1  0  0  0
 50120  1  0  0  0
 50121  1  0  0  0
 51 52  1  0  0  0
 51122  1  0  0  0
 51123  1  0  0  0
 52124  1  0  0  0
 52125  1  0  0  0
 53 54  1  0  0  0
 54 55  2  0  0  0
 54126  1  0  0  0
 55 57  1  0  0  0
 55127  1  0  0  0
 56 69  2  0  0  0
 57 58  2  0  0  0
 57128  1  0  0  0
 58129  1  0  0  0
 59 60  1  0  0  0
 59 61  1  0  0  0
 59 62  1  0  0  0
 60130  1  0  0  0
 60131  1  0  0  0
 60132  1  0  0  0
 61133  1  0  0  0
 61134  1  0  0  0
 61135  1  0  0  0
 62136  1  0  0  0
 62137  1  0  0  0
 62138  1  0  0  0
 63 65  1  0  0  0
 63139  1  0  0  0
 63140  1  0  0  0
 63141  1  0  0  0
 64142  1  0  0  0
 65143  1  0  0  0
 68 79  1  0  0  0
 71 74  2  0  0  0
 71 75  1  0  0  0
 71144  1  0  0  0
 72 74  1  0  0  0
 72 76  2  0  0  0
 72145  1  0  0  0
 73 75  2  0  0  0
 73 76  1  0  0  0
 73 81  1  0  0  0
 74 82  1  0  0  0
 75 83  1  0  0  0
 76 84  1  0  0  0
 77 81  1  0  0  0
 77146  1  0  0  0
 77147  1  0  0  0
 77148  1  0  0  0
 78 79  1  0  0  0
 78 80  1  0  0  0
 78149  1  0  0  0
 78150  1  0  0  0
 79151  1  0  0  0
 79152  1  0  0  0
 80 82  1  0  0  0
 80153  1  0  0  0
 80154  1  0  0  0
M  ISO  4   1 100  68 101  79 101  81 100
M  END
> <chiral flag>
0

> <version>
0

> <s_m_source_file>
/data/baiqing/PycharmProjects/Reinvent-master-3.2/result/LINK_invent/BTK/process_docking_weight1_custom_product_contain_oxygen_bond_distance_aromatic_linkinvent_7_9_3/rearranged_h_0010.sdf

> <i_m_source_file_index>
33

> <r_mmod_Potential_Energy-OPLS-2005>
220.995727539062

> <r_mmod_Stretch_Energy-OPLS-2005>
96.2808532714844

> <r_mmod_Bend_Energy-OPLS-2005>
157.440582275391

> <r_mmod_Torsional_Energy-OPLS-2005>
321.551940917969

> <r_mmod_Improper_Torsional_Energy-OPLS-2005>
3.48599481582642

> <r_mmod_Van_der_Waal_Energy-OPLS-2005>
141.557861328125

> <r_mmod_Electrostatic_Energy-OPLS-2005>
-361.758605957031

> <r_mmod_Solvation_Energy-OPLS-2005>
-189.18701171875

> <b_mmod_Minimization_Converged-OPLS-2005>
0

> <r_mmod_RMS_Derivative-OPLS-2005>
3.59691572189331

$$$$
33
                    3D
 Structure written by MMmdl.
155163  0  0  1  0            999 V2000
  -30.7074  -14.4690   20.6504 C   0  0  0  0  0  0
  -30.4350  -12.3173   19.4406 C   0  0  0  0  0  0
  -29.5057  -12.4999   18.2201 C   0  0  0  0  0  0
  -28.0284  -12.3372   18.6281 C   0  0  0  0  0  0
  -27.6637  -13.1963   19.8678 C   0  0  2  0  0  0
  -28.6978  -12.9873   20.9995 C   0  0  0  0  0  0
  -25.2621  -13.8135   20.5675 C   0  0  0  0  0  0
  -24.1843  -13.0441   20.9185 C   0  0  0  0  0  0
  -24.6393  -11.6903   20.8757 C   0  0  0  0  0  0
  -23.9082  -10.4274   21.0429 C   0  0  0  0  0  0
  -24.3630   -9.4177   21.9202 C   0  0  0  0  0  0
  -23.6295   -8.2226   22.0762 C   0  0  0  0  0  0
  -22.4276   -8.0280   21.3555 C   0  0  0  0  0  0
  -21.9928   -9.0257   20.4648 C   0  0  0  0  0  0
  -22.7271  -10.2134   20.3054 C   0  0  0  0  0  0
  -21.6833   -6.0743   22.5296 C   0  0  0  0  0  0
  -21.3978   -6.5635   23.8236 C   0  0  0  0  0  0
  -21.3658   -5.6782   24.9199 C   0  0  0  0  0  0
  -21.6038   -4.3043   24.7244 C   0  0  0  0  0  0
  -21.8801   -3.8150   23.4365 C   0  0  0  0  0  0
  -21.9179   -4.6965   22.3422 C   0  0  0  0  0  0
  -22.7871  -13.5262   21.1846 C   0  0  0  0  0  0
  -22.1648   -4.2152   21.1003 F   0  0  0  0  0  0
  -21.5667   -3.4520   25.7762 F   0  0  0  0  0  0
  -30.0469  -13.2883   20.4794 N   0  0  0  0  0  0
  -26.3036  -12.9276   20.3306 N   0  0  0  0  0  0
  -25.9321  -11.6460   20.5792 N   0  0  0  0  0  0
  -22.0478  -12.8270   22.0403 N   0  0  0  0  0  0
  -25.4390  -15.1854   20.4136 N   0  0  0  0  0  0
  -31.7429  -14.7535   20.0399 O   0  0  0  0  0  0
  -21.6611   -6.8906   21.4270 O   0  0  0  0  0  0
  -22.3542  -14.5568   20.6698 O   0  0  0  0  0  0
  -24.6169  -31.8712   23.2096 C   0  0  0  0  0  0
  -25.9067  -32.4840   23.8379 C   0  0  1  0  0  0
  -27.2273  -27.4266   20.0995 C   0  0  0  0  0  0
  -25.5954  -33.8621   24.2351 N   0  0  0  0  0  0
  -23.3995  -30.4977   21.5520 C   0  0  2  0  0  0
  -24.8448  -28.9683   20.1079 C   0  0  0  0  0  0
  -22.7403  -29.4680   22.4978 C   0  0  0  0  0  0
  -18.0284  -28.1399   22.8533 C   0  0  0  0  0  0
  -24.1486  -36.7287   23.2637 C   0  0  0  0  0  0
  -25.9299  -30.8431   21.3551 C   0  0  0  0  0  0
  -26.0071  -29.4760   20.7022 C   0  0  0  0  0  0
  -27.1996  -28.7136   20.6870 C   0  0  0  0  0  0
  -26.0423  -26.9398   19.4947 C   0  0  0  0  0  0
  -24.8595  -27.7042   19.4970 C   0  0  0  0  0  0
  -23.6052  -29.8336   20.1638 C   0  0  0  0  0  0
  -25.4110  -36.3098   24.0346 C   0  0  1  0  0  0
  -20.5878  -28.3678   23.1353 C   0  0  2  0  0  0
  -20.6786  -26.9411   22.5461 C   0  0  0  0  0  0
  -19.5765  -26.6401   21.5255 C   0  0  0  0  0  0
  -18.1934  -26.7960   22.1643 C   0  0  0  0  0  0
  -19.1542  -28.8850   23.2952 C   0  0  0  0  0  0
  -18.9438  -30.1463   23.8951 C   0  0  0  0  0  0
  -17.6437  -30.6604   24.0572 C   0  0  0  0  0  0
  -25.9060  -34.9468   23.5149 C   0  0  0  0  0  0
  -16.5331  -29.9112   23.6319 C   0  0  0  0  0  0
  -16.7273  -28.6524   23.0369 C   0  0  0  0  0  0
  -26.4498  -31.6584   25.0668 C   0  0  0  0  0  0
  -25.3778  -31.3624   26.1406 C   0  0  0  0  0  0
  -27.0318  -30.3050   24.5967 C   0  0  0  0  0  0
  -27.6105  -32.4256   25.7432 C   0  0  0  0  0  0
  -27.5579  -37.1788   24.8459 C   0  0  0  0  0  0
  -21.4127  -29.3016   22.3691 N   0  0  0  0  0  0
  -26.4280  -37.3788   23.9420 N   0  0  0  0  0  0
  -24.6686  -31.0797   22.1012 N   0  0  0  0  0  0
  -23.4189  -28.8267   23.3046 O   0  0  0  0  0  0
  -28.3949  -26.6821   20.1364 O   0  0  0  0  0  0
  -26.5566  -34.8931   22.4680 O   0  0  0  0  0  0
  -23.5375  -32.1460   23.7542 O   0  0  0  0  0  0
  -29.3714  -17.4042   20.5472 C   0  0  0  0  0  0
  -29.1151  -18.7958   20.6562 C   0  0  0  0  0  0
  -30.3892  -18.8525   22.7337 C   0  0  0  0  0  0
  -30.1072  -16.7224   21.5481 C   0  0  0  0  0  0
  -30.6191  -17.4638   22.6374 C   0  0  0  0  0  0
  -29.6117  -19.5221   21.7639 C   0  0  0  0  0  0
  -29.5634  -24.5325   20.4840 C   0  0  0  0  0  0
  -29.8027  -23.0684   19.9967 C   0  0  0  0  0  0
  -28.2975  -25.2535   19.9622 C   0  0  0  0  0  0
  -30.1783  -15.2938   21.5756 N   0  0  0  0  0  0
  -28.8840  -22.0728   20.5946 N   0  0  0  0  0  0
  -27.8804  -21.2762   22.8062 O   0  0  0  0  0  0
  -30.3320  -21.9233   22.7178 O   0  0  0  0  0  0
  -31.3050  -16.8299   23.6186 F   0  0  0  0  0  0
  -29.1723  -21.2599   22.0983 S   0  0  0  0  0  0
  -31.4827  -12.4238   19.1493 H   0  0  0  0  0  0
  -30.3444  -11.3062   19.8392 H   0  0  0  0  0  0
  -29.7603  -11.7662   17.4557 H   0  0  0  0  0  0
  -29.6681  -13.4801   17.7708 H   0  0  0  0  0  0
  -27.8708  -11.2833   18.8669 H   0  0  0  0  0  0
  -27.3682  -12.5607   17.7876 H   0  0  0  0  0  0
  -27.7027  -14.2380   19.5505 H   0  0  0  0  0  0
  -28.6714  -11.9534   21.3455 H   0  0  0  0  0  0
  -28.4247  -13.5829   21.8700 H   0  0  0  0  0  0
  -25.2763   -9.5598   22.4813 H   0  0  0  0  0  0
  -23.9955   -7.4586   22.7479 H   0  0  0  0  0  0
  -21.0861   -8.8810   19.8971 H   0  0  0  0  0  0
  -22.3758  -10.9692   19.6169 H   0  0  0  0  0  0
  -21.1927   -7.6134   23.9726 H   0  0  0  0  0  0
  -21.1530   -6.0532   25.9110 H   0  0  0  0  0  0
  -22.0592   -2.7614   23.2864 H   0  0  0  0  0  0
  -22.4017  -11.9896   22.4804 H   0  0  0  0  0  0
  -21.1116  -13.1342   22.2578 H   0  0  0  0  0  0
  -24.6939  -15.8542   20.5745 H   0  0  0  0  0  0
  -26.3148  -15.6208   20.1522 H   0  0  0  0  0  0
  -26.7158  -32.5568   23.1163 H   0  0  0  0  0  0
  -25.0083  -33.9772   25.0498 H   0  0  0  0  0  0
  -22.6876  -31.3161   21.4179 H   0  0  0  0  0  0
  -23.3754  -35.9612   23.3304 H   0  0  0  0  0  0
  -24.3566  -36.8879   22.2038 H   0  0  0  0  0  0
  -23.7244  -37.6505   23.6640 H   0  0  0  0  0  0
  -26.0293  -31.6165   20.5890 H   0  0  0  0  0  0
  -26.8230  -30.9062   21.9635 H   0  0  0  0  0  0
  -28.0971  -29.1063   21.1415 H   0  0  0  0  0  0
  -26.0130  -25.9722   19.0178 H   0  0  0  0  0  0
  -23.9654  -27.3152   19.0291 H   0  0  0  0  0  0
  -23.7139  -30.6121   19.4064 H   0  0  0  0  0  0
  -22.7292  -29.2527   19.8672 H   0  0  0  0  0  0
  -25.1305  -36.1940   25.0840 H   0  0  0  0  0  0
  -21.0025  -28.3276   24.1468 H   0  0  0  0  0  0
  -20.5711  -26.2291   23.3657 H   0  0  0  0  0  0
  -21.6649  -26.7505   22.1231 H   0  0  0  0  0  0
  -19.6902  -25.6318   21.1270 H   0  0  0  0  0  0
  -19.6683  -27.3216   20.6787 H   0  0  0  0  0  0
  -17.4221  -26.6765   21.4017 H   0  0  0  0  0  0
  -18.0289  -26.0065   22.8997 H   0  0  0  0  0  0
  -19.7898  -30.7287   24.2342 H   0  0  0  0  0  0
  -17.4977  -31.6294   24.5168 H   0  0  0  0  0  0
  -15.5341  -30.3029   23.7600 H   0  0  0  0  0  0
  -15.8680  -28.0843   22.7093 H   0  0  0  0  0  0
  -24.6065  -30.6846   25.7712 H   0  0  0  0  0  0
  -24.8855  -32.2743   26.4794 H   0  0  0  0  0  0
  -25.8187  -30.8862   27.0175 H   0  0  0  0  0  0
  -26.2822  -29.6775   24.1136 H   0  0  0  0  0  0
  -27.4246  -29.7288   25.4351 H   0  0  0  0  0  0
  -27.8569  -30.4367   23.8961 H   0  0  0  0  0  0
  -27.2787  -33.3586   26.1991 H   0  0  0  0  0  0
  -28.3941  -32.6741   25.0258 H   0  0  0  0  0  0
  -28.0724  -31.8355   26.5353 H   0  0  0  0  0  0
  -28.2593  -38.0085   24.7558 H   0  0  0  0  0  0
  -28.1087  -36.2635   24.6256 H   0  0  0  0  0  0
  -27.2296  -37.1411   25.8855 H   0  0  0  0  0  0
  -20.9303  -29.8673   21.6844 H   0  0  0  0  0  0
  -26.0159  -38.2850   24.1480 H   0  0  0  0  0  0
  -28.9403  -16.8506   19.7264 H   0  0  0  0  0  0
  -28.4865  -19.2864   19.9295 H   0  0  0  0  0  0
  -30.7609  -19.3984   23.5878 H   0  0  0  0  0  0
  -30.4159  -25.1270   20.1503 H   0  0  0  0  0  0
  -29.5814  -24.5797   21.5734 H   0  0  0  0  0  0
  -30.8261  -22.7790   20.2362 H   0  0  0  0  0  0
  -29.7240  -23.0275   18.9101 H   0  0  0  0  0  0
  -27.4340  -24.8545   20.5005 H   0  0  0  0  0  0
  -28.1566  -25.0342   18.9046 H   0  0  0  0  0  0
  -29.5321  -14.8491   22.2089 H   0  0  0  0  0  0
  -28.2474  -21.5805   19.9636 H   0  0  0  0  0  0
  1 25  1  0  0  0
  1 30  2  0  0  0
  1 80  1  0  0  0
  2  3  1  0  0  0
  2 25  1  0  0  0
  2 86  1  0  0  0
  2 87  1  0  0  0
  3  4  1  0  0  0
  3 88  1  0  0  0
  3 89  1  0  0  0
  4  5  1  0  0  0
  4 90  1  0  0  0
  4 91  1  0  0  0
  5  6  1  0  0  0
  5 26  1  0  0  0
  5 92  1  0  0  0
  6 25  1  0  0  0
  6 93  1  0  0  0
  6 94  1  0  0  0
  7  8  2  0  0  0
  7 26  1  0  0  0
  7 29  1  0  0  0
  8  9  1  0  0  0
  8 22  1  0  0  0
  9 10  1  0  0  0
  9 27  2  0  0  0
 10 11  2  0  0  0
 10 15  1  0  0  0
 11 12  1  0  0  0
 11 95  1  0  0  0
 12 13  2  0  0  0
 12 96  1  0  0  0
 13 14  1  0  0  0
 13 31  1  0  0  0
 14 15  2  0  0  0
 14 97  1  0  0  0
 15 98  1  0  0  0
 16 17  2  0  0  0
 16 21  1  0  0  0
 16 31  1  0  0  0
 17 18  1  0  0  0
 17 99  1  0  0  0
 18 19  2  0  0  0
 18100  1  0  0  0
 19 20  1  0  0  0
 19 24  1  0  0  0
 20 21  2  0  0  0
 20101  1  0  0  0
 21 23  1  0  0  0
 22 28  1  0  0  0
 22 32  2  0  0  0
 26 27  1  0  0  0
 28102  1  0  0  0
 28103  1  0  0  0
 29104  1  0  0  0
 29105  1  0  0  0
 33 34  1  0  0  0
 33 66  1  0  0  0
 33 70  2  0  0  0
 34 36  1  0  0  0
 34 59  1  0  0  0
 34106  1  0  0  0
 35 44  2  0  0  0
 35 45  1  0  0  0
 35 68  1  0  0  0
 36 56  1  0  0  0
 36107  1  0  0  0
 37 39  1  0  0  0
 37 47  1  0  0  0
 37 66  1  0  0  0
 37108  1  0  0  0
 38 43  2  0  0  0
 38 46  1  0  0  0
 38 47  1  0  0  0
 39 64  1  0  0  0
 39 67  2  0  0  0
 40 52  1  0  0  0
 40 53  2  0  0  0
 40 58  1  0  0  0
 41109  1  0  0  0
 41110  1  0  0  0
 41111  1  0  0  0
 41 48  1  0  0  0
 42 43  1  0  0  0
 42 66  1  0  0  0
 42112  1  0  0  0
 42113  1  0  0  0
 43 44  1  0  0  0
 44114  1  0  0  0
 45 46  2  0  0  0
 45115  1  0  0  0
 46116  1  0  0  0
 47117  1  0  0  0
 47118  1  0  0  0
 48 56  1  0  0  0
 48 65  1  0  0  0
 48119  1  0  0  0
 49 50  1  0  0  0
 49 53  1  0  0  0
 49 64  1  0  0  0
 49120  1  0  0  0
 50 51  1  0  0  0
 50121  1  0  0  0
 50122  1  0  0  0
 51 52  1  0  0  0
 51123  1  0  0  0
 51124  1  0  0  0
 52125  1  0  0  0
 52126  1  0  0  0
 53 54  1  0  0  0
 54 55  2  0  0  0
 54127  1  0  0  0
 55 57  1  0  0  0
 55128  1  0  0  0
 56 69  2  0  0  0
 57 58  2  0  0  0
 57129  1  0  0  0
 58130  1  0  0  0
 59 60  1  0  0  0
 59 61  1  0  0  0
 59 62  1  0  0  0
 60131  1  0  0  0
 60132  1  0  0  0
 60133  1  0  0  0
 61134  1  0  0  0
 61135  1  0  0  0
 61136  1  0  0  0
 62137  1  0  0  0
 62138  1  0  0  0
 62139  1  0  0  0
 63 65  1  0  0  0
 63140  1  0  0  0
 63141  1  0  0  0
 63142  1  0  0  0
 64143  1  0  0  0
 65144  1  0  0  0
 68 79  1  0  0  0
 71 72  2  0  0  0
 71 74  1  0  0  0
 71145  1  0  0  0
 72 76  1  0  0  0
 72146  1  0  0  0
 73 75  1  0  0  0
 73 76  2  0  0  0
 73147  1  0  0  0
 74 75  2  0  0  0
 74 80  1  0  0  0
 75 84  1  0  0  0
 76 85  1  0  0  0
 77 78  1  0  0  0
 77 79  1  0  0  0
 77148  1  0  0  0
 77149  1  0  0  0
 78 81  1  0  0  0
 78150  1  0  0  0
 78151  1  0  0  0
 79152  1  0  0  0
 79153  1  0  0  0
 80154  1  0  0  0
 81155  1  0  0  0
 81 85  1  0  0  0
 82 85  2  0  0  0
 83 85  2  0  0  0
M  ISO  4   1 100  68 101  79 101  80 100
M  END
> <chiral flag>
0

> <version>
0

> <s_m_source_file>
/data/baiqing/PycharmProjects/Reinvent-master-3.2/result/LINK_invent/BTK/process_docking_weight1_custom_product_contain_oxygen_bond_distance_aromatic_linkinvent_7_9_3/rearranged_h_0010.sdf

> <i_m_source_file_index>
34

> <r_mmod_Potential_Energy-OPLS-2005>
-190.423477172852

> <r_mmod_Stretch_Energy-OPLS-2005>
41.2048950195312

> <r_mmod_Bend_Energy-OPLS-2005>
112.130416870117

> <r_mmod_Torsional_Energy-OPLS-2005>
252.28434753418

> <r_mmod_Improper_Torsional_Energy-OPLS-2005>
5.53391170501709

> <r_mmod_Van_der_Waal_Energy-OPLS-2005>
139.849731445312

> <r_mmod_Electrostatic_Energy-OPLS-2005>
-492.464233398438

> <r_mmod_Solvation_Energy-OPLS-2005>
-263.039733886719

> <b_mmod_Minimization_Converged-OPLS-2005>
0

> <r_mmod_RMS_Derivative-OPLS-2005>
4.44524145126343

$$$$
34
                    3D
 Structure written by MMmdl.
169178  0  0  1  0            999 V2000
  -30.5578  -14.9688   20.3946 C   0  0  0  0  0  0
  -30.4317  -12.5928   19.5052 C   0  0  0  0  0  0
  -29.5207  -12.5294   18.2583 C   0  0  0  0  0  0
  -28.0566  -12.3060   18.6745 C   0  0  0  0  0  0
  -27.6267  -13.2487   19.8303 C   0  0  2  0  0  0
  -28.6669  -13.3079   20.9694 C   0  0  0  0  0  0
  -25.2538  -13.8238   20.5699 C   0  0  0  0  0  0
  -24.1755  -13.0484   20.9089 C   0  0  0  0  0  0
  -24.6348  -11.6964   20.8657 C   0  0  0  0  0  0
  -23.9053  -10.4317   21.0376 C   0  0  0  0  0  0
  -24.3691   -9.4191   21.9067 C   0  0  0  0  0  0
  -23.6379   -8.2225   22.0656 C   0  0  0  0  0  0
  -22.4323   -8.0245   21.3512 C   0  0  0  0  0  0
  -21.9926   -9.0219   20.4631 C   0  0  0  0  0  0
  -22.7236  -10.2119   20.3022 C   0  0  0  0  0  0
  -21.6851   -6.0708   22.5243 C   0  0  0  0  0  0
  -21.4023   -6.5684   23.8144 C   0  0  0  0  0  0
  -21.3659   -5.6897   24.9152 C   0  0  0  0  0  0
  -21.6029   -4.3140   24.7274 C   0  0  0  0  0  0
  -21.8791   -3.8170   23.4413 C   0  0  0  0  0  0
  -21.9179   -4.6931   22.3423 C   0  0  0  0  0  0
  -22.7813  -13.5347   21.1743 C   0  0  0  0  0  0
  -22.1649   -4.2063   21.1025 F   0  0  0  0  0  0
  -21.5675   -3.4674   25.7829 F   0  0  0  0  0  0
  -29.9467  -13.7104   20.3725 N   0  0  0  0  0  0
  -26.2892  -12.9431   20.3205 N   0  0  0  0  0  0
  -25.9281  -11.6579   20.5681 N   0  0  0  0  0  0
  -22.0302  -12.8296   22.0144 N   0  0  0  0  0  0
  -25.4480  -15.1986   20.4497 N   0  0  0  0  0  0
  -31.7644  -14.9797   20.1315 O   0  0  0  0  0  0
  -21.6709   -6.8811   21.4175 O   0  0  0  0  0  0
  -22.3649  -14.5801   20.6763 O   0  0  0  0  0  0
  -24.6476  -31.8403   23.1843 C   0  0  0  0  0  0
  -25.9259  -32.4655   23.8213 C   0  0  1  0  0  0
  -27.2115  -27.0924   20.1433 C   0  0  0  0  0  0
  -25.5996  -33.8455   24.2125 N   0  0  0  0  0  0
  -23.4501  -30.4595   21.5322 C   0  0  2  0  0  0
  -24.8981  -28.8787   20.1056 C   0  0  0  0  0  0
  -22.7576  -29.4529   22.4850 C   0  0  0  0  0  0
  -18.0310  -28.1411   22.8484 C   0  0  0  0  0  0
  -24.1481  -36.7246   23.2630 C   0  0  0  0  0  0
  -26.0084  -30.6919   21.3947 C   0  0  0  0  0  0
  -26.0748  -29.3019   20.7343 C   0  0  0  0  0  0
  -27.2298  -28.4254   20.7346 C   0  0  0  0  0  0
  -26.0155  -26.7920   19.4528 C   0  0  0  0  0  0
  -24.8851  -27.6392   19.4492 C   0  0  0  0  0  0
  -23.6780  -29.7866   20.1505 C   0  0  0  0  0  0
  -25.4121  -36.3018   24.0292 C   0  0  1  0  0  0
  -20.5918  -28.3743   23.1234 C   0  0  2  0  0  0
  -20.6776  -26.9442   22.5412 C   0  0  0  0  0  0
  -19.5756  -26.6388   21.5212 C   0  0  0  0  0  0
  -18.1945  -26.7960   22.1619 C   0  0  0  0  0  0
  -19.1568  -28.8904   23.2851 C   0  0  0  0  0  0
  -18.9472  -30.1487   23.8893 C   0  0  0  0  0  0
  -17.6466  -30.6618   24.0563 C   0  0  0  0  0  0
  -25.9076  -34.9391   23.5032 C   0  0  0  0  0  0
  -16.5362  -29.9102   23.6335 C   0  0  0  0  0  0
  -16.7292  -28.6517   23.0371 C   0  0  0  0  0  0
  -26.4548  -31.6570   25.0687 C   0  0  0  0  0  0
  -25.3701  -31.3826   26.1367 C   0  0  0  0  0  0
  -27.0356  -30.2929   24.6326 C   0  0  0  0  0  0
  -27.6064  -32.4353   25.7470 C   0  0  0  0  0  0
  -27.5586  -37.1771   24.8451 C   0  0  0  0  0  0
  -21.4277  -29.3055   22.3601 N   0  0  0  0  0  0
  -26.4282  -37.3745   23.9410 N   0  0  0  0  0  0
  -24.7211  -31.0206   22.0917 N   0  0  0  0  0  0
  -23.4198  -28.8074   23.3033 O   0  0  0  0  0  0
  -28.2590  -26.0906   20.2505 O   0  0  0  0  0  0
  -26.5632  -34.8914   22.4592 O   0  0  0  0  0  0
  -23.5592  -32.1310   23.7052 O   0  0  0  0  0  0
  -30.8379  -17.6276   18.8788 C   0  0  0  0  0  0
  -30.2816  -18.0539   17.6557 C   0  0  0  0  0  0
  -29.0690  -18.8191   20.0294 C   0  0  0  0  0  0
  -28.3024  -18.8662   18.8336 C   0  0  0  0  0  0
  -30.0328  -17.6479   20.0441 C   0  0  0  0  0  0
  -28.9601  -18.5320   17.6292 C   0  0  0  0  0  0
  -24.3160  -18.4613   17.4313 C   0  0  0  0  0  0
  -25.5468  -17.5904   17.6529 C   0  0  0  0  0  0
  -24.4508  -18.8473   18.8995 C   0  0  0  0  0  0
  -30.5383  -20.4481   21.4811 C   0  0  0  0  0  0
  -26.8763  -19.4192   18.7764 C   0  0  0  0  0  0
  -28.8216  -23.1835   20.6391 C   0  0  0  0  0  0
  -28.1306  -24.5580   19.8817 C   0  0  0  0  0  0
  -29.1896  -20.3297   20.7525 C   0  0  1  0  0  0
  -29.8094  -16.1904   20.5356 N   0  0  0  0  0  0
  -25.8352  -18.3587   18.8691 N   0  3  0  0  0  0
  -28.8388  -21.7076   20.0023 N   0  3  0  0  0  0
  -28.3474  -18.7381   16.4411 F   0  0  0  0  0  0
  -31.4688  -12.7192   19.1929 H   0  0  0  0  0  0
  -30.4099  -11.6469   20.0505 H   0  0  0  0  0  0
  -29.8411  -11.7245   17.5950 H   0  0  0  0  0  0
  -29.6083  -13.4590   17.6921 H   0  0  0  0  0  0
  -27.9659  -11.2663   18.9860 H   0  0  0  0  0  0
  -27.3932  -12.4173   17.8175 H   0  0  0  0  0  0
  -27.5760  -14.2453   19.3896 H   0  0  0  0  0  0
  -28.7520  -12.3468   21.4763 H   0  0  0  0  0  0
  -28.3563  -14.0298   21.7269 H   0  0  0  0  0  0
  -25.2950   -9.5593   22.4494 H   0  0  0  0  0  0
  -24.0189   -7.4566   22.7257 H   0  0  0  0  0  0
  -21.0867   -8.8689   19.8939 H   0  0  0  0  0  0
  -22.3697  -10.9609   19.6078 H   0  0  0  0  0  0
  -21.2040   -7.6213   23.9573 H   0  0  0  0  0  0
  -21.1516   -6.0736   25.9018 H   0  0  0  0  0  0
  -22.0582   -2.7617   23.3015 H   0  0  0  0  0  0
  -22.3616  -11.9714   22.4294 H   0  0  0  0  0  0
  -21.0972  -13.1512   22.2311 H   0  0  0  0  0  0
  -26.3533  -15.4735   20.8090 H   0  0  0  0  0  0
  -24.7088  -15.7345   20.8841 H   0  0  0  0  0  0
  -26.7286  -32.5228   23.0891 H   0  0  0  0  0  0
  -25.0170  -33.9465   25.0293 H   0  0  0  0  0  0
  -22.7580  -31.2899   21.3757 H   0  0  0  0  0  0
  -23.3745  -35.9576   23.3275 H   0  0  0  0  0  0
  -24.3563  -36.8894   22.2044 H   0  0  0  0  0  0
  -23.7197  -37.6427   23.6687 H   0  0  0  0  0  0
  -26.1742  -31.4438   20.6227 H   0  0  0  0  0  0
  -26.8744  -30.7374   22.0411 H   0  0  0  0  0  0
  -28.1277  -28.7457   21.2445 H   0  0  0  0  0  0
  -25.9103  -25.8557   18.9246 H   0  0  0  0  0  0
  -23.9910  -27.3199   18.9282 H   0  0  0  0  0  0
  -23.8272  -30.5593   19.3954 H   0  0  0  0  0  0
  -22.7877  -29.2375   19.8387 H   0  0  0  0  0  0
  -25.1289  -36.1862   25.0778 H   0  0  0  0  0  0
  -21.0000  -28.3390   24.1357 H   0  0  0  0  0  0
  -20.5673  -26.2367   23.3638 H   0  0  0  0  0  0
  -21.6648  -26.7464   22.1214 H   0  0  0  0  0  0
  -19.6910  -25.6282   21.1277 H   0  0  0  0  0  0
  -19.6702  -27.3189   20.6740 H   0  0  0  0  0  0
  -17.4217  -26.6742   21.4014 H   0  0  0  0  0  0
  -18.0348  -26.0090   22.9000 H   0  0  0  0  0  0
  -19.7936  -30.7313   24.2286 H   0  0  0  0  0  0
  -17.5004  -31.6290   24.5170 H   0  0  0  0  0  0
  -15.5358  -30.2982   23.7641 H   0  0  0  0  0  0
  -15.8696  -28.0788   22.7106 H   0  0  0  0  0  0
  -24.5890  -30.7137   25.7738 H   0  0  0  0  0  0
  -24.8837  -32.3023   26.4665 H   0  0  0  0  0  0
  -25.7945  -30.9119   27.0231 H   0  0  0  0  0  0
  -26.2961  -29.6666   24.1311 H   0  0  0  0  0  0
  -27.3876  -29.7257   25.4949 H   0  0  0  0  0  0
  -27.8945  -30.4069   23.9685 H   0  0  0  0  0  0
  -27.2648  -33.3677   26.1982 H   0  0  0  0  0  0
  -28.3928  -32.6891   25.0347 H   0  0  0  0  0  0
  -28.0702  -31.8521   26.5431 H   0  0  0  0  0  0
  -28.2585  -38.0088   24.7538 H   0  0  0  0  0  0
  -28.1093  -36.2617   24.6246 H   0  0  0  0  0  0
  -27.2300  -37.1407   25.8848 H   0  0  0  0  0  0
  -20.9552  -29.8746   21.6716 H   0  0  0  0  0  0
  -26.0154  -38.2805   24.1476 H   0  0  0  0  0  0
  -31.7126  -16.9999   18.8022 H   0  0  0  0  0  0
  -30.8081  -17.8760   16.7278 H   0  0  0  0  0  0
  -23.4084  -17.9150   17.1704 H   0  0  0  0  0  0
  -24.5035  -19.2837   16.7393 H   0  0  0  0  0  0
  -26.2826  -17.6598   16.8549 H   0  0  0  0  0  0
  -25.3008  -16.5504   17.8801 H   0  0  0  0  0  0
  -23.8198  -18.2421   19.5546 H   0  0  0  0  0  0
  -24.3371  -19.9161   19.1041 H   0  0  0  0  0  0
  -30.6310  -19.6599   22.2272 H   0  0  0  0  0  0
  -30.6321  -21.3950   22.0099 H   0  0  0  0  0  0
  -31.3864  -20.3546   20.8016 H   0  0  0  0  0  0
  -26.7397  -20.0181   17.8741 H   0  0  0  0  0  0
  -26.7110  -20.1038   19.6068 H   0  0  0  0  0  0
  -28.3577  -23.0937   21.6243 H   0  0  0  0  0  0
  -29.8641  -23.4196   20.8558 H   0  0  0  0  0  0
  -27.0717  -24.3152   19.8166 H   0  0  0  0  0  0
  -28.4707  -24.5302   18.8463 H   0  0  0  0  0  0
  -28.4385  -20.2900   21.5435 H   0  0  0  0  0  0
  -28.8873  -16.0276   20.9095 H   0  0  0  0  0  0
  -26.0213  -17.7491   19.6529 H   0  0  0  0  0  0
  -29.4656  -21.7561   19.2145 H   0  0  0  0  0  0
  -27.9180  -21.5889   19.6163 H   0  0  0  0  0  0
  1 25  1  0  0  0
  1 30  2  0  0  0
  1 85  1  0  0  0
  2  3  1  0  0  0
  2 25  1  0  0  0
  2 89  1  0  0  0
  2 90  1  0  0  0
  3  4  1  0  0  0
  3 91  1  0  0  0
  3 92  1  0  0  0
  4  5  1  0  0  0
  4 93  1  0  0  0
  4 94  1  0  0  0
  5  6  1  0  0  0
  5 26  1  0  0  0
  5 95  1  0  0  0
  6 25  1  0  0  0
  6 96  1  0  0  0
  6 97  1  0  0  0
  7  8  2  0  0  0
  7 26  1  0  0  0
  7 29  1  0  0  0
  8  9  1  0  0  0
  8 22  1  0  0  0
  9 10  1  0  0  0
  9 27  2  0  0  0
 10 11  2  0  0  0
 10 15  1  0  0  0
 11 12  1  0  0  0
 11 98  1  0  0  0
 12 13  2  0  0  0
 12 99  1  0  0  0
 13 14  1  0  0  0
 13 31  1  0  0  0
 14 15  2  0  0  0
 14100  1  0  0  0
 15101  1  0  0  0
 16 17  2  0  0  0
 16 21  1  0  0  0
 16 31  1  0  0  0
 17 18  1  0  0  0
 17102  1  0  0  0
 18 19  2  0  0  0
 18103  1  0  0  0
 19 20  1  0  0  0
 19 24  1  0  0  0
 20 21  2  0  0  0
 20104  1  0  0  0
 21 23  1  0  0  0
 22 28  1  0  0  0
 22 32  2  0  0  0
 26 27  1  0  0  0
 28105  1  0  0  0
 28106  1  0  0  0
 29107  1  0  0  0
 29108  1  0  0  0
 33 34  1  0  0  0
 33 66  1  0  0  0
 33 70  2  0  0  0
 34 36  1  0  0  0
 34 59  1  0  0  0
 34109  1  0  0  0
 35 44  2  0  0  0
 35 45  1  0  0  0
 35 68  1  0  0  0
 36 56  1  0  0  0
 36110  1  0  0  0
 37 39  1  0  0  0
 37 47  1  0  0  0
 37 66  1  0  0  0
 37111  1  0  0  0
 38 43  2  0  0  0
 38 46  1  0  0  0
 38 47  1  0  0  0
 39 64  1  0  0  0
 39 67  2  0  0  0
 40 52  1  0  0  0
 40 53  2  0  0  0
 40 58  1  0  0  0
 41112  1  0  0  0
 41113  1  0  0  0
 41114  1  0  0  0
 41 48  1  0  0  0
 42 43  1  0  0  0
 42 66  1  0  0  0
 42115  1  0  0  0
 42116  1  0  0  0
 43 44  1  0  0  0
 44117  1  0  0  0
 45 46  2  0  0  0
 45118  1  0  0  0
 46119  1  0  0  0
 47120  1  0  0  0
 47121  1  0  0  0
 48 56  1  0  0  0
 48 65  1  0  0  0
 48122  1  0  0  0
 49 50  1  0  0  0
 49 53  1  0  0  0
 49 64  1  0  0  0
 49123  1  0  0  0
 50 51  1  0  0  0
 50124  1  0  0  0
 50125  1  0  0  0
 51 52  1  0  0  0
 51126  1  0  0  0
 51127  1  0  0  0
 52128  1  0  0  0
 52129  1  0  0  0
 53 54  1  0  0  0
 54 55  2  0  0  0
 54130  1  0  0  0
 55 57  1  0  0  0
 55131  1  0  0  0
 56 69  2  0  0  0
 57 58  2  0  0  0
 57132  1  0  0  0
 58133  1  0  0  0
 59 60  1  0  0  0
 59 61  1  0  0  0
 59 62  1  0  0  0
 60134  1  0  0  0
 60135  1  0  0  0
 60136  1  0  0  0
 61137  1  0  0  0
 61138  1  0  0  0
 61139  1  0  0  0
 62140  1  0  0  0
 62141  1  0  0  0
 62142  1  0  0  0
 63 65  1  0  0  0
 63143  1  0  0  0
 63144  1  0  0  0
 63145  1  0  0  0
 64146  1  0  0  0
 65147  1  0  0  0
 68 83  1  0  0  0
 71 72  2  0  0  0
 71 75  1  0  0  0
 71148  1  0  0  0
 72 76  1  0  0  0
 72149  1  0  0  0
 73 74  1  0  0  0
 73 75  2  0  0  0
 73 84  1  0  0  0
 74 76  2  0  0  0
 74 81  1  0  0  0
 75 85  1  0  0  0
 76 88  1  0  0  0
 77 78  1  0  0  0
 77 79  1  0  0  0
 77150  1  0  0  0
 77151  1  0  0  0
 78 86  1  0  0  0
 78152  1  0  0  0
 78153  1  0  0  0
 79 86  1  0  0  0
 79154  1  0  0  0
 79155  1  0  0  0
 80156  1  0  0  0
 80157  1  0  0  0
 80158  1  0  0  0
 80 84  1  0  0  0
 81159  1  0  0  0
 81160  1  0  0  0
 81 86  1  0  0  0
 82 83  1  0  0  0
 82 87  1  0  0  0
 82161  1  0  0  0
 82162  1  0  0  0
 83163  1  0  0  0
 83164  1  0  0  0
 84 87  1  0  0  0
 84165  1  0  0  0
 85166  1  0  0  0
 86167  1  0  0  0
 87168  1  0  0  0
 87169  1  0  0  0
M  CHG  2  86   1  87   1
M  ISO  4   1 100  68 101  83 101  85 100
M  END
> <chiral flag>
0

> <version>
0

> <s_m_source_file>
/data/baiqing/PycharmProjects/Reinvent-master-3.2/result/LINK_invent/BTK/process_docking_weight1_custom_product_contain_oxygen_bond_distance_aromatic_linkinvent_7_9_3/rearranged_h_0010.sdf

> <i_m_source_file_index>
35

> <r_mmod_Potential_Energy-OPLS-2005>
556.109069824219

> <r_mmod_Stretch_Energy-OPLS-2005>
329.727600097656

> <r_mmod_Bend_Energy-OPLS-2005>
305.583587646484

> <r_mmod_Torsional_Energy-OPLS-2005>
485.934387207031

> <r_mmod_Improper_Torsional_Energy-OPLS-2005>
32.403491973877

> <r_mmod_Van_der_Waal_Energy-OPLS-2005>
130.096908569336

> <r_mmod_Electrostatic_Energy-OPLS-2005>
50.9929122924805

> <r_mmod_Solvation_Energy-OPLS-2005>
-996.940734863281

> <b_mmod_Minimization_Converged-OPLS-2005>
0

> <r_mmod_RMS_Derivative-OPLS-2005>
5.39437532424927

$$$$
35
                    3D
 Structure written by MMmdl.
156164  0  0  1  0            999 V2000
  -30.6141  -14.7239   20.4741 C   0  0  0  0  0  0
  -30.4356  -12.4473   19.4632 C   0  0  0  0  0  0
  -29.5065  -12.4982   18.2313 C   0  0  0  0  0  0
  -28.0321  -12.3227   18.6475 C   0  0  0  0  0  0
  -27.6396  -13.2261   19.8458 C   0  0  2  0  0  0
  -28.6855  -13.1547   20.9792 C   0  0  0  0  0  0
  -25.2510  -13.8186   20.5683 C   0  0  0  0  0  0
  -24.1799  -13.0442   20.9215 C   0  0  0  0  0  0
  -24.6383  -11.6918   20.8752 C   0  0  0  0  0  0
  -23.9058  -10.4296   21.0416 C   0  0  0  0  0  0
  -24.3613   -9.4209   21.9189 C   0  0  0  0  0  0
  -23.6292   -8.2240   22.0750 C   0  0  0  0  0  0
  -22.4270   -8.0277   21.3545 C   0  0  0  0  0  0
  -21.9912   -9.0248   20.4641 C   0  0  0  0  0  0
  -22.7236  -10.2134   20.3056 C   0  0  0  0  0  0
  -21.6858   -6.0738   22.5280 C   0  0  0  0  0  0
  -21.4013   -6.5640   23.8214 C   0  0  0  0  0  0
  -21.3654   -5.6791   24.9175 C   0  0  0  0  0  0
  -21.6046   -4.3055   24.7225 C   0  0  0  0  0  0
  -21.8819   -3.8147   23.4345 C   0  0  0  0  0  0
  -21.9193   -4.6966   22.3402 C   0  0  0  0  0  0
  -22.7820  -13.5225   21.1862 C   0  0  0  0  0  0
  -22.1665   -4.2152   21.0981 F   0  0  0  0  0  0
  -21.5626   -3.4538   25.7737 F   0  0  0  0  0  0
  -29.9856  -13.5038   20.3937 N   0  0  0  0  0  0
  -26.2929  -12.9386   20.3267 N   0  0  0  0  0  0
  -25.9315  -11.6537   20.5757 N   0  0  0  0  0  0
  -22.0466  -12.8220   22.0418 N   0  0  0  0  0  0
  -25.4198  -15.1909   20.4082 N   0  0  0  0  0  0
  -31.8131  -14.8205   20.1971 O   0  0  0  0  0  0
  -21.6637   -6.8875   21.4237 O   0  0  0  0  0  0
  -22.3509  -14.5530   20.6701 O   0  0  0  0  0  0
  -24.6309  -31.8553   23.1952 C   0  0  0  0  0  0
  -25.9120  -32.4771   23.8311 C   0  0  1  0  0  0
  -27.2190  -27.2718   20.1334 C   0  0  0  0  0  0
  -25.5907  -33.8576   24.2222 N   0  0  0  0  0  0
  -23.4276  -30.4766   21.5386 C   0  0  2  0  0  0
  -24.8738  -28.9188   20.1131 C   0  0  0  0  0  0
  -22.7512  -29.4592   22.4904 C   0  0  0  0  0  0
  -18.0287  -28.1404   22.8472 C   0  0  0  0  0  0
  -24.1481  -36.7310   23.2638 C   0  0  0  0  0  0
  -25.9718  -30.7728   21.3712 C   0  0  0  0  0  0
  -26.0452  -29.3929   20.7180 C   0  0  0  0  0  0
  -27.2248  -28.5840   20.7117 C   0  0  0  0  0  0
  -26.0262  -26.8533   19.5084 C   0  0  0  0  0  0
  -24.8688  -27.6565   19.4973 C   0  0  0  0  0  0
  -23.6467  -29.8076   20.1555 C   0  0  0  0  0  0
  -25.4113  -36.3089   24.0314 C   0  0  1  0  0  0
  -20.5895  -28.3701   23.1274 C   0  0  2  0  0  0
  -20.6795  -26.9428   22.5403 C   0  0  0  0  0  0
  -19.5764  -26.6393   21.5211 C   0  0  0  0  0  0
  -18.1938  -26.7939   22.1606 C   0  0  0  0  0  0
  -19.1545  -28.8873   23.2863 C   0  0  0  0  0  0
  -18.9462  -30.1479   23.8873 C   0  0  0  0  0  0
  -17.6462  -30.6602   24.0564 C   0  0  0  0  0  0
  -25.9058  -34.9461   23.5077 C   0  0  0  0  0  0
  -16.5357  -29.9095   23.6340 C   0  0  0  0  0  0
  -16.7272  -28.6520   23.0347 C   0  0  0  0  0  0
  -26.4484  -31.6619   25.0713 C   0  0  0  0  0  0
  -25.3685  -31.3816   26.1431 C   0  0  0  0  0  0
  -27.0328  -30.3037   24.6197 C   0  0  0  0  0  0
  -27.6014  -32.4397   25.7490 C   0  0  0  0  0  0
  -27.5575  -37.1818   24.8459 C   0  0  0  0  0  0
  -21.4221  -29.3035   22.3660 N   0  0  0  0  0  0
  -26.4281  -37.3794   23.9406 N   0  0  0  0  0  0
  -24.6958  -31.0536   22.0914 N   0  0  0  0  0  0
  -23.4223  -28.8115   23.2988 O   0  0  0  0  0  0
  -28.3220  -26.3960   20.1290 O   0  0  0  0  0  0
  -26.5656  -34.8938   22.4664 O   0  0  0  0  0  0
  -23.5452  -32.1361   23.7251 O   0  0  0  0  0  0
  -31.2896  -17.6154   21.5676 C   0  0  0  0  0  0
  -31.6146  -18.9617   21.8354 C   0  0  0  0  0  0
  -29.7144  -19.7831   20.5120 C   0  0  0  0  0  0
  -30.1641  -17.2759   20.7831 C   0  0  0  0  0  0
  -30.8484  -20.0239   21.3138 C   0  0  0  0  0  0
  -29.3742  -18.3870   20.2735 C   0  0  0  0  0  0
  -27.6472  -22.0888   21.6301 C   0  0  0  0  0  0
  -29.0056  -21.0434   19.8450 C   0  0  0  0  0  0
  -28.5881  -23.6646   19.8930 C   0  0  0  0  0  0
  -28.1627  -25.0133   20.6930 C   0  0  0  0  0  0
  -29.8160  -15.8493   20.5941 N   0  0  0  0  0  0
  -28.7444  -22.3243   20.6622 N   0  3  1  0  0  0
  -31.2146  -21.3022   21.5804 F   0  0  0  0  0  0
  -28.2818  -18.1014   19.5237 F   0  0  0  0  0  0
  -31.4736  -12.5841   19.1547 H   0  0  0  0  0  0
  -30.3924  -11.4722   19.9501 H   0  0  0  0  0  0
  -29.7883  -11.7258   17.5152 H   0  0  0  0  0  0
  -29.6297  -13.4536   17.7190 H   0  0  0  0  0  0
  -27.8875  -11.2751   18.9141 H   0  0  0  0  0  0
  -27.3733  -12.5123   17.7992 H   0  0  0  0  0  0
  -27.6326  -14.2458   19.4619 H   0  0  0  0  0  0
  -28.7182  -12.1555   21.4147 H   0  0  0  0  0  0
  -28.4223  -13.8351   21.7907 H   0  0  0  0  0  0
  -25.2758   -9.5693   22.4767 H   0  0  0  0  0  0
  -24.0006   -7.4631   22.7472 H   0  0  0  0  0  0
  -21.0841   -8.8768   19.8940 H   0  0  0  0  0  0
  -22.3693  -10.9676   19.6160 H   0  0  0  0  0  0
  -21.2005   -7.6148   23.9719 H   0  0  0  0  0  0
  -21.1476   -6.0521   25.9079 H   0  0  0  0  0  0
  -22.0602   -2.7610   23.2846 H   0  0  0  0  0  0
  -22.4081  -11.9881   22.4809 H   0  0  0  0  0  0
  -21.1080  -13.1241   22.2610 H   0  0  0  0  0  0
  -24.6451  -15.8386   20.5009 H   0  0  0  0  0  0
  -26.2587  -15.6322   20.0552 H   0  0  0  0  0  0
  -26.7193  -32.5423   23.1060 H   0  0  0  0  0  0
  -25.0034  -33.9714   25.0349 H   0  0  0  0  0  0
  -22.7232  -31.2987   21.3911 H   0  0  0  0  0  0
  -23.3735  -35.9650   23.3300 H   0  0  0  0  0  0
  -24.3562  -36.8945   22.2052 H   0  0  0  0  0  0
  -23.7245  -37.6510   23.6679 H   0  0  0  0  0  0
  -26.1074  -31.5294   20.5968 H   0  0  0  0  0  0
  -26.8510  -30.8279   22.0004 H   0  0  0  0  0  0
  -28.1277  -28.9458   21.1832 H   0  0  0  0  0  0
  -25.9827  -25.8865   19.0288 H   0  0  0  0  0  0
  -23.9713  -27.2888   19.0183 H   0  0  0  0  0  0
  -23.7822  -30.5829   19.4001 H   0  0  0  0  0  0
  -22.7650  -29.2452   19.8426 H   0  0  0  0  0  0
  -25.1305  -36.1929   25.0808 H   0  0  0  0  0  0
  -20.9978  -28.3269   24.1402 H   0  0  0  0  0  0
  -20.5724  -26.2297   23.3598 H   0  0  0  0  0  0
  -21.6662  -26.7498   22.1179 H   0  0  0  0  0  0
  -19.6938  -25.6295   21.1264 H   0  0  0  0  0  0
  -19.6709  -27.3193   20.6735 H   0  0  0  0  0  0
  -17.4218  -26.6688   21.4003 H   0  0  0  0  0  0
  -18.0334  -26.0091   22.9005 H   0  0  0  0  0  0
  -19.7943  -30.7310   24.2227 H   0  0  0  0  0  0
  -17.5018  -31.6271   24.5186 H   0  0  0  0  0  0
  -15.5360  -30.2989   23.7699 H   0  0  0  0  0  0
  -15.8665  -28.0848   22.7067 H   0  0  0  0  0  0
  -24.5828  -30.7208   25.7757 H   0  0  0  0  0  0
  -24.8918  -32.3018   26.4824 H   0  0  0  0  0  0
  -25.7966  -30.9003   27.0226 H   0  0  0  0  0  0
  -26.2915  -29.6809   24.1166 H   0  0  0  0  0  0
  -27.3964  -29.7291   25.4723 H   0  0  0  0  0  0
  -27.8809  -30.4332   23.9466 H   0  0  0  0  0  0
  -27.2582  -33.3702   26.2028 H   0  0  0  0  0  0
  -28.3820  -32.6967   25.0319 H   0  0  0  0  0  0
  -28.0676  -31.8565   26.5442 H   0  0  0  0  0  0
  -28.2597  -38.0110   24.7517 H   0  0  0  0  0  0
  -28.1073  -36.2649   24.6272 H   0  0  0  0  0  0
  -27.2310  -37.1451   25.8866 H   0  0  0  0  0  0
  -20.9412  -29.8752   21.6861 H   0  0  0  0  0  0
  -26.0157  -38.2867   24.1412 H   0  0  0  0  0  0
  -31.9115  -16.8410   21.9948 H   0  0  0  0  0  0
  -32.4737  -19.1895   22.4504 H   0  0  0  0  0  0
  -27.5710  -22.8895   22.3654 H   0  0  0  0  0  0
  -27.8084  -21.1644   22.1851 H   0  0  0  0  0  0
  -26.6892  -22.0046   21.1166 H   0  0  0  0  0  0
  -28.0697  -20.7160   19.3907 H   0  0  0  0  0  0
  -29.6439  -21.3222   19.0057 H   0  0  0  0  0  0
  -29.5383  -23.8558   19.3945 H   0  0  0  0  0  0
  -27.8616  -23.5129   19.0936 H   0  0  0  0  0  0
  -28.7485  -25.0328   21.6120 H   0  0  0  0  0  0
  -27.1346  -24.8907   21.0341 H   0  0  0  0  0  0
  -28.8278  -15.6627   20.5400 H   0  0  0  0  0  0
  -29.5864  -22.4294   21.2153 H   0  0  0  0  0  0
  1 25  1  0  0  0
  1 30  2  0  0  0
  1 81  1  0  0  0
  2  3  1  0  0  0
  2 25  1  0  0  0
  2 85  1  0  0  0
  2 86  1  0  0  0
  3  4  1  0  0  0
  3 87  1  0  0  0
  3 88  1  0  0  0
  4  5  1  0  0  0
  4 89  1  0  0  0
  4 90  1  0  0  0
  5  6  1  0  0  0
  5 26  1  0  0  0
  5 91  1  0  0  0
  6 25  1  0  0  0
  6 92  1  0  0  0
  6 93  1  0  0  0
  7  8  2  0  0  0
  7 26  1  0  0  0
  7 29  1  0  0  0
  8  9  1  0  0  0
  8 22  1  0  0  0
  9 10  1  0  0  0
  9 27  2  0  0  0
 10 11  2  0  0  0
 10 15  1  0  0  0
 11 12  1  0  0  0
 11 94  1  0  0  0
 12 13  2  0  0  0
 12 95  1  0  0  0
 13 14  1  0  0  0
 13 31  1  0  0  0
 14 15  2  0  0  0
 14 96  1  0  0  0
 15 97  1  0  0  0
 16 17  2  0  0  0
 16 21  1  0  0  0
 16 31  1  0  0  0
 17 18  1  0  0  0
 17 98  1  0  0  0
 18 19  2  0  0  0
 18 99  1  0  0  0
 19 20  1  0  0  0
 19 24  1  0  0  0
 20 21  2  0  0  0
 20100  1  0  0  0
 21 23  1  0  0  0
 22 28  1  0  0  0
 22 32  2  0  0  0
 26 27  1  0  0  0
 28101  1  0  0  0
 28102  1  0  0  0
 29103  1  0  0  0
 29104  1  0  0  0
 33 34  1  0  0  0
 33 66  1  0  0  0
 33 70  2  0  0  0
 34 36  1  0  0  0
 34 59  1  0  0  0
 34105  1  0  0  0
 35 44  2  0  0  0
 35 45  1  0  0  0
 35 68  1  0  0  0
 36 56  1  0  0  0
 36106  1  0  0  0
 37 39  1  0  0  0
 37 47  1  0  0  0
 37 66  1  0  0  0
 37107  1  0  0  0
 38 43  2  0  0  0
 38 46  1  0  0  0
 38 47  1  0  0  0
 39 64  1  0  0  0
 39 67  2  0  0  0
 40 52  1  0  0  0
 40 53  2  0  0  0
 40 58  1  0  0  0
 41108  1  0  0  0
 41109  1  0  0  0
 41110  1  0  0  0
 41 48  1  0  0  0
 42 43  1  0  0  0
 42 66  1  0  0  0
 42111  1  0  0  0
 42112  1  0  0  0
 43 44  1  0  0  0
 44113  1  0  0  0
 45 46  2  0  0  0
 45114  1  0  0  0
 46115  1  0  0  0
 47116  1  0  0  0
 47117  1  0  0  0
 48 56  1  0  0  0
 48 65  1  0  0  0
 48118  1  0  0  0
 49 50  1  0  0  0
 49 53  1  0  0  0
 49 64  1  0  0  0
 49119  1  0  0  0
 50 51  1  0  0  0
 50120  1  0  0  0
 50121  1  0  0  0
 51 52  1  0  0  0
 51122  1  0  0  0
 51123  1  0  0  0
 52124  1  0  0  0
 52125  1  0  0  0
 53 54  1  0  0  0
 54 55  2  0  0  0
 54126  1  0  0  0
 55 57  1  0  0  0
 55127  1  0  0  0
 56 69  2  0  0  0
 57 58  2  0  0  0
 57128  1  0  0  0
 58129  1  0  0  0
 59 60  1  0  0  0
 59 61  1  0  0  0
 59 62  1  0  0  0
 60130  1  0  0  0
 60131  1  0  0  0
 60132  1  0  0  0
 61133  1  0  0  0
 61134  1  0  0  0
 61135  1  0  0  0
 62136  1  0  0  0
 62137  1  0  0  0
 62138  1  0  0  0
 63 65  1  0  0  0
 63139  1  0  0  0
 63140  1  0  0  0
 63141  1  0  0  0
 64142  1  0  0  0
 65143  1  0  0  0
 68 80  1  0  0  0
 71 72  2  0  0  0
 71 74  1  0  0  0
 71144  1  0  0  0
 72 75  1  0  0  0
 72145  1  0  0  0
 73 75  2  0  0  0
 73 76  1  0  0  0
 73 78  1  0  0  0
 74 76  2  0  0  0
 74 81  1  0  0  0
 75 83  1  0  0  0
 76 84  1  0  0  0
 77146  1  0  0  0
 77147  1  0  0  0
 77148  1  0  0  0
 77 82  1  0  0  0
 78 82  1  0  0  0
 78149  1  0  0  0
 78150  1  0  0  0
 79 80  1  0  0  0
 79 82  1  0  0  0
 79151  1  0  0  0
 79152  1  0  0  0
 80153  1  0  0  0
 80154  1  0  0  0
 81155  1  0  0  0
 82156  1  0  0  0
M  CHG  1  82   1
M  ISO  4   1 100  68 101  80 101  81 100
M  END
> <chiral flag>
0

> <version>
0

> <s_m_source_file>
/data/baiqing/PycharmProjects/Reinvent-master-3.2/result/LINK_invent/BTK/process_docking_weight1_custom_product_contain_oxygen_bond_distance_aromatic_linkinvent_7_9_3/rearranged_h_0010.sdf

> <i_m_source_file_index>
36

> <r_mmod_Potential_Energy-OPLS-2005>
-40.6826362609863

> <r_mmod_Stretch_Energy-OPLS-2005>
116.230499267578

> <r_mmod_Bend_Energy-OPLS-2005>
151.89030456543

> <r_mmod_Torsional_Energy-OPLS-2005>
242.472808837891

> <r_mmod_Improper_Torsional_Energy-OPLS-2005>
7.00427341461182

> <r_mmod_Van_der_Waal_Energy-OPLS-2005>
134.557098388672

> <r_mmod_Electrostatic_Energy-OPLS-2005>
-345.616912841797

> <r_mmod_Solvation_Energy-OPLS-2005>
-424.92578125

> <b_mmod_Minimization_Converged-OPLS-2005>
0

> <r_mmod_RMS_Derivative-OPLS-2005>
1.76463770866394

$$$$
36
                    3D
 Structure written by MMmdl.
144152  0  0  1  0            999 V2000
  -30.3016  -15.5936   20.3330 C   0  0  0  0  0  0
  -30.4322  -13.0478   19.5381 C   0  0  0  0  0  0
  -29.5516  -12.6463   18.3199 C   0  0  0  0  0  0
  -28.1208  -12.2989   18.7605 C   0  0  0  0  0  0
  -27.5993  -13.3022   19.8143 C   0  0  2  0  0  0
  -28.6188  -13.6099   20.9357 C   0  0  0  0  0  0
  -25.2336  -13.8274   20.5781 C   0  0  0  0  0  0
  -24.1721  -13.0430   20.9286 C   0  0  0  0  0  0
  -24.6416  -11.6940   20.8765 C   0  0  0  0  0  0
  -23.9116  -10.4290   21.0399 C   0  0  0  0  0  0
  -24.3651   -9.4203   21.9181 C   0  0  0  0  0  0
  -23.6312   -8.2245   22.0754 C   0  0  0  0  0  0
  -22.4293   -8.0286   21.3544 C   0  0  0  0  0  0
  -21.9939   -9.0262   20.4644 C   0  0  0  0  0  0
  -22.7282  -10.2133   20.3051 C   0  0  0  0  0  0
  -21.6858   -6.0741   22.5279 C   0  0  0  0  0  0
  -21.4018   -6.5643   23.8213 C   0  0  0  0  0  0
  -21.3660   -5.6794   24.9174 C   0  0  0  0  0  0
  -21.6044   -4.3057   24.7224 C   0  0  0  0  0  0
  -21.8818   -3.8150   23.4345 C   0  0  0  0  0  0
  -21.9194   -4.6967   22.3401 C   0  0  0  0  0  0
  -22.7733  -13.5164   21.1921 C   0  0  0  0  0  0
  -22.1662   -4.2153   21.0979 F   0  0  0  0  0  0
  -21.5627   -3.4540   25.7736 F   0  0  0  0  0  0
  -29.8004  -14.2228   20.2866 N   0  0  0  0  0  0
  -26.2783  -12.9596   20.3225 N   0  0  0  0  0  0
  -25.9361  -11.6673   20.5701 N   0  0  0  0  0  0
  -22.0398  -12.8141   22.0473 N   0  0  0  0  0  0
  -25.3917  -15.2015   20.4210 N   0  0  0  0  0  0
  -31.5362  -15.5649   20.1660 O   0  0  0  0  0  0
  -21.6648   -6.8888   21.4243 O   0  0  0  0  0  0
  -22.3408  -14.5463   20.6757 O   0  0  0  0  0  0
  -24.6832  -31.8009   23.1526 C   0  0  0  0  0  0
  -25.9416  -32.4473   23.8069 C   0  0  1  0  0  0
  -27.2273  -26.7145   20.2123 C   0  0  0  0  0  0
  -25.5997  -33.8297   24.1956 N   0  0  0  0  0  0
  -23.5090  -30.4034   21.5063 C   0  0  2  0  0  0
  -24.9669  -28.7474   20.1184 C   0  0  0  0  0  0
  -22.7765  -29.4320   22.4714 C   0  0  0  0  0  0
  -18.0339  -28.1421   22.8455 C   0  0  0  0  0  0
  -24.1495  -36.7156   23.2652 C   0  0  0  0  0  0
  -26.0896  -30.5379   21.4156 C   0  0  0  0  0  0
  -26.1563  -29.1041   20.7652 C   0  0  0  0  0  0
  -27.2729  -28.1157   20.7794 C   0  0  0  0  0  0
  -26.0047  -26.5656   19.5093 C   0  0  0  0  0  0
  -24.9295  -27.5032   19.4668 C   0  0  0  0  0  0
  -23.7627  -29.7013   20.1415 C   0  0  0  0  0  0
  -25.4145  -36.2898   24.0282 C   0  0  1  0  0  0
  -20.5975  -28.3780   23.1142 C   0  0  2  0  0  0
  -20.6805  -26.9440   22.5402 C   0  0  0  0  0  0
  -19.5781  -26.6371   21.5216 C   0  0  0  0  0  0
  -18.1964  -26.7949   22.1619 C   0  0  0  0  0  0
  -19.1605  -28.8925   23.2780 C   0  0  0  0  0  0
  -18.9510  -30.1509   23.8825 C   0  0  0  0  0  0
  -17.6500  -30.6603   24.0550 C   0  0  0  0  0  0
  -25.9124  -34.9288   23.4955 C   0  0  0  0  0  0
  -16.5390  -29.9085   23.6350 C   0  0  0  0  0  0
  -16.7319  -28.6507   23.0367 C   0  0  0  0  0  0
  -26.4596  -31.6504   25.0688 C   0  0  0  0  0  0
  -25.3663  -31.3819   26.1303 C   0  0  0  0  0  0
  -27.0528  -30.2843   24.6583 C   0  0  0  0  0  0
  -27.6043  -32.4365   25.7507 C   0  0  0  0  0  0
  -27.5564  -37.1735   24.8466 C   0  0  0  0  0  0
  -21.4413  -29.3029   22.3463 N   0  0  0  0  0  0
  -26.4271  -37.3658   23.9408 N   0  0  0  0  0  0
  -24.7840  -30.9466   22.0774 N   0  0  0  0  0  0
  -23.4212  -28.7920   23.3055 O   0  0  0  0  0  0
  -28.1830  -25.4928   20.2817 O   0  0  0  0  0  0
  -26.5764  -34.8864   22.4571 O   0  0  0  0  0  0
  -23.5853  -32.1078   23.6485 O   0  0  0  0  0  0
  -29.1864  -21.2038   21.2961 C   0  0  0  0  0  0
  -29.5251  -19.7038   21.3322 C   0  0  0  0  0  0
  -28.8232  -19.5007   19.2400 C   0  0  0  0  0  0
  -28.6201  -22.0687   20.2158 C   0  0  0  0  0  0
  -29.3947  -18.6266   20.3023 C   0  0  0  0  0  0
  -28.4875  -20.9923   19.1905 C   0  0  0  0  0  0
  -27.8600  -23.7779   20.1605 C   0  0  0  0  0  0
  -29.4723  -16.9061   20.3788 N   0  0  0  0  0  0
  -27.9202  -21.3953   18.0282 F   0  0  0  0  0  0
  -31.4267  -13.3114   19.1763 H   0  0  0  0  0  0
  -30.5873  -12.1958   20.2021 H   0  0  0  0  0  0
  -29.9968  -11.8060   17.7856 H   0  0  0  0  0  0
  -29.5201  -13.4772   17.6136 H   0  0  0  0  0  0
  -28.1388  -11.2969   19.1910 H   0  0  0  0  0  0
  -27.4515  -12.2539   17.9005 H   0  0  0  0  0  0
  -27.4695  -14.2305   19.2563 H   0  0  0  0  0  0
  -28.8684  -12.7182   21.5127 H   0  0  0  0  0  0
  -28.1944  -14.3244   21.6427 H   0  0  0  0  0  0
  -25.2790   -9.5677   22.4766 H   0  0  0  0  0  0
  -24.0012   -7.4637   22.7479 H   0  0  0  0  0  0
  -21.0868   -8.8790   19.8951 H   0  0  0  0  0  0
  -22.3741  -10.9675   19.6163 H   0  0  0  0  0  0
  -21.2013   -7.6151   23.9718 H   0  0  0  0  0  0
  -21.1482   -6.0524   25.9077 H   0  0  0  0  0  0
  -22.0596   -2.7612   23.2844 H   0  0  0  0  0  0
  -22.4039  -11.9816   22.4867 H   0  0  0  0  0  0
  -21.1004  -13.1136   22.2673 H   0  0  0  0  0  0
  -24.6150  -15.8449   20.5294 H   0  0  0  0  0  0
  -26.2212  -15.6436   20.0494 H   0  0  0  0  0  0
  -26.7498  -32.4949   23.0783 H   0  0  0  0  0  0
  -25.0057  -33.9338   25.0050 H   0  0  0  0  0  0
  -22.8338  -31.2406   21.3171 H   0  0  0  0  0  0
  -23.3775  -35.9466   23.3264 H   0  0  0  0  0  0
  -24.3563  -36.8867   22.2077 H   0  0  0  0  0  0
  -23.7237  -37.6314   23.6761 H   0  0  0  0  0  0
  -26.2919  -31.2640   20.6272 H   0  0  0  0  0  0
  -26.9406  -30.6049   22.0810 H   0  0  0  0  0  0
  -28.1677  -28.3947   21.3177 H   0  0  0  0  0  0
  -25.8373  -25.6241   19.0064 H   0  0  0  0  0  0
  -24.0320  -27.2211   18.9336 H   0  0  0  0  0  0
  -23.9373  -30.4617   19.3795 H   0  0  0  0  0  0
  -22.8679  -29.1672   19.8173 H   0  0  0  0  0  0
  -25.1354  -36.1662   25.0772 H   0  0  0  0  0  0
  -21.0057  -28.3405   24.1268 H   0  0  0  0  0  0
  -20.5668  -26.2405   23.3664 H   0  0  0  0  0  0
  -21.6666  -26.7382   22.1221 H   0  0  0  0  0  0
  -19.6937  -25.6262   21.1293 H   0  0  0  0  0  0
  -19.6724  -27.3141   20.6714 H   0  0  0  0  0  0
  -17.4233  -26.6691   21.4023 H   0  0  0  0  0  0
  -18.0353  -26.0108   22.9032 H   0  0  0  0  0  0
  -19.7985  -30.7344   24.2163 H   0  0  0  0  0  0
  -17.5050  -31.6276   24.5167 H   0  0  0  0  0  0
  -15.5387  -30.2963   23.7715 H   0  0  0  0  0  0
  -15.8720  -28.0801   22.7123 H   0  0  0  0  0  0
  -24.5873  -30.7141   25.7603 H   0  0  0  0  0  0
  -24.8823  -32.3039   26.4532 H   0  0  0  0  0  0
  -25.7841  -30.9111   27.0211 H   0  0  0  0  0  0
  -26.3245  -29.6457   24.1575 H   0  0  0  0  0  0
  -27.3957  -29.7289   25.5323 H   0  0  0  0  0  0
  -27.9224  -30.3970   24.0107 H   0  0  0  0  0  0
  -27.2582  -33.3736   26.1880 H   0  0  0  0  0  0
  -28.3959  -32.6815   25.0413 H   0  0  0  0  0  0
  -28.0596  -31.8632   26.5593 H   0  0  0  0  0  0
  -28.2549  -38.0060   24.7515 H   0  0  0  0  0  0
  -28.1092  -36.2582   24.6293 H   0  0  0  0  0  0
  -27.2278  -37.1370   25.8868 H   0  0  0  0  0  0
  -20.9716  -29.8687   21.6532 H   0  0  0  0  0  0
  -26.0099  -38.2706   24.1421 H   0  0  0  0  0  0
  -29.3322  -21.7147   22.2371 H   0  0  0  0  0  0
  -29.8713  -19.3546   22.2951 H   0  0  0  0  0  0
  -28.5530  -18.9719   18.3380 H   0  0  0  0  0  0
  -27.0570  -23.6664   20.8890 H   0  0  0  0  0  0
  -27.3400  -23.7344   19.2039 H   0  0  0  0  0  0
  -28.5227  -16.5674   20.4289 H   0  0  0  0  0  0
  1 25  1  0  0  0
  1 30  2  0  0  0
  1 78  1  0  0  0
  2  3  1  0  0  0
  2 25  1  0  0  0
  2 80  1  0  0  0
  2 81  1  0  0  0
  3  4  1  0  0  0
  3 82  1  0  0  0
  3 83  1  0  0  0
  4  5  1  0  0  0
  4 84  1  0  0  0
  4 85  1  0  0  0
  5  6  1  0  0  0
  5 26  1  0  0  0
  5 86  1  0  0  0
  6 25  1  0  0  0
  6 87  1  0  0  0
  6 88  1  0  0  0
  7  8  2  0  0  0
  7 26  1  0  0  0
  7 29  1  0  0  0
  8  9  1  0  0  0
  8 22  1  0  0  0
  9 10  1  0  0  0
  9 27  2  0  0  0
 10 11  2  0  0  0
 10 15  1  0  0  0
 11 12  1  0  0  0
 11 89  1  0  0  0
 12 13  2  0  0  0
 12 90  1  0  0  0
 13 14  1  0  0  0
 13 31  1  0  0  0
 14 15  2  0  0  0
 14 91  1  0  0  0
 15 92  1  0  0  0
 16 17  2  0  0  0
 16 21  1  0  0  0
 16 31  1  0  0  0
 17 18  1  0  0  0
 17 93  1  0  0  0
 18 19  2  0  0  0
 18 94  1  0  0  0
 19 20  1  0  0  0
 19 24  1  0  0  0
 20 21  2  0  0  0
 20 95  1  0  0  0
 21 23  1  0  0  0
 22 28  1  0  0  0
 22 32  2  0  0  0
 26 27  1  0  0  0
 28 96  1  0  0  0
 28 97  1  0  0  0
 29 98  1  0  0  0
 29 99  1  0  0  0
 33 34  1  0  0  0
 33 66  1  0  0  0
 33 70  2  0  0  0
 34 36  1  0  0  0
 34 59  1  0  0  0
 34100  1  0  0  0
 35 44  2  0  0  0
 35 45  1  0  0  0
 35 68  1  0  0  0
 36 56  1  0  0  0
 36101  1  0  0  0
 37 39  1  0  0  0
 37 47  1  0  0  0
 37 66  1  0  0  0
 37102  1  0  0  0
 38 43  2  0  0  0
 38 46  1  0  0  0
 38 47  1  0  0  0
 39 64  1  0  0  0
 39 67  2  0  0  0
 40 52  1  0  0  0
 40 53  2  0  0  0
 40 58  1  0  0  0
 41103  1  0  0  0
 41104  1  0  0  0
 41105  1  0  0  0
 41 48  1  0  0  0
 42 43  1  0  0  0
 42 66  1  0  0  0
 42106  1  0  0  0
 42107  1  0  0  0
 43 44  1  0  0  0
 44108  1  0  0  0
 45 46  2  0  0  0
 45109  1  0  0  0
 46110  1  0  0  0
 47111  1  0  0  0
 47112  1  0  0  0
 48 56  1  0  0  0
 48 65  1  0  0  0
 48113  1  0  0  0
 49 50  1  0  0  0
 49 53  1  0  0  0
 49 64  1  0  0  0
 49114  1  0  0  0
 50 51  1  0  0  0
 50115  1  0  0  0
 50116  1  0  0  0
 51 52  1  0  0  0
 51117  1  0  0  0
 51118  1  0  0  0
 52119  1  0  0  0
 52120  1  0  0  0
 53 54  1  0  0  0
 54 55  2  0  0  0
 54121  1  0  0  0
 55 57  1  0  0  0
 55122  1  0  0  0
 56 69  2  0  0  0
 57 58  2  0  0  0
 57123  1  0  0  0
 58124  1  0  0  0
 59 60  1  0  0  0
 59 61  1  0  0  0
 59 62  1  0  0  0
 60125  1  0  0  0
 60126  1  0  0  0
 60127  1  0  0  0
 61128  1  0  0  0
 61129  1  0  0  0
 61130  1  0  0  0
 62131  1  0  0  0
 62132  1  0  0  0
 62133  1  0  0  0
 63 65  1  0  0  0
 63134  1  0  0  0
 63135  1  0  0  0
 63136  1  0  0  0
 64137  1  0  0  0
 65138  1  0  0  0
 68 77  1  0  0  0
 71 72  2  0  0  0
 71 74  1  0  0  0
 71139  1  0  0  0
 72 75  1  0  0  0
 72140  1  0  0  0
 73 75  2  0  0  0
 73 76  1  0  0  0
 73141  1  0  0  0
 74 76  2  0  0  0
 74 77  1  0  0  0
 75 78  1  0  0  0
 76 79  1  0  0  0
 77142  1  0  0  0
 77143  1  0  0  0
 78144  1  0  0  0
M  ISO  4   1 100  68 101  77 101  78 100
M  END
> <chiral flag>
0

> <version>
0

> <s_m_source_file>
/data/baiqing/PycharmProjects/Reinvent-master-3.2/result/LINK_invent/BTK/process_docking_weight1_custom_product_contain_oxygen_bond_distance_aromatic_linkinvent_7_9_3/rearranged_h_0010.sdf

> <i_m_source_file_index>
37

> <r_mmod_Potential_Energy-OPLS-2005>
2286.2490234375

> <r_mmod_Stretch_Energy-OPLS-2005>
913.313842773438

> <r_mmod_Bend_Energy-OPLS-2005>
656.142639160156

> <r_mmod_Torsional_Energy-OPLS-2005>
260.506713867188

> <r_mmod_Improper_Torsional_Energy-OPLS-2005>
10.7463884353638

> <r_mmod_Van_der_Waal_Energy-OPLS-2005>
131.789093017578

> <r_mmod_Electrostatic_Energy-OPLS-2005>
-333.589508056641

> <r_mmod_Solvation_Energy-OPLS-2005>
-213.130996704102

> <b_mmod_Minimization_Converged-OPLS-2005>
1

> <r_mmod_RMS_Derivative-OPLS-2005>
0.0413532331585884

$$$$
37
                    3D
 Structure written by MMmdl.
154162  0  0  1  0            999 V2000
  -30.5956  -14.7314   20.4879 C   0  0  0  0  0  0
  -30.4458  -12.4525   19.4562 C   0  0  0  0  0  0
  -29.5081  -12.5129   18.2279 C   0  0  0  0  0  0
  -28.0377  -12.3241   18.6522 C   0  0  0  0  0  0
  -27.6439  -13.2226   19.8534 C   0  0  2  0  0  0
  -28.6990  -13.1191   20.9759 C   0  0  0  0  0  0
  -25.2518  -13.8170   20.5716 C   0  0  0  0  0  0
  -24.1828  -13.0428   20.9235 C   0  0  0  0  0  0
  -24.6399  -11.6900   20.8785 C   0  0  0  0  0  0
  -23.9066  -10.4278   21.0429 C   0  0  0  0  0  0
  -24.3611   -9.4186   21.9194 C   0  0  0  0  0  0
  -23.6288   -8.2223   22.0740 C   0  0  0  0  0  0
  -22.4273   -8.0256   21.3514 C   0  0  0  0  0  0
  -21.9911   -9.0260   20.4635 C   0  0  0  0  0  0
  -22.7245  -10.2134   20.3066 C   0  0  0  0  0  0
  -21.6848   -6.0733   22.5290 C   0  0  0  0  0  0
  -21.4010   -6.5630   23.8224 C   0  0  0  0  0  0
  -21.3655   -5.6772   24.9180 C   0  0  0  0  0  0
  -21.6046   -4.3044   24.7225 C   0  0  0  0  0  0
  -21.8812   -3.8140   23.4346 C   0  0  0  0  0  0
  -21.9188   -4.6966   22.3397 C   0  0  0  0  0  0
  -22.7841  -13.5238   21.1845 C   0  0  0  0  0  0
  -22.1661   -4.2159   21.0982 F   0  0  0  0  0  0
  -21.5629   -3.4515   25.7729 F   0  0  0  0  0  0
  -29.9918  -13.4995   20.3934 N   0  0  0  0  0  0
  -26.2952  -12.9361   20.3312 N   0  0  0  0  0  0
  -25.9341  -11.6512   20.5801 N   0  0  0  0  0  0
  -22.0471  -12.8247   22.0409 N   0  0  0  0  0  0
  -25.4224  -15.1885   20.4075 N   0  0  0  0  0  0
  -31.7982  -14.8578   20.2400 O   0  0  0  0  0  0
  -21.6600   -6.8883   21.4251 O   0  0  0  0  0  0
  -22.3541  -14.5524   20.6655 O   0  0  0  0  0  0
  -24.6354  -31.8553   23.1961 C   0  0  0  0  0  0
  -25.9187  -32.4721   23.8309 C   0  0  1  0  0  0
  -27.1964  -27.2516   20.1084 C   0  0  0  0  0  0
  -25.6005  -33.8532   24.2240 N   0  0  0  0  0  0
  -23.4289  -30.4847   21.5398 C   0  0  2  0  0  0
  -24.8695  -28.9409   20.1037 C   0  0  0  0  0  0
  -22.7543  -29.4620   22.4874 C   0  0  0  0  0  0
  -18.0307  -28.1388   22.8475 C   0  0  0  0  0  0
  -24.1486  -36.7283   23.2625 C   0  0  0  0  0  0
  -25.9802  -30.7667   21.3791 C   0  0  0  0  0  0
  -26.0467  -29.3912   20.7146 C   0  0  0  0  0  0
  -27.2163  -28.5594   20.7049 C   0  0  0  0  0  0
  -25.9951  -26.8900   19.4514 C   0  0  0  0  0  0
  -24.8481  -27.7011   19.4581 C   0  0  0  0  0  0
  -23.6450  -29.8291   20.1536 C   0  0  0  0  0  0
  -25.4103  -36.3045   24.0312 C   0  0  1  0  0  0
  -20.5913  -28.3697   23.1240 C   0  0  2  0  0  0
  -20.6803  -26.9417   22.5383 C   0  0  0  0  0  0
  -19.5771  -26.6386   21.5198 C   0  0  0  0  0  0
  -18.1949  -26.7919   22.1625 C   0  0  0  0  0  0
  -19.1563  -28.8874   23.2840 C   0  0  0  0  0  0
  -18.9493  -30.1489   23.8834 C   0  0  0  0  0  0
  -17.6488  -30.6569   24.0573 C   0  0  0  0  0  0
  -25.9064  -34.9420   23.5071 C   0  0  0  0  0  0
  -16.5380  -29.9078   23.6332 C   0  0  0  0  0  0
  -16.7297  -28.6518   23.0314 C   0  0  0  0  0  0
  -26.4544  -31.6544   25.0709 C   0  0  0  0  0  0
  -25.3740  -31.3766   26.1412 C   0  0  0  0  0  0
  -27.0386  -30.2936   24.6254 C   0  0  0  0  0  0
  -27.6061  -32.4319   25.7508 C   0  0  0  0  0  0
  -27.5562  -37.1783   24.8459 C   0  0  0  0  0  0
  -21.4248  -29.3049   22.3645 N   0  0  0  0  0  0
  -26.4275  -37.3763   23.9399 N   0  0  0  0  0  0
  -24.6998  -31.0540   22.0937 N   0  0  0  0  0  0
  -23.4251  -28.8112   23.2920 O   0  0  0  0  0  0
  -28.2631  -26.3165   20.1532 O   0  0  0  0  0  0
  -26.5620  -34.8931   22.4635 O   0  0  0  0  0  0
  -23.5514  -32.1396   23.7264 O   0  0  0  0  0  0
  -30.2533  -17.4145   22.3640 C   0  0  0  0  0  0
  -30.2255  -18.7021   22.9415 C   0  0  0  0  0  0
  -29.5492  -18.4094   20.2616 C   0  0  0  0  0  0
  -29.5554  -19.7562   20.8213 C   0  0  0  0  0  0
  -29.9098  -17.2164   21.0097 C   0  0  0  0  0  0
  -29.9031  -19.8534   22.1875 C   0  0  0  0  0  0
  -28.9417  -23.6785   20.2007 C   0  0  0  0  0  0
  -27.2483  -22.0748   21.0059 C   0  0  0  0  0  0
  -29.3045  -21.0797   19.9583 C   0  0  0  0  0  0
  -27.8739  -24.8673   20.3580 C   0  0  0  0  0  0
  -29.7453  -15.8270   20.5314 N   0  0  0  0  0  0
  -28.5862  -22.3467   20.4606 N   0  0  0  0  0  0
  -30.0613  -23.9660   19.7614 O   0  0  0  0  0  0
  -29.9518  -21.0634   22.7927 F   0  0  0  0  0  0
  -31.4843  -12.5967   19.1555 H   0  0  0  0  0  0
  -30.4052  -11.4740   19.9396 H   0  0  0  0  0  0
  -29.7915  -11.7566   17.4949 H   0  0  0  0  0  0
  -29.6076  -13.4796   17.7312 H   0  0  0  0  0  0
  -27.9189  -11.2763   18.9300 H   0  0  0  0  0  0
  -27.3660  -12.4931   17.8093 H   0  0  0  0  0  0
  -27.6374  -14.2464   19.4785 H   0  0  0  0  0  0
  -28.7500  -12.0934   21.3463 H   0  0  0  0  0  0
  -28.4508  -13.7436   21.8346 H   0  0  0  0  0  0
  -25.2766   -9.5657   22.4767 H   0  0  0  0  0  0
  -23.9998   -7.4604   22.7447 H   0  0  0  0  0  0
  -21.0840   -8.8795   19.8945 H   0  0  0  0  0  0
  -22.3726  -10.9677   19.6168 H   0  0  0  0  0  0
  -21.2010   -7.6138   23.9738 H   0  0  0  0  0  0
  -21.1482   -6.0497   25.9083 H   0  0  0  0  0  0
  -22.0602   -2.7610   23.2822 H   0  0  0  0  0  0
  -22.4040  -11.9930   22.4856 H   0  0  0  0  0  0
  -21.1083  -13.1298   22.2553 H   0  0  0  0  0  0
  -24.6605  -15.8495   20.5223 H   0  0  0  0  0  0
  -26.2609  -15.6130   20.0369 H   0  0  0  0  0  0
  -26.7254  -32.5324   23.1040 H   0  0  0  0  0  0
  -25.0177  -33.9672   25.0409 H   0  0  0  0  0  0
  -22.7230  -31.3053   21.3978 H   0  0  0  0  0  0
  -23.3741  -35.9631   23.3300 H   0  0  0  0  0  0
  -24.3564  -36.8909   22.2042 H   0  0  0  0  0  0
  -23.7288  -37.6505   23.6656 H   0  0  0  0  0  0
  -26.1293  -31.5340   20.6166 H   0  0  0  0  0  0
  -26.8552  -30.8066   22.0161 H   0  0  0  0  0  0
  -28.1182  -28.9030   21.1904 H   0  0  0  0  0  0
  -25.8904  -25.9713   18.8974 H   0  0  0  0  0  0
  -23.9502  -27.3687   18.9520 H   0  0  0  0  0  0
  -23.7662  -30.6057   19.3970 H   0  0  0  0  0  0
  -22.7632  -29.2643   19.8476 H   0  0  0  0  0  0
  -25.1301  -36.1860   25.0814 H   0  0  0  0  0  0
  -21.0011  -28.3262   24.1354 H   0  0  0  0  0  0
  -20.5687  -26.2331   23.3593 H   0  0  0  0  0  0
  -21.6663  -26.7413   22.1176 H   0  0  0  0  0  0
  -19.6919  -25.6304   21.1216 H   0  0  0  0  0  0
  -19.6663  -27.3204   20.6724 H   0  0  0  0  0  0
  -17.4213  -26.6667   21.4028 H   0  0  0  0  0  0
  -18.0346  -26.0061   22.9029 H   0  0  0  0  0  0
  -19.7981  -30.7342   24.2104 H   0  0  0  0  0  0
  -17.5044  -31.6197   24.5248 H   0  0  0  0  0  0
  -15.5387  -30.2962   23.7661 H   0  0  0  0  0  0
  -15.8715  -28.0834   22.6987 H   0  0  0  0  0  0
  -24.5876  -30.7174   25.7733 H   0  0  0  0  0  0
  -24.9003  -32.3003   26.4763 H   0  0  0  0  0  0
  -25.8026  -30.8961   27.0218 H   0  0  0  0  0  0
  -26.3016  -29.6669   24.1228 H   0  0  0  0  0  0
  -27.3995  -29.7209   25.4808 H   0  0  0  0  0  0
  -27.8934  -30.4176   23.9593 H   0  0  0  0  0  0
  -27.2607  -33.3606   26.2083 H   0  0  0  0  0  0
  -28.3885  -32.6910   25.0354 H   0  0  0  0  0  0
  -28.0734  -31.8460   26.5439 H   0  0  0  0  0  0
  -28.2571  -38.0073   24.7481 H   0  0  0  0  0  0
  -28.1072  -36.2615   24.6317 H   0  0  0  0  0  0
  -27.2287  -37.1474   25.8862 H   0  0  0  0  0  0
  -20.9442  -29.8843   21.6917 H   0  0  0  0  0  0
  -26.0136  -38.2840   24.1392 H   0  0  0  0  0  0
  -30.4904  -16.5718   22.9975 H   0  0  0  0  0  0
  -30.4564  -18.8106   23.9928 H   0  0  0  0  0  0
  -29.2752  -18.2893   19.2218 H   0  0  0  0  0  0
  -27.0903  -22.5672   21.9659 H   0  0  0  0  0  0
  -27.0732  -21.0157   21.1803 H   0  0  0  0  0  0
  -26.4633  -22.4142   20.3247 H   0  0  0  0  0  0
  -28.7401  -20.7597   19.0799 H   0  0  0  0  0  0
  -30.2802  -21.3613   19.5603 H   0  0  0  0  0  0
  -27.4089  -24.7902   21.3421 H   0  0  0  0  0  0
  -27.1255  -24.5647   19.6305 H   0  0  0  0  0  0
  -28.7823  -15.5702   20.3865 H   0  0  0  0  0  0
  1 25  1  0  0  0
  1 30  2  0  0  0
  1 81  1  0  0  0
  2  3  1  0  0  0
  2 25  1  0  0  0
  2 85  1  0  0  0
  2 86  1  0  0  0
  3  4  1  0  0  0
  3 87  1  0  0  0
  3 88  1  0  0  0
  4  5  1  0  0  0
  4 89  1  0  0  0
  4 90  1  0  0  0
  5  6  1  0  0  0
  5 26  1  0  0  0
  5 91  1  0  0  0
  6 25  1  0  0  0
  6 92  1  0  0  0
  6 93  1  0  0  0
  7  8  2  0  0  0
  7 26  1  0  0  0
  7 29  1  0  0  0
  8  9  1  0  0  0
  8 22  1  0  0  0
  9 10  1  0  0  0
  9 27  2  0  0  0
 10 11  2  0  0  0
 10 15  1  0  0  0
 11 12  1  0  0  0
 11 94  1  0  0  0
 12 13  2  0  0  0
 12 95  1  0  0  0
 13 14  1  0  0  0
 13 31  1  0  0  0
 14 15  2  0  0  0
 14 96  1  0  0  0
 15 97  1  0  0  0
 16 17  2  0  0  0
 16 21  1  0  0  0
 16 31  1  0  0  0
 17 18  1  0  0  0
 17 98  1  0  0  0
 18 19  2  0  0  0
 18 99  1  0  0  0
 19 20  1  0  0  0
 19 24  1  0  0  0
 20 21  2  0  0  0
 20100  1  0  0  0
 21 23  1  0  0  0
 22 28  1  0  0  0
 22 32  2  0  0  0
 26 27  1  0  0  0
 28101  1  0  0  0
 28102  1  0  0  0
 29103  1  0  0  0
 29104  1  0  0  0
 33 34  1  0  0  0
 33 66  1  0  0  0
 33 70  2  0  0  0
 34 36  1  0  0  0
 34 59  1  0  0  0
 34105  1  0  0  0
 35 44  2  0  0  0
 35 45  1  0  0  0
 35 68  1  0  0  0
 36 56  1  0  0  0
 36106  1  0  0  0
 37 39  1  0  0  0
 37 47  1  0  0  0
 37 66  1  0  0  0
 37107  1  0  0  0
 38 43  2  0  0  0
 38 46  1  0  0  0
 38 47  1  0  0  0
 39 64  1  0  0  0
 39 67  2  0  0  0
 40 52  1  0  0  0
 40 53  2  0  0  0
 40 58  1  0  0  0
 41108  1  0  0  0
 41109  1  0  0  0
 41110  1  0  0  0
 41 48  1  0  0  0
 42 43  1  0  0  0
 42 66  1  0  0  0
 42111  1  0  0  0
 42112  1  0  0  0
 43 44  1  0  0  0
 44113  1  0  0  0
 45 46  2  0  0  0
 45114  1  0  0  0
 46115  1  0  0  0
 47116  1  0  0  0
 47117  1  0  0  0
 48 56  1  0  0  0
 48 65  1  0  0  0
 48118  1  0  0  0
 49 50  1  0  0  0
 49 53  1  0  0  0
 49 64  1  0  0  0
 49119  1  0  0  0
 50 51  1  0  0  0
 50120  1  0  0  0
 50121  1  0  0  0
 51 52  1  0  0  0
 51122  1  0  0  0
 51123  1  0  0  0
 52124  1  0  0  0
 52125  1  0  0  0
 53 54  1  0  0  0
 54 55  2  0  0  0
 54126  1  0  0  0
 55 57  1  0  0  0
 55127  1  0  0  0
 56 69  2  0  0  0
 57 58  2  0  0  0
 57128  1  0  0  0
 58129  1  0  0  0
 59 60  1  0  0  0
 59 61  1  0  0  0
 59 62  1  0  0  0
 60130  1  0  0  0
 60131  1  0  0  0
 60132  1  0  0  0
 61133  1  0  0  0
 61134  1  0  0  0
 61135  1  0  0  0
 62136  1  0  0  0
 62137  1  0  0  0
 62138  1  0  0  0
 63 65  1  0  0  0
 63139  1  0  0  0
 63140  1  0  0  0
 63141  1  0  0  0
 64142  1  0  0  0
 65143  1  0  0  0
 68 80  1  0  0  0
 71 72  2  0  0  0
 71 75  1  0  0  0
 71144  1  0  0  0
 72 76  1  0  0  0
 72145  1  0  0  0
 73 74  1  0  0  0
 73 75  2  0  0  0
 73146  1  0  0  0
 74 76  2  0  0  0
 74 79  1  0  0  0
 75 81  1  0  0  0
 76 84  1  0  0  0
 77 80  1  0  0  0
 77 82  1  0  0  0
 77 83  2  0  0  0
 78 82  1  0  0  0
 78147  1  0  0  0
 78148  1  0  0  0
 78149  1  0  0  0
 79 82  1  0  0  0
 79150  1  0  0  0
 79151  1  0  0  0
 80152  1  0  0  0
 80153  1  0  0  0
 81154  1  0  0  0
M  ISO  4   1 100  68 101  80 101  81 100
M  END
> <chiral flag>
0

> <version>
0

> <s_m_source_file>
/data/baiqing/PycharmProjects/Reinvent-master-3.2/result/LINK_invent/BTK/process_docking_weight1_custom_product_contain_oxygen_bond_distance_aromatic_linkinvent_7_9_3/rearranged_h_0010.sdf

> <i_m_source_file_index>
38

> <r_mmod_Potential_Energy-OPLS-2005>
216.35383605957

> <r_mmod_Stretch_Energy-OPLS-2005>
128.038803100586

> <r_mmod_Bend_Energy-OPLS-2005>
163.802398681641

> <r_mmod_Torsional_Energy-OPLS-2005>
266.054229736328

> <r_mmod_Improper_Torsional_Energy-OPLS-2005>
11.4431409835815

> <r_mmod_Van_der_Waal_Energy-OPLS-2005>
142.536178588867

> <r_mmod_Electrostatic_Energy-OPLS-2005>
-346.009552001953

> <r_mmod_Solvation_Energy-OPLS-2005>
-239.998519897461

> <b_mmod_Minimization_Converged-OPLS-2005>
0

> <r_mmod_RMS_Derivative-OPLS-2005>
4.95721960067749

$$$$
38
                    3D
 Structure written by MMmdl.
148156  0  0  1  0            999 V2000
  -30.5214  -14.9152   20.4322 C   0  0  0  0  0  0
  -30.4560  -12.5613   19.4932 C   0  0  0  0  0  0
  -29.5263  -12.5225   18.2560 C   0  0  0  0  0  0
  -28.0560  -12.3176   18.6734 C   0  0  0  0  0  0
  -27.6385  -13.2396   19.8491 C   0  0  2  0  0  0
  -28.6855  -13.2218   20.9846 C   0  0  0  0  0  0
  -25.2459  -13.8158   20.5697 C   0  0  0  0  0  0
  -24.1765  -13.0390   20.9179 C   0  0  0  0  0  0
  -24.6393  -11.6885   20.8728 C   0  0  0  0  0  0
  -23.9070  -10.4267   21.0393 C   0  0  0  0  0  0
  -24.3618   -9.4189   21.9177 C   0  0  0  0  0  0
  -23.6287   -8.2227   22.0750 C   0  0  0  0  0  0
  -22.4268   -8.0269   21.3541 C   0  0  0  0  0  0
  -21.9903   -9.0243   20.4647 C   0  0  0  0  0  0
  -22.7235  -10.2117   20.3050 C   0  0  0  0  0  0
  -21.6852   -6.0726   22.5279 C   0  0  0  0  0  0
  -21.4012   -6.5629   23.8210 C   0  0  0  0  0  0
  -21.3659   -5.6784   24.9173 C   0  0  0  0  0  0
  -21.6046   -4.3046   24.7225 C   0  0  0  0  0  0
  -21.8819   -3.8139   23.4345 C   0  0  0  0  0  0
  -21.9194   -4.6956   22.3402 C   0  0  0  0  0  0
  -22.7791  -13.5179   21.1863 C   0  0  0  0  0  0
  -22.1663   -4.2144   21.0979 F   0  0  0  0  0  0
  -21.5632   -3.4530   25.7737 F   0  0  0  0  0  0
  -29.9702  -13.6372   20.3996 N   0  0  0  0  0  0
  -26.2930  -12.9409   20.3303 N   0  0  0  0  0  0
  -25.9337  -11.6539   20.5759 N   0  0  0  0  0  0
  -22.0457  -12.8183   22.0447 N   0  0  0  0  0  0
  -25.4009  -15.1882   20.4184 N   0  0  0  0  0  0
  -31.7098  -15.0488   20.1197 O   0  0  0  0  0  0
  -21.6633   -6.8868   21.4238 O   0  0  0  0  0  0
  -22.3464  -14.5487   20.6720 O   0  0  0  0  0  0
  -24.6417  -31.8452   23.1899 C   0  0  0  0  0  0
  -25.9199  -32.4701   23.8276 C   0  0  1  0  0  0
  -27.2222  -27.1526   20.1448 C   0  0  0  0  0  0
  -25.5963  -33.8506   24.2202 N   0  0  0  0  0  0
  -23.4442  -30.4662   21.5348 C   0  0  2  0  0  0
  -24.8945  -28.8965   20.1100 C   0  0  0  0  0  0
  -22.7558  -29.4553   22.4857 C   0  0  0  0  0  0
  -18.0310  -28.1394   22.8468 C   0  0  0  0  0  0
  -24.1494  -36.7248   23.2642 C   0  0  0  0  0  0
  -25.9996  -30.7246   21.3863 C   0  0  0  0  0  0
  -26.0726  -29.3379   20.7264 C   0  0  0  0  0  0
  -27.2371  -28.4831   20.7255 C   0  0  0  0  0  0
  -26.0147  -26.8095   19.4943 C   0  0  0  0  0  0
  -24.8785  -27.6452   19.4787 C   0  0  0  0  0  0
  -23.6702  -29.7971   20.1536 C   0  0  0  0  0  0
  -25.4127  -36.3035   24.0318 C   0  0  1  0  0  0
  -20.5917  -28.3714   23.1234 C   0  0  2  0  0  0
  -20.6791  -26.9415   22.5409 C   0  0  0  0  0  0
  -19.5773  -26.6381   21.5204 C   0  0  0  0  0  0
  -18.1953  -26.7936   22.1610 C   0  0  0  0  0  0
  -19.1564  -28.8872   23.2845 C   0  0  0  0  0  0
  -18.9482  -30.1470   23.8868 C   0  0  0  0  0  0
  -17.6479  -30.6588   24.0559 C   0  0  0  0  0  0
  -25.9072  -34.9408   23.5067 C   0  0  0  0  0  0
  -16.5370  -29.9079   23.6341 C   0  0  0  0  0  0
  -16.7295  -28.6502   23.0351 C   0  0  0  0  0  0
  -26.4528  -31.6562   25.0707 C   0  0  0  0  0  0
  -25.3724  -31.3763   26.1419 C   0  0  0  0  0  0
  -27.0377  -30.2957   24.6274 C   0  0  0  0  0  0
  -27.6085  -32.4306   25.7471 C   0  0  0  0  0  0
  -27.5583  -37.1777   24.8465 C   0  0  0  0  0  0
  -21.4253  -29.3042   22.3607 N   0  0  0  0  0  0
  -26.4289  -37.3751   23.9413 N   0  0  0  0  0  0
  -24.7147  -31.0326   22.0924 N   0  0  0  0  0  0
  -23.4214  -28.8101   23.2998 O   0  0  0  0  0  0
  -28.2831  -26.1774   20.2081 O   0  0  0  0  0  0
  -26.5645  -34.8904   22.4637 O   0  0  0  0  0  0
  -23.5543  -32.1321   23.7134 O   0  0  0  0  0  0
  -30.5390  -18.5592   20.3119 C   0  0  0  0  0  0
  -30.2281  -19.9961   20.2516 C   0  0  0  0  0  0
  -27.9577  -19.5005   20.6233 C   0  0  0  0  0  0
  -29.5558  -17.5246   20.5374 C   0  0  0  0  0  0
  -28.9022  -20.5492   20.4006 C   0  0  0  0  0  0
  -28.2572  -18.0929   20.6946 C   0  0  0  0  0  0
  -27.9882  -24.6555   20.0887 C   0  0  0  0  0  0
  -28.9899  -23.3140   20.2894 C   0  0  0  0  0  0
  -29.6477  -16.0010   20.6557 N   0  0  0  0  0  0
  -28.3721  -21.9139   20.3335 O   0  0  0  0  0  0
  -27.2334  -17.2380   20.9233 F   0  0  0  0  0  0
  -31.4877  -12.7311   19.1805 H   0  0  0  0  0  0
  -30.4555  -11.5990   20.0081 H   0  0  0  0  0  0
  -29.8357  -11.7251   17.5785 H   0  0  0  0  0  0
  -29.6217  -13.4538   17.6962 H   0  0  0  0  0  0
  -27.9448  -11.2745   18.9718 H   0  0  0  0  0  0
  -27.3927  -12.4619   17.8198 H   0  0  0  0  0  0
  -27.6113  -14.2499   19.4400 H   0  0  0  0  0  0
  -28.7627  -12.2279   21.4282 H   0  0  0  0  0  0
  -28.3905  -13.8918   21.7938 H   0  0  0  0  0  0
  -25.2762   -9.5668   22.4749 H   0  0  0  0  0  0
  -23.9997   -7.4619   22.7465 H   0  0  0  0  0  0
  -21.0833   -8.8763   19.8957 H   0  0  0  0  0  0
  -22.3691  -10.9656   19.6162 H   0  0  0  0  0  0
  -21.2000   -7.6137   23.9710 H   0  0  0  0  0  0
  -21.1484   -6.0514   25.9077 H   0  0  0  0  0  0
  -22.0601   -2.7602   23.2845 H   0  0  0  0  0  0
  -22.4080  -11.9854   22.4844 H   0  0  0  0  0  0
  -21.1086  -13.1224   22.2682 H   0  0  0  0  0  0
  -24.6307  -15.8255   20.5832 H   0  0  0  0  0  0
  -26.2721  -15.6785   20.2515 H   0  0  0  0  0  0
  -26.7256  -32.5313   23.0995 H   0  0  0  0  0  0
  -25.0120  -33.9624   25.0359 H   0  0  0  0  0  0
  -22.7457  -31.2916   21.3825 H   0  0  0  0  0  0
  -23.3764  -35.9569   23.3295 H   0  0  0  0  0  0
  -24.3583  -36.8891   22.2059 H   0  0  0  0  0  0
  -23.7234  -37.6438   23.6676 H   0  0  0  0  0  0
  -26.1548  -31.4813   20.6161 H   0  0  0  0  0  0
  -26.8698  -30.7733   22.0286 H   0  0  0  0  0  0
  -28.1339  -28.8182   21.2272 H   0  0  0  0  0  0
  -25.9091  -25.8553   19.0022 H   0  0  0  0  0  0
  -23.9799  -27.3022   18.9846 H   0  0  0  0  0  0
  -23.8050  -30.5726   19.3985 H   0  0  0  0  0  0
  -22.7852  -29.2385   19.8435 H   0  0  0  0  0  0
  -25.1315  -36.1864   25.0809 H   0  0  0  0  0  0
  -21.0014  -28.3306   24.1352 H   0  0  0  0  0  0
  -20.5663  -26.2325   23.3628 H   0  0  0  0  0  0
  -21.6662  -26.7413   22.1223 H   0  0  0  0  0  0
  -19.6932  -25.6283   21.1254 H   0  0  0  0  0  0
  -19.6724  -27.3171   20.6718 H   0  0  0  0  0  0
  -17.4226  -26.6676   21.4011 H   0  0  0  0  0  0
  -18.0354  -26.0083   22.9012 H   0  0  0  0  0  0
  -19.7958  -30.7294   24.2221 H   0  0  0  0  0  0
  -17.5034  -31.6265   24.5168 H   0  0  0  0  0  0
  -15.5369  -30.2970   23.7682 H   0  0  0  0  0  0
  -15.8697  -28.0816   22.7070 H   0  0  0  0  0  0
  -24.5924  -30.7070   25.7768 H   0  0  0  0  0  0
  -24.8877  -32.2943   26.4751 H   0  0  0  0  0  0
  -25.8032  -30.9027   27.0250 H   0  0  0  0  0  0
  -26.2980  -29.6682   24.1288 H   0  0  0  0  0  0
  -27.4006  -29.7261   25.4840 H   0  0  0  0  0  0
  -27.8891  -30.4196   23.9575 H   0  0  0  0  0  0
  -27.2716  -33.3639   26.1992 H   0  0  0  0  0  0
  -28.3918  -32.6809   25.0300 H   0  0  0  0  0  0
  -28.0715  -31.8450   26.5425 H   0  0  0  0  0  0
  -28.2603  -38.0072   24.7516 H   0  0  0  0  0  0
  -28.1080  -36.2606   24.6286 H   0  0  0  0  0  0
  -27.2304  -37.1424   25.8870 H   0  0  0  0  0  0
  -20.9449  -29.8759   21.6797 H   0  0  0  0  0  0
  -26.0160  -38.2818   24.1433 H   0  0  0  0  0  0
  -31.5690  -18.2594   20.1836 H   0  0  0  0  0  0
  -31.0442  -20.6817   20.0723 H   0  0  0  0  0  0
  -26.9238  -19.7840   20.7511 H   0  0  0  0  0  0
  -27.1559  -24.4881   20.7736 H   0  0  0  0  0  0
  -27.5690  -24.5159   19.0932 H   0  0  0  0  0  0
  -29.5433  -23.4398   21.2200 H   0  0  0  0  0  0
  -29.7405  -23.3184   19.4988 H   0  0  0  0  0  0
  -28.7399  -15.6306   20.8942 H   0  0  0  0  0  0
  1 25  1  0  0  0
  1 30  2  0  0  0
  1 79  1  0  0  0
  2  3  1  0  0  0
  2 25  1  0  0  0
  2 82  1  0  0  0
  2 83  1  0  0  0
  3  4  1  0  0  0
  3 84  1  0  0  0
  3 85  1  0  0  0
  4  5  1  0  0  0
  4 86  1  0  0  0
  4 87  1  0  0  0
  5  6  1  0  0  0
  5 26  1  0  0  0
  5 88  1  0  0  0
  6 25  1  0  0  0
  6 89  1  0  0  0
  6 90  1  0  0  0
  7  8  2  0  0  0
  7 26  1  0  0  0
  7 29  1  0  0  0
  8  9  1  0  0  0
  8 22  1  0  0  0
  9 10  1  0  0  0
  9 27  2  0  0  0
 10 11  2  0  0  0
 10 15  1  0  0  0
 11 12  1  0  0  0
 11 91  1  0  0  0
 12 13  2  0  0  0
 12 92  1  0  0  0
 13 14  1  0  0  0
 13 31  1  0  0  0
 14 15  2  0  0  0
 14 93  1  0  0  0
 15 94  1  0  0  0
 16 17  2  0  0  0
 16 21  1  0  0  0
 16 31  1  0  0  0
 17 18  1  0  0  0
 17 95  1  0  0  0
 18 19  2  0  0  0
 18 96  1  0  0  0
 19 20  1  0  0  0
 19 24  1  0  0  0
 20 21  2  0  0  0
 20 97  1  0  0  0
 21 23  1  0  0  0
 22 28  1  0  0  0
 22 32  2  0  0  0
 26 27  1  0  0  0
 28 98  1  0  0  0
 28 99  1  0  0  0
 29100  1  0  0  0
 29101  1  0  0  0
 33 34  1  0  0  0
 33 66  1  0  0  0
 33 70  2  0  0  0
 34 36  1  0  0  0
 34 59  1  0  0  0
 34102  1  0  0  0
 35 44  2  0  0  0
 35 45  1  0  0  0
 35 68  1  0  0  0
 36 56  1  0  0  0
 36103  1  0  0  0
 37 39  1  0  0  0
 37 47  1  0  0  0
 37 66  1  0  0  0
 37104  1  0  0  0
 38 43  2  0  0  0
 38 46  1  0  0  0
 38 47  1  0  0  0
 39 64  1  0  0  0
 39 67  2  0  0  0
 40 52  1  0  0  0
 40 53  2  0  0  0
 40 58  1  0  0  0
 41105  1  0  0  0
 41106  1  0  0  0
 41107  1  0  0  0
 41 48  1  0  0  0
 42 43  1  0  0  0
 42 66  1  0  0  0
 42108  1  0  0  0
 42109  1  0  0  0
 43 44  1  0  0  0
 44110  1  0  0  0
 45 46  2  0  0  0
 45111  1  0  0  0
 46112  1  0  0  0
 47113  1  0  0  0
 47114  1  0  0  0
 48 56  1  0  0  0
 48 65  1  0  0  0
 48115  1  0  0  0
 49 50  1  0  0  0
 49 53  1  0  0  0
 49 64  1  0  0  0
 49116  1  0  0  0
 50 51  1  0  0  0
 50117  1  0  0  0
 50118  1  0  0  0
 51 52  1  0  0  0
 51119  1  0  0  0
 51120  1  0  0  0
 52121  1  0  0  0
 52122  1  0  0  0
 53 54  1  0  0  0
 54 55  2  0  0  0
 54123  1  0  0  0
 55 57  1  0  0  0
 55124  1  0  0  0
 56 69  2  0  0  0
 57 58  2  0  0  0
 57125  1  0  0  0
 58126  1  0  0  0
 59 60  1  0  0  0
 59 61  1  0  0  0
 59 62  1  0  0  0
 60127  1  0  0  0
 60128  1  0  0  0
 60129  1  0  0  0
 61130  1  0  0  0
 61131  1  0  0  0
 61132  1  0  0  0
 62133  1  0  0  0
 62134  1  0  0  0
 62135  1  0  0  0
 63 65  1  0  0  0
 63136  1  0  0  0
 63137  1  0  0  0
 63138  1  0  0  0
 64139  1  0  0  0
 65140  1  0  0  0
 68 77  1  0  0  0
 71 72  2  0  0  0
 71 74  1  0  0  0
 71141  1  0  0  0
 72 75  1  0  0  0
 72142  1  0  0  0
 73 75  2  0  0  0
 73 76  1  0  0  0
 73143  1  0  0  0
 74 76  2  0  0  0
 74 79  1  0  0  0
 75 80  1  0  0  0
 76 81  1  0  0  0
 77 78  1  0  0  0
 77144  1  0  0  0
 77145  1  0  0  0
 78 80  1  0  0  0
 78146  1  0  0  0
 78147  1  0  0  0
 79148  1  0  0  0
M  ISO  4   1 100  68 101  77 101  79 100
M  END
> <chiral flag>
0

> <version>
0

> <s_m_source_file>
/data/baiqing/PycharmProjects/Reinvent-master-3.2/result/LINK_invent/BTK/process_docking_weight1_custom_product_contain_oxygen_bond_distance_aromatic_linkinvent_7_9_3/rearranged_h_0010.sdf

> <i_m_source_file_index>
39

> <r_mmod_Potential_Energy-OPLS-2005>
429.317779541016

> <r_mmod_Stretch_Energy-OPLS-2005>
215.171890258789

> <r_mmod_Bend_Energy-OPLS-2005>
307.654571533203

> <r_mmod_Torsional_Energy-OPLS-2005>
210.088012695312

> <r_mmod_Improper_Torsional_Energy-OPLS-2005>
3.85878729820251

> <r_mmod_Van_der_Waal_Energy-OPLS-2005>
133.190078735352

> <r_mmod_Electrostatic_Energy-OPLS-2005>
-411.460144042969

> <r_mmod_Solvation_Energy-OPLS-2005>
-203.061370849609

> <b_mmod_Minimization_Converged-OPLS-2005>
0

> <r_mmod_RMS_Derivative-OPLS-2005>
0.840658664703369

$$$$
39
                    3D
 Structure written by MMmdl.
148156  0  0  1  0            999 V2000
  -30.4407  -15.3487   20.2896 C   0  0  0  0  0  0
  -30.4162  -12.8548   19.5408 C   0  0  0  0  0  0
  -29.5194  -12.5879   18.3017 C   0  0  0  0  0  0
  -28.0851  -12.2807   18.7564 C   0  0  0  0  0  0
  -27.5977  -13.2881   19.8197 C   0  0  2  0  0  0
  -28.6297  -13.5267   20.9461 C   0  0  0  0  0  0
  -25.2231  -13.8173   20.5796 C   0  0  0  0  0  0
  -24.1681  -13.0321   20.9405 C   0  0  0  0  0  0
  -24.6379  -11.6848   20.8798 C   0  0  0  0  0  0
  -23.9080  -10.4204   21.0432 C   0  0  0  0  0  0
  -24.3602   -9.4122   21.9202 C   0  0  0  0  0  0
  -23.6298   -8.2136   22.0699 C   0  0  0  0  0  0
  -22.4252   -8.0196   21.3483 C   0  0  0  0  0  0
  -21.9949   -9.0177   20.4549 C   0  0  0  0  0  0
  -22.7280  -10.2056   20.3027 C   0  0  0  0  0  0
  -21.6785   -6.0720   22.5315 C   0  0  0  0  0  0
  -21.4018   -6.5674   23.8237 C   0  0  0  0  0  0
  -21.3684   -5.6831   24.9213 C   0  0  0  0  0  0
  -21.6060   -4.3096   24.7306 C   0  0  0  0  0  0
  -21.8782   -3.8161   23.4421 C   0  0  0  0  0  0
  -21.9174   -4.6936   22.3467 C   0  0  0  0  0  0
  -22.7694  -13.4928   21.2116 C   0  0  0  0  0  0
  -22.1665   -4.2143   21.1049 F   0  0  0  0  0  0
  -21.5668   -3.4594   25.7842 F   0  0  0  0  0  0
  -29.8552  -14.0424   20.3015 N   0  0  0  0  0  0
  -26.2714  -12.9544   20.3267 N   0  0  0  0  0  0
  -25.9309  -11.6605   20.5724 N   0  0  0  0  0  0
  -22.0412  -12.7890   22.0741 N   0  0  0  0  0  0
  -25.3730  -15.1871   20.3971 N   0  0  0  0  0  0
  -31.6670  -15.2696   20.1068 O   0  0  0  0  0  0
  -21.6581   -6.8817   21.4226 O   0  0  0  0  0  0
  -22.3361  -14.5173   20.6859 O   0  0  0  0  0  0
  -24.6631  -31.8150   23.1675 C   0  0  0  0  0  0
  -25.9300  -32.4548   23.8132 C   0  0  1  0  0  0
  -27.2243  -26.8791   20.1605 C   0  0  0  0  0  0
  -25.5934  -33.8365   24.2035 N   0  0  0  0  0  0
  -23.4843  -30.4294   21.5186 C   0  0  2  0  0  0
  -24.9414  -28.8035   20.1142 C   0  0  0  0  0  0
  -22.7677  -29.4403   22.4785 C   0  0  0  0  0  0
  -18.0309  -28.1374   22.8457 C   0  0  0  0  0  0
  -24.1513  -36.7232   23.2661 C   0  0  0  0  0  0
  -26.0581  -30.6085   21.4053 C   0  0  0  0  0  0
  -26.1309  -29.1938   20.7404 C   0  0  0  0  0  0
  -27.2683  -28.2563   20.7318 C   0  0  0  0  0  0
  -25.9973  -26.6564   19.4947 C   0  0  0  0  0  0
  -24.9000  -27.5560   19.4704 C   0  0  0  0  0  0
  -23.7313  -29.7419   20.1470 C   0  0  0  0  0  0
  -25.4171  -36.2964   24.0283 C   0  0  1  0  0  0
  -20.5939  -28.3724   23.1187 C   0  0  2  0  0  0
  -20.6788  -26.9406   22.5407 C   0  0  0  0  0  0
  -19.5764  -26.6340   21.5212 C   0  0  0  0  0  0
  -18.1944  -26.7906   22.1617 C   0  0  0  0  0  0
  -19.1571  -28.8880   23.2817 C   0  0  0  0  0  0
  -18.9489  -30.1483   23.8843 C   0  0  0  0  0  0
  -17.6462  -30.6576   24.0548 C   0  0  0  0  0  0
  -25.9071  -34.9323   23.4988 C   0  0  0  0  0  0
  -16.5362  -29.9057   23.6316 C   0  0  0  0  0  0
  -16.7294  -28.6479   23.0357 C   0  0  0  0  0  0
  -26.4527  -31.6559   25.0709 C   0  0  0  0  0  0
  -25.3648  -31.3844   26.1379 C   0  0  0  0  0  0
  -27.0444  -30.2908   24.6549 C   0  0  0  0  0  0
  -27.5952  -32.4427   25.7561 C   0  0  0  0  0  0
  -27.5575  -37.1823   24.8463 C   0  0  0  0  0  0
  -21.4336  -29.3015   22.3531 N   0  0  0  0  0  0
  -26.4318  -37.3701   23.9349 N   0  0  0  0  0  0
  -24.7592  -30.9797   22.0818 N   0  0  0  0  0  0
  -23.4191  -28.7940   23.3025 O   0  0  0  0  0  0
  -28.2336  -25.7604   20.1693 O   0  0  0  0  0  0
  -26.5712  -34.8847   22.4592 O   0  0  0  0  0  0
  -23.5694  -32.1111   23.6771 O   0  0  0  0  0  0
  -30.8003  -17.6835   18.4310 C   0  0  0  0  0  0
  -31.7113  -19.8044   17.8424 C   0  0  0  0  0  0
  -30.0896  -18.1436   19.5809 C   0  0  0  0  0  0
  -29.8993  -19.7626   19.6124 C   0  0  0  0  0  0
  -30.9065  -20.4180   18.8080 C   0  0  0  0  0  0
  -31.5805  -18.4581   17.5829 C   0  0  0  0  0  0
  -27.9969  -24.0960   20.2269 C   0  0  0  0  0  0
  -28.9827  -22.5738   19.8991 C   0  0  0  0  0  0
  -29.7536  -16.7015   20.2903 N   0  0  0  0  0  0
  -28.9972  -20.8947   20.1923 O   0  0  0  0  0  0
  -31.1922  -21.7322   18.9298 F   0  0  0  0  0  0
  -32.4495  -17.7217   16.2846 Cl  0  0  0  0  0  0
  -31.4419  -13.0200   19.2031 H   0  0  0  0  0  0
  -30.4525  -11.9725   20.1819 H   0  0  0  0  0  0
  -29.9110  -11.7699   17.7003 H   0  0  0  0  0  0
  -29.5196  -13.4702   17.6616 H   0  0  0  0  0  0
  -28.0865  -11.2806   19.1951 H   0  0  0  0  0  0
  -27.3908  -12.2430   17.9144 H   0  0  0  0  0  0
  -27.4963  -14.2331   19.2824 H   0  0  0  0  0  0
  -28.8208  -12.6222   21.5269 H   0  0  0  0  0  0
  -28.2412  -14.2681   21.6421 H   0  0  0  0  0  0
  -25.2731   -9.5646   22.4838 H   0  0  0  0  0  0
  -24.0025   -7.4521   22.7410 H   0  0  0  0  0  0
  -21.0936   -8.8689   19.8780 H   0  0  0  0  0  0
  -22.3683  -10.9584   19.6155 H   0  0  0  0  0  0
  -21.2004   -7.6186   23.9750 H   0  0  0  0  0  0
  -21.1560   -6.0594   25.9135 H   0  0  0  0  0  0
  -22.0512   -2.7635   23.2930 H   0  0  0  0  0  0
  -22.4156  -11.9596   22.5143 H   0  0  0  0  0  0
  -21.1060  -13.0915   22.3105 H   0  0  0  0  0  0
  -24.5238  -15.7407   20.3871 H   0  0  0  0  0  0
  -26.0493  -15.5122   19.7157 H   0  0  0  0  0  0
  -26.7401  -32.5091   23.0858 H   0  0  0  0  0  0
  -24.9954  -33.9440   25.0117 H   0  0  0  0  0  0
  -22.8003  -31.2641   21.3451 H   0  0  0  0  0  0
  -23.3712  -35.9616   23.3314 H   0  0  0  0  0  0
  -24.3568  -36.8883   22.2069 H   0  0  0  0  0  0
  -23.7335  -37.6447   23.6723 H   0  0  0  0  0  0
  -26.2459  -31.3555   20.6349 H   0  0  0  0  0  0
  -26.9042  -30.6593   22.0769 H   0  0  0  0  0  0
  -28.1814  -28.5548   21.2311 H   0  0  0  0  0  0
  -25.8576  -25.7165   18.9838 H   0  0  0  0  0  0
  -24.0016  -27.2519   18.9513 H   0  0  0  0  0  0
  -23.9023  -30.5052   19.3866 H   0  0  0  0  0  0
  -22.8352  -29.2073   19.8236 H   0  0  0  0  0  0
  -25.1404  -36.1745   25.0779 H   0  0  0  0  0  0
  -21.0055  -28.3309   24.1309 H   0  0  0  0  0  0
  -20.5620  -26.2352   23.3652 H   0  0  0  0  0  0
  -21.6659  -26.7350   22.1264 H   0  0  0  0  0  0
  -19.6901  -25.6232   21.1293 H   0  0  0  0  0  0
  -19.6684  -27.3105   20.6711 H   0  0  0  0  0  0
  -17.4218  -26.6639   21.4021 H   0  0  0  0  0  0
  -18.0349  -26.0075   22.9042 H   0  0  0  0  0  0
  -19.7989  -30.7320   24.2187 H   0  0  0  0  0  0
  -17.5025  -31.6244   24.5158 H   0  0  0  0  0  0
  -15.5379  -30.2925   23.7687 H   0  0  0  0  0  0
  -15.8717  -28.0784   22.7094 H   0  0  0  0  0  0
  -24.5795  -30.7239   25.7694 H   0  0  0  0  0  0
  -24.8888  -32.3065   26.4730 H   0  0  0  0  0  0
  -25.7854  -30.9047   27.0233 H   0  0  0  0  0  0
  -26.3117  -29.6542   24.1567 H   0  0  0  0  0  0
  -27.3899  -29.7369   25.5294 H   0  0  0  0  0  0
  -27.9097  -30.4029   24.0005 H   0  0  0  0  0  0
  -27.2395  -33.3702   26.2091 H   0  0  0  0  0  0
  -28.3790  -32.7074   25.0444 H   0  0  0  0  0  0
  -28.0586  -31.8621   26.5562 H   0  0  0  0  0  0
  -28.2642  -38.0070   24.7402 H   0  0  0  0  0  0
  -28.1008  -36.2578   24.6434 H   0  0  0  0  0  0
  -27.2239  -37.1670   25.8855 H   0  0  0  0  0  0
  -20.9550  -29.8818   21.6780 H   0  0  0  0  0  0
  -26.0124  -38.2759   24.1256 H   0  0  0  0  0  0
  -30.8106  -16.6439   18.1402 H   0  0  0  0  0  0
  -32.4168  -20.3902   17.2745 H   0  0  0  0  0  0
  -27.6905  -23.9673   21.2654 H   0  0  0  0  0  0
  -27.0688  -23.9395   19.6751 H   0  0  0  0  0  0
  -29.9316  -22.8899   20.3225 H   0  0  0  0  0  0
  -29.0959  -22.6274   18.8143 H   0  0  0  0  0  0
  -28.8187  -16.6551   20.6722 H   0  0  0  0  0  0
  1 25  1  0  0  0
  1 30  2  0  0  0
  1 79  1  0  0  0
  2  3  1  0  0  0
  2 25  1  0  0  0
  2 83  1  0  0  0
  2 84  1  0  0  0
  3  4  1  0  0  0
  3 85  1  0  0  0
  3 86  1  0  0  0
  4  5  1  0  0  0
  4 87  1  0  0  0
  4 88  1  0  0  0
  5  6  1  0  0  0
  5 26  1  0  0  0
  5 89  1  0  0  0
  6 25  1  0  0  0
  6 90  1  0  0  0
  6 91  1  0  0  0
  7  8  2  0  0  0
  7 26  1  0  0  0
  7 29  1  0  0  0
  8  9  1  0  0  0
  8 22  1  0  0  0
  9 10  1  0  0  0
  9 27  2  0  0  0
 10 11  2  0  0  0
 10 15  1  0  0  0
 11 12  1  0  0  0
 11 92  1  0  0  0
 12 13  2  0  0  0
 12 93  1  0  0  0
 13 14  1  0  0  0
 13 31  1  0  0  0
 14 15  2  0  0  0
 14 94  1  0  0  0
 15 95  1  0  0  0
 16 17  2  0  0  0
 16 21  1  0  0  0
 16 31  1  0  0  0
 17 18  1  0  0  0
 17 96  1  0  0  0
 18 19  2  0  0  0
 18 97  1  0  0  0
 19 20  1  0  0  0
 19 24  1  0  0  0
 20 21  2  0  0  0
 20 98  1  0  0  0
 21 23  1  0  0  0
 22 28  1  0  0  0
 22 32  2  0  0  0
 26 27  1  0  0  0
 28 99  1  0  0  0
 28100  1  0  0  0
 29101  1  0  0  0
 29102  1  0  0  0
 33 34  1  0  0  0
 33 66  1  0  0  0
 33 70  2  0  0  0
 34 36  1  0  0  0
 34 59  1  0  0  0
 34103  1  0  0  0
 35 44  2  0  0  0
 35 45  1  0  0  0
 35 68  1  0  0  0
 36 56  1  0  0  0
 36104  1  0  0  0
 37 39  1  0  0  0
 37 47  1  0  0  0
 37 66  1  0  0  0
 37105  1  0  0  0
 38 43  2  0  0  0
 38 46  1  0  0  0
 38 47  1  0  0  0
 39 64  1  0  0  0
 39 67  2  0  0  0
 40 52  1  0  0  0
 40 53  2  0  0  0
 40 58  1  0  0  0
 41106  1  0  0  0
 41107  1  0  0  0
 41108  1  0  0  0
 41 48  1  0  0  0
 42 43  1  0  0  0
 42 66  1  0  0  0
 42109  1  0  0  0
 42110  1  0  0  0
 43 44  1  0  0  0
 44111  1  0  0  0
 45 46  2  0  0  0
 45112  1  0  0  0
 46113  1  0  0  0
 47114  1  0  0  0
 47115  1  0  0  0
 48 56  1  0  0  0
 48 65  1  0  0  0
 48116  1  0  0  0
 49 50  1  0  0  0
 49 53  1  0  0  0
 49 64  1  0  0  0
 49117  1  0  0  0
 50 51  1  0  0  0
 50118  1  0  0  0
 50119  1  0  0  0
 51 52  1  0  0  0
 51120  1  0  0  0
 51121  1  0  0  0
 52122  1  0  0  0
 52123  1  0  0  0
 53 54  1  0  0  0
 54 55  2  0  0  0
 54124  1  0  0  0
 55 57  1  0  0  0
 55125  1  0  0  0
 56 69  2  0  0  0
 57 58  2  0  0  0
 57126  1  0  0  0
 58127  1  0  0  0
 59 60  1  0  0  0
 59 61  1  0  0  0
 59 62  1  0  0  0
 60128  1  0  0  0
 60129  1  0  0  0
 60130  1  0  0  0
 61131  1  0  0  0
 61132  1  0  0  0
 61133  1  0  0  0
 62134  1  0  0  0
 62135  1  0  0  0
 62136  1  0  0  0
 63 65  1  0  0  0
 63137  1  0  0  0
 63138  1  0  0  0
 63139  1  0  0  0
 64140  1  0  0  0
 65141  1  0  0  0
 68 77  1  0  0  0
 71 73  2  0  0  0
 71 76  1  0  0  0
 71142  1  0  0  0
 72 75  1  0  0  0
 72 76  2  0  0  0
 72143  1  0  0  0
 73 74  1  0  0  0
 73 79  1  0  0  0
 74 75  2  0  0  0
 74 80  1  0  0  0
 75 81  1  0  0  0
 76 82  1  0  0  0
 77 78  1  0  0  0
 77144  1  0  0  0
 77145  1  0  0  0
 78 80  1  0  0  0
 78146  1  0  0  0
 78147  1  0  0  0
 79148  1  0  0  0
M  ISO  4   1 100  68 101  77 101  79 100
M  END
> <chiral flag>
0

> <version>
0

> <s_m_source_file>
/data/baiqing/PycharmProjects/Reinvent-master-3.2/result/LINK_invent/BTK/process_docking_weight1_custom_product_contain_oxygen_bond_distance_aromatic_linkinvent_7_9_3/rearranged_h_0010.sdf

> <i_m_source_file_index>
40

> <r_mmod_Potential_Energy-OPLS-2005>
1786.13659667969

> <r_mmod_Stretch_Energy-OPLS-2005>
793.223937988281

> <r_mmod_Bend_Energy-OPLS-2005>
594.005065917969

> <r_mmod_Torsional_Energy-OPLS-2005>
278.232604980469

> <r_mmod_Improper_Torsional_Energy-OPLS-2005>
7.94867563247681

> <r_mmod_Van_der_Waal_Energy-OPLS-2005>
157.962142944336

> <r_mmod_Electrostatic_Energy-OPLS-2005>
-366.824768066406

> <r_mmod_Solvation_Energy-OPLS-2005>
-214.901321411133

> <b_mmod_Minimization_Converged-OPLS-2005>
0

> <r_mmod_RMS_Derivative-OPLS-2005>
8.27841186523438

$$$$
40
                    3D
 Structure written by MMmdl.
151159  0  0  1  0            999 V2000
  -30.5694  -14.6346   20.4636 C   0  0  0  0  0  0
  -30.4375  -12.3747   19.4542 C   0  0  0  0  0  0
  -29.5034  -12.4882   18.2269 C   0  0  0  0  0  0
  -28.0206  -12.3476   18.6293 C   0  0  0  0  0  0
  -27.6466  -13.2095   19.8617 C   0  0  2  0  0  0
  -28.6883  -13.0347   20.9889 C   0  0  0  0  0  0
  -25.2482  -13.8115   20.5805 C   0  0  0  0  0  0
  -24.1780  -13.0368   20.9247 C   0  0  0  0  0  0
  -24.6330  -11.6829   20.8724 C   0  0  0  0  0  0
  -23.9007  -10.4242   21.0371 C   0  0  0  0  0  0
  -24.3580   -9.4176   21.9152 C   0  0  0  0  0  0
  -23.6269   -8.2208   22.0714 C   0  0  0  0  0  0
  -22.4250   -8.0239   21.3505 C   0  0  0  0  0  0
  -21.9878   -9.0199   20.4601 C   0  0  0  0  0  0
  -22.7190  -10.2069   20.3005 C   0  0  0  0  0  0
  -21.6840   -6.0697   22.5271 C   0  0  0  0  0  0
  -21.4011   -6.5601   23.8209 C   0  0  0  0  0  0
  -21.3639   -5.6749   24.9170 C   0  0  0  0  0  0
  -21.6057   -4.3019   24.7231 C   0  0  0  0  0  0
  -21.8837   -3.8099   23.4356 C   0  0  0  0  0  0
  -21.9214   -4.6923   22.3407 C   0  0  0  0  0  0
  -22.7798  -13.5147   21.1939 C   0  0  0  0  0  0
  -22.1678   -4.2104   21.0990 F   0  0  0  0  0  0
  -21.5632   -3.4523   25.7754 F   0  0  0  0  0  0
  -30.0054  -13.3882   20.4344 N   0  0  0  0  0  0
  -26.2916  -12.9320   20.3285 N   0  0  0  0  0  0
  -25.9251  -11.6454   20.5682 N   0  0  0  0  0  0
  -22.0432  -12.8121   22.0442 N   0  0  0  0  0  0
  -25.3975  -15.1883   20.4464 N   0  0  0  0  0  0
  -31.7313  -14.8276   20.0909 O   0  0  0  0  0  0
  -21.6613   -6.8837   21.4218 O   0  0  0  0  0  0
  -22.3481  -14.5460   20.6784 O   0  0  0  0  0  0
  -24.6285  -31.8629   23.2024 C   0  0  0  0  0  0
  -25.9139  -32.4787   23.8373 C   0  0  1  0  0  0
  -27.2137  -27.3100   20.1007 C   0  0  0  0  0  0
  -25.5976  -33.8597   24.2301 N   0  0  0  0  0  0
  -23.4203  -30.4892   21.5454 C   0  0  2  0  0  0
  -24.8637  -28.9427   20.1087 C   0  0  0  0  0  0
  -22.7474  -29.4696   22.4962 C   0  0  0  0  0  0
  -18.0308  -28.1248   22.8629 C   0  0  0  0  0  0
  -24.1490  -36.7259   23.2647 C   0  0  0  0  0  0
  -25.9651  -30.7818   21.3832 C   0  0  0  0  0  0
  -26.0340  -29.4114   20.7175 C   0  0  0  0  0  0
  -27.2149  -28.6064   20.7044 C   0  0  0  0  0  0
  -26.0253  -26.9014   19.4588 C   0  0  0  0  0  0
  -24.8628  -27.6954   19.4652 C   0  0  0  0  0  0
  -23.6349  -29.8256   20.1604 C   0  0  0  0  0  0
  -25.4122  -36.3088   24.0351 C   0  0  1  0  0  0
  -20.5932  -28.3679   23.1222 C   0  0  2  0  0  0
  -20.6887  -26.9508   22.5064 C   0  0  0  0  0  0
  -19.5590  -26.6285   21.5187 C   0  0  0  0  0  0
  -18.1963  -26.7679   22.1963 C   0  0  0  0  0  0
  -19.1573  -28.8809   23.2871 C   0  0  0  0  0  0
  -18.9461  -30.1479   23.8762 C   0  0  0  0  0  0
  -17.6458  -30.6606   24.0375 C   0  0  0  0  0  0
  -25.9063  -34.9459   23.5117 C   0  0  0  0  0  0
  -16.5373  -29.9038   23.6248 C   0  0  0  0  0  0
  -16.7298  -28.6355   23.0459 C   0  0  0  0  0  0
  -26.4511  -31.6604   25.0747 C   0  0  0  0  0  0
  -25.3713  -31.3748   26.1438 C   0  0  0  0  0  0
  -27.0381  -30.3025   24.6259 C   0  0  0  0  0  0
  -27.6115  -32.4310   25.7479 C   0  0  0  0  0  0
  -27.5580  -37.1808   24.8484 C   0  0  0  0  0  0
  -21.4187  -29.3152   22.3744 N   0  0  0  0  0  0
  -26.4304  -37.3778   23.9403 N   0  0  0  0  0  0
  -24.6900  -31.0616   22.0994 N   0  0  0  0  0  0
  -23.4217  -28.8182   23.2988 O   0  0  0  0  0  0
  -28.3253  -26.4520   20.0917 O   0  0  0  0  0  0
  -26.5605  -34.8913   22.4669 O   0  0  0  0  0  0
  -23.5450  -32.1452   23.7340 O   0  0  0  0  0  0
  -30.6058  -18.0277   20.5970 C   0  0  0  0  0  0
  -28.2069  -18.8986   19.4724 C   0  0  0  0  0  0
  -29.6223  -17.0407   20.3359 C   0  0  0  0  0  0
  -29.1403  -19.9147   19.8249 C   0  0  0  0  0  0
  -30.3694  -19.4232   20.3653 C   0  0  0  0  0  0
  -28.4266  -17.5135   19.7366 C   0  0  0  0  0  0
  -29.0604  -23.9215   19.7337 C   0  0  0  0  0  0
  -28.1321  -25.0142   20.4414 C   0  0  0  0  0  0
  -29.2747  -22.4355   20.3354 C   0  0  0  0  0  0
  -29.7082  -15.6466   20.7821 N   0  0  0  0  0  0
  -28.8024  -21.2736   19.5527 O   0  0  0  0  0  0
  -31.3692  -20.2841   20.6595 F   0  0  0  0  0  0
  -27.4566  -16.6269   19.4151 F   0  0  0  0  0  0
  -31.4730  -12.5241   19.1477 H   0  0  0  0  0  0
  -30.3957  -11.3772   19.8918 H   0  0  0  0  0  0
  -29.7553  -11.7248   17.4898 H   0  0  0  0  0  0
  -29.6578  -13.4505   17.7354 H   0  0  0  0  0  0
  -27.8379  -11.2939   18.8441 H   0  0  0  0  0  0
  -27.3722  -12.5986   17.7873 H   0  0  0  0  0  0
  -27.6639  -14.2459   19.5281 H   0  0  0  0  0  0
  -28.6892  -12.0028   21.3442 H   0  0  0  0  0  0
  -28.4279  -13.6451   21.8543 H   0  0  0  0  0  0
  -25.2725   -9.5681   22.4714 H   0  0  0  0  0  0
  -23.9995   -7.4608   22.7437 H   0  0  0  0  0  0
  -21.0804   -8.8689   19.8922 H   0  0  0  0  0  0
  -22.3651  -10.9588   19.6103 H   0  0  0  0  0  0
  -21.1970   -7.6103   23.9712 H   0  0  0  0  0  0
  -21.1441   -6.0459   25.9074 H   0  0  0  0  0  0
  -22.0637   -2.7564   23.2869 H   0  0  0  0  0  0
  -22.4102  -11.9799   22.4840 H   0  0  0  0  0  0
  -21.0997  -13.1005   22.2624 H   0  0  0  0  0  0
  -24.6094  -15.8101   20.6039 H   0  0  0  0  0  0
  -26.2187  -15.6712   20.0929 H   0  0  0  0  0  0
  -26.7234  -32.5420   23.1148 H   0  0  0  0  0  0
  -25.0217  -33.9762   25.0508 H   0  0  0  0  0  0
  -22.7166  -31.3125   21.4010 H   0  0  0  0  0  0
  -23.3774  -35.9578   23.3348 H   0  0  0  0  0  0
  -24.3556  -36.8794   22.2048 H   0  0  0  0  0  0
  -23.7202  -37.6471   23.6599 H   0  0  0  0  0  0
  -26.1139  -31.5508   20.6256 H   0  0  0  0  0  0
  -26.8416  -30.8144   22.0183 H   0  0  0  0  0  0
  -28.1130  -28.9684   21.1886 H   0  0  0  0  0  0
  -25.9819  -25.9585   18.9364 H   0  0  0  0  0  0
  -23.9744  -27.3392   18.9596 H   0  0  0  0  0  0
  -23.7532  -30.6013   19.4049 H   0  0  0  0  0  0
  -22.7532  -29.2564   19.8610 H   0  0  0  0  0  0
  -25.1299  -36.1983   25.0851 H   0  0  0  0  0  0
  -21.0077  -28.3091   24.1320 H   0  0  0  0  0  0
  -21.6603  -26.7843   22.0408 H   0  0  0  0  0  0
  -20.6403  -26.2323   23.3285 H   0  0  0  0  0  0
  -19.6734  -25.6154   21.1311 H   0  0  0  0  0  0
  -19.6162  -27.3022   20.6627 H   0  0  0  0  0  0
  -18.0852  -25.9972   22.9615 H   0  0  0  0  0  0
  -17.4004  -26.6003   21.4677 H   0  0  0  0  0  0
  -19.7923  -30.7360   24.2036 H   0  0  0  0  0  0
  -17.4956  -31.6344   24.4800 H   0  0  0  0  0  0
  -15.5364  -30.2950   23.7530 H   0  0  0  0  0  0
  -15.8689  -28.0575   22.7378 H   0  0  0  0  0  0
  -24.5901  -30.7107   25.7692 H   0  0  0  0  0  0
  -24.8915  -32.2938   26.4830 H   0  0  0  0  0  0
  -25.8008  -30.8895   27.0220 H   0  0  0  0  0  0
  -26.3013  -29.6717   24.1279 H   0  0  0  0  0  0
  -27.4056  -29.7312   25.4795 H   0  0  0  0  0  0
  -27.8865  -30.4280   23.9529 H   0  0  0  0  0  0
  -27.2814  -33.3619   26.2096 H   0  0  0  0  0  0
  -28.3909  -32.6861   25.0278 H   0  0  0  0  0  0
  -28.0837  -31.8413   26.5349 H   0  0  0  0  0  0
  -28.2670  -38.0039   24.7488 H   0  0  0  0  0  0
  -28.1034  -36.2590   24.6416 H   0  0  0  0  0  0
  -27.2295  -37.1545   25.8887 H   0  0  0  0  0  0
  -20.9322  -29.9001   21.7082 H   0  0  0  0  0  0
  -26.0203  -38.2869   24.1373 H   0  0  0  0  0  0
  -31.5509  -17.7198   21.0162 H   0  0  0  0  0  0
  -27.2756  -19.1808   19.0055 H   0  0  0  0  0  0
  -30.0428  -24.3913   19.7473 H   0  0  0  0  0  0
  -28.8063  -23.8528   18.6740 H   0  0  0  0  0  0
  -27.0954  -24.6996   20.3392 H   0  0  0  0  0  0
  -28.3207  -24.9651   21.5138 H   0  0  0  0  0  0
  -28.8169  -22.3814   21.3218 H   0  0  0  0  0  0
  -30.3461  -22.3338   20.5237 H   0  0  0  0  0  0
  -28.8304  -15.2850   21.1241 H   0  0  0  0  0  0
  1 25  1  0  0  0
  1 30  2  0  0  0
  1 80  1  0  0  0
  2  3  1  0  0  0
  2 25  1  0  0  0
  2 84  1  0  0  0
  2 85  1  0  0  0
  3  4  1  0  0  0
  3 86  1  0  0  0
  3 87  1  0  0  0
  4  5  1  0  0  0
  4 88  1  0  0  0
  4 89  1  0  0  0
  5  6  1  0  0  0
  5 26  1  0  0  0
  5 90  1  0  0  0
  6 25  1  0  0  0
  6 91  1  0  0  0
  6 92  1  0  0  0
  7  8  2  0  0  0
  7 26  1  0  0  0
  7 29  1  0  0  0
  8  9  1  0  0  0
  8 22  1  0  0  0
  9 10  1  0  0  0
  9 27  2  0  0  0
 10 11  2  0  0  0
 10 15  1  0  0  0
 11 12  1  0  0  0
 11 93  1  0  0  0
 12 13  2  0  0  0
 12 94  1  0  0  0
 13 14  1  0  0  0
 13 31  1  0  0  0
 14 15  2  0  0  0
 14 95  1  0  0  0
 15 96  1  0  0  0
 16 17  2  0  0  0
 16 21  1  0  0  0
 16 31  1  0  0  0
 17 18  1  0  0  0
 17 97  1  0  0  0
 18 19  2  0  0  0
 18 98  1  0  0  0
 19 20  1  0  0  0
 19 24  1  0  0  0
 20 21  2  0  0  0
 20 99  1  0  0  0
 21 23  1  0  0  0
 22 28  1  0  0  0
 22 32  2  0  0  0
 26 27  1  0  0  0
 28100  1  0  0  0
 28101  1  0  0  0
 29102  1  0  0  0
 29103  1  0  0  0
 33 34  1  0  0  0
 33 66  1  0  0  0
 33 70  2  0  0  0
 34 36  1  0  0  0
 34 59  1  0  0  0
 34104  1  0  0  0
 35 44  2  0  0  0
 35 45  1  0  0  0
 35 68  1  0  0  0
 36 56  1  0  0  0
 36105  1  0  0  0
 37 39  1  0  0  0
 37 47  1  0  0  0
 37 66  1  0  0  0
 37106  1  0  0  0
 38 43  2  0  0  0
 38 46  1  0  0  0
 38 47  1  0  0  0
 39 64  1  0  0  0
 39 67  2  0  0  0
 40 52  1  0  0  0
 40 53  2  0  0  0
 40 58  1  0  0  0
 41107  1  0  0  0
 41108  1  0  0  0
 41109  1  0  0  0
 41 48  1  0  0  0
 42 43  1  0  0  0
 42 66  1  0  0  0
 42110  1  0  0  0
 42111  1  0  0  0
 43 44  1  0  0  0
 44112  1  0  0  0
 45 46  2  0  0  0
 45113  1  0  0  0
 46114  1  0  0  0
 47115  1  0  0  0
 47116  1  0  0  0
 48 56  1  0  0  0
 48 65  1  0  0  0
 48117  1  0  0  0
 49 50  1  0  0  0
 49 53  1  0  0  0
 49 64  1  0  0  0
 49118  1  0  0  0
 50 51  1  0  0  0
 50119  1  0  0  0
 50120  1  0  0  0
 51 52  1  0  0  0
 51121  1  0  0  0
 51122  1  0  0  0
 52123  1  0  0  0
 52124  1  0  0  0
 53 54  1  0  0  0
 54 55  2  0  0  0
 54125  1  0  0  0
 55 57  1  0  0  0
 55126  1  0  0  0
 56 69  2  0  0  0
 57 58  2  0  0  0
 57127  1  0  0  0
 58128  1  0  0  0
 59 60  1  0  0  0
 59 61  1  0  0  0
 59 62  1  0  0  0
 60129  1  0  0  0
 60130  1  0  0  0
 60131  1  0  0  0
 61132  1  0  0  0
 61133  1  0  0  0
 61134  1  0  0  0
 62135  1  0  0  0
 62136  1  0  0  0
 62137  1  0  0  0
 63 65  1  0  0  0
 63138  1  0  0  0
 63139  1  0  0  0
 63140  1  0  0  0
 64141  1  0  0  0
 65142  1  0  0  0
 68 78  1  0  0  0
 71 73  2  0  0  0
 71 75  1  0  0  0
 71143  1  0  0  0
 72 74  1  0  0  0
 72 76  2  0  0  0
 72144  1  0  0  0
 73 76  1  0  0  0
 73 80  1  0  0  0
 74 75  2  0  0  0
 74 81  1  0  0  0
 75 82  1  0  0  0
 76 83  1  0  0  0
 77 78  1  0  0  0
 77 79  1  0  0  0
 77145  1  0  0  0
 77146  1  0  0  0
 78147  1  0  0  0
 78148  1  0  0  0
 79 81  1  0  0  0
 79149  1  0  0  0
 79150  1  0  0  0
 80151  1  0  0  0
M  ISO  4   1 100  68 101  78 101  80 100
M  END
> <chiral flag>
0

> <version>
0

> <s_m_source_file>
/data/baiqing/PycharmProjects/Reinvent-master-3.2/result/LINK_invent/BTK/process_docking_weight1_custom_product_contain_oxygen_bond_distance_aromatic_linkinvent_7_9_3/rearranged_h_0010.sdf

> <i_m_source_file_index>
41

> <r_mmod_Potential_Energy-OPLS-2005>
102.17041015625

> <r_mmod_Stretch_Energy-OPLS-2005>
90.379280090332

> <r_mmod_Bend_Energy-OPLS-2005>
159.205230712891

> <r_mmod_Torsional_Energy-OPLS-2005>
268.782775878906

> <r_mmod_Improper_Torsional_Energy-OPLS-2005>
5.80839776992798

> <r_mmod_Van_der_Waal_Energy-OPLS-2005>
144.05290222168

> <r_mmod_Electrostatic_Energy-OPLS-2005>
-418.21044921875

> <r_mmod_Solvation_Energy-OPLS-2005>
-199.910629272461

> <b_mmod_Minimization_Converged-OPLS-2005>
0

> <r_mmod_RMS_Derivative-OPLS-2005>
7.06093120574951

$$$$
41
                    3D
 Structure written by MMmdl.
157165  0  0  1  0            999 V2000
  -30.7507  -14.3983   20.6875 C   0  0  0  0  0  0
  -30.4186  -12.3062   19.4057 C   0  0  0  0  0  0
  -29.4870  -12.5216   18.1978 C   0  0  0  0  0  0
  -28.0120  -12.3655   18.6137 C   0  0  0  0  0  0
  -27.6639  -13.1995   19.8736 C   0  0  2  0  0  0
  -28.6992  -12.9619   20.9934 C   0  0  0  0  0  0
  -25.2609  -13.8150   20.5680 C   0  0  0  0  0  0
  -24.1846  -13.0438   20.9155 C   0  0  0  0  0  0
  -24.6389  -11.6903   20.8719 C   0  0  0  0  0  0
  -23.9056  -10.4292   21.0401 C   0  0  0  0  0  0
  -24.3614   -9.4209   21.9179 C   0  0  0  0  0  0
  -23.6288   -8.2243   22.0748 C   0  0  0  0  0  0
  -22.4268   -8.0279   21.3541 C   0  0  0  0  0  0
  -21.9903   -9.0251   20.4643 C   0  0  0  0  0  0
  -22.7229  -10.2130   20.3050 C   0  0  0  0  0  0
  -21.6854   -6.0735   22.5279 C   0  0  0  0  0  0
  -21.4013   -6.5641   23.8211 C   0  0  0  0  0  0
  -21.3662   -5.6795   24.9175 C   0  0  0  0  0  0
  -21.6043   -4.3056   24.7230 C   0  0  0  0  0  0
  -21.8823   -3.8146   23.4352 C   0  0  0  0  0  0
  -21.9192   -4.6961   22.3408 C   0  0  0  0  0  0
  -22.7874  -13.5240   21.1846 C   0  0  0  0  0  0
  -22.1661   -4.2144   21.0984 F   0  0  0  0  0  0
  -21.5631   -3.4540   25.7745 F   0  0  0  0  0  0
  -30.0392  -13.2608   20.4596 N   0  0  0  0  0  0
  -26.3034  -12.9307   20.3351 N   0  0  0  0  0  0
  -25.9307  -11.6470   20.5735 N   0  0  0  0  0  0
  -22.0532  -12.8211   22.0407 N   0  0  0  0  0  0
  -25.4372  -15.1868   20.4144 N   0  0  0  0  0  0
  -31.7774  -14.6658   20.0535 O   0  0  0  0  0  0
  -21.6637   -6.8870   21.4238 O   0  0  0  0  0  0
  -22.3550  -14.5554   20.6716 O   0  0  0  0  0  0
  -24.6129  -31.8680   23.2103 C   0  0  0  0  0  0
  -25.9025  -32.4830   23.8400 C   0  0  1  0  0  0
  -27.2400  -27.4576   20.0894 C   0  0  0  0  0  0
  -25.5883  -33.8626   24.2330 N   0  0  0  0  0  0
  -23.4002  -30.4904   21.5514 C   0  0  2  0  0  0
  -24.8473  -28.9545   20.1180 C   0  0  0  0  0  0
  -22.7389  -29.4670   22.5011 C   0  0  0  0  0  0
  -18.0270  -28.1385   22.8491 C   0  0  0  0  0  0
  -24.1485  -36.7318   23.2645 C   0  0  0  0  0  0
  -25.9264  -30.8403   21.3583 C   0  0  0  0  0  0
  -26.0063  -29.4754   20.7080 C   0  0  0  0  0  0
  -27.2085  -28.7352   20.6873 C   0  0  0  0  0  0
  -26.0665  -26.9403   19.5027 C   0  0  0  0  0  0
  -24.8711  -27.6853   19.5123 C   0  0  0  0  0  0
  -23.6064  -29.8178   20.1682 C   0  0  0  0  0  0
  -25.4104  -36.3115   24.0344 C   0  0  1  0  0  0
  -20.5855  -28.3668   23.1337 C   0  0  2  0  0  0
  -20.6759  -26.9406   22.5448 C   0  0  0  0  0  0
  -19.5757  -26.6381   21.5223 C   0  0  0  0  0  0
  -18.1926  -26.7925   22.1632 C   0  0  0  0  0  0
  -19.1516  -28.8839   23.2913 C   0  0  0  0  0  0
  -18.9443  -30.1442   23.8934 C   0  0  0  0  0  0
  -17.6445  -30.6582   24.0578 C   0  0  0  0  0  0
  -25.9025  -34.9479   23.5135 C   0  0  0  0  0  0
  -16.5340  -29.9085   23.6329 C   0  0  0  0  0  0
  -16.7259  -28.6502   23.0355 C   0  0  0  0  0  0
  -26.4464  -31.6614   25.0728 C   0  0  0  0  0  0
  -25.3736  -31.3711   26.1483 C   0  0  0  0  0  0
  -27.0296  -30.3068   24.6077 C   0  0  0  0  0  0
  -27.6053  -32.4321   25.7485 C   0  0  0  0  0  0
  -27.5578  -37.1821   24.8471 C   0  0  0  0  0  0
  -21.4114  -29.3047   22.3748 N   0  0  0  0  0  0
  -26.4298  -37.3793   23.9402 N   0  0  0  0  0  0
  -24.6650  -31.0789   22.0996 N   0  0  0  0  0  0
  -23.4165  -28.8215   23.3049 O   0  0  0  0  0  0
  -28.4061  -26.7306   20.0727 O   0  0  0  0  0  0
  -26.5590  -34.8926   22.4696 O   0  0  0  0  0  0
  -23.5323  -32.1415   23.7508 O   0  0  0  0  0  0
  -26.7537  -20.1438   23.4257 C   0  0  0  0  0  0
  -27.0677  -21.0954   22.4401 C   0  0  0  0  0  0
  -27.3233  -18.8597   23.3665 C   0  0  0  0  0  0
  -28.5027  -19.4641   21.3207 C   0  0  0  0  0  0
  -27.9560  -20.7715   21.3889 C   0  0  0  0  0  0
  -28.2006  -18.5054   22.3204 C   0  0  0  0  0  0
  -28.2741  -21.7983   20.3357 C   0  0  0  0  0  0
  -30.3263  -15.3911   21.7891 C   0  0  0  0  0  0
  -29.4965  -16.5901   21.2714 C   0  0  0  0  0  0
  -28.5229  -24.2588   19.9581 C   0  0  0  0  0  0
  -28.3635  -25.5195   20.8315 C   0  0  0  0  0  0
  -28.7344  -17.2062   22.3582 N   0  0  0  0  0  0
  -28.3707  -23.0587   20.7780 N   0  0  0  0  0  0
  -28.4491  -21.4797   19.1586 O   0  0  0  0  0  0
  -31.4616  -12.4099   19.1015 H   0  0  0  0  0  0
  -30.3227  -11.2865   19.7815 H   0  0  0  0  0  0
  -29.7290  -11.8114   17.4066 H   0  0  0  0  0  0
  -29.6482  -13.5166   17.7798 H   0  0  0  0  0  0
  -27.8327  -11.3071   18.8090 H   0  0  0  0  0  0
  -27.3554  -12.6373   17.7865 H   0  0  0  0  0  0
  -27.7162  -14.2495   19.5874 H   0  0  0  0  0  0
  -28.6663  -11.9240   21.3262 H   0  0  0  0  0  0
  -28.4199  -13.5497   21.8640 H   0  0  0  0  0  0
  -25.2767   -9.5685   22.4740 H   0  0  0  0  0  0
  -24.0008   -7.4636   22.7466 H   0  0  0  0  0  0
  -21.0834   -8.8767   19.8949 H   0  0  0  0  0  0
  -22.3691  -10.9666   19.6154 H   0  0  0  0  0  0
  -21.1999   -7.6150   23.9708 H   0  0  0  0  0  0
  -21.1485   -6.0530   25.9076 H   0  0  0  0  0  0
  -22.0598   -2.7607   23.2856 H   0  0  0  0  0  0
  -22.4155  -11.9847   22.4752 H   0  0  0  0  0  0
  -21.1157  -13.1220   22.2668 H   0  0  0  0  0  0
  -24.6844  -15.8518   20.5530 H   0  0  0  0  0  0
  -26.3151  -15.6277   20.1708 H   0  0  0  0  0  0
  -26.7096  -32.5552   23.1172 H   0  0  0  0  0  0
  -25.0055  -33.9790   25.0489 H   0  0  0  0  0  0
  -22.6896  -31.3074   21.4131 H   0  0  0  0  0  0
  -23.3733  -35.9669   23.3334 H   0  0  0  0  0  0
  -24.3582  -36.8898   22.2054 H   0  0  0  0  0  0
  -23.7253  -37.6544   23.6629 H   0  0  0  0  0  0
  -26.0298  -31.6044   20.5861 H   0  0  0  0  0  0
  -26.8180  -30.8980   21.9716 H   0  0  0  0  0  0
  -28.1069  -29.1367   21.1354 H   0  0  0  0  0  0
  -26.0780  -25.9675   19.0320 H   0  0  0  0  0  0
  -23.9812  -27.2760   19.0544 H   0  0  0  0  0  0
  -23.7106  -30.5923   19.4079 H   0  0  0  0  0  0
  -22.7312  -29.2356   19.8754 H   0  0  0  0  0  0
  -25.1284  -36.1995   25.0840 H   0  0  0  0  0  0
  -20.9937  -28.3249   24.1464 H   0  0  0  0  0  0
  -20.5608  -26.2302   23.3643 H   0  0  0  0  0  0
  -21.6650  -26.7418   22.1288 H   0  0  0  0  0  0
  -19.6911  -25.6289   21.1251 H   0  0  0  0  0  0
  -19.6725  -27.3192   20.6753 H   0  0  0  0  0  0
  -17.4197  -26.6650   21.4041 H   0  0  0  0  0  0
  -18.0334  -26.0076   22.9047 H   0  0  0  0  0  0
  -19.7924  -30.7253   24.2325 H   0  0  0  0  0  0
  -17.4997  -31.6259   24.5177 H   0  0  0  0  0  0
  -15.5346  -30.2995   23.7629 H   0  0  0  0  0  0
  -15.8658  -28.0831   22.7062 H   0  0  0  0  0  0
  -24.5891  -30.7082   25.7824 H   0  0  0  0  0  0
  -24.8947  -32.2864   26.4968 H   0  0  0  0  0  0
  -25.8087  -30.8854   27.0223 H   0  0  0  0  0  0
  -26.2838  -29.6834   24.1130 H   0  0  0  0  0  0
  -27.4098  -29.7297   25.4517 H   0  0  0  0  0  0
  -27.8654  -30.4424   23.9205 H   0  0  0  0  0  0
  -27.2686  -33.3594   26.2124 H   0  0  0  0  0  0
  -28.3830  -32.6913   25.0294 H   0  0  0  0  0  0
  -28.0755  -31.8405   26.5347 H   0  0  0  0  0  0
  -28.2629  -38.0084   24.7481 H   0  0  0  0  0  0
  -28.1035  -36.2618   24.6339 H   0  0  0  0  0  0
  -27.2296  -37.1533   25.8877 H   0  0  0  0  0  0
  -20.9266  -29.8775   21.6982 H   0  0  0  0  0  0
  -26.0191  -38.2885   24.1358 H   0  0  0  0  0  0
  -26.0760  -20.4000   24.2291 H   0  0  0  0  0  0
  -26.6127  -22.0753   22.4973 H   0  0  0  0  0  0
  -27.0724  -18.1464   24.1392 H   0  0  0  0  0  0
  -29.1638  -19.2217   20.5014 H   0  0  0  0  0  0
  -29.8277  -14.8701   22.6032 H   0  0  0  0  0  0
  -31.2346  -15.7791   22.2506 H   0  0  0  0  0  0
  -28.8013  -16.2659   20.4946 H   0  0  0  0  0  0
  -30.1720  -17.3114   20.8093 H   0  0  0  0  0  0
  -29.4982  -24.2515   19.4681 H   0  0  0  0  0  0
  -27.7700  -24.2541   19.1693 H   0  0  0  0  0  0
  -29.1779  -25.5617   21.5559 H   0  0  0  0  0  0
  -27.4464  -25.4495   21.4214 H   0  0  0  0  0  0
  -28.4067  -16.5917   23.0988 H   0  0  0  0  0  0
  -28.2723  -23.1931   21.7741 H   0  0  0  0  0  0
  1 25  1  0  0  0
  1 30  2  0  0  0
  1 78  1  0  0  0
  2  3  1  0  0  0
  2 25  1  0  0  0
  2 85  1  0  0  0
  2 86  1  0  0  0
  3  4  1  0  0  0
  3 87  1  0  0  0
  3 88  1  0  0  0
  4  5  1  0  0  0
  4 89  1  0  0  0
  4 90  1  0  0  0
  5  6  1  0  0  0
  5 26  1  0  0  0
  5 91  1  0  0  0
  6 25  1  0  0  0
  6 92  1  0  0  0
  6 93  1  0  0  0
  7  8  2  0  0  0
  7 26  1  0  0  0
  7 29  1  0  0  0
  8  9  1  0  0  0
  8 22  1  0  0  0
  9 10  1  0  0  0
  9 27  2  0  0  0
 10 11  2  0  0  0
 10 15  1  0  0  0
 11 12  1  0  0  0
 11 94  1  0  0  0
 12 13  2  0  0  0
 12 95  1  0  0  0
 13 14  1  0  0  0
 13 31  1  0  0  0
 14 15  2  0  0  0
 14 96  1  0  0  0
 15 97  1  0  0  0
 16 17  2  0  0  0
 16 21  1  0  0  0
 16 31  1  0  0  0
 17 18  1  0  0  0
 17 98  1  0  0  0
 18 19  2  0  0  0
 18 99  1  0  0  0
 19 20  1  0  0  0
 19 24  1  0  0  0
 20 21  2  0  0  0
 20100  1  0  0  0
 21 23  1  0  0  0
 22 28  1  0  0  0
 22 32  2  0  0  0
 26 27  1  0  0  0
 28101  1  0  0  0
 28102  1  0  0  0
 29103  1  0  0  0
 29104  1  0  0  0
 33 34  1  0  0  0
 33 66  1  0  0  0
 33 70  2  0  0  0
 34 36  1  0  0  0
 34 59  1  0  0  0
 34105  1  0  0  0
 35 44  2  0  0  0
 35 45  1  0  0  0
 35 68  1  0  0  0
 36 56  1  0  0  0
 36106  1  0  0  0
 37 39  1  0  0  0
 37 47  1  0  0  0
 37 66  1  0  0  0
 37107  1  0  0  0
 38 43  2  0  0  0
 38 46  1  0  0  0
 38 47  1  0  0  0
 39 64  1  0  0  0
 39 67  2  0  0  0
 40 52  1  0  0  0
 40 53  2  0  0  0
 40 58  1  0  0  0
 41108  1  0  0  0
 41109  1  0  0  0
 41110  1  0  0  0
 41 48  1  0  0  0
 42 43  1  0  0  0
 42 66  1  0  0  0
 42111  1  0  0  0
 42112  1  0  0  0
 43 44  1  0  0  0
 44113  1  0  0  0
 45 46  2  0  0  0
 45114  1  0  0  0
 46115  1  0  0  0
 47116  1  0  0  0
 47117  1  0  0  0
 48 56  1  0  0  0
 48 65  1  0  0  0
 48118  1  0  0  0
 49 50  1  0  0  0
 49 53  1  0  0  0
 49 64  1  0  0  0
 49119  1  0  0  0
 50 51  1  0  0  0
 50120  1  0  0  0
 50121  1  0  0  0
 51 52  1  0  0  0
 51122  1  0  0  0
 51123  1  0  0  0
 52124  1  0  0  0
 52125  1  0  0  0
 53 54  1  0  0  0
 54 55  2  0  0  0
 54126  1  0  0  0
 55 57  1  0  0  0
 55127  1  0  0  0
 56 69  2  0  0  0
 57 58  2  0  0  0
 57128  1  0  0  0
 58129  1  0  0  0
 59 60  1  0  0  0
 59 61  1  0  0  0
 59 62  1  0  0  0
 60130  1  0  0  0
 60131  1  0  0  0
 60132  1  0  0  0
 61133  1  0  0  0
 61134  1  0  0  0
 61135  1  0  0  0
 62136  1  0  0  0
 62137  1  0  0  0
 62138  1  0  0  0
 63 65  1  0  0  0
 63139  1  0  0  0
 63140  1  0  0  0
 63141  1  0  0  0
 64142  1  0  0  0
 65143  1  0  0  0
 68 81  1  0  0  0
 71 72  2  0  0  0
 71 73  1  0  0  0
 71144  1  0  0  0
 72 75  1  0  0  0
 72145  1  0  0  0
 73 76  2  0  0  0
 73146  1  0  0  0
 74 75  2  0  0  0
 74 76  1  0  0  0
 74147  1  0  0  0
 75 77  1  0  0  0
 76 82  1  0  0  0
 77 83  1  0  0  0
 77 84  2  0  0  0
 78 79  1  0  0  0
 78148  1  0  0  0
 78149  1  0  0  0
 79 82  1  0  0  0
 79150  1  0  0  0
 79151  1  0  0  0
 80 81  1  0  0  0
 80 83  1  0  0  0
 80152  1  0  0  0
 80153  1  0  0  0
 81154  1  0  0  0
 81155  1  0  0  0
 82156  1  0  0  0
 83157  1  0  0  0
M  ISO  4   1 100  68 101  78 100  81 101
M  END
> <chiral flag>
0

> <version>
0

> <s_m_source_file>
/data/baiqing/PycharmProjects/Reinvent-master-3.2/result/LINK_invent/BTK/process_docking_weight1_custom_product_contain_oxygen_bond_distance_aromatic_linkinvent_7_9_3/rearranged_h_0010.sdf

> <i_m_source_file_index>
42

> <r_mmod_Potential_Energy-OPLS-2005>
-123.520927429199

> <r_mmod_Stretch_Energy-OPLS-2005>
33.8877487182617

> <r_mmod_Bend_Energy-OPLS-2005>
102.947319030762

> <r_mmod_Torsional_Energy-OPLS-2005>
198.071487426758

> <r_mmod_Improper_Torsional_Energy-OPLS-2005>
2.15583467483521

> <r_mmod_Van_der_Waal_Energy-OPLS-2005>
147.442337036133

> <r_mmod_Electrostatic_Energy-OPLS-2005>
-388.5830078125

> <r_mmod_Solvation_Energy-OPLS-2005>
-227.101486206055

> <b_mmod_Minimization_Converged-OPLS-2005>
0

> <r_mmod_RMS_Derivative-OPLS-2005>
1.37066948413849

$$$$
42
                    3D
 Structure written by MMmdl.
148156  0  0  1  0            999 V2000
  -30.5214  -14.9152   20.4322 C   0  0  0  0  0  0
  -30.4560  -12.5613   19.4932 C   0  0  0  0  0  0
  -29.5263  -12.5225   18.2560 C   0  0  0  0  0  0
  -28.0560  -12.3176   18.6734 C   0  0  0  0  0  0
  -27.6385  -13.2396   19.8491 C   0  0  2  0  0  0
  -28.6855  -13.2218   20.9846 C   0  0  0  0  0  0
  -25.2459  -13.8158   20.5697 C   0  0  0  0  0  0
  -24.1765  -13.0390   20.9179 C   0  0  0  0  0  0
  -24.6393  -11.6885   20.8728 C   0  0  0  0  0  0
  -23.9070  -10.4267   21.0393 C   0  0  0  0  0  0
  -24.3618   -9.4189   21.9177 C   0  0  0  0  0  0
  -23.6287   -8.2227   22.0750 C   0  0  0  0  0  0
  -22.4268   -8.0269   21.3541 C   0  0  0  0  0  0
  -21.9903   -9.0243   20.4647 C   0  0  0  0  0  0
  -22.7235  -10.2117   20.3050 C   0  0  0  0  0  0
  -21.6852   -6.0726   22.5279 C   0  0  0  0  0  0
  -21.4012   -6.5629   23.8210 C   0  0  0  0  0  0
  -21.3659   -5.6784   24.9173 C   0  0  0  0  0  0
  -21.6046   -4.3046   24.7225 C   0  0  0  0  0  0
  -21.8819   -3.8139   23.4345 C   0  0  0  0  0  0
  -21.9194   -4.6956   22.3402 C   0  0  0  0  0  0
  -22.7791  -13.5179   21.1863 C   0  0  0  0  0  0
  -22.1663   -4.2144   21.0979 F   0  0  0  0  0  0
  -21.5632   -3.4530   25.7737 F   0  0  0  0  0  0
  -29.9702  -13.6372   20.3996 N   0  0  0  0  0  0
  -26.2930  -12.9409   20.3303 N   0  0  0  0  0  0
  -25.9337  -11.6539   20.5759 N   0  0  0  0  0  0
  -22.0457  -12.8183   22.0447 N   0  0  0  0  0  0
  -25.4009  -15.1882   20.4184 N   0  0  0  0  0  0
  -31.7098  -15.0488   20.1197 O   0  0  0  0  0  0
  -21.6633   -6.8868   21.4238 O   0  0  0  0  0  0
  -22.3464  -14.5487   20.6720 O   0  0  0  0  0  0
  -24.6417  -31.8452   23.1899 C   0  0  0  0  0  0
  -25.9199  -32.4701   23.8276 C   0  0  1  0  0  0
  -27.2222  -27.1526   20.1448 C   0  0  0  0  0  0
  -25.5963  -33.8506   24.2202 N   0  0  0  0  0  0
  -23.4442  -30.4662   21.5348 C   0  0  2  0  0  0
  -24.8945  -28.8965   20.1100 C   0  0  0  0  0  0
  -22.7558  -29.4553   22.4857 C   0  0  0  0  0  0
  -18.0310  -28.1394   22.8468 C   0  0  0  0  0  0
  -24.1494  -36.7248   23.2642 C   0  0  0  0  0  0
  -25.9996  -30.7246   21.3863 C   0  0  0  0  0  0
  -26.0726  -29.3379   20.7264 C   0  0  0  0  0  0
  -27.2371  -28.4831   20.7255 C   0  0  0  0  0  0
  -26.0147  -26.8095   19.4943 C   0  0  0  0  0  0
  -24.8785  -27.6452   19.4787 C   0  0  0  0  0  0
  -23.6702  -29.7971   20.1536 C   0  0  0  0  0  0
  -25.4127  -36.3035   24.0318 C   0  0  1  0  0  0
  -20.5917  -28.3714   23.1234 C   0  0  2  0  0  0
  -20.6791  -26.9415   22.5409 C   0  0  0  0  0  0
  -19.5773  -26.6381   21.5204 C   0  0  0  0  0  0
  -18.1953  -26.7936   22.1610 C   0  0  0  0  0  0
  -19.1564  -28.8872   23.2845 C   0  0  0  0  0  0
  -18.9482  -30.1470   23.8868 C   0  0  0  0  0  0
  -17.6479  -30.6588   24.0559 C   0  0  0  0  0  0
  -25.9072  -34.9408   23.5067 C   0  0  0  0  0  0
  -16.5370  -29.9079   23.6341 C   0  0  0  0  0  0
  -16.7295  -28.6502   23.0351 C   0  0  0  0  0  0
  -26.4528  -31.6562   25.0707 C   0  0  0  0  0  0
  -25.3724  -31.3763   26.1419 C   0  0  0  0  0  0
  -27.0377  -30.2957   24.6274 C   0  0  0  0  0  0
  -27.6085  -32.4306   25.7471 C   0  0  0  0  0  0
  -27.5583  -37.1777   24.8465 C   0  0  0  0  0  0
  -21.4253  -29.3042   22.3607 N   0  0  0  0  0  0
  -26.4289  -37.3751   23.9413 N   0  0  0  0  0  0
  -24.7147  -31.0326   22.0924 N   0  0  0  0  0  0
  -23.4214  -28.8101   23.2998 O   0  0  0  0  0  0
  -28.2831  -26.1774   20.2081 O   0  0  0  0  0  0
  -26.5645  -34.8904   22.4637 O   0  0  0  0  0  0
  -23.5543  -32.1321   23.7134 O   0  0  0  0  0  0
  -30.5390  -18.5592   20.3119 C   0  0  0  0  0  0
  -30.2281  -19.9961   20.2516 C   0  0  0  0  0  0
  -27.9577  -19.5005   20.6233 C   0  0  0  0  0  0
  -29.5558  -17.5246   20.5374 C   0  0  0  0  0  0
  -28.9022  -20.5492   20.4006 C   0  0  0  0  0  0
  -28.2572  -18.0929   20.6946 C   0  0  0  0  0  0
  -27.9882  -24.6555   20.0887 C   0  0  0  0  0  0
  -28.9899  -23.3140   20.2894 C   0  0  0  0  0  0
  -29.6477  -16.0010   20.6557 N   0  0  0  0  0  0
  -28.3721  -21.9139   20.3335 O   0  0  0  0  0  0
  -27.2334  -17.2380   20.9233 F   0  0  0  0  0  0
  -31.4877  -12.7311   19.1805 H   0  0  0  0  0  0
  -30.4555  -11.5990   20.0081 H   0  0  0  0  0  0
  -29.8357  -11.7251   17.5785 H   0  0  0  0  0  0
  -29.6217  -13.4538   17.6962 H   0  0  0  0  0  0
  -27.9448  -11.2745   18.9718 H   0  0  0  0  0  0
  -27.3927  -12.4619   17.8198 H   0  0  0  0  0  0
  -27.6113  -14.2499   19.4400 H   0  0  0  0  0  0
  -28.7627  -12.2279   21.4282 H   0  0  0  0  0  0
  -28.3905  -13.8918   21.7938 H   0  0  0  0  0  0
  -25.2762   -9.5668   22.4749 H   0  0  0  0  0  0
  -23.9997   -7.4619   22.7465 H   0  0  0  0  0  0
  -21.0833   -8.8763   19.8957 H   0  0  0  0  0  0
  -22.3691  -10.9656   19.6162 H   0  0  0  0  0  0
  -21.2000   -7.6137   23.9710 H   0  0  0  0  0  0
  -21.1484   -6.0514   25.9077 H   0  0  0  0  0  0
  -22.0601   -2.7602   23.2845 H   0  0  0  0  0  0
  -22.4080  -11.9854   22.4844 H   0  0  0  0  0  0
  -21.1086  -13.1224   22.2682 H   0  0  0  0  0  0
  -24.6307  -15.8255   20.5832 H   0  0  0  0  0  0
  -26.2721  -15.6785   20.2515 H   0  0  0  0  0  0
  -26.7256  -32.5313   23.0995 H   0  0  0  0  0  0
  -25.0120  -33.9624   25.0359 H   0  0  0  0  0  0
  -22.7457  -31.2916   21.3825 H   0  0  0  0  0  0
  -23.3764  -35.9569   23.3295 H   0  0  0  0  0  0
  -24.3583  -36.8891   22.2059 H   0  0  0  0  0  0
  -23.7234  -37.6438   23.6676 H   0  0  0  0  0  0
  -26.1548  -31.4813   20.6161 H   0  0  0  0  0  0
  -26.8698  -30.7733   22.0286 H   0  0  0  0  0  0
  -28.1339  -28.8182   21.2272 H   0  0  0  0  0  0
  -25.9091  -25.8553   19.0022 H   0  0  0  0  0  0
  -23.9799  -27.3022   18.9846 H   0  0  0  0  0  0
  -23.8050  -30.5726   19.3985 H   0  0  0  0  0  0
  -22.7852  -29.2385   19.8435 H   0  0  0  0  0  0
  -25.1315  -36.1864   25.0809 H   0  0  0  0  0  0
  -21.0014  -28.3306   24.1352 H   0  0  0  0  0  0
  -20.5663  -26.2325   23.3628 H   0  0  0  0  0  0
  -21.6662  -26.7413   22.1223 H   0  0  0  0  0  0
  -19.6932  -25.6283   21.1254 H   0  0  0  0  0  0
  -19.6724  -27.3171   20.6718 H   0  0  0  0  0  0
  -17.4226  -26.6676   21.4011 H   0  0  0  0  0  0
  -18.0354  -26.0083   22.9012 H   0  0  0  0  0  0
  -19.7958  -30.7294   24.2221 H   0  0  0  0  0  0
  -17.5034  -31.6265   24.5168 H   0  0  0  0  0  0
  -15.5369  -30.2970   23.7682 H   0  0  0  0  0  0
  -15.8697  -28.0816   22.7070 H   0  0  0  0  0  0
  -24.5924  -30.7070   25.7768 H   0  0  0  0  0  0
  -24.8877  -32.2943   26.4751 H   0  0  0  0  0  0
  -25.8032  -30.9027   27.0250 H   0  0  0  0  0  0
  -26.2980  -29.6682   24.1288 H   0  0  0  0  0  0
  -27.4006  -29.7261   25.4840 H   0  0  0  0  0  0
  -27.8891  -30.4196   23.9575 H   0  0  0  0  0  0
  -27.2716  -33.3639   26.1992 H   0  0  0  0  0  0
  -28.3918  -32.6809   25.0300 H   0  0  0  0  0  0
  -28.0715  -31.8450   26.5425 H   0  0  0  0  0  0
  -28.2603  -38.0072   24.7516 H   0  0  0  0  0  0
  -28.1080  -36.2606   24.6286 H   0  0  0  0  0  0
  -27.2304  -37.1424   25.8870 H   0  0  0  0  0  0
  -20.9449  -29.8759   21.6797 H   0  0  0  0  0  0
  -26.0160  -38.2818   24.1433 H   0  0  0  0  0  0
  -31.5690  -18.2594   20.1836 H   0  0  0  0  0  0
  -31.0442  -20.6817   20.0723 H   0  0  0  0  0  0
  -26.9238  -19.7840   20.7511 H   0  0  0  0  0  0
  -27.1559  -24.4881   20.7736 H   0  0  0  0  0  0
  -27.5690  -24.5159   19.0932 H   0  0  0  0  0  0
  -29.5433  -23.4398   21.2200 H   0  0  0  0  0  0
  -29.7405  -23.3184   19.4988 H   0  0  0  0  0  0
  -28.7399  -15.6306   20.8942 H   0  0  0  0  0  0
  1 25  1  0  0  0
  1 30  2  0  0  0
  1 79  1  0  0  0
  2  3  1  0  0  0
  2 25  1  0  0  0
  2 82  1  0  0  0
  2 83  1  0  0  0
  3  4  1  0  0  0
  3 84  1  0  0  0
  3 85  1  0  0  0
  4  5  1  0  0  0
  4 86  1  0  0  0
  4 87  1  0  0  0
  5  6  1  0  0  0
  5 26  1  0  0  0
  5 88  1  0  0  0
  6 25  1  0  0  0
  6 89  1  0  0  0
  6 90  1  0  0  0
  7  8  2  0  0  0
  7 26  1  0  0  0
  7 29  1  0  0  0
  8  9  1  0  0  0
  8 22  1  0  0  0
  9 10  1  0  0  0
  9 27  2  0  0  0
 10 11  2  0  0  0
 10 15  1  0  0  0
 11 12  1  0  0  0
 11 91  1  0  0  0
 12 13  2  0  0  0
 12 92  1  0  0  0
 13 14  1  0  0  0
 13 31  1  0  0  0
 14 15  2  0  0  0
 14 93  1  0  0  0
 15 94  1  0  0  0
 16 17  2  0  0  0
 16 21  1  0  0  0
 16 31  1  0  0  0
 17 18  1  0  0  0
 17 95  1  0  0  0
 18 19  2  0  0  0
 18 96  1  0  0  0
 19 20  1  0  0  0
 19 24  1  0  0  0
 20 21  2  0  0  0
 20 97  1  0  0  0
 21 23  1  0  0  0
 22 28  1  0  0  0
 22 32  2  0  0  0
 26 27  1  0  0  0
 28 98  1  0  0  0
 28 99  1  0  0  0
 29100  1  0  0  0
 29101  1  0  0  0
 33 34  1  0  0  0
 33 66  1  0  0  0
 33 70  2  0  0  0
 34 36  1  0  0  0
 34 59  1  0  0  0
 34102  1  0  0  0
 35 44  2  0  0  0
 35 45  1  0  0  0
 35 68  1  0  0  0
 36 56  1  0  0  0
 36103  1  0  0  0
 37 39  1  0  0  0
 37 47  1  0  0  0
 37 66  1  0  0  0
 37104  1  0  0  0
 38 43  2  0  0  0
 38 46  1  0  0  0
 38 47  1  0  0  0
 39 64  1  0  0  0
 39 67  2  0  0  0
 40 52  1  0  0  0
 40 53  2  0  0  0
 40 58  1  0  0  0
 41105  1  0  0  0
 41106  1  0  0  0
 41107  1  0  0  0
 41 48  1  0  0  0
 42 43  1  0  0  0
 42 66  1  0  0  0
 42108  1  0  0  0
 42109  1  0  0  0
 43 44  1  0  0  0
 44110  1  0  0  0
 45 46  2  0  0  0
 45111  1  0  0  0
 46112  1  0  0  0
 47113  1  0  0  0
 47114  1  0  0  0
 48 56  1  0  0  0
 48 65  1  0  0  0
 48115  1  0  0  0
 49 50  1  0  0  0
 49 53  1  0  0  0
 49 64  1  0  0  0
 49116  1  0  0  0
 50 51  1  0  0  0
 50117  1  0  0  0
 50118  1  0  0  0
 51 52  1  0  0  0
 51119  1  0  0  0
 51120  1  0  0  0
 52121  1  0  0  0
 52122  1  0  0  0
 53 54  1  0  0  0
 54 55  2  0  0  0
 54123  1  0  0  0
 55 57  1  0  0  0
 55124  1  0  0  0
 56 69  2  0  0  0
 57 58  2  0  0  0
 57125  1  0  0  0
 58126  1  0  0  0
 59 60  1  0  0  0
 59 61  1  0  0  0
 59 62  1  0  0  0
 60127  1  0  0  0
 60128  1  0  0  0
 60129  1  0  0  0
 61130  1  0  0  0
 61131  1  0  0  0
 61132  1  0  0  0
 62133  1  0  0  0
 62134  1  0  0  0
 62135  1  0  0  0
 63 65  1  0  0  0
 63136  1  0  0  0
 63137  1  0  0  0
 63138  1  0  0  0
 64139  1  0  0  0
 65140  1  0  0  0
 68 77  1  0  0  0
 71 72  2  0  0  0
 71 74  1  0  0  0
 71141  1  0  0  0
 72 75  1  0  0  0
 72142  1  0  0  0
 73 75  2  0  0  0
 73 76  1  0  0  0
 73143  1  0  0  0
 74 76  2  0  0  0
 74 79  1  0  0  0
 75 80  1  0  0  0
 76 81  1  0  0  0
 77 78  1  0  0  0
 77144  1  0  0  0
 77145  1  0  0  0
 78 80  1  0  0  0
 78146  1  0  0  0
 78147  1  0  0  0
 79148  1  0  0  0
M  ISO  4   1 100  68 101  77 101  79 100
M  END
> <chiral flag>
0

> <version>
0

> <s_m_source_file>
/data/baiqing/PycharmProjects/Reinvent-master-3.2/result/LINK_invent/BTK/process_docking_weight1_custom_product_contain_oxygen_bond_distance_aromatic_linkinvent_7_9_3/rearranged_h_0010.sdf

> <i_m_source_file_index>
43

> <r_mmod_Potential_Energy-OPLS-2005>
429.317779541016

> <r_mmod_Stretch_Energy-OPLS-2005>
215.171890258789

> <r_mmod_Bend_Energy-OPLS-2005>
307.654571533203

> <r_mmod_Torsional_Energy-OPLS-2005>
210.088012695312

> <r_mmod_Improper_Torsional_Energy-OPLS-2005>
3.85878729820251

> <r_mmod_Van_der_Waal_Energy-OPLS-2005>
133.190078735352

> <r_mmod_Electrostatic_Energy-OPLS-2005>
-411.460144042969

> <r_mmod_Solvation_Energy-OPLS-2005>
-203.061370849609

> <b_mmod_Minimization_Converged-OPLS-2005>
0

> <r_mmod_RMS_Derivative-OPLS-2005>
0.840658664703369

$$$$
43
                    3D
 Structure written by MMmdl.
151159  0  0  1  0            999 V2000
  -30.6215  -14.6467   20.4927 C   0  0  0  0  0  0
  -30.4407  -12.3957   19.4503 C   0  0  0  0  0  0
  -29.5080  -12.5074   18.2234 C   0  0  0  0  0  0
  -28.0310  -12.3448   18.6369 C   0  0  0  0  0  0
  -27.6531  -13.2179   19.8634 C   0  0  2  0  0  0
  -28.7004  -13.0767   20.9916 C   0  0  0  0  0  0
  -25.2552  -13.8167   20.5692 C   0  0  0  0  0  0
  -24.1817  -13.0425   20.9166 C   0  0  0  0  0  0
  -24.6396  -11.6902   20.8726 C   0  0  0  0  0  0
  -23.9065  -10.4286   21.0398 C   0  0  0  0  0  0
  -24.3615   -9.4205   21.9181 C   0  0  0  0  0  0
  -23.6291   -8.2241   22.0754 C   0  0  0  0  0  0
  -22.4273   -8.0278   21.3545 C   0  0  0  0  0  0
  -21.9906   -9.0250   20.4646 C   0  0  0  0  0  0
  -22.7236  -10.2128   20.3050 C   0  0  0  0  0  0
  -21.6852   -6.0733   22.5280 C   0  0  0  0  0  0
  -21.4013   -6.5637   23.8213 C   0  0  0  0  0  0
  -21.3660   -5.6791   24.9175 C   0  0  0  0  0  0
  -21.6045   -4.3053   24.7225 C   0  0  0  0  0  0
  -21.8819   -3.8144   23.4346 C   0  0  0  0  0  0
  -21.9192   -4.6961   22.3403 C   0  0  0  0  0  0
  -22.7841  -13.5220   21.1842 C   0  0  0  0  0  0
  -22.1662   -4.2147   21.0981 F   0  0  0  0  0  0
  -21.5630   -3.4537   25.7739 F   0  0  0  0  0  0
  -30.0151  -13.4189   20.4251 N   0  0  0  0  0  0
  -26.2995  -12.9359   20.3338 N   0  0  0  0  0  0
  -25.9330  -11.6508   20.5761 N   0  0  0  0  0  0
  -22.0489  -12.8217   22.0407 N   0  0  0  0  0  0
  -25.4214  -15.1896   20.4180 N   0  0  0  0  0  0
  -31.7915  -14.8056   20.1326 O   0  0  0  0  0  0
  -21.6637   -6.8876   21.4242 O   0  0  0  0  0  0
  -22.3520  -14.5528   20.6698 O   0  0  0  0  0  0
  -24.6266  -31.8601   23.2031 C   0  0  0  0  0  0
  -25.9113  -32.4780   23.8358 C   0  0  1  0  0  0
  -27.2236  -27.3176   20.1118 C   0  0  0  0  0  0
  -25.5926  -33.8581   24.2283 N   0  0  0  0  0  0
  -23.4199  -30.4850   21.5463 C   0  0  2  0  0  0
  -24.8656  -28.9422   20.1113 C   0  0  0  0  0  0
  -22.7476  -29.4628   22.4939 C   0  0  0  0  0  0
  -18.0286  -28.1384   22.8487 C   0  0  0  0  0  0
  -24.1489  -36.7296   23.2639 C   0  0  0  0  0  0
  -25.9621  -30.7907   21.3744 C   0  0  0  0  0  0
  -26.0362  -29.4188   20.7147 C   0  0  0  0  0  0
  -27.2183  -28.6189   20.7045 C   0  0  0  0  0  0
  -26.0260  -26.8968   19.4857 C   0  0  0  0  0  0
  -24.8626  -27.6866   19.4884 C   0  0  0  0  0  0
  -23.6342  -29.8222   20.1610 C   0  0  0  0  0  0
  -25.4113  -36.3085   24.0330 C   0  0  1  0  0  0
  -20.5886  -28.3689   23.1283 C   0  0  2  0  0  0
  -20.6775  -26.9414   22.5408 C   0  0  0  0  0  0
  -19.5750  -26.6385   21.5212 C   0  0  0  0  0  0
  -18.1931  -26.7926   22.1626 C   0  0  0  0  0  0
  -19.1538  -28.8853   23.2880 C   0  0  0  0  0  0
  -18.9460  -30.1455   23.8897 C   0  0  0  0  0  0
  -17.6461  -30.6587   24.0563 C   0  0  0  0  0  0
  -25.9051  -34.9454   23.5107 C   0  0  0  0  0  0
  -16.5352  -29.9086   23.6329 C   0  0  0  0  0  0
  -16.7273  -28.6503   23.0352 C   0  0  0  0  0  0
  -26.4494  -31.6587   25.0728 C   0  0  0  0  0  0
  -25.3727  -31.3725   26.1454 C   0  0  0  0  0  0
  -27.0334  -30.3010   24.6182 C   0  0  0  0  0  0
  -27.6054  -32.4320   25.7498 C   0  0  0  0  0  0
  -27.5580  -37.1804   24.8465 C   0  0  0  0  0  0
  -21.4189  -29.3045   22.3680 N   0  0  0  0  0  0
  -26.4293  -37.3779   23.9407 N   0  0  0  0  0  0
  -24.6885  -31.0614   22.0981 N   0  0  0  0  0  0
  -23.4201  -28.8163   23.3014 O   0  0  0  0  0  0
  -28.3403  -26.4633   20.1602 O   0  0  0  0  0  0
  -26.5620  -34.8919   22.4674 O   0  0  0  0  0  0
  -23.5429  -32.1399   23.7358 O   0  0  0  0  0  0
  -31.1180  -17.8849   20.6034 C   0  0  0  0  0  0
  -31.1123  -19.3107   20.5262 C   0  0  0  0  0  0
  -28.7106  -19.3389   20.5192 C   0  0  0  0  0  0
  -29.9083  -17.1463   20.6525 C   0  0  0  0  0  0
  -29.9190  -20.0843   20.4854 C   0  0  0  0  0  0
  -28.7114  -17.9126   20.6067 C   0  0  0  0  0  0
  -29.2528  -23.9564   20.3436 C   0  0  0  0  0  0
  -28.1015  -25.0048   20.0220 C   0  0  0  0  0  0
  -28.8904  -22.3990   20.2827 C   0  0  0  0  0  0
  -29.7931  -15.6941   20.7921 N   0  0  0  0  0  0
  -30.0305  -21.4919   20.4337 O   0  0  0  0  0  0
  -27.5271  -17.2553   20.6481 F   0  0  0  0  0  0
  -31.4812  -12.5238   19.1468 H   0  0  0  0  0  0
  -30.3783  -11.4007   19.8940 H   0  0  0  0  0  0
  -29.7724  -11.7555   17.4787 H   0  0  0  0  0  0
  -29.6485  -13.4764   17.7417 H   0  0  0  0  0  0
  -27.8691  -11.2920   18.8707 H   0  0  0  0  0  0
  -27.3755  -12.5722   17.7955 H   0  0  0  0  0  0
  -27.6666  -14.2522   19.5190 H   0  0  0  0  0  0
  -28.7131  -12.0565   21.3781 H   0  0  0  0  0  0
  -28.4480  -13.7124   21.8419 H   0  0  0  0  0  0
  -25.2760   -9.5683   22.4755 H   0  0  0  0  0  0
  -23.9999   -7.4633   22.7474 H   0  0  0  0  0  0
  -21.0836   -8.8767   19.8954 H   0  0  0  0  0  0
  -22.3693  -10.9665   19.6157 H   0  0  0  0  0  0
  -21.2003   -7.6146   23.9716 H   0  0  0  0  0  0
  -21.1485   -6.0521   25.9079 H   0  0  0  0  0  0
  -22.0598   -2.7606   23.2846 H   0  0  0  0  0  0
  -22.4103  -11.9877   22.4793 H   0  0  0  0  0  0
  -21.1112  -13.1253   22.2622 H   0  0  0  0  0  0
  -24.6550  -15.8367   20.5619 H   0  0  0  0  0  0
  -26.2902  -15.6637   20.1983 H   0  0  0  0  0  0
  -26.7180  -32.5450   23.1107 H   0  0  0  0  0  0
  -25.0065  -33.9725   25.0423 H   0  0  0  0  0  0
  -22.7139  -31.3059   21.4047 H   0  0  0  0  0  0
  -23.3749  -35.9632   23.3306 H   0  0  0  0  0  0
  -24.3580  -36.8912   22.2052 H   0  0  0  0  0  0
  -23.7246  -37.6502   23.6657 H   0  0  0  0  0  0
  -26.0942  -31.5552   20.6075 H   0  0  0  0  0  0
  -26.8423  -30.8379   22.0041 H   0  0  0  0  0  0
  -28.1158  -28.9808   21.1864 H   0  0  0  0  0  0
  -25.9527  -25.9397   18.9927 H   0  0  0  0  0  0
  -23.9657  -27.3159   19.0113 H   0  0  0  0  0  0
  -23.7534  -30.5997   19.4055 H   0  0  0  0  0  0
  -22.7537  -29.2525   19.8581 H   0  0  0  0  0  0
  -25.1293  -36.1940   25.0823 H   0  0  0  0  0  0
  -20.9979  -28.3261   24.1404 H   0  0  0  0  0  0
  -20.5679  -26.2299   23.3607 H   0  0  0  0  0  0
  -21.6643  -26.7445   22.1199 H   0  0  0  0  0  0
  -19.6913  -25.6296   21.1242 H   0  0  0  0  0  0
  -19.6686  -27.3195   20.6741 H   0  0  0  0  0  0
  -17.4200  -26.6671   21.4030 H   0  0  0  0  0  0
  -18.0335  -26.0069   22.9023 H   0  0  0  0  0  0
  -19.7937  -30.7270   24.2269 H   0  0  0  0  0  0
  -17.5016  -31.6267   24.5164 H   0  0  0  0  0  0
  -15.5352  -30.2988   23.7651 H   0  0  0  0  0  0
  -15.8672  -28.0822   22.7068 H   0  0  0  0  0  0
  -24.5898  -30.7080   25.7780 H   0  0  0  0  0  0
  -24.8923  -32.2892   26.4885 H   0  0  0  0  0  0
  -25.8050  -30.8895   27.0226 H   0  0  0  0  0  0
  -26.2907  -29.6762   24.1207 H   0  0  0  0  0  0
  -27.4029  -29.7264   25.4687 H   0  0  0  0  0  0
  -27.8779  -30.4291   23.9407 H   0  0  0  0  0  0
  -27.2666  -33.3618   26.2077 H   0  0  0  0  0  0
  -28.3864  -32.6881   25.0327 H   0  0  0  0  0  0
  -28.0722  -31.8443   26.5414 H   0  0  0  0  0  0
  -28.2599  -38.0100   24.7509 H   0  0  0  0  0  0
  -28.1073  -36.2631   24.6294 H   0  0  0  0  0  0
  -27.2298  -37.1456   25.8868 H   0  0  0  0  0  0
  -20.9367  -29.8773   21.6895 H   0  0  0  0  0  0
  -26.0176  -38.2855   24.1401 H   0  0  0  0  0  0
  -32.0671  -17.3700   20.6429 H   0  0  0  0  0  0
  -32.0626  -19.8258   20.5039 H   0  0  0  0  0  0
  -27.7601  -19.8494   20.4918 H   0  0  0  0  0  0
  -29.6470  -24.1729   21.3364 H   0  0  0  0  0  0
  -30.0761  -24.1424   19.6539 H   0  0  0  0  0  0
  -27.2506  -24.7435   20.6531 H   0  0  0  0  0  0
  -27.7948  -24.8125   18.9934 H   0  0  0  0  0  0
  -28.4094  -22.1808   19.3285 H   0  0  0  0  0  0
  -28.1566  -22.1770   21.0583 H   0  0  0  0  0  0
  -28.8555  -15.3945   21.0126 H   0  0  0  0  0  0
  1 25  1  0  0  0
  1 30  2  0  0  0
  1 80  1  0  0  0
  2  3  1  0  0  0
  2 25  1  0  0  0
  2 83  1  0  0  0
  2 84  1  0  0  0
  3  4  1  0  0  0
  3 85  1  0  0  0
  3 86  1  0  0  0
  4  5  1  0  0  0
  4 87  1  0  0  0
  4 88  1  0  0  0
  5  6  1  0  0  0
  5 26  1  0  0  0
  5 89  1  0  0  0
  6 25  1  0  0  0
  6 90  1  0  0  0
  6 91  1  0  0  0
  7  8  2  0  0  0
  7 26  1  0  0  0
  7 29  1  0  0  0
  8  9  1  0  0  0
  8 22  1  0  0  0
  9 10  1  0  0  0
  9 27  2  0  0  0
 10 11  2  0  0  0
 10 15  1  0  0  0
 11 12  1  0  0  0
 11 92  1  0  0  0
 12 13  2  0  0  0
 12 93  1  0  0  0
 13 14  1  0  0  0
 13 31  1  0  0  0
 14 15  2  0  0  0
 14 94  1  0  0  0
 15 95  1  0  0  0
 16 17  2  0  0  0
 16 21  1  0  0  0
 16 31  1  0  0  0
 17 18  1  0  0  0
 17 96  1  0  0  0
 18 19  2  0  0  0
 18 97  1  0  0  0
 19 20  1  0  0  0
 19 24  1  0  0  0
 20 21  2  0  0  0
 20 98  1  0  0  0
 21 23  1  0  0  0
 22 28  1  0  0  0
 22 32  2  0  0  0
 26 27  1  0  0  0
 28 99  1  0  0  0
 28100  1  0  0  0
 29101  1  0  0  0
 29102  1  0  0  0
 33 34  1  0  0  0
 33 66  1  0  0  0
 33 70  2  0  0  0
 34 36  1  0  0  0
 34 59  1  0  0  0
 34103  1  0  0  0
 35 44  2  0  0  0
 35 45  1  0  0  0
 35 68  1  0  0  0
 36 56  1  0  0  0
 36104  1  0  0  0
 37 39  1  0  0  0
 37 47  1  0  0  0
 37 66  1  0  0  0
 37105  1  0  0  0
 38 43  2  0  0  0
 38 46  1  0  0  0
 38 47  1  0  0  0
 39 64  1  0  0  0
 39 67  2  0  0  0
 40 52  1  0  0  0
 40 53  2  0  0  0
 40 58  1  0  0  0
 41106  1  0  0  0
 41107  1  0  0  0
 41108  1  0  0  0
 41 48  1  0  0  0
 42 43  1  0  0  0
 42 66  1  0  0  0
 42109  1  0  0  0
 42110  1  0  0  0
 43 44  1  0  0  0
 44111  1  0  0  0
 45 46  2  0  0  0
 45112  1  0  0  0
 46113  1  0  0  0
 47114  1  0  0  0
 47115  1  0  0  0
 48 56  1  0  0  0
 48 65  1  0  0  0
 48116  1  0  0  0
 49 50  1  0  0  0
 49 53  1  0  0  0
 49 64  1  0  0  0
 49117  1  0  0  0
 50 51  1  0  0  0
 50118  1  0  0  0
 50119  1  0  0  0
 51 52  1  0  0  0
 51120  1  0  0  0
 51121  1  0  0  0
 52122  1  0  0  0
 52123  1  0  0  0
 53 54  1  0  0  0
 54 55  2  0  0  0
 54124  1  0  0  0
 55 57  1  0  0  0
 55125  1  0  0  0
 56 69  2  0  0  0
 57 58  2  0  0  0
 57126  1  0  0  0
 58127  1  0  0  0
 59 60  1  0  0  0
 59 61  1  0  0  0
 59 62  1  0  0  0
 60128  1  0  0  0
 60129  1  0  0  0
 60130  1  0  0  0
 61131  1  0  0  0
 61132  1  0  0  0
 61133  1  0  0  0
 62134  1  0  0  0
 62135  1  0  0  0
 62136  1  0  0  0
 63 65  1  0  0  0
 63137  1  0  0  0
 63138  1  0  0  0
 63139  1  0  0  0
 64140  1  0  0  0
 65141  1  0  0  0
 68 78  1  0  0  0
 71 72  2  0  0  0
 71 74  1  0  0  0
 71142  1  0  0  0
 72 75  1  0  0  0
 72143  1  0  0  0
 73 75  2  0  0  0
 73 76  1  0  0  0
 73144  1  0  0  0
 74 76  2  0  0  0
 74 80  1  0  0  0
 75 81  1  0  0  0
 76 82  1  0  0  0
 77 78  1  0  0  0
 77 79  1  0  0  0
 77145  1  0  0  0
 77146  1  0  0  0
 78147  1  0  0  0
 78148  1  0  0  0
 79 81  1  0  0  0
 79149  1  0  0  0
 79150  1  0  0  0
 80151  1  0  0  0
M  ISO  4   1 100  68 101  78 101  80 100
M  END
> <chiral flag>
0

> <version>
0

> <s_m_source_file>
/data/baiqing/PycharmProjects/Reinvent-master-3.2/result/LINK_invent/BTK/process_docking_weight1_custom_product_contain_oxygen_bond_distance_aromatic_linkinvent_7_9_3/rearranged_h_0010.sdf

> <i_m_source_file_index>
44

> <r_mmod_Potential_Energy-OPLS-2005>
8.48562717437744

> <r_mmod_Stretch_Energy-OPLS-2005>
78.0414810180664

> <r_mmod_Bend_Energy-OPLS-2005>
145.352081298828

> <r_mmod_Torsional_Energy-OPLS-2005>
209.226409912109

> <r_mmod_Improper_Torsional_Energy-OPLS-2005>
4.5839262008667

> <r_mmod_Van_der_Waal_Energy-OPLS-2005>
144.377670288086

> <r_mmod_Electrostatic_Energy-OPLS-2005>
-422.268218994141

> <r_mmod_Solvation_Energy-OPLS-2005>
-201.274765014648

> <b_mmod_Minimization_Converged-OPLS-2005>
0

> <r_mmod_RMS_Derivative-OPLS-2005>
0.238112762570381

$$$$
44
                    3D
 Structure written by MMmdl.
164173  0  0  1  0            999 V2000
  -30.7312  -14.4602   20.6361 C   0  0  0  0  0  0
  -30.4203  -12.3246   19.4183 C   0  0  0  0  0  0
  -29.4924  -12.5208   18.2033 C   0  0  0  0  0  0
  -28.0156  -12.3702   18.6151 C   0  0  0  0  0  0
  -27.6603  -13.2097   19.8700 C   0  0  2  0  0  0
  -28.6968  -12.9899   20.9911 C   0  0  0  0  0  0
  -25.2589  -13.8171   20.5671 C   0  0  0  0  0  0
  -24.1841  -13.0442   20.9161 C   0  0  0  0  0  0
  -24.6396  -11.6911   20.8717 C   0  0  0  0  0  0
  -23.9064  -10.4297   21.0394 C   0  0  0  0  0  0
  -24.3613   -9.4214   21.9176 C   0  0  0  0  0  0
  -23.6289   -8.2251   22.0754 C   0  0  0  0  0  0
  -22.4271   -8.0286   21.3545 C   0  0  0  0  0  0
  -21.9905   -9.0263   20.4649 C   0  0  0  0  0  0
  -22.7233  -10.2141   20.3052 C   0  0  0  0  0  0
  -21.6854   -6.0737   22.5280 C   0  0  0  0  0  0
  -21.4018   -6.5641   23.8212 C   0  0  0  0  0  0
  -21.3658   -5.6795   24.9174 C   0  0  0  0  0  0
  -21.6041   -4.3057   24.7228 C   0  0  0  0  0  0
  -21.8818   -3.8149   23.4350 C   0  0  0  0  0  0
  -21.9193   -4.6964   22.3405 C   0  0  0  0  0  0
  -22.7868  -13.5244   21.1835 C   0  0  0  0  0  0
  -22.1660   -4.2148   21.0983 F   0  0  0  0  0  0
  -21.5627   -3.4541   25.7740 F   0  0  0  0  0  0
  -30.0334  -13.3008   20.4515 N   0  0  0  0  0  0
  -26.3017  -12.9342   20.3327 N   0  0  0  0  0  0
  -25.9321  -11.6499   20.5733 N   0  0  0  0  0  0
  -22.0509  -12.8242   22.0398 N   0  0  0  0  0  0
  -25.4336  -15.1888   20.4120 N   0  0  0  0  0  0
  -31.7960  -14.6893   20.0514 O   0  0  0  0  0  0
  -21.6639   -6.8880   21.4241 O   0  0  0  0  0  0
  -22.3552  -14.5552   20.6690 O   0  0  0  0  0  0
  -24.6164  -31.8664   23.2089 C   0  0  0  0  0  0
  -25.9050  -32.4814   23.8388 C   0  0  1  0  0  0
  -27.2377  -27.4184   20.0789 C   0  0  0  0  0  0
  -25.5901  -33.8614   24.2318 N   0  0  0  0  0  0
  -23.4050  -30.4904   21.5498 C   0  0  2  0  0  0
  -24.8503  -28.9540   20.1129 C   0  0  0  0  0  0
  -22.7418  -29.4651   22.4980 C   0  0  0  0  0  0
  -18.0274  -28.1375   22.8493 C   0  0  0  0  0  0
  -24.1488  -36.7314   23.2638 C   0  0  0  0  0  0
  -25.9363  -30.8238   21.3664 C   0  0  0  0  0  0
  -26.0113  -29.4571   20.7117 C   0  0  0  0  0  0
  -27.2026  -28.6925   20.6996 C   0  0  0  0  0  0
  -26.0478  -26.9263   19.4944 C   0  0  0  0  0  0
  -24.8635  -27.6869   19.5062 C   0  0  0  0  0  0
  -23.6139  -29.8237   20.1640 C   0  0  0  0  0  0
  -25.4110  -36.3109   24.0336 C   0  0  1  0  0  0
  -20.5865  -28.3665   23.1315 C   0  0  2  0  0  0
  -20.6763  -26.9399   22.5419 C   0  0  0  0  0  0
  -19.5744  -26.6384   21.5213 C   0  0  0  0  0  0
  -18.1922  -26.7922   22.1624 C   0  0  0  0  0  0
  -19.1524  -28.8836   23.2902 C   0  0  0  0  0  0
  -18.9450  -30.1442   23.8913 C   0  0  0  0  0  0
  -17.6453  -30.6583   24.0565 C   0  0  0  0  0  0
  -25.9037  -34.9473   23.5126 C   0  0  0  0  0  0
  -16.5344  -29.9086   23.6324 C   0  0  0  0  0  0
  -16.7263  -28.6501   23.0347 C   0  0  0  0  0  0
  -26.4473  -31.6600   25.0723 C   0  0  0  0  0  0
  -25.3738  -31.3718   26.1473 C   0  0  0  0  0  0
  -27.0299  -30.3037   24.6114 C   0  0  0  0  0  0
  -27.6055  -32.4317   25.7477 C   0  0  0  0  0  0
  -27.5583  -37.1810   24.8465 C   0  0  0  0  0  0
  -21.4144  -29.3033   22.3721 N   0  0  0  0  0  0
  -26.4298  -37.3792   23.9405 N   0  0  0  0  0  0
  -24.6709  -31.0748   22.1000 N   0  0  0  0  0  0
  -23.4185  -28.8192   23.3025 O   0  0  0  0  0  0
  -28.4082  -26.6784   20.1148 O   0  0  0  0  0  0
  -26.5600  -34.8925   22.4688 O   0  0  0  0  0  0
  -23.5352  -32.1423   23.7475 O   0  0  0  0  0  0
  -30.2887  -15.0816   22.7884 C   0  0  0  0  0  0
  -28.6850  -18.8457   21.6779 C   0  0  0  0  0  0
  -29.3529  -18.4677   19.3854 C   0  0  0  0  0  0
  -29.1680  -17.5651   22.0280 C   0  0  0  0  0  0
  -29.8248  -17.1772   19.7319 C   0  0  0  0  0  0
  -28.7521  -19.3160   20.3486 C   0  0  0  0  0  0
  -29.7373  -16.6920   21.0648 C   0  0  0  0  0  0
  -26.5229  -21.8499   18.3975 C   0  0  0  0  0  0
  -27.2595  -20.5391   18.6783 C   0  0  0  0  0  0
  -27.5075  -23.0255   18.2985 C   0  0  0  0  0  0
  -29.0263  -21.9042   19.8997 C   0  0  0  0  0  0
  -28.0832  -20.6600   19.9731 C   0  0  2  0  0  0
  -29.2621  -24.3611   19.5030 C   0  0  0  0  0  0
  -28.7190  -25.7612   19.0471 C   0  0  0  0  0  0
  -30.3480  -14.8186   23.9138 N   0  0  0  0  0  0
  -30.1887  -15.3767   21.4738 N   0  0  0  0  0  0
  -28.3172  -23.1879   19.5407 N   0  3  1  0  0  0
  -31.4643  -12.4241   19.1166 H   0  0  0  0  0  0
  -30.3254  -11.3113   19.8119 H   0  0  0  0  0  0
  -29.7370  -11.8007   17.4211 H   0  0  0  0  0  0
  -29.6549  -13.5095   17.7710 H   0  0  0  0  0  0
  -27.8316  -11.3136   18.8129 H   0  0  0  0  0  0
  -27.3635  -12.6404   17.7838 H   0  0  0  0  0  0
  -27.7059  -14.2588   19.5762 H   0  0  0  0  0  0
  -28.6746  -11.9537   21.3316 H   0  0  0  0  0  0
  -28.4261  -13.5864   21.8611 H   0  0  0  0  0  0
  -25.2761   -9.5693   22.4744 H   0  0  0  0  0  0
  -23.9998   -7.4648   22.7479 H   0  0  0  0  0  0
  -21.0831   -8.8788   19.8962 H   0  0  0  0  0  0
  -22.3692  -10.9680   19.6164 H   0  0  0  0  0  0
  -21.2014   -7.6150   23.9715 H   0  0  0  0  0  0
  -21.1476   -6.0527   25.9075 H   0  0  0  0  0  0
  -22.0597   -2.7612   23.2852 H   0  0  0  0  0  0
  -22.4123  -11.9900   22.4783 H   0  0  0  0  0  0
  -21.1135  -13.1287   22.2615 H   0  0  0  0  0  0
  -24.6756  -15.8508   20.5349 H   0  0  0  0  0  0
  -26.3011  -15.6287   20.1310 H   0  0  0  0  0  0
  -26.7121  -32.5514   23.1148 H   0  0  0  0  0  0
  -25.0057  -33.9776   25.0467 H   0  0  0  0  0  0
  -22.6945  -31.3078   21.4108 H   0  0  0  0  0  0
  -23.3743  -35.9655   23.3315 H   0  0  0  0  0  0
  -24.3580  -36.8913   22.2049 H   0  0  0  0  0  0
  -23.7249  -37.6528   23.6642 H   0  0  0  0  0  0
  -26.0534  -31.5900   20.5987 H   0  0  0  0  0  0
  -26.8229  -30.8749   21.9869 H   0  0  0  0  0  0
  -28.0982  -29.0779   21.1671 H   0  0  0  0  0  0
  -26.0008  -25.9447   19.0491 H   0  0  0  0  0  0
  -23.9658  -27.2870   19.0550 H   0  0  0  0  0  0
  -23.7243  -30.5996   19.4055 H   0  0  0  0  0  0
  -22.7367  -29.2460   19.8669 H   0  0  0  0  0  0
  -25.1287  -36.1978   25.0830 H   0  0  0  0  0  0
  -20.9957  -28.3230   24.1435 H   0  0  0  0  0  0
  -20.5662  -26.2273   23.3607 H   0  0  0  0  0  0
  -21.6634  -26.7440   22.1213 H   0  0  0  0  0  0
  -19.6906  -25.6298   21.1232 H   0  0  0  0  0  0
  -19.6687  -27.3202   20.6750 H   0  0  0  0  0  0
  -17.4194  -26.6674   21.4023 H   0  0  0  0  0  0
  -18.0323  -26.0059   22.9016 H   0  0  0  0  0  0
  -19.7926  -30.7251   24.2292 H   0  0  0  0  0  0
  -17.5009  -31.6264   24.5164 H   0  0  0  0  0  0
  -15.5346  -30.2995   23.7637 H   0  0  0  0  0  0
  -15.8663  -28.0826   22.7054 H   0  0  0  0  0  0
  -24.5908  -30.7066   25.7815 H   0  0  0  0  0  0
  -24.8933  -32.2879   26.4920 H   0  0  0  0  0  0
  -25.8090  -30.8890   27.0232 H   0  0  0  0  0  0
  -26.2844  -29.6800   24.1167 H   0  0  0  0  0  0
  -27.4058  -29.7276   25.4579 H   0  0  0  0  0  0
  -27.8686  -30.4348   23.9271 H   0  0  0  0  0  0
  -27.2682  -33.3606   26.2088 H   0  0  0  0  0  0
  -28.3843  -32.6895   25.0286 H   0  0  0  0  0  0
  -28.0749  -31.8420   26.5361 H   0  0  0  0  0  0
  -28.2615  -38.0093   24.7500 H   0  0  0  0  0  0
  -28.1064  -36.2625   24.6307 H   0  0  0  0  0  0
  -27.2299  -37.1481   25.8868 H   0  0  0  0  0  0
  -20.9303  -29.8762   21.6950 H   0  0  0  0  0  0
  -26.0189  -38.2874   24.1396 H   0  0  0  0  0  0
  -28.2289  -19.4563   22.4450 H   0  0  0  0  0  0
  -29.4326  -18.7823   18.3546 H   0  0  0  0  0  0
  -29.0662  -17.2608   23.0598 H   0  0  0  0  0  0
  -30.2519  -16.5704   18.9457 H   0  0  0  0  0  0
  -25.7877  -22.0423   19.1801 H   0  0  0  0  0  0
  -25.9607  -21.7644   17.4666 H   0  0  0  0  0  0
  -27.9002  -20.3053   17.8277 H   0  0  0  0  0  0
  -26.5408  -19.7227   18.7632 H   0  0  0  0  0  0
  -26.9115  -23.9123   18.0969 H   0  0  0  0  0  0
  -28.1709  -22.8880   17.4429 H   0  0  0  0  0  0
  -29.8123  -21.7128   19.1678 H   0  0  0  0  0  0
  -29.5261  -22.0305   20.8609 H   0  0  0  0  0  0
  -27.3678  -20.8633   20.7720 H   0  0  0  0  0  0
  -29.7498  -24.4677   20.4725 H   0  0  0  0  0  0
  -30.0591  -24.0924   18.8078 H   0  0  0  0  0  0
  -27.9820  -25.7165   18.2513 H   0  0  0  0  0  0
  -29.5562  -26.2529   18.5503 H   0  0  0  0  0  0
  -27.6621  -23.3724   20.2875 H   0  0  0  0  0  0
  1 25  1  0  0  0
  1 30  2  0  0  0
  1 86  1  0  0  0
  2  3  1  0  0  0
  2 25  1  0  0  0
  2 88  1  0  0  0
  2 89  1  0  0  0
  3  4  1  0  0  0
  3 90  1  0  0  0
  3 91  1  0  0  0
  4  5  1  0  0  0
  4 92  1  0  0  0
  4 93  1  0  0  0
  5  6  1  0  0  0
  5 26  1  0  0  0
  5 94  1  0  0  0
  6 25  1  0  0  0
  6 95  1  0  0  0
  6 96  1  0  0  0
  7  8  2  0  0  0
  7 26  1  0  0  0
  7 29  1  0  0  0
  8  9  1  0  0  0
  8 22  1  0  0  0
  9 10  1  0  0  0
  9 27  2  0  0  0
 10 11  2  0  0  0
 10 15  1  0  0  0
 11 12  1  0  0  0
 11 97  1  0  0  0
 12 13  2  0  0  0
 12 98  1  0  0  0
 13 14  1  0  0  0
 13 31  1  0  0  0
 14 15  2  0  0  0
 14 99  1  0  0  0
 15100  1  0  0  0
 16 17  2  0  0  0
 16 21  1  0  0  0
 16 31  1  0  0  0
 17 18  1  0  0  0
 17101  1  0  0  0
 18 19  2  0  0  0
 18102  1  0  0  0
 19 20  1  0  0  0
 19 24  1  0  0  0
 20 21  2  0  0  0
 20103  1  0  0  0
 21 23  1  0  0  0
 22 28  1  0  0  0
 22 32  2  0  0  0
 26 27  1  0  0  0
 28104  1  0  0  0
 28105  1  0  0  0
 29106  1  0  0  0
 29107  1  0  0  0
 33 34  1  0  0  0
 33 66  1  0  0  0
 33 70  2  0  0  0
 34 36  1  0  0  0
 34 59  1  0  0  0
 34108  1  0  0  0
 35 44  2  0  0  0
 35 45  1  0  0  0
 35 68  1  0  0  0
 36 56  1  0  0  0
 36109  1  0  0  0
 37 39  1  0  0  0
 37 47  1  0  0  0
 37 66  1  0  0  0
 37110  1  0  0  0
 38 43  2  0  0  0
 38 46  1  0  0  0
 38 47  1  0  0  0
 39 64  1  0  0  0
 39 67  2  0  0  0
 40 52  1  0  0  0
 40 53  2  0  0  0
 40 58  1  0  0  0
 41111  1  0  0  0
 41112  1  0  0  0
 41113  1  0  0  0
 41 48  1  0  0  0
 42 43  1  0  0  0
 42 66  1  0  0  0
 42114  1  0  0  0
 42115  1  0  0  0
 43 44  1  0  0  0
 44116  1  0  0  0
 45 46  2  0  0  0
 45117  1  0  0  0
 46118  1  0  0  0
 47119  1  0  0  0
 47120  1  0  0  0
 48 56  1  0  0  0
 48 65  1  0  0  0
 48121  1  0  0  0
 49 50  1  0  0  0
 49 53  1  0  0  0
 49 64  1  0  0  0
 49122  1  0  0  0
 50 51  1  0  0  0
 50123  1  0  0  0
 50124  1  0  0  0
 51 52  1  0  0  0
 51125  1  0  0  0
 51126  1  0  0  0
 52127  1  0  0  0
 52128  1  0  0  0
 53 54  1  0  0  0
 54 55  2  0  0  0
 54129  1  0  0  0
 55 57  1  0  0  0
 55130  1  0  0  0
 56 69  2  0  0  0
 57 58  2  0  0  0
 57131  1  0  0  0
 58132  1  0  0  0
 59 60  1  0  0  0
 59 61  1  0  0  0
 59 62  1  0  0  0
 60133  1  0  0  0
 60134  1  0  0  0
 60135  1  0  0  0
 61136  1  0  0  0
 61137  1  0  0  0
 61138  1  0  0  0
 62139  1  0  0  0
 62140  1  0  0  0
 62141  1  0  0  0
 63 65  1  0  0  0
 63142  1  0  0  0
 63143  1  0  0  0
 63144  1  0  0  0
 64145  1  0  0  0
 65146  1  0  0  0
 68 84  1  0  0  0
 71 85  3  0  0  0
 71 86  1  0  0  0
 72 74  2  0  0  0
 72 76  1  0  0  0
 72147  1  0  0  0
 73 75  1  0  0  0
 73 76  2  0  0  0
 73148  1  0  0  0
 74 77  1  0  0  0
 74149  1  0  0  0
 75 77  2  0  0  0
 75150  1  0  0  0
 76 82  1  0  0  0
 77 86  1  0  0  0
 78 79  1  0  0  0
 78 80  1  0  0  0
 78151  1  0  0  0
 78152  1  0  0  0
 79 82  1  0  0  0
 79153  1  0  0  0
 79154  1  0  0  0
 80 87  1  0  0  0
 80155  1  0  0  0
 80156  1  0  0  0
 81 82  1  0  0  0
 81 87  1  0  0  0
 81157  1  0  0  0
 81158  1  0  0  0
 82159  1  0  0  0
 83 84  1  0  0  0
 83160  1  0  0  0
 83161  1  0  0  0
 83 87  1  0  0  0
 84162  1  0  0  0
 84163  1  0  0  0
 87164  1  0  0  0
M  CHG  1  87   1
M  ISO  4   1 100  68 101  84 101  86 100
M  END
> <chiral flag>
0

> <version>
0

> <s_m_source_file>
/data/baiqing/PycharmProjects/Reinvent-master-3.2/result/LINK_invent/BTK/process_docking_weight1_custom_product_contain_oxygen_bond_distance_aromatic_linkinvent_7_9_3/rearranged_h_0010.sdf

> <i_m_source_file_index>
45

> <r_mmod_Potential_Energy-OPLS-2005>
66.5793914794922

> <r_mmod_Stretch_Energy-OPLS-2005>
50.008731842041

> <r_mmod_Bend_Energy-OPLS-2005>
126.524566650391

> <r_mmod_Torsional_Energy-OPLS-2005>
316.582855224609

> <r_mmod_Improper_Torsional_Energy-OPLS-2005>
2.29885983467102

> <r_mmod_Van_der_Waal_Energy-OPLS-2005>
158.565567016602

> <r_mmod_Electrostatic_Energy-OPLS-2005>
-191.905136108398

> <r_mmod_Solvation_Energy-OPLS-2005>
-408.101501464844

> <b_mmod_Minimization_Converged-OPLS-2005>
0

> <r_mmod_RMS_Derivative-OPLS-2005>
0.511493146419525

$$$$
45
                    3D
 Structure written by MMmdl.
153161  0  0  1  0            999 V2000
  -30.6491  -14.6309   20.4723 C   0  0  0  0  0  0
  -30.4348  -12.3768   19.4545 C   0  0  0  0  0  0
  -29.5080  -12.4964   18.2251 C   0  0  0  0  0  0
  -28.0318  -12.3382   18.6386 C   0  0  0  0  0  0
  -27.6552  -13.2180   19.8604 C   0  0  2  0  0  0
  -28.7027  -13.0879   20.9909 C   0  0  0  0  0  0
  -25.2566  -13.8179   20.5680 C   0  0  0  0  0  0
  -24.1827  -13.0440   20.9183 C   0  0  0  0  0  0
  -24.6406  -11.6914   20.8737 C   0  0  0  0  0  0
  -23.9069  -10.4292   21.0400 C   0  0  0  0  0  0
  -24.3615   -9.4210   21.9181 C   0  0  0  0  0  0
  -23.6294   -8.2245   22.0750 C   0  0  0  0  0  0
  -22.4275   -8.0281   21.3546 C   0  0  0  0  0  0
  -21.9912   -9.0251   20.4641 C   0  0  0  0  0  0
  -22.7238  -10.2134   20.3051 C   0  0  0  0  0  0
  -21.6853   -6.0736   22.5281 C   0  0  0  0  0  0
  -21.4012   -6.5639   23.8214 C   0  0  0  0  0  0
  -21.3664   -5.6790   24.9176 C   0  0  0  0  0  0
  -21.6044   -4.3054   24.7223 C   0  0  0  0  0  0
  -21.8820   -3.8148   23.4345 C   0  0  0  0  0  0
  -21.9191   -4.6964   22.3404 C   0  0  0  0  0  0
  -22.7848  -13.5231   21.1860 C   0  0  0  0  0  0
  -22.1660   -4.2147   21.0981 F   0  0  0  0  0  0
  -21.5632   -3.4541   25.7739 F   0  0  0  0  0  0
  -30.0218  -13.4116   20.4221 N   0  0  0  0  0  0
  -26.3013  -12.9366   20.3349 N   0  0  0  0  0  0
  -25.9341  -11.6514   20.5768 N   0  0  0  0  0  0
  -22.0495  -12.8209   22.0407 N   0  0  0  0  0  0
  -25.4276  -15.1894   20.4118 N   0  0  0  0  0  0
  -31.8125  -14.7702   20.0895 O   0  0  0  0  0  0
  -21.6641   -6.8877   21.4240 O   0  0  0  0  0  0
  -22.3534  -14.5536   20.6711 O   0  0  0  0  0  0
  -24.6231  -31.8606   23.2082 C   0  0  0  0  0  0
  -25.9076  -32.4804   23.8385 C   0  0  1  0  0  0
  -27.2227  -27.3336   20.0987 C   0  0  0  0  0  0
  -25.5918  -33.8602   24.2325 N   0  0  0  0  0  0
  -23.4190  -30.4894   21.5478 C   0  0  2  0  0  0
  -24.8642  -28.9502   20.1125 C   0  0  0  0  0  0
  -22.7479  -29.4639   22.4937 C   0  0  0  0  0  0
  -18.0294  -28.1389   22.8499 C   0  0  0  0  0  0
  -24.1491  -36.7293   23.2654 C   0  0  0  0  0  0
  -25.9626  -30.7928   21.3807 C   0  0  0  0  0  0
  -26.0339  -29.4243   20.7170 C   0  0  0  0  0  0
  -27.2146  -28.6267   20.7057 C   0  0  0  0  0  0
  -26.0213  -26.9069   19.4803 C   0  0  0  0  0  0
  -24.8577  -27.6954   19.4894 C   0  0  0  0  0  0
  -23.6348  -29.8315   20.1619 C   0  0  0  0  0  0
  -25.4117  -36.3111   24.0356 C   0  0  1  0  0  0
  -20.5887  -28.3686   23.1287 C   0  0  2  0  0  0
  -20.6785  -26.9411   22.5417 C   0  0  0  0  0  0
  -19.5756  -26.6394   21.5231 C   0  0  0  0  0  0
  -18.1939  -26.7938   22.1638 C   0  0  0  0  0  0
  -19.1542  -28.8861   23.2895 C   0  0  0  0  0  0
  -18.9464  -30.1462   23.8911 C   0  0  0  0  0  0
  -17.6463  -30.6591   24.0577 C   0  0  0  0  0  0
  -25.9031  -34.9467   23.5147 C   0  0  0  0  0  0
  -16.5357  -29.9087   23.6334 C   0  0  0  0  0  0
  -16.7284  -28.6510   23.0351 C   0  0  0  0  0  0
  -26.4475  -31.6598   25.0739 C   0  0  0  0  0  0
  -25.3714  -31.3716   26.1483 C   0  0  0  0  0  0
  -27.0311  -30.3031   24.6172 C   0  0  0  0  0  0
  -27.6059  -32.4319   25.7499 C   0  0  0  0  0  0
  -27.5582  -37.1810   24.8477 C   0  0  0  0  0  0
  -21.4190  -29.3042   22.3680 N   0  0  0  0  0  0
  -26.4295  -37.3798   23.9416 N   0  0  0  0  0  0
  -24.6879  -31.0617   22.1043 N   0  0  0  0  0  0
  -23.4224  -28.8135   23.2968 O   0  0  0  0  0  0
  -28.3532  -26.5010   20.1263 O   0  0  0  0  0  0
  -26.5591  -34.8926   22.4716 O   0  0  0  0  0  0
  -23.5388  -32.1398   23.7390 O   0  0  0  0  0  0
  -31.0407  -19.2246   19.7741 C   0  0  0  0  0  0
  -31.0258  -17.8030   19.9083 C   0  0  0  0  0  0
  -28.9998  -19.3919   21.0372 C   0  0  0  0  0  0
  -30.0395  -20.0636   20.3429 C   0  0  0  0  0  0
  -29.9916  -17.1391   20.6200 C   0  0  0  0  0  0
  -28.9768  -17.9711   21.1658 C   0  0  0  0  0  0
  -30.2191  -21.6288   20.3422 C   0  0  0  0  0  0
  -29.3517  -24.0513   20.2044 C   0  0  0  0  0  0
  -28.1590  -25.0515   19.8947 C   0  0  0  0  0  0
  -29.8624  -15.6945   20.8118 N   0  0  0  0  0  0
  -29.0771  -22.5624   20.0097 N   0  3  0  0  0  0
  -27.9632  -17.3857   21.8489 F   0  0  0  0  0  0
  -31.4786  -12.4810   19.1538 H   0  0  0  0  0  0
  -30.3523  -11.3862   19.9034 H   0  0  0  0  0  0
  -29.7680  -11.7416   17.4819 H   0  0  0  0  0  0
  -29.6536  -13.4633   17.7422 H   0  0  0  0  0  0
  -27.8697  -11.2875   18.8799 H   0  0  0  0  0  0
  -27.3748  -12.5588   17.7965 H   0  0  0  0  0  0
  -27.6694  -14.2505   19.5107 H   0  0  0  0  0  0
  -28.7099  -12.0744   21.3954 H   0  0  0  0  0  0
  -28.4547  -13.7408   21.8303 H   0  0  0  0  0  0
  -25.2761   -9.5689   22.4754 H   0  0  0  0  0  0
  -24.0005   -7.4636   22.7470 H   0  0  0  0  0  0
  -21.0846   -8.8767   19.8947 H   0  0  0  0  0  0
  -22.3696  -10.9667   19.6157 H   0  0  0  0  0  0
  -21.2002   -7.6146   23.9715 H   0  0  0  0  0  0
  -21.1488   -6.0523   25.9078 H   0  0  0  0  0  0
  -22.0595   -2.7608   23.2848 H   0  0  0  0  0  0
  -22.4109  -11.9872   22.4783 H   0  0  0  0  0  0
  -21.1118  -13.1236   22.2619 H   0  0  0  0  0  0
  -24.6666  -15.8471   20.5390 H   0  0  0  0  0  0
  -26.2914  -15.6372   20.1324 H   0  0  0  0  0  0
  -26.7141  -32.5478   23.1117 H   0  0  0  0  0  0
  -25.0092  -33.9743   25.0493 H   0  0  0  0  0  0
  -22.7124  -31.3111   21.4077 H   0  0  0  0  0  0
  -23.3769  -35.9607   23.3330 H   0  0  0  0  0  0
  -24.3593  -36.8884   22.2066 H   0  0  0  0  0  0
  -23.7190  -37.6497   23.6631 H   0  0  0  0  0  0
  -26.0879  -31.5554   20.6121 H   0  0  0  0  0  0
  -26.8465  -30.8427   22.0077 H   0  0  0  0  0  0
  -28.1089  -28.9858   21.1932 H   0  0  0  0  0  0
  -25.9432  -25.9502   18.9885 H   0  0  0  0  0  0
  -23.9560  -27.3291   19.0180 H   0  0  0  0  0  0
  -23.7618  -30.6116   19.4089 H   0  0  0  0  0  0
  -22.7556  -29.2610   19.8562 H   0  0  0  0  0  0
  -25.1277  -36.2020   25.0843 H   0  0  0  0  0  0
  -20.9983  -28.3262   24.1406 H   0  0  0  0  0  0
  -20.5712  -26.2291   23.3610 H   0  0  0  0  0  0
  -21.6642  -26.7450   22.1187 H   0  0  0  0  0  0
  -19.6904  -25.6314   21.1243 H   0  0  0  0  0  0
  -19.6689  -27.3224   20.6782 H   0  0  0  0  0  0
  -17.4206  -26.6716   21.4042 H   0  0  0  0  0  0
  -18.0312  -26.0075   22.9023 H   0  0  0  0  0  0
  -19.7937  -30.7289   24.2275 H   0  0  0  0  0  0
  -17.5013  -31.6269   24.5172 H   0  0  0  0  0  0
  -15.5354  -30.2992   23.7646 H   0  0  0  0  0  0
  -15.8692  -28.0843   22.7028 H   0  0  0  0  0  0
  -24.5911  -30.7047   25.7810 H   0  0  0  0  0  0
  -24.8880  -32.2873   26.4901 H   0  0  0  0  0  0
  -25.8051  -30.8906   27.0264 H   0  0  0  0  0  0
  -26.2879  -29.6808   24.1187 H   0  0  0  0  0  0
  -27.4029  -29.7264   25.4649 H   0  0  0  0  0  0
  -27.8739  -30.4360   23.9386 H   0  0  0  0  0  0
  -27.2708  -33.3642   26.2064 H   0  0  0  0  0  0
  -28.3867  -32.6839   25.0305 H   0  0  0  0  0  0
  -28.0728  -31.8441   26.5422 H   0  0  0  0  0  0
  -28.2614  -38.0092   24.7516 H   0  0  0  0  0  0
  -28.1057  -36.2623   24.6314 H   0  0  0  0  0  0
  -27.2298  -37.1483   25.8879 H   0  0  0  0  0  0
  -20.9361  -29.8796   21.6927 H   0  0  0  0  0  0
  -26.0209  -38.2893   24.1405 H   0  0  0  0  0  0
  -31.8737  -19.6797   19.2530 H   0  0  0  0  0  0
  -31.8337  -17.2380   19.4627 H   0  0  0  0  0  0
  -28.2144  -19.9605   21.5123 H   0  0  0  0  0  0
  -31.0254  -21.8689   19.6481 H   0  0  0  0  0  0
  -30.6033  -21.8994   21.3268 H   0  0  0  0  0  0
  -29.6573  -24.1984   21.2385 H   0  0  0  0  0  0
  -30.2141  -24.3312   19.5967 H   0  0  0  0  0  0
  -27.8775  -24.9072   18.8521 H   0  0  0  0  0  0
  -27.3097  -24.7352   20.5021 H   0  0  0  0  0  0
  -28.9675  -15.4257   21.1913 H   0  0  0  0  0  0
  -28.2890  -22.3075   20.5817 H   0  0  0  0  0  0
  -28.8124  -22.3909   19.0519 H   0  0  0  0  0  0
  1 25  1  0  0  0
  1 30  2  0  0  0
  1 80  1  0  0  0
  2  3  1  0  0  0
  2 25  1  0  0  0
  2 83  1  0  0  0
  2 84  1  0  0  0
  3  4  1  0  0  0
  3 85  1  0  0  0
  3 86  1  0  0  0
  4  5  1  0  0  0
  4 87  1  0  0  0
  4 88  1  0  0  0
  5  6  1  0  0  0
  5 26  1  0  0  0
  5 89  1  0  0  0
  6 25  1  0  0  0
  6 90  1  0  0  0
  6 91  1  0  0  0
  7  8  2  0  0  0
  7 26  1  0  0  0
  7 29  1  0  0  0
  8  9  1  0  0  0
  8 22  1  0  0  0
  9 10  1  0  0  0
  9 27  2  0  0  0
 10 11  2  0  0  0
 10 15  1  0  0  0
 11 12  1  0  0  0
 11 92  1  0  0  0
 12 13  2  0  0  0
 12 93  1  0  0  0
 13 14  1  0  0  0
 13 31  1  0  0  0
 14 15  2  0  0  0
 14 94  1  0  0  0
 15 95  1  0  0  0
 16 17  2  0  0  0
 16 21  1  0  0  0
 16 31  1  0  0  0
 17 18  1  0  0  0
 17 96  1  0  0  0
 18 19  2  0  0  0
 18 97  1  0  0  0
 19 20  1  0  0  0
 19 24  1  0  0  0
 20 21  2  0  0  0
 20 98  1  0  0  0
 21 23  1  0  0  0
 22 28  1  0  0  0
 22 32  2  0  0  0
 26 27  1  0  0  0
 28 99  1  0  0  0
 28100  1  0  0  0
 29101  1  0  0  0
 29102  1  0  0  0
 33 34  1  0  0  0
 33 66  1  0  0  0
 33 70  2  0  0  0
 34 36  1  0  0  0
 34 59  1  0  0  0
 34103  1  0  0  0
 35 44  2  0  0  0
 35 45  1  0  0  0
 35 68  1  0  0  0
 36 56  1  0  0  0
 36104  1  0  0  0
 37 39  1  0  0  0
 37 47  1  0  0  0
 37 66  1  0  0  0
 37105  1  0  0  0
 38 43  2  0  0  0
 38 46  1  0  0  0
 38 47  1  0  0  0
 39 64  1  0  0  0
 39 67  2  0  0  0
 40 52  1  0  0  0
 40 53  2  0  0  0
 40 58  1  0  0  0
 41106  1  0  0  0
 41107  1  0  0  0
 41108  1  0  0  0
 41 48  1  0  0  0
 42 43  1  0  0  0
 42 66  1  0  0  0
 42109  1  0  0  0
 42110  1  0  0  0
 43 44  1  0  0  0
 44111  1  0  0  0
 45 46  2  0  0  0
 45112  1  0  0  0
 46113  1  0  0  0
 47114  1  0  0  0
 47115  1  0  0  0
 48 56  1  0  0  0
 48 65  1  0  0  0
 48116  1  0  0  0
 49 50  1  0  0  0
 49 53  1  0  0  0
 49 64  1  0  0  0
 49117  1  0  0  0
 50 51  1  0  0  0
 50118  1  0  0  0
 50119  1  0  0  0
 51 52  1  0  0  0
 51120  1  0  0  0
 51121  1  0  0  0
 52122  1  0  0  0
 52123  1  0  0  0
 53 54  1  0  0  0
 54 55  2  0  0  0
 54124  1  0  0  0
 55 57  1  0  0  0
 55125  1  0  0  0
 56 69  2  0  0  0
 57 58  2  0  0  0
 57126  1  0  0  0
 58127  1  0  0  0
 59 60  1  0  0  0
 59 61  1  0  0  0
 59 62  1  0  0  0
 60128  1  0  0  0
 60129  1  0  0  0
 60130  1  0  0  0
 61131  1  0  0  0
 61132  1  0  0  0
 61133  1  0  0  0
 62134  1  0  0  0
 62135  1  0  0  0
 62136  1  0  0  0
 63 65  1  0  0  0
 63137  1  0  0  0
 63138  1  0  0  0
 63139  1  0  0  0
 64140  1  0  0  0
 65141  1  0  0  0
 68 79  1  0  0  0
 71 72  2  0  0  0
 71 74  1  0  0  0
 71142  1  0  0  0
 72 75  1  0  0  0
 72143  1  0  0  0
 73 74  2  0  0  0
 73 76  1  0  0  0
 73144  1  0  0  0
 74 77  1  0  0  0
 75 76  2  0  0  0
 75 80  1  0  0  0
 76 82  1  0  0  0
 77 81  1  0  0  0
 77145  1  0  0  0
 77146  1  0  0  0
 78 79  1  0  0  0
 78 81  1  0  0  0
 78147  1  0  0  0
 78148  1  0  0  0
 79149  1  0  0  0
 79150  1  0  0  0
 80151  1  0  0  0
 81152  1  0  0  0
 81153  1  0  0  0
M  CHG  1  81   1
M  ISO  4   1 100  68 101  79 101  80 100
M  END
> <chiral flag>
0

> <version>
0

> <s_m_source_file>
/data/baiqing/PycharmProjects/Reinvent-master-3.2/result/LINK_invent/BTK/process_docking_weight1_custom_product_contain_oxygen_bond_distance_aromatic_linkinvent_7_9_3/rearranged_h_0010.sdf

> <i_m_source_file_index>
46

> <r_mmod_Potential_Energy-OPLS-2005>
-169.907638549805

> <r_mmod_Stretch_Energy-OPLS-2005>
74.6796112060547

> <r_mmod_Bend_Energy-OPLS-2005>
135.353530883789

> <r_mmod_Torsional_Energy-OPLS-2005>
203.257019042969

> <r_mmod_Improper_Torsional_Energy-OPLS-2005>
4.4197096824646

> <r_mmod_Van_der_Waal_Energy-OPLS-2005>
145.306213378906

> <r_mmod_Electrostatic_Energy-OPLS-2005>
-306.239837646484

> <r_mmod_Solvation_Energy-OPLS-2005>
-470.850830078125

> <b_mmod_Minimization_Converged-OPLS-2005>
0

> <r_mmod_RMS_Derivative-OPLS-2005>
3.29414439201355

$$$$
46
                    3D
 Structure written by MMmdl.
147155  0  0  1  0            999 V2000
  -30.4119  -15.3224   20.3341 C   0  0  0  0  0  0
  -30.4389  -12.8435   19.5252 C   0  0  0  0  0  0
  -29.5372  -12.5790   18.2904 C   0  0  0  0  0  0
  -28.0856  -12.2906   18.7147 C   0  0  0  0  0  0
  -27.6007  -13.2714   19.8088 C   0  0  2  0  0  0
  -28.6314  -13.4920   20.9325 C   0  0  0  0  0  0
  -25.2381  -13.8226   20.5754 C   0  0  0  0  0  0
  -24.1724  -13.0412   20.9245 C   0  0  0  0  0  0
  -24.6382  -11.6908   20.8756 C   0  0  0  0  0  0
  -23.9071  -10.4280   21.0406 C   0  0  0  0  0  0
  -24.3618   -9.4197   21.9180 C   0  0  0  0  0  0
  -23.6290   -8.2234   22.0754 C   0  0  0  0  0  0
  -22.4271   -8.0275   21.3539 C   0  0  0  0  0  0
  -21.9911   -9.0248   20.4641 C   0  0  0  0  0  0
  -22.7247  -10.2123   20.3050 C   0  0  0  0  0  0
  -21.6853   -6.0731   22.5271 C   0  0  0  0  0  0
  -21.4021   -6.5637   23.8205 C   0  0  0  0  0  0
  -21.3662   -5.6792   24.9168 C   0  0  0  0  0  0
  -21.6039   -4.3053   24.7226 C   0  0  0  0  0  0
  -21.8813   -3.8141   23.4349 C   0  0  0  0  0  0
  -21.9196   -4.6957   22.3401 C   0  0  0  0  0  0
  -22.7747  -13.5179   21.1900 C   0  0  0  0  0  0
  -22.1656   -4.2139   21.0975 F   0  0  0  0  0  0
  -21.5633   -3.4539   25.7740 F   0  0  0  0  0  0
  -29.8648  -14.0003   20.3089 N   0  0  0  0  0  0
  -26.2774  -12.9480   20.3180 N   0  0  0  0  0  0
  -25.9311  -11.6590   20.5696 N   0  0  0  0  0  0
  -22.0408  -12.8161   22.0466 N   0  0  0  0  0  0
  -25.4057  -15.1963   20.4244 N   0  0  0  0  0  0
  -31.6504  -15.3000   20.2535 O   0  0  0  0  0  0
  -21.6638   -6.8872   21.4229 O   0  0  0  0  0  0
  -22.3423  -14.5482   20.6756 O   0  0  0  0  0  0
  -24.6669  -31.8202   23.1646 C   0  0  0  0  0  0
  -25.9331  -32.4568   23.8129 C   0  0  1  0  0  0
  -27.2137  -26.8859   20.1980 C   0  0  0  0  0  0
  -25.5996  -33.8383   24.2047 N   0  0  0  0  0  0
  -23.4819  -30.4292   21.5181 C   0  0  2  0  0  0
  -24.9324  -28.8024   20.1209 C   0  0  0  0  0  0
  -22.7678  -29.4418   22.4780 C   0  0  0  0  0  0
  -18.0325  -28.1398   22.8474 C   0  0  0  0  0  0
  -24.1490  -36.7193   23.2648 C   0  0  0  0  0  0
  -26.0531  -30.6124   21.4007 C   0  0  0  0  0  0
  -26.1200  -29.1968   20.7503 C   0  0  0  0  0  0
  -27.2572  -28.2632   20.7548 C   0  0  0  0  0  0
  -25.9926  -26.6475   19.5290 C   0  0  0  0  0  0
  -24.8949  -27.5486   19.4901 C   0  0  0  0  0  0
  -23.7238  -29.7400   20.1476 C   0  0  0  0  0  0
  -25.4137  -36.2950   24.0293 C   0  0  1  0  0  0
  -20.5953  -28.3738   23.1180 C   0  0  2  0  0  0
  -20.6802  -26.9420   22.5403 C   0  0  0  0  0  0
  -19.5772  -26.6367   21.5216 C   0  0  0  0  0  0
  -18.1948  -26.7933   22.1623 C   0  0  0  0  0  0
  -19.1590  -28.8887   23.2812 C   0  0  0  0  0  0
  -18.9502  -30.1477   23.8843 C   0  0  0  0  0  0
  -17.6497  -30.6595   24.0543 C   0  0  0  0  0  0
  -25.9106  -34.9339   23.4990 C   0  0  0  0  0  0
  -16.5385  -29.9081   23.6348 C   0  0  0  0  0  0
  -16.7306  -28.6499   23.0375 C   0  0  0  0  0  0
  -26.4571  -31.6525   25.0667 C   0  0  0  0  0  0
  -25.3675  -31.3792   26.1303 C   0  0  0  0  0  0
  -27.0486  -30.2888   24.6437 C   0  0  0  0  0  0
  -27.6050  -32.4339   25.7485 C   0  0  0  0  0  0
  -27.5558  -37.1764   24.8478 C   0  0  0  0  0  0
  -21.4345  -29.3034   22.3532 N   0  0  0  0  0  0
  -26.4286  -37.3683   23.9394 N   0  0  0  0  0  0
  -24.7557  -30.9820   22.0812 N   0  0  0  0  0  0
  -23.4214  -28.7995   23.3034 O   0  0  0  0  0  0
  -28.2332  -25.7844   20.1921 O   0  0  0  0  0  0
  -26.5717  -34.8885   22.4591 O   0  0  0  0  0  0
  -23.5732  -32.1203   23.6719 O   0  0  0  0  0  0
  -28.0844  -17.9678   18.4782 C   0  0  0  0  0  0
  -28.7272  -16.8077   18.9823 C   0  0  0  0  0  0
  -28.2436  -19.2781   18.9996 C   0  0  0  0  0  0
  -29.7531  -18.2683   20.5996 C   0  0  0  0  0  0
  -29.6195  -16.8058   20.0781 C   0  0  0  0  0  0
  -29.0629  -19.5803   20.1063 C   0  0  0  0  0  0
  -28.6955  -22.5577   19.8790 C   0  0  0  0  0  0
  -28.0886  -24.1550   20.5372 C   0  0  0  0  0  0
  -29.0362  -21.0768   20.5617 N   0  0  0  0  0  0
  -31.4528  -13.0603   19.1870 H   0  0  0  0  0  0
  -30.5184  -11.9515   20.1467 H   0  0  0  0  0  0
  -29.9288  -11.7473   17.7037 H   0  0  0  0  0  0
  -29.5571  -13.4525   17.6359 H   0  0  0  0  0  0
  -28.0469  -11.2703   19.0954 H   0  0  0  0  0  0
  -27.4214  -12.3206   17.8507 H   0  0  0  0  0  0
  -27.4881  -14.2197   19.2911 H   0  0  0  0  0  0
  -28.8083  -12.5770   21.4985 H   0  0  0  0  0  0
  -28.2592  -14.2313   21.6428 H   0  0  0  0  0  0
  -25.2755   -9.5678   22.4763 H   0  0  0  0  0  0
  -23.9993   -7.4627   22.7479 H   0  0  0  0  0  0
  -21.0841   -8.8757   19.8955 H   0  0  0  0  0  0
  -22.3686  -10.9657   19.6163 H   0  0  0  0  0  0
  -21.2010   -7.6143   23.9704 H   0  0  0  0  0  0
  -21.1493   -6.0525   25.9070 H   0  0  0  0  0  0
  -22.0595   -2.7601   23.2849 H   0  0  0  0  0  0
  -22.4051  -11.9829   22.4840 H   0  0  0  0  0  0
  -21.1024  -13.1172   22.2683 H   0  0  0  0  0  0
  -24.6414  -15.8514   20.5494 H   0  0  0  0  0  0
  -26.2684  -15.6444   20.1419 H   0  0  0  0  0  0
  -26.7399  -32.5094   23.0839 H   0  0  0  0  0  0
  -25.0107  -33.9453   25.0171 H   0  0  0  0  0  0
  -22.7962  -31.2613   21.3434 H   0  0  0  0  0  0
  -23.3755  -35.9526   23.3330 H   0  0  0  0  0  0
  -24.3542  -36.8823   22.2057 H   0  0  0  0  0  0
  -23.7272  -37.6398   23.6699 H   0  0  0  0  0  0
  -26.2342  -31.3480   20.6164 H   0  0  0  0  0  0
  -26.9127  -30.6725   22.0565 H   0  0  0  0  0  0
  -28.1638  -28.5701   21.2561 H   0  0  0  0  0  0
  -25.8632  -25.6919   19.0400 H   0  0  0  0  0  0
  -23.9926  -27.2402   18.9800 H   0  0  0  0  0  0
  -23.8864  -30.5064   19.3884 H   0  0  0  0  0  0
  -22.8312  -29.1992   19.8280 H   0  0  0  0  0  0
  -25.1341  -36.1742   25.0786 H   0  0  0  0  0  0
  -21.0027  -28.3348   24.1306 H   0  0  0  0  0  0
  -20.5677  -26.2357   23.3642 H   0  0  0  0  0  0
  -21.6664  -26.7396   22.1205 H   0  0  0  0  0  0
  -19.6936  -25.6263   21.1275 H   0  0  0  0  0  0
  -19.6718  -27.3143   20.6715 H   0  0  0  0  0  0
  -17.4229  -26.6675   21.4020 H   0  0  0  0  0  0
  -18.0346  -26.0075   22.9016 H   0  0  0  0  0  0
  -19.7978  -30.7305   24.2189 H   0  0  0  0  0  0
  -17.5055  -31.6271   24.5145 H   0  0  0  0  0  0
  -15.5380  -30.2966   23.7703 H   0  0  0  0  0  0
  -15.8705  -28.0791   22.7131 H   0  0  0  0  0  0
  -24.5872  -30.7135   25.7602 H   0  0  0  0  0  0
  -24.8842  -32.2998   26.4577 H   0  0  0  0  0  0
  -25.7861  -30.9052   27.0187 H   0  0  0  0  0  0
  -26.3174  -29.6541   24.1423 H   0  0  0  0  0  0
  -27.3995  -29.7265   25.5102 H   0  0  0  0  0  0
  -27.9112  -30.4066   23.9872 H   0  0  0  0  0  0
  -27.2619  -33.3695   26.1919 H   0  0  0  0  0  0
  -28.3942  -32.6823   25.0371 H   0  0  0  0  0  0
  -28.0640  -31.8566   26.5524 H   0  0  0  0  0  0
  -28.2594  -38.0034   24.7460 H   0  0  0  0  0  0
  -28.1031  -36.2560   24.6395 H   0  0  0  0  0  0
  -27.2255  -37.1517   25.8875 H   0  0  0  0  0  0
  -20.9599  -29.8727   21.6662 H   0  0  0  0  0  0
  -26.0131  -38.2747   24.1377 H   0  0  0  0  0  0
  -27.4367  -17.8456   17.6218 H   0  0  0  0  0  0
  -28.5661  -15.8828   18.4483 H   0  0  0  0  0  0
  -27.6912  -20.0725   18.5206 H   0  0  0  0  0  0
  -30.4399  -18.3880   21.4255 H   0  0  0  0  0  0
  -29.6337  -22.8152   19.3856 H   0  0  0  0  0  0
  -28.0279  -22.3317   19.0469 H   0  0  0  0  0  0
  -28.4414  -24.1407   21.5684 H   0  0  0  0  0  0
  -27.0134  -24.0105   20.6473 H   0  0  0  0  0  0
  -29.4939  -21.2036   21.4641 H   0  0  0  0  0  0
  1 25  1  0  0  0
  1 30  2  0  0  0
  1 75  1  0  0  0
  2  3  1  0  0  0
  2 25  1  0  0  0
  2 80  1  0  0  0
  2 81  1  0  0  0
  3  4  1  0  0  0
  3 82  1  0  0  0
  3 83  1  0  0  0
  4  5  1  0  0  0
  4 84  1  0  0  0
  4 85  1  0  0  0
  5  6  1  0  0  0
  5 26  1  0  0  0
  5 86  1  0  0  0
  6 25  1  0  0  0
  6 87  1  0  0  0
  6 88  1  0  0  0
  7  8  2  0  0  0
  7 26  1  0  0  0
  7 29  1  0  0  0
  8  9  1  0  0  0
  8 22  1  0  0  0
  9 10  1  0  0  0
  9 27  2  0  0  0
 10 11  2  0  0  0
 10 15  1  0  0  0
 11 12  1  0  0  0
 11 89  1  0  0  0
 12 13  2  0  0  0
 12 90  1  0  0  0
 13 14  1  0  0  0
 13 31  1  0  0  0
 14 15  2  0  0  0
 14 91  1  0  0  0
 15 92  1  0  0  0
 16 17  2  0  0  0
 16 21  1  0  0  0
 16 31  1  0  0  0
 17 18  1  0  0  0
 17 93  1  0  0  0
 18 19  2  0  0  0
 18 94  1  0  0  0
 19 20  1  0  0  0
 19 24  1  0  0  0
 20 21  2  0  0  0
 20 95  1  0  0  0
 21 23  1  0  0  0
 22 28  1  0  0  0
 22 32  2  0  0  0
 26 27  1  0  0  0
 28 96  1  0  0  0
 28 97  1  0  0  0
 29 98  1  0  0  0
 29 99  1  0  0  0
 33 34  1  0  0  0
 33 66  1  0  0  0
 33 70  2  0  0  0
 34 36  1  0  0  0
 34 59  1  0  0  0
 34100  1  0  0  0
 35 44  2  0  0  0
 35 45  1  0  0  0
 35 68  1  0  0  0
 36 56  1  0  0  0
 36101  1  0  0  0
 37 39  1  0  0  0
 37 47  1  0  0  0
 37 66  1  0  0  0
 37102  1  0  0  0
 38 43  2  0  0  0
 38 46  1  0  0  0
 38 47  1  0  0  0
 39 64  1  0  0  0
 39 67  2  0  0  0
 40 52  1  0  0  0
 40 53  2  0  0  0
 40 58  1  0  0  0
 41103  1  0  0  0
 41104  1  0  0  0
 41105  1  0  0  0
 41 48  1  0  0  0
 42 43  1  0  0  0
 42 66  1  0  0  0
 42106  1  0  0  0
 42107  1  0  0  0
 43 44  1  0  0  0
 44108  1  0  0  0
 45 46  2  0  0  0
 45109  1  0  0  0
 46110  1  0  0  0
 47111  1  0  0  0
 47112  1  0  0  0
 48 56  1  0  0  0
 48 65  1  0  0  0
 48113  1  0  0  0
 49 50  1  0  0  0
 49 53  1  0  0  0
 49 64  1  0  0  0
 49114  1  0  0  0
 50 51  1  0  0  0
 50115  1  0  0  0
 50116  1  0  0  0
 51 52  1  0  0  0
 51117  1  0  0  0
 51118  1  0  0  0
 52119  1  0  0  0
 52120  1  0  0  0
 53 54  1  0  0  0
 54 55  2  0  0  0
 54121  1  0  0  0
 55 57  1  0  0  0
 55122  1  0  0  0
 56 69  2  0  0  0
 57 58  2  0  0  0
 57123  1  0  0  0
 58124  1  0  0  0
 59 60  1  0  0  0
 59 61  1  0  0  0
 59 62  1  0  0  0
 60125  1  0  0  0
 60126  1  0  0  0
 60127  1  0  0  0
 61128  1  0  0  0
 61129  1  0  0  0
 61130  1  0  0  0
 62131  1  0  0  0
 62132  1  0  0  0
 62133  1  0  0  0
 63 65  1  0  0  0
 63134  1  0  0  0
 63135  1  0  0  0
 63136  1  0  0  0
 64137  1  0  0  0
 65138  1  0  0  0
 68 78  1  0  0  0
 71 72  2  0  0  0
 71 73  1  0  0  0
 71139  1  0  0  0
 72 75  1  0  0  0
 72140  1  0  0  0
 73 76  2  0  0  0
 73141  1  0  0  0
 74 75  2  0  0  0
 74 76  1  0  0  0
 74142  1  0  0  0
 76 79  1  0  0  0
 77 78  1  0  0  0
 77 79  1  0  0  0
 77143  1  0  0  0
 77144  1  0  0  0
 78145  1  0  0  0
 78146  1  0  0  0
 79147  1  0  0  0
M  ISO  4   1 100  68 101  75 100  78 101
M  END
> <chiral flag>
0

> <version>
0

> <s_m_source_file>
/data/baiqing/PycharmProjects/Reinvent-master-3.2/result/LINK_invent/BTK/process_docking_weight1_custom_product_contain_oxygen_bond_distance_aromatic_linkinvent_7_9_3/rearranged_h_0010.sdf

> <i_m_source_file_index>
47

> <r_mmod_Potential_Energy-OPLS-2005>
1436.85461425781

> <r_mmod_Stretch_Energy-OPLS-2005>
628.198791503906

> <r_mmod_Bend_Energy-OPLS-2005>
457.053649902344

> <r_mmod_Torsional_Energy-OPLS-2005>
227.891204833984

> <r_mmod_Improper_Torsional_Energy-OPLS-2005>
10.7709455490112

> <r_mmod_Van_der_Waal_Energy-OPLS-2005>
120.172203063965

> <r_mmod_Electrostatic_Energy-OPLS-2005>
-314.261199951172

> <r_mmod_Solvation_Energy-OPLS-2005>
-209.591415405273

> <b_mmod_Minimization_Converged-OPLS-2005>
0

> <r_mmod_RMS_Derivative-OPLS-2005>
2.05114340782166

$$$$
47
                    3D
 Structure written by MMmdl.
164172  0  0  1  0            999 V2000
  -30.7121  -14.4129   20.5915 C   0  0  0  0  0  0
  -30.4219  -12.2728   19.4071 C   0  0  0  0  0  0
  -29.4937  -12.5039   18.1972 C   0  0  0  0  0  0
  -28.0126  -12.3698   18.6067 C   0  0  0  0  0  0
  -27.6664  -13.1944   19.8761 C   0  0  2  0  0  0
  -28.7093  -12.9441   20.9913 C   0  0  0  0  0  0
  -25.2624  -13.8112   20.5671 C   0  0  0  0  0  0
  -24.1862  -13.0415   20.9184 C   0  0  0  0  0  0
  -24.6400  -11.6882   20.8737 C   0  0  0  0  0  0
  -23.9061  -10.4279   21.0406 C   0  0  0  0  0  0
  -24.3619   -9.4196   21.9182 C   0  0  0  0  0  0
  -23.6292   -8.2235   22.0754 C   0  0  0  0  0  0
  -22.4273   -8.0278   21.3543 C   0  0  0  0  0  0
  -21.9907   -9.0254   20.4648 C   0  0  0  0  0  0
  -22.7237  -10.2130   20.3052 C   0  0  0  0  0  0
  -21.6852   -6.0738   22.5284 C   0  0  0  0  0  0
  -21.4012   -6.5640   23.8217 C   0  0  0  0  0  0
  -21.3657   -5.6790   24.9177 C   0  0  0  0  0  0
  -21.6044   -4.3052   24.7224 C   0  0  0  0  0  0
  -21.8819   -3.8148   23.4343 C   0  0  0  0  0  0
  -21.9193   -4.6967   22.3403 C   0  0  0  0  0  0
  -22.7891  -13.5237   21.1831 C   0  0  0  0  0  0
  -22.1661   -4.2156   21.0981 F   0  0  0  0  0  0
  -21.5627   -3.4535   25.7735 F   0  0  0  0  0  0
  -30.0419  -13.2407   20.4451 N   0  0  0  0  0  0
  -26.3052  -12.9262   20.3362 N   0  0  0  0  0  0
  -25.9321  -11.6436   20.5755 N   0  0  0  0  0  0
  -22.0521  -12.8244   22.0388 N   0  0  0  0  0  0
  -25.4355  -15.1815   20.4049 N   0  0  0  0  0  0
  -31.8340  -14.5933   20.1081 O   0  0  0  0  0  0
  -21.6631   -6.8883   21.4246 O   0  0  0  0  0  0
  -22.3595  -14.5546   20.6677 O   0  0  0  0  0  0
  -24.6114  -31.8705   23.2126 C   0  0  0  0  0  0
  -25.9018  -32.4834   23.8411 C   0  0  1  0  0  0
  -27.2331  -27.4654   20.0784 C   0  0  0  0  0  0
  -25.5895  -33.8638   24.2350 N   0  0  0  0  0  0
  -23.3969  -30.4954   21.5518 C   0  0  2  0  0  0
  -24.8404  -28.9658   20.1186 C   0  0  0  0  0  0
  -22.7380  -29.4681   22.4994 C   0  0  0  0  0  0
  -18.0268  -28.1386   22.8498 C   0  0  0  0  0  0
  -24.1482  -36.7322   23.2636 C   0  0  0  0  0  0
  -25.9243  -30.8463   21.3593 C   0  0  0  0  0  0
  -26.0007  -29.4838   20.7054 C   0  0  0  0  0  0
  -27.2009  -28.7423   20.6777 C   0  0  0  0  0  0
  -26.0486  -26.9525   19.4991 C   0  0  0  0  0  0
  -24.8570  -27.6978   19.5150 C   0  0  0  0  0  0
  -23.6019  -29.8277   20.1676 C   0  0  0  0  0  0
  -25.4103  -36.3128   24.0341 C   0  0  1  0  0  0
  -20.5854  -28.3669   23.1334 C   0  0  2  0  0  0
  -20.6767  -26.9408   22.5426 C   0  0  0  0  0  0
  -19.5749  -26.6394   21.5220 C   0  0  0  0  0  0
  -18.1921  -26.7937   22.1623 C   0  0  0  0  0  0
  -19.1513  -28.8840   23.2919 C   0  0  0  0  0  0
  -18.9440  -30.1451   23.8922 C   0  0  0  0  0  0
  -17.6447  -30.6592   24.0571 C   0  0  0  0  0  0
  -25.9025  -34.9487   23.5141 C   0  0  0  0  0  0
  -16.5338  -29.9099   23.6322 C   0  0  0  0  0  0
  -16.7259  -28.6520   23.0345 C   0  0  0  0  0  0
  -26.4470  -31.6601   25.0722 C   0  0  0  0  0  0
  -25.3761  -31.3689   26.1485 C   0  0  0  0  0  0
  -27.0283  -30.3041   24.6082 C   0  0  0  0  0  0
  -27.6060  -32.4311   25.7468 C   0  0  0  0  0  0
  -27.5580  -37.1812   24.8470 C   0  0  0  0  0  0
  -21.4112  -29.3046   22.3735 N   0  0  0  0  0  0
  -26.4295  -37.3805   23.9413 N   0  0  0  0  0  0
  -24.6623  -31.0839   22.1001 N   0  0  0  0  0  0
  -23.4167  -28.8203   23.3010 O   0  0  0  0  0  0
  -28.4246  -26.7745   20.0654 O   0  0  0  0  0  0
  -26.5581  -34.8933   22.4701 O   0  0  0  0  0  0
  -23.5314  -32.1433   23.7545 O   0  0  0  0  0  0
  -25.2514  -19.4026   19.2525 C   0  0  0  0  0  0
  -25.2720  -20.8054   19.3748 C   0  0  0  0  0  0
  -26.4595  -18.6810   19.2098 C   0  0  0  0  0  0
  -27.7096  -20.7643   19.4147 C   0  0  0  0  0  0
  -26.5011  -21.4926   19.4397 C   0  0  0  0  0  0
  -27.6944  -19.3588   19.3073 C   0  0  0  0  0  0
  -28.3516  -24.6265   18.8886 C   0  0  0  0  0  0
  -29.5502  -18.9575   21.6859 C   0  0  0  0  0  0
  -26.5239  -23.0057   19.5582 C   0  0  0  0  0  0
  -29.0027  -18.5819   19.2935 C   0  0  0  0  0  0
  -30.0151  -15.6246   21.2402 C   0  0  0  0  0  0
  -28.3599  -25.3582   20.2459 C   0  0  0  0  0  0
  -30.3913  -16.9469   20.5293 C   0  0  0  0  0  0
  -27.5091  -23.6078   18.6614 N   0  0  0  0  0  0
  -29.3095  -17.9646   20.6110 N   0  3  1  0  0  0
  -29.1190  -24.9954   17.9978 O   0  0  0  0  0  0
  -31.4671  -12.3621   19.1062 H   0  0  0  0  0  0
  -30.3101  -11.2545   19.7836 H   0  0  0  0  0  0
  -29.7276  -11.7948   17.4024 H   0  0  0  0  0  0
  -29.6726  -13.4972   17.7820 H   0  0  0  0  0  0
  -27.8122  -11.3126   18.7845 H   0  0  0  0  0  0
  -27.3656  -12.6628   17.7790 H   0  0  0  0  0  0
  -27.7179  -14.2448   19.5916 H   0  0  0  0  0  0
  -28.6743  -11.9003   21.3081 H   0  0  0  0  0  0
  -28.4840  -13.5174   21.8910 H   0  0  0  0  0  0
  -25.2774   -9.5666   22.4746 H   0  0  0  0  0  0
  -24.0006   -7.4623   22.7466 H   0  0  0  0  0  0
  -21.0840   -8.8768   19.8955 H   0  0  0  0  0  0
  -22.3703  -10.9665   19.6154 H   0  0  0  0  0  0
  -21.2003   -7.6148   23.9726 H   0  0  0  0  0  0
  -21.1476   -6.0516   25.9083 H   0  0  0  0  0  0
  -22.0603   -2.7611   23.2840 H   0  0  0  0  0  0
  -22.4118  -11.9904   22.4776 H   0  0  0  0  0  0
  -21.1137  -13.1269   22.2570 H   0  0  0  0  0  0
  -24.6601  -15.8294   20.4910 H   0  0  0  0  0  0
  -26.2682  -15.5996   20.0177 H   0  0  0  0  0  0
  -26.7089  -32.5549   23.1175 H   0  0  0  0  0  0
  -25.0071  -33.9814   25.0514 H   0  0  0  0  0  0
  -22.6860  -31.3122   21.4120 H   0  0  0  0  0  0
  -23.3747  -35.9655   23.3310 H   0  0  0  0  0  0
  -24.3575  -36.8916   22.2048 H   0  0  0  0  0  0
  -23.7223  -37.6530   23.6631 H   0  0  0  0  0  0
  -26.0351  -31.6153   20.5933 H   0  0  0  0  0  0
  -26.8142  -30.8976   21.9754 H   0  0  0  0  0  0
  -28.1015  -29.1446   21.1193 H   0  0  0  0  0  0
  -26.0252  -25.9902   19.0143 H   0  0  0  0  0  0
  -23.9626  -27.2938   19.0613 H   0  0  0  0  0  0
  -23.7057  -30.5999   19.4048 H   0  0  0  0  0  0
  -22.7285  -29.2422   19.8740 H   0  0  0  0  0  0
  -25.1272  -36.2009   25.0832 H   0  0  0  0  0  0
  -20.9952  -28.3237   24.1455 H   0  0  0  0  0  0
  -20.5676  -26.2274   23.3607 H   0  0  0  0  0  0
  -21.6634  -26.7467   22.1203 H   0  0  0  0  0  0
  -19.6907  -25.6309   21.1237 H   0  0  0  0  0  0
  -19.6691  -27.3216   20.6760 H   0  0  0  0  0  0
  -17.4192  -26.6692   21.4023 H   0  0  0  0  0  0
  -18.0315  -26.0080   22.9016 H   0  0  0  0  0  0
  -19.7917  -30.7267   24.2288 H   0  0  0  0  0  0
  -17.5004  -31.6267   24.5180 H   0  0  0  0  0  0
  -15.5341  -30.3013   23.7642 H   0  0  0  0  0  0
  -15.8657  -28.0851   22.7047 H   0  0  0  0  0  0
  -24.5963  -30.6982   25.7848 H   0  0  0  0  0  0
  -24.8916  -32.2831   26.4925 H   0  0  0  0  0  0
  -25.8159  -30.8893   27.0240 H   0  0  0  0  0  0
  -26.2817  -29.6817   24.1133 H   0  0  0  0  0  0
  -27.4041  -29.7256   25.4533 H   0  0  0  0  0  0
  -27.8663  -30.4342   23.9229 H   0  0  0  0  0  0
  -27.2694  -33.3612   26.2066 H   0  0  0  0  0  0
  -28.3864  -32.6870   25.0285 H   0  0  0  0  0  0
  -28.0743  -31.8417   26.5363 H   0  0  0  0  0  0
  -28.2610  -38.0099   24.7518 H   0  0  0  0  0  0
  -28.1062  -36.2631   24.6297 H   0  0  0  0  0  0
  -27.2298  -37.1469   25.8874 H   0  0  0  0  0  0
  -20.9255  -29.8774   21.6970 H   0  0  0  0  0  0
  -26.0190  -38.2885   24.1422 H   0  0  0  0  0  0
  -24.3068  -18.8790   19.1899 H   0  0  0  0  0  0
  -24.3392  -21.3518   19.4119 H   0  0  0  0  0  0
  -26.4297  -17.6054   19.1047 H   0  0  0  0  0  0
  -28.6534  -21.2889   19.4839 H   0  0  0  0  0  0
  -28.6760  -19.5860   21.8543 H   0  0  0  0  0  0
  -30.3913  -19.6068   21.4398 H   0  0  0  0  0  0
  -29.7712  -18.4620   22.6314 H   0  0  0  0  0  0
  -26.7099  -23.2184   20.6085 H   0  0  0  0  0  0
  -25.5422  -23.4190   19.3214 H   0  0  0  0  0  0
  -29.8253  -19.2283   18.9828 H   0  0  0  0  0  0
  -28.9123  -17.8106   18.5262 H   0  0  0  0  0  0
  -28.9360  -15.5105   21.1723 H   0  0  0  0  0  0
  -30.2606  -15.6657   22.3015 H   0  0  0  0  0  0
  -29.2552  -25.0461   20.7833 H   0  0  0  0  0  0
  -27.5216  -25.1096   20.8929 H   0  0  0  0  0  0
  -30.6075  -16.7441   19.4786 H   0  0  0  0  0  0
  -31.3262  -17.3389   20.9330 H   0  0  0  0  0  0
  -27.5581  -23.1928   17.7422 H   0  0  0  0  0  0
  -28.4699  -17.4718   20.8708 H   0  0  0  0  0  0
  1 25  1  0  0  0
  1 30  2  0  0  0
  1 81  1  0  0  0
  2  3  1  0  0  0
  2 25  1  0  0  0
  2 87  1  0  0  0
  2 88  1  0  0  0
  3  4  1  0  0  0
  3 89  1  0  0  0
  3 90  1  0  0  0
  4  5  1  0  0  0
  4 91  1  0  0  0
  4 92  1  0  0  0
  5  6  1  0  0  0
  5 26  1  0  0  0
  5 93  1  0  0  0
  6 25  1  0  0  0
  6 94  1  0  0  0
  6 95  1  0  0  0
  7  8  2  0  0  0
  7 26  1  0  0  0
  7 29  1  0  0  0
  8  9  1  0  0  0
  8 22  1  0  0  0
  9 10  1  0  0  0
  9 27  2  0  0  0
 10 11  2  0  0  0
 10 15  1  0  0  0
 11 12  1  0  0  0
 11 96  1  0  0  0
 12 13  2  0  0  0
 12 97  1  0  0  0
 13 14  1  0  0  0
 13 31  1  0  0  0
 14 15  2  0  0  0
 14 98  1  0  0  0
 15 99  1  0  0  0
 16 17  2  0  0  0
 16 21  1  0  0  0
 16 31  1  0  0  0
 17 18  1  0  0  0
 17100  1  0  0  0
 18 19  2  0  0  0
 18101  1  0  0  0
 19 20  1  0  0  0
 19 24  1  0  0  0
 20 21  2  0  0  0
 20102  1  0  0  0
 21 23  1  0  0  0
 22 28  1  0  0  0
 22 32  2  0  0  0
 26 27  1  0  0  0
 28103  1  0  0  0
 28104  1  0  0  0
 29105  1  0  0  0
 29106  1  0  0  0
 33 34  1  0  0  0
 33 66  1  0  0  0
 33 70  2  0  0  0
 34 36  1  0  0  0
 34 59  1  0  0  0
 34107  1  0  0  0
 35 44  2  0  0  0
 35 45  1  0  0  0
 35 68  1  0  0  0
 36 56  1  0  0  0
 36108  1  0  0  0
 37 39  1  0  0  0
 37 47  1  0  0  0
 37 66  1  0  0  0
 37109  1  0  0  0
 38 43  2  0  0  0
 38 46  1  0  0  0
 38 47  1  0  0  0
 39 64  1  0  0  0
 39 67  2  0  0  0
 40 52  1  0  0  0
 40 53  2  0  0  0
 40 58  1  0  0  0
 41110  1  0  0  0
 41111  1  0  0  0
 41112  1  0  0  0
 41 48  1  0  0  0
 42 43  1  0  0  0
 42 66  1  0  0  0
 42113  1  0  0  0
 42114  1  0  0  0
 43 44  1  0  0  0
 44115  1  0  0  0
 45 46  2  0  0  0
 45116  1  0  0  0
 46117  1  0  0  0
 47118  1  0  0  0
 47119  1  0  0  0
 48 56  1  0  0  0
 48 65  1  0  0  0
 48120  1  0  0  0
 49 50  1  0  0  0
 49 53  1  0  0  0
 49 64  1  0  0  0
 49121  1  0  0  0
 50 51  1  0  0  0
 50122  1  0  0  0
 50123  1  0  0  0
 51 52  1  0  0  0
 51124  1  0  0  0
 51125  1  0  0  0
 52126  1  0  0  0
 52127  1  0  0  0
 53 54  1  0  0  0
 54 55  2  0  0  0
 54128  1  0  0  0
 55 57  1  0  0  0
 55129  1  0  0  0
 56 69  2  0  0  0
 57 58  2  0  0  0
 57130  1  0  0  0
 58131  1  0  0  0
 59 60  1  0  0  0
 59 61  1  0  0  0
 59 62  1  0  0  0
 60132  1  0  0  0
 60133  1  0  0  0
 60134  1  0  0  0
 61135  1  0  0  0
 61136  1  0  0  0
 61137  1  0  0  0
 62138  1  0  0  0
 62139  1  0  0  0
 62140  1  0  0  0
 63 65  1  0  0  0
 63141  1  0  0  0
 63142  1  0  0  0
 63143  1  0  0  0
 64144  1  0  0  0
 65145  1  0  0  0
 68 82  1  0  0  0
 71 72  2  0  0  0
 71 73  1  0  0  0
 71146  1  0  0  0
 72 75  1  0  0  0
 72147  1  0  0  0
 73 76  2  0  0  0
 73148  1  0  0  0
 74 75  2  0  0  0
 74 76  1  0  0  0
 74149  1  0  0  0
 75 79  1  0  0  0
 76 80  1  0  0  0
 77 82  1  0  0  0
 77 84  1  0  0  0
 77 86  2  0  0  0
 78150  1  0  0  0
 78151  1  0  0  0
 78152  1  0  0  0
 78 85  1  0  0  0
 79 84  1  0  0  0
 79153  1  0  0  0
 79154  1  0  0  0
 80 85  1  0  0  0
 80155  1  0  0  0
 80156  1  0  0  0
 81 83  1  0  0  0
 81157  1  0  0  0
 81158  1  0  0  0
 82159  1  0  0  0
 82160  1  0  0  0
 83 85  1  0  0  0
 83161  1  0  0  0
 83162  1  0  0  0
 84163  1  0  0  0
 85164  1  0  0  0
M  CHG  1  85   1
M  ISO  4   1 100  68 101  81 100  82 101
M  END
> <chiral flag>
0

> <version>
0

> <s_m_source_file>
/data/baiqing/PycharmProjects/Reinvent-master-3.2/result/LINK_invent/BTK/process_docking_weight1_custom_product_contain_oxygen_bond_distance_aromatic_linkinvent_7_9_3/rearranged_h_0010.sdf

> <i_m_source_file_index>
48

> <r_mmod_Potential_Energy-OPLS-2005>
-262.019653320312

> <r_mmod_Stretch_Energy-OPLS-2005>
33.2997894287109

> <r_mmod_Bend_Energy-OPLS-2005>
95.8658599853516

> <r_mmod_Torsional_Energy-OPLS-2005>
190.198364257812

> <r_mmod_Improper_Torsional_Energy-OPLS-2005>
3.49462580680847

> <r_mmod_Van_der_Waal_Energy-OPLS-2005>
157.731903076172

> <r_mmod_Electrostatic_Energy-OPLS-2005>
-274.070617675781

> <r_mmod_Solvation_Energy-OPLS-2005>
-478.125946044922

> <b_mmod_Minimization_Converged-OPLS-2005>
0

> <r_mmod_RMS_Derivative-OPLS-2005>
1.36369597911835

$$$$
48
                    3D
 Structure written by MMmdl.
160169  0  0  1  0            999 V2000
  -30.5915  -14.6650   20.4890 C   0  0  0  0  0  0
  -30.4488  -12.4113   19.4289 C   0  0  0  0  0  0
  -29.4991  -12.5109   18.2109 C   0  0  0  0  0  0
  -28.0234  -12.3495   18.6287 C   0  0  0  0  0  0
  -27.6558  -13.2110   19.8653 C   0  0  2  0  0  0
  -28.7094  -13.0479   20.9862 C   0  0  0  0  0  0
  -25.2549  -13.8129   20.5578 C   0  0  0  0  0  0
  -24.1832  -13.0415   20.9160 C   0  0  0  0  0  0
  -24.6407  -11.6897   20.8753 C   0  0  0  0  0  0
  -23.9074  -10.4290   21.0422 C   0  0  0  0  0  0
  -24.3623   -9.4204   21.9195 C   0  0  0  0  0  0
  -23.6298   -8.2240   22.0771 C   0  0  0  0  0  0
  -22.4279   -8.0281   21.3555 C   0  0  0  0  0  0
  -21.9914   -9.0256   20.4653 C   0  0  0  0  0  0
  -22.7244  -10.2133   20.3076 C   0  0  0  0  0  0
  -21.6848   -6.0737   22.5283 C   0  0  0  0  0  0
  -21.3999   -6.5644   23.8208 C   0  0  0  0  0  0
  -21.3652   -5.6800   24.9165 C   0  0  0  0  0  0
  -21.6054   -4.3071   24.7217 C   0  0  0  0  0  0
  -21.8814   -3.8158   23.4338 C   0  0  0  0  0  0
  -21.9189   -4.6971   22.3398 C   0  0  0  0  0  0
  -22.7858  -13.5228   21.1816 C   0  0  0  0  0  0
  -22.1666   -4.2164   21.0975 F   0  0  0  0  0  0
  -21.5627   -3.4555   25.7725 F   0  0  0  0  0  0
  -30.0188  -13.4186   20.4204 N   0  0  0  0  0  0
  -26.3010  -12.9317   20.3329 N   0  0  0  0  0  0
  -25.9353  -11.6486   20.5827 N   0  0  0  0  0  0
  -22.0508  -12.8241   22.0379 N   0  0  0  0  0  0
  -25.4174  -15.1812   20.3747 N   0  0  0  0  0  0
  -31.7383  -14.8724   20.0791 O   0  0  0  0  0  0
  -21.6637   -6.8881   21.4249 O   0  0  0  0  0  0
  -22.3548  -14.5537   20.6660 O   0  0  0  0  0  0
  -24.6252  -31.8554   23.1985 C   0  0  0  0  0  0
  -25.9111  -32.4749   23.8317 C   0  0  1  0  0  0
  -27.2386  -27.3076   20.1340 C   0  0  0  0  0  0
  -25.5926  -33.8554   24.2265 N   0  0  0  0  0  0
  -23.4213  -30.4773   21.5388 C   0  0  2  0  0  0
  -24.8726  -28.9157   20.1212 C   0  0  0  0  0  0
  -22.7492  -29.4575   22.4880 C   0  0  0  0  0  0
  -18.0296  -28.1402   22.8435 C   0  0  0  0  0  0
  -24.1499  -36.7269   23.2649 C   0  0  0  0  0  0
  -25.9619  -30.7817   21.3724 C   0  0  0  0  0  0
  -26.0374  -29.4057   20.7210 C   0  0  0  0  0  0
  -27.2251  -28.6166   20.7108 C   0  0  0  0  0  0
  -26.0501  -26.8554   19.5265 C   0  0  0  0  0  0
  -24.8788  -27.6459   19.5178 C   0  0  0  0  0  0
  -23.6439  -29.8047   20.1578 C   0  0  0  0  0  0
  -25.4104  -36.3047   24.0356 C   0  0  1  0  0  0
  -20.5897  -28.3689   23.1270 C   0  0  2  0  0  0
  -20.6791  -26.9403   22.5413 C   0  0  0  0  0  0
  -19.5775  -26.6360   21.5223 C   0  0  0  0  0  0
  -18.1944  -26.7928   22.1598 C   0  0  0  0  0  0
  -19.1550  -28.8849   23.2838 C   0  0  0  0  0  0
  -18.9475  -30.1433   23.8870 C   0  0  0  0  0  0
  -17.6483  -30.6581   24.0542 C   0  0  0  0  0  0
  -25.9047  -34.9441   23.5112 C   0  0  0  0  0  0
  -16.5373  -29.9069   23.6345 C   0  0  0  0  0  0
  -16.7279  -28.6520   23.0298 C   0  0  0  0  0  0
  -26.4510  -31.6568   25.0694 C   0  0  0  0  0  0
  -25.3751  -31.3732   26.1442 C   0  0  0  0  0  0
  -27.0384  -30.2993   24.6137 C   0  0  0  0  0  0
  -27.6048  -32.4326   25.7474 C   0  0  0  0  0  0
  -27.5571  -37.1776   24.8469 C   0  0  0  0  0  0
  -21.4200  -29.3037   22.3664 N   0  0  0  0  0  0
  -26.4275  -37.3742   23.9431 N   0  0  0  0  0  0
  -24.6887  -31.0551   22.0941 N   0  0  0  0  0  0
  -23.4235  -28.8093   23.2944 O   0  0  0  0  0  0
  -28.3977  -26.5244   20.0739 O   0  0  0  0  0  0
  -26.5590  -34.8893   22.4658 O   0  0  0  0  0  0
  -23.5414  -32.1374   23.7305 O   0  0  0  0  0  0
  -30.2059  -19.4486   20.0424 C   0  0  0  0  0  0
  -30.4536  -18.0235   20.0514 C   0  0  0  0  0  0
  -28.3760  -19.1293   21.5420 C   0  0  0  0  0  0
  -28.6271  -17.7448   21.5563 C   0  0  0  0  0  0
  -29.1458  -20.0616   20.7935 C   0  0  0  0  0  0
  -29.6622  -17.1186   20.8239 C   0  0  0  0  0  0
  -27.2349  -19.4699   22.4756 C   0  0  0  0  0  0
  -27.6833  -17.0269   22.4894 C   0  0  0  0  0  0
  -26.6990  -18.1095   22.9696 C   0  0  0  0  0  0
  -28.8471  -21.6193   20.9444 C   0  0  0  0  0  0
  -28.2596  -23.8732   19.6775 C   0  0  0  0  0  0
  -28.4582  -25.1443   20.6225 C   0  0  0  0  0  0
  -29.7496  -15.6554   20.9218 N   0  0  0  0  0  0
  -29.1364  -22.6216   19.8484 N   0  3  0  0  0  0
  -31.4813  -12.5647   19.1085 H   0  0  0  0  0  0
  -30.4137  -11.4108   19.8628 H   0  0  0  0  0  0
  -29.7553  -11.7550   17.4681 H   0  0  0  0  0  0
  -29.6324  -13.4778   17.7196 H   0  0  0  0  0  0
  -27.8495  -11.2949   18.8458 H   0  0  0  0  0  0
  -27.3665  -12.5964   17.7929 H   0  0  0  0  0  0
  -27.6762  -14.2489   19.5324 H   0  0  0  0  0  0
  -28.7369  -12.0162   21.3412 H   0  0  0  0  0  0
  -28.4527  -13.6495   21.8596 H   0  0  0  0  0  0
  -25.2771   -9.5671   22.4773 H   0  0  0  0  0  0
  -23.9996   -7.4633   22.7504 H   0  0  0  0  0  0
  -21.0840   -8.8768   19.8969 H   0  0  0  0  0  0
  -22.3697  -10.9672   19.6188 H   0  0  0  0  0  0
  -21.1991   -7.6155   23.9706 H   0  0  0  0  0  0
  -21.1479   -6.0536   25.9065 H   0  0  0  0  0  0
  -22.0604   -2.7627   23.2829 H   0  0  0  0  0  0
  -22.4113  -11.9882   22.4742 H   0  0  0  0  0  0
  -21.1151  -13.1301   22.2633 H   0  0  0  0  0  0
  -24.6471  -15.8324   20.4753 H   0  0  0  0  0  0
  -26.2526  -15.6139   20.0019 H   0  0  0  0  0  0
  -26.7151  -32.5423   23.1034 H   0  0  0  0  0  0
  -25.0194  -33.9722   25.0487 H   0  0  0  0  0  0
  -22.7134  -31.2971   21.3868 H   0  0  0  0  0  0
  -23.3768  -35.9601   23.3293 H   0  0  0  0  0  0
  -24.3591  -36.8885   22.2067 H   0  0  0  0  0  0
  -23.7272  -37.6472   23.6668 H   0  0  0  0  0  0
  -26.0985  -31.5373   20.5969 H   0  0  0  0  0  0
  -26.8430  -30.8311   22.0009 H   0  0  0  0  0  0
  -28.1295  -29.0022   21.1590 H   0  0  0  0  0  0
  -26.0287  -25.8911   19.0405 H   0  0  0  0  0  0
  -23.9868  -27.2650   19.0443 H   0  0  0  0  0  0
  -23.7817  -30.5812   19.4030 H   0  0  0  0  0  0
  -22.7627  -29.2451   19.8408 H   0  0  0  0  0  0
  -25.1281  -36.1892   25.0855 H   0  0  0  0  0  0
  -20.9962  -28.3251   24.1400 H   0  0  0  0  0  0
  -20.5729  -26.2274   23.3588 H   0  0  0  0  0  0
  -21.6650  -26.7439   22.1192 H   0  0  0  0  0  0
  -19.6960  -25.6273   21.1242 H   0  0  0  0  0  0
  -19.6755  -27.3155   20.6742 H   0  0  0  0  0  0
  -17.4226  -26.6657   21.3986 H   0  0  0  0  0  0
  -18.0320  -26.0098   22.9012 H   0  0  0  0  0  0
  -19.7968  -30.7239   24.2219 H   0  0  0  0  0  0
  -17.5060  -31.6261   24.5134 H   0  0  0  0  0  0
  -15.5380  -30.2963   23.7688 H   0  0  0  0  0  0
  -15.8684  -28.0856   22.6984 H   0  0  0  0  0  0
  -24.5902  -30.7108   25.7765 H   0  0  0  0  0  0
  -24.8995  -32.2933   26.4842 H   0  0  0  0  0  0
  -25.8078  -30.8915   27.0212 H   0  0  0  0  0  0
  -26.2955  -29.6710   24.1213 H   0  0  0  0  0  0
  -27.4174  -29.7280   25.4608 H   0  0  0  0  0  0
  -27.8768  -30.4309   23.9305 H   0  0  0  0  0  0
  -27.2631  -33.3640   26.2003 H   0  0  0  0  0  0
  -28.3875  -32.6876   25.0319 H   0  0  0  0  0  0
  -28.0693  -31.8509   26.5428 H   0  0  0  0  0  0
  -28.2546  -38.0106   24.7477 H   0  0  0  0  0  0
  -28.1114  -36.2620   24.6321 H   0  0  0  0  0  0
  -27.2302  -37.1437   25.8879 H   0  0  0  0  0  0
  -20.9366  -29.8760   21.6887 H   0  0  0  0  0  0
  -26.0162  -38.2822   24.1414 H   0  0  0  0  0  0
  -30.8635  -20.0740   19.4547 H   0  0  0  0  0  0
  -31.2662  -17.6342   19.4526 H   0  0  0  0  0  0
  -26.4509  -20.0361   21.9730 H   0  0  0  0  0  0
  -27.6097  -20.0650   23.3094 H   0  0  0  0  0  0
  -28.2463  -16.6093   23.3244 H   0  0  0  0  0  0
  -27.1730  -16.2095   21.9849 H   0  0  0  0  0  0
  -25.7218  -17.9229   22.5225 H   0  0  0  0  0  0
  -26.5639  -18.0867   24.0512 H   0  0  0  0  0  0
  -29.3488  -21.9658   21.8494 H   0  0  0  0  0  0
  -27.7823  -21.7228   21.1505 H   0  0  0  0  0  0
  -28.4366  -24.2128   18.6571 H   0  0  0  0  0  0
  -27.2107  -23.5744   19.6949 H   0  0  0  0  0  0
  -29.4578  -25.0718   21.0511 H   0  0  0  0  0  0
  -27.7918  -25.0669   21.4842 H   0  0  0  0  0  0
  -28.9235  -15.2480   21.3325 H   0  0  0  0  0  0
  -29.0482  -22.1080   18.9863 H   0  0  0  0  0  0
  -30.1059  -22.8931   19.9084 H   0  0  0  0  0  0
  1 25  1  0  0  0
  1 30  2  0  0  0
  1 83  1  0  0  0
  2  3  1  0  0  0
  2 25  1  0  0  0
  2 85  1  0  0  0
  2 86  1  0  0  0
  3  4  1  0  0  0
  3 87  1  0  0  0
  3 88  1  0  0  0
  4  5  1  0  0  0
  4 89  1  0  0  0
  4 90  1  0  0  0
  5  6  1  0  0  0
  5 26  1  0  0  0
  5 91  1  0  0  0
  6 25  1  0  0  0
  6 92  1  0  0  0
  6 93  1  0  0  0
  7  8  2  0  0  0
  7 26  1  0  0  0
  7 29  1  0  0  0
  8  9  1  0  0  0
  8 22  1  0  0  0
  9 10  1  0  0  0
  9 27  2  0  0  0
 10 11  2  0  0  0
 10 15  1  0  0  0
 11 12  1  0  0  0
 11 94  1  0  0  0
 12 13  2  0  0  0
 12 95  1  0  0  0
 13 14  1  0  0  0
 13 31  1  0  0  0
 14 15  2  0  0  0
 14 96  1  0  0  0
 15 97  1  0  0  0
 16 17  2  0  0  0
 16 21  1  0  0  0
 16 31  1  0  0  0
 17 18  1  0  0  0
 17 98  1  0  0  0
 18 19  2  0  0  0
 18 99  1  0  0  0
 19 20  1  0  0  0
 19 24  1  0  0  0
 20 21  2  0  0  0
 20100  1  0  0  0
 21 23  1  0  0  0
 22 28  1  0  0  0
 22 32  2  0  0  0
 26 27  1  0  0  0
 28101  1  0  0  0
 28102  1  0  0  0
 29103  1  0  0  0
 29104  1  0  0  0
 33 34  1  0  0  0
 33 66  1  0  0  0
 33 70  2  0  0  0
 34 36  1  0  0  0
 34 59  1  0  0  0
 34105  1  0  0  0
 35 44  2  0  0  0
 35 45  1  0  0  0
 35 68  1  0  0  0
 36 56  1  0  0  0
 36106  1  0  0  0
 37 39  1  0  0  0
 37 47  1  0  0  0
 37 66  1  0  0  0
 37107  1  0  0  0
 38 43  2  0  0  0
 38 46  1  0  0  0
 38 47  1  0  0  0
 39 64  1  0  0  0
 39 67  2  0  0  0
 40 52  1  0  0  0
 40 53  2  0  0  0
 40 58  1  0  0  0
 41108  1  0  0  0
 41109  1  0  0  0
 41110  1  0  0  0
 41 48  1  0  0  0
 42 43  1  0  0  0
 42 66  1  0  0  0
 42111  1  0  0  0
 42112  1  0  0  0
 43 44  1  0  0  0
 44113  1  0  0  0
 45 46  2  0  0  0
 45114  1  0  0  0
 46115  1  0  0  0
 47116  1  0  0  0
 47117  1  0  0  0
 48 56  1  0  0  0
 48 65  1  0  0  0
 48118  1  0  0  0
 49 50  1  0  0  0
 49 53  1  0  0  0
 49 64  1  0  0  0
 49119  1  0  0  0
 50 51  1  0  0  0
 50120  1  0  0  0
 50121  1  0  0  0
 51 52  1  0  0  0
 51122  1  0  0  0
 51123  1  0  0  0
 52124  1  0  0  0
 52125  1  0  0  0
 53 54  1  0  0  0
 54 55  2  0  0  0
 54126  1  0  0  0
 55 57  1  0  0  0
 55127  1  0  0  0
 56 69  2  0  0  0
 57 58  2  0  0  0
 57128  1  0  0  0
 58129  1  0  0  0
 59 60  1  0  0  0
 59 61  1  0  0  0
 59 62  1  0  0  0
 60130  1  0  0  0
 60131  1  0  0  0
 60132  1  0  0  0
 61133  1  0  0  0
 61134  1  0  0  0
 61135  1  0  0  0
 62136  1  0  0  0
 62137  1  0  0  0
 62138  1  0  0  0
 63 65  1  0  0  0
 63139  1  0  0  0
 63140  1  0  0  0
 63141  1  0  0  0
 64142  1  0  0  0
 65143  1  0  0  0
 68 82  1  0  0  0
 71 72  2  0  0  0
 71 75  1  0  0  0
 71144  1  0  0  0
 72 76  1  0  0  0
 72145  1  0  0  0
 73 74  1  0  0  0
 73 75  2  0  0  0
 73 77  1  0  0  0
 74 76  2  0  0  0
 74 78  1  0  0  0
 75 80  1  0  0  0
 76 83  1  0  0  0
 77 79  1  0  0  0
 77146  1  0  0  0
 77147  1  0  0  0
 78 79  1  0  0  0
 78148  1  0  0  0
 78149  1  0  0  0
 79150  1  0  0  0
 79151  1  0  0  0
 80 84  1  0  0  0
 80152  1  0  0  0
 80153  1  0  0  0
 81 82  1  0  0  0
 81 84  1  0  0  0
 81154  1  0  0  0
 81155  1  0  0  0
 82156  1  0  0  0
 82157  1  0  0  0
 83158  1  0  0  0
 84159  1  0  0  0
 84160  1  0  0  0
M  CHG  1  84   1
M  ISO  4   1 100  68 101  82 101  83 100
M  END
> <chiral flag>
0

> <version>
0

> <s_m_source_file>
/data/baiqing/PycharmProjects/Reinvent-master-3.2/result/LINK_invent/BTK/process_docking_weight1_custom_product_contain_oxygen_bond_distance_aromatic_linkinvent_7_9_3/rearranged_h_0010.sdf

> <i_m_source_file_index>
49

> <r_mmod_Potential_Energy-OPLS-2005>
-11.0767679214478

> <r_mmod_Stretch_Energy-OPLS-2005>
88.8315048217773

> <r_mmod_Bend_Energy-OPLS-2005>
218.791732788086

> <r_mmod_Torsional_Energy-OPLS-2005>
256.613952636719

> <r_mmod_Improper_Torsional_Energy-OPLS-2005>
4.04631567001343

> <r_mmod_Van_der_Waal_Energy-OPLS-2005>
126.848457336426

> <r_mmod_Electrostatic_Energy-OPLS-2005>
-298.686737060547

> <r_mmod_Solvation_Energy-OPLS-2005>
-458.2705078125

> <b_mmod_Minimization_Converged-OPLS-2005>
0

> <r_mmod_RMS_Derivative-OPLS-2005>
3.70397186279297

$$$$
49
                    3D
 Structure written by MMmdl.
151159  0  0  1  0            999 V2000
  -30.6215  -14.6467   20.4927 C   0  0  0  0  0  0
  -30.4407  -12.3957   19.4503 C   0  0  0  0  0  0
  -29.5080  -12.5074   18.2234 C   0  0  0  0  0  0
  -28.0310  -12.3448   18.6369 C   0  0  0  0  0  0
  -27.6531  -13.2179   19.8634 C   0  0  2  0  0  0
  -28.7004  -13.0767   20.9916 C   0  0  0  0  0  0
  -25.2552  -13.8167   20.5692 C   0  0  0  0  0  0
  -24.1817  -13.0425   20.9166 C   0  0  0  0  0  0
  -24.6396  -11.6902   20.8726 C   0  0  0  0  0  0
  -23.9065  -10.4286   21.0398 C   0  0  0  0  0  0
  -24.3615   -9.4205   21.9181 C   0  0  0  0  0  0
  -23.6291   -8.2241   22.0754 C   0  0  0  0  0  0
  -22.4273   -8.0278   21.3545 C   0  0  0  0  0  0
  -21.9906   -9.0250   20.4646 C   0  0  0  0  0  0
  -22.7236  -10.2128   20.3050 C   0  0  0  0  0  0
  -21.6852   -6.0733   22.5280 C   0  0  0  0  0  0
  -21.4013   -6.5637   23.8213 C   0  0  0  0  0  0
  -21.3660   -5.6791   24.9175 C   0  0  0  0  0  0
  -21.6045   -4.3053   24.7225 C   0  0  0  0  0  0
  -21.8819   -3.8144   23.4346 C   0  0  0  0  0  0
  -21.9192   -4.6961   22.3403 C   0  0  0  0  0  0
  -22.7841  -13.5220   21.1842 C   0  0  0  0  0  0
  -22.1662   -4.2147   21.0981 F   0  0  0  0  0  0
  -21.5630   -3.4537   25.7739 F   0  0  0  0  0  0
  -30.0151  -13.4189   20.4251 N   0  0  0  0  0  0
  -26.2995  -12.9359   20.3338 N   0  0  0  0  0  0
  -25.9330  -11.6508   20.5761 N   0  0  0  0  0  0
  -22.0489  -12.8217   22.0407 N   0  0  0  0  0  0
  -25.4214  -15.1896   20.4180 N   0  0  0  0  0  0
  -31.7915  -14.8056   20.1326 O   0  0  0  0  0  0
  -21.6637   -6.8876   21.4242 O   0  0  0  0  0  0
  -22.3520  -14.5528   20.6698 O   0  0  0  0  0  0
  -24.6266  -31.8601   23.2031 C   0  0  0  0  0  0
  -25.9113  -32.4780   23.8358 C   0  0  1  0  0  0
  -27.2236  -27.3176   20.1118 C   0  0  0  0  0  0
  -25.5926  -33.8581   24.2283 N   0  0  0  0  0  0
  -23.4199  -30.4850   21.5463 C   0  0  2  0  0  0
  -24.8656  -28.9422   20.1113 C   0  0  0  0  0  0
  -22.7476  -29.4628   22.4939 C   0  0  0  0  0  0
  -18.0286  -28.1384   22.8487 C   0  0  0  0  0  0
  -24.1489  -36.7296   23.2639 C   0  0  0  0  0  0
  -25.9621  -30.7907   21.3744 C   0  0  0  0  0  0
  -26.0362  -29.4188   20.7147 C   0  0  0  0  0  0
  -27.2183  -28.6189   20.7045 C   0  0  0  0  0  0
  -26.0260  -26.8968   19.4857 C   0  0  0  0  0  0
  -24.8626  -27.6866   19.4884 C   0  0  0  0  0  0
  -23.6342  -29.8222   20.1610 C   0  0  0  0  0  0
  -25.4113  -36.3085   24.0330 C   0  0  1  0  0  0
  -20.5886  -28.3689   23.1283 C   0  0  2  0  0  0
  -20.6775  -26.9414   22.5408 C   0  0  0  0  0  0
  -19.5750  -26.6385   21.5212 C   0  0  0  0  0  0
  -18.1931  -26.7926   22.1626 C   0  0  0  0  0  0
  -19.1538  -28.8853   23.2880 C   0  0  0  0  0  0
  -18.9460  -30.1455   23.8897 C   0  0  0  0  0  0
  -17.6461  -30.6587   24.0563 C   0  0  0  0  0  0
  -25.9051  -34.9454   23.5107 C   0  0  0  0  0  0
  -16.5352  -29.9086   23.6329 C   0  0  0  0  0  0
  -16.7273  -28.6503   23.0352 C   0  0  0  0  0  0
  -26.4494  -31.6587   25.0728 C   0  0  0  0  0  0
  -25.3727  -31.3725   26.1454 C   0  0  0  0  0  0
  -27.0334  -30.3010   24.6182 C   0  0  0  0  0  0
  -27.6054  -32.4320   25.7498 C   0  0  0  0  0  0
  -27.5580  -37.1804   24.8465 C   0  0  0  0  0  0
  -21.4189  -29.3045   22.3680 N   0  0  0  0  0  0
  -26.4293  -37.3779   23.9407 N   0  0  0  0  0  0
  -24.6885  -31.0614   22.0981 N   0  0  0  0  0  0
  -23.4201  -28.8163   23.3014 O   0  0  0  0  0  0
  -28.3403  -26.4633   20.1602 O   0  0  0  0  0  0
  -26.5620  -34.8919   22.4674 O   0  0  0  0  0  0
  -23.5429  -32.1399   23.7358 O   0  0  0  0  0  0
  -31.1180  -17.8849   20.6034 C   0  0  0  0  0  0
  -31.1123  -19.3107   20.5262 C   0  0  0  0  0  0
  -28.7106  -19.3389   20.5192 C   0  0  0  0  0  0
  -29.9083  -17.1463   20.6525 C   0  0  0  0  0  0
  -29.9190  -20.0843   20.4854 C   0  0  0  0  0  0
  -28.7114  -17.9126   20.6067 C   0  0  0  0  0  0
  -29.2528  -23.9564   20.3436 C   0  0  0  0  0  0
  -28.1015  -25.0048   20.0220 C   0  0  0  0  0  0
  -28.8904  -22.3990   20.2827 C   0  0  0  0  0  0
  -29.7931  -15.6941   20.7921 N   0  0  0  0  0  0
  -30.0305  -21.4919   20.4337 O   0  0  0  0  0  0
  -27.5271  -17.2553   20.6481 F   0  0  0  0  0  0
  -31.4812  -12.5238   19.1468 H   0  0  0  0  0  0
  -30.3783  -11.4007   19.8940 H   0  0  0  0  0  0
  -29.7724  -11.7555   17.4787 H   0  0  0  0  0  0
  -29.6485  -13.4764   17.7417 H   0  0  0  0  0  0
  -27.8691  -11.2920   18.8707 H   0  0  0  0  0  0
  -27.3755  -12.5722   17.7955 H   0  0  0  0  0  0
  -27.6666  -14.2522   19.5190 H   0  0  0  0  0  0
  -28.7131  -12.0565   21.3781 H   0  0  0  0  0  0
  -28.4480  -13.7124   21.8419 H   0  0  0  0  0  0
  -25.2760   -9.5683   22.4755 H   0  0  0  0  0  0
  -23.9999   -7.4633   22.7474 H   0  0  0  0  0  0
  -21.0836   -8.8767   19.8954 H   0  0  0  0  0  0
  -22.3693  -10.9665   19.6157 H   0  0  0  0  0  0
  -21.2003   -7.6146   23.9716 H   0  0  0  0  0  0
  -21.1485   -6.0521   25.9079 H   0  0  0  0  0  0
  -22.0598   -2.7606   23.2846 H   0  0  0  0  0  0
  -22.4103  -11.9877   22.4793 H   0  0  0  0  0  0
  -21.1112  -13.1253   22.2622 H   0  0  0  0  0  0
  -24.6550  -15.8367   20.5619 H   0  0  0  0  0  0
  -26.2902  -15.6637   20.1983 H   0  0  0  0  0  0
  -26.7180  -32.5450   23.1107 H   0  0  0  0  0  0
  -25.0065  -33.9725   25.0423 H   0  0  0  0  0  0
  -22.7139  -31.3059   21.4047 H   0  0  0  0  0  0
  -23.3749  -35.9632   23.3306 H   0  0  0  0  0  0
  -24.3580  -36.8912   22.2052 H   0  0  0  0  0  0
  -23.7246  -37.6502   23.6657 H   0  0  0  0  0  0
  -26.0942  -31.5552   20.6075 H   0  0  0  0  0  0
  -26.8423  -30.8379   22.0041 H   0  0  0  0  0  0
  -28.1158  -28.9808   21.1864 H   0  0  0  0  0  0
  -25.9527  -25.9397   18.9927 H   0  0  0  0  0  0
  -23.9657  -27.3159   19.0113 H   0  0  0  0  0  0
  -23.7534  -30.5997   19.4055 H   0  0  0  0  0  0
  -22.7537  -29.2525   19.8581 H   0  0  0  0  0  0
  -25.1293  -36.1940   25.0823 H   0  0  0  0  0  0
  -20.9979  -28.3261   24.1404 H   0  0  0  0  0  0
  -20.5679  -26.2299   23.3607 H   0  0  0  0  0  0
  -21.6643  -26.7445   22.1199 H   0  0  0  0  0  0
  -19.6913  -25.6296   21.1242 H   0  0  0  0  0  0
  -19.6686  -27.3195   20.6741 H   0  0  0  0  0  0
  -17.4200  -26.6671   21.4030 H   0  0  0  0  0  0
  -18.0335  -26.0069   22.9023 H   0  0  0  0  0  0
  -19.7937  -30.7270   24.2269 H   0  0  0  0  0  0
  -17.5016  -31.6267   24.5164 H   0  0  0  0  0  0
  -15.5352  -30.2988   23.7651 H   0  0  0  0  0  0
  -15.8672  -28.0822   22.7068 H   0  0  0  0  0  0
  -24.5898  -30.7080   25.7780 H   0  0  0  0  0  0
  -24.8923  -32.2892   26.4885 H   0  0  0  0  0  0
  -25.8050  -30.8895   27.0226 H   0  0  0  0  0  0
  -26.2907  -29.6762   24.1207 H   0  0  0  0  0  0
  -27.4029  -29.7264   25.4687 H   0  0  0  0  0  0
  -27.8779  -30.4291   23.9407 H   0  0  0  0  0  0
  -27.2666  -33.3618   26.2077 H   0  0  0  0  0  0
  -28.3864  -32.6881   25.0327 H   0  0  0  0  0  0
  -28.0722  -31.8443   26.5414 H   0  0  0  0  0  0
  -28.2599  -38.0100   24.7509 H   0  0  0  0  0  0
  -28.1073  -36.2631   24.6294 H   0  0  0  0  0  0
  -27.2298  -37.1456   25.8868 H   0  0  0  0  0  0
  -20.9367  -29.8773   21.6895 H   0  0  0  0  0  0
  -26.0176  -38.2855   24.1401 H   0  0  0  0  0  0
  -32.0671  -17.3700   20.6429 H   0  0  0  0  0  0
  -32.0626  -19.8258   20.5039 H   0  0  0  0  0  0
  -27.7601  -19.8494   20.4918 H   0  0  0  0  0  0
  -29.6470  -24.1729   21.3364 H   0  0  0  0  0  0
  -30.0761  -24.1424   19.6539 H   0  0  0  0  0  0
  -27.2506  -24.7435   20.6531 H   0  0  0  0  0  0
  -27.7948  -24.8125   18.9934 H   0  0  0  0  0  0
  -28.4094  -22.1808   19.3285 H   0  0  0  0  0  0
  -28.1566  -22.1770   21.0583 H   0  0  0  0  0  0
  -28.8555  -15.3945   21.0126 H   0  0  0  0  0  0
  1 25  1  0  0  0
  1 30  2  0  0  0
  1 80  1  0  0  0
  2  3  1  0  0  0
  2 25  1  0  0  0
  2 83  1  0  0  0
  2 84  1  0  0  0
  3  4  1  0  0  0
  3 85  1  0  0  0
  3 86  1  0  0  0
  4  5  1  0  0  0
  4 87  1  0  0  0
  4 88  1  0  0  0
  5  6  1  0  0  0
  5 26  1  0  0  0
  5 89  1  0  0  0
  6 25  1  0  0  0
  6 90  1  0  0  0
  6 91  1  0  0  0
  7  8  2  0  0  0
  7 26  1  0  0  0
  7 29  1  0  0  0
  8  9  1  0  0  0
  8 22  1  0  0  0
  9 10  1  0  0  0
  9 27  2  0  0  0
 10 11  2  0  0  0
 10 15  1  0  0  0
 11 12  1  0  0  0
 11 92  1  0  0  0
 12 13  2  0  0  0
 12 93  1  0  0  0
 13 14  1  0  0  0
 13 31  1  0  0  0
 14 15  2  0  0  0
 14 94  1  0  0  0
 15 95  1  0  0  0
 16 17  2  0  0  0
 16 21  1  0  0  0
 16 31  1  0  0  0
 17 18  1  0  0  0
 17 96  1  0  0  0
 18 19  2  0  0  0
 18 97  1  0  0  0
 19 20  1  0  0  0
 19 24  1  0  0  0
 20 21  2  0  0  0
 20 98  1  0  0  0
 21 23  1  0  0  0
 22 28  1  0  0  0
 22 32  2  0  0  0
 26 27  1  0  0  0
 28 99  1  0  0  0
 28100  1  0  0  0
 29101  1  0  0  0
 29102  1  0  0  0
 33 34  1  0  0  0
 33 66  1  0  0  0
 33 70  2  0  0  0
 34 36  1  0  0  0
 34 59  1  0  0  0
 34103  1  0  0  0
 35 44  2  0  0  0
 35 45  1  0  0  0
 35 68  1  0  0  0
 36 56  1  0  0  0
 36104  1  0  0  0
 37 39  1  0  0  0
 37 47  1  0  0  0
 37 66  1  0  0  0
 37105  1  0  0  0
 38 43  2  0  0  0
 38 46  1  0  0  0
 38 47  1  0  0  0
 39 64  1  0  0  0
 39 67  2  0  0  0
 40 52  1  0  0  0
 40 53  2  0  0  0
 40 58  1  0  0  0
 41106  1  0  0  0
 41107  1  0  0  0
 41108  1  0  0  0
 41 48  1  0  0  0
 42 43  1  0  0  0
 42 66  1  0  0  0
 42109  1  0  0  0
 42110  1  0  0  0
 43 44  1  0  0  0
 44111  1  0  0  0
 45 46  2  0  0  0
 45112  1  0  0  0
 46113  1  0  0  0
 47114  1  0  0  0
 47115  1  0  0  0
 48 56  1  0  0  0
 48 65  1  0  0  0
 48116  1  0  0  0
 49 50  1  0  0  0
 49 53  1  0  0  0
 49 64  1  0  0  0
 49117  1  0  0  0
 50 51  1  0  0  0
 50118  1  0  0  0
 50119  1  0  0  0
 51 52  1  0  0  0
 51120  1  0  0  0
 51121  1  0  0  0
 52122  1  0  0  0
 52123  1  0  0  0
 53 54  1  0  0  0
 54 55  2  0  0  0
 54124  1  0  0  0
 55 57  1  0  0  0
 55125  1  0  0  0
 56 69  2  0  0  0
 57 58  2  0  0  0
 57126  1  0  0  0
 58127  1  0  0  0
 59 60  1  0  0  0
 59 61  1  0  0  0
 59 62  1  0  0  0
 60128  1  0  0  0
 60129  1  0  0  0
 60130  1  0  0  0
 61131  1  0  0  0
 61132  1  0  0  0
 61133  1  0  0  0
 62134  1  0  0  0
 62135  1  0  0  0
 62136  1  0  0  0
 63 65  1  0  0  0
 63137  1  0  0  0
 63138  1  0  0  0
 63139  1  0  0  0
 64140  1  0  0  0
 65141  1  0  0  0
 68 78  1  0  0  0
 71 72  2  0  0  0
 71 74  1  0  0  0
 71142  1  0  0  0
 72 75  1  0  0  0
 72143  1  0  0  0
 73 75  2  0  0  0
 73 76  1  0  0  0
 73144  1  0  0  0
 74 76  2  0  0  0
 74 80  1  0  0  0
 75 81  1  0  0  0
 76 82  1  0  0  0
 77 78  1  0  0  0
 77 79  1  0  0  0
 77145  1  0  0  0
 77146  1  0  0  0
 78147  1  0  0  0
 78148  1  0  0  0
 79 81  1  0  0  0
 79149  1  0  0  0
 79150  1  0  0  0
 80151  1  0  0  0
M  ISO  4   1 100  68 101  78 101  80 100
M  END
> <chiral flag>
0

> <version>
0

> <s_m_source_file>
/data/baiqing/PycharmProjects/Reinvent-master-3.2/result/LINK_invent/BTK/process_docking_weight1_custom_product_contain_oxygen_bond_distance_aromatic_linkinvent_7_9_3/rearranged_h_0010.sdf

> <i_m_source_file_index>
50

> <r_mmod_Potential_Energy-OPLS-2005>
8.48562717437744

> <r_mmod_Stretch_Energy-OPLS-2005>
78.0414810180664

> <r_mmod_Bend_Energy-OPLS-2005>
145.352081298828

> <r_mmod_Torsional_Energy-OPLS-2005>
209.226409912109

> <r_mmod_Improper_Torsional_Energy-OPLS-2005>
4.5839262008667

> <r_mmod_Van_der_Waal_Energy-OPLS-2005>
144.377670288086

> <r_mmod_Electrostatic_Energy-OPLS-2005>
-422.268218994141

> <r_mmod_Solvation_Energy-OPLS-2005>
-201.274765014648

> <b_mmod_Minimization_Converged-OPLS-2005>
0

> <r_mmod_RMS_Derivative-OPLS-2005>
0.238112762570381

$$$$
50
                    3D
 Structure written by MMmdl.
153162  0  0  1  0            999 V2000
  -30.5345  -15.0868   20.3868 C   0  0  0  0  0  0
  -30.4354  -12.6890   19.4931 C   0  0  0  0  0  0
  -29.5188  -12.5364   18.2578 C   0  0  0  0  0  0
  -28.0631  -12.2812   18.6909 C   0  0  0  0  0  0
  -27.6150  -13.2366   19.8241 C   0  0  2  0  0  0
  -28.6650  -13.3535   20.9525 C   0  0  0  0  0  0
  -25.2383  -13.8141   20.5704 C   0  0  0  0  0  0
  -24.1721  -13.0377   20.9262 C   0  0  0  0  0  0
  -24.6356  -11.6875   20.8800 C   0  0  0  0  0  0
  -23.9053  -10.4261   21.0440 C   0  0  0  0  0  0
  -24.3611   -9.4171   21.9207 C   0  0  0  0  0  0
  -23.6290   -8.2208   22.0758 C   0  0  0  0  0  0
  -22.4272   -8.0266   21.3546 C   0  0  0  0  0  0
  -21.9908   -9.0240   20.4648 C   0  0  0  0  0  0
  -22.7239  -10.2114   20.3069 C   0  0  0  0  0  0
  -21.6842   -6.0733   22.5282 C   0  0  0  0  0  0
  -21.4009   -6.5634   23.8217 C   0  0  0  0  0  0
  -21.3656   -5.6783   24.9177 C   0  0  0  0  0  0
  -21.6040   -4.3048   24.7226 C   0  0  0  0  0  0
  -21.8817   -3.8142   23.4343 C   0  0  0  0  0  0
  -21.9183   -4.6960   22.3402 C   0  0  0  0  0  0
  -22.7740  -13.5168   21.1895 C   0  0  0  0  0  0
  -22.1655   -4.2151   21.0978 F   0  0  0  0  0  0
  -21.5631   -3.4531   25.7736 F   0  0  0  0  0  0
  -29.9097  -13.8238   20.3214 N   0  0  0  0  0  0
  -26.2810  -12.9362   20.3241 N   0  0  0  0  0  0
  -25.9284  -11.6509   20.5779 N   0  0  0  0  0  0
  -22.0377  -12.8186   22.0458 N   0  0  0  0  0  0
  -25.3931  -15.1865   20.4051 N   0  0  0  0  0  0
  -31.7591  -15.0480   20.2079 O   0  0  0  0  0  0
  -21.6624   -6.8873   21.4244 O   0  0  0  0  0  0
  -22.3437  -14.5470   20.6723 O   0  0  0  0  0  0
  -24.6494  -31.8375   23.1815 C   0  0  0  0  0  0
  -25.9237  -32.4660   23.8236 C   0  0  1  0  0  0
  -27.2249  -27.0709   20.1603 C   0  0  0  0  0  0
  -25.5960  -33.8467   24.2156 N   0  0  0  0  0  0
  -23.4573  -30.4532   21.5282 C   0  0  2  0  0  0
  -24.9098  -28.8654   20.1120 C   0  0  0  0  0  0
  -22.7603  -29.4509   22.4828 C   0  0  0  0  0  0
  -18.0312  -28.1395   22.8477 C   0  0  0  0  0  0
  -24.1493  -36.7239   23.2644 C   0  0  0  0  0  0
  -26.0177  -30.6898   21.3905 C   0  0  0  0  0  0
  -26.0892  -29.2935   20.7339 C   0  0  0  0  0  0
  -27.2451  -28.4142   20.7376 C   0  0  0  0  0  0
  -26.0159  -26.7582   19.5002 C   0  0  0  0  0  0
  -24.8897  -27.6134   19.4783 C   0  0  0  0  0  0
  -23.6896  -29.7763   20.1506 C   0  0  0  0  0  0
  -25.4127  -36.3009   24.0311 C   0  0  1  0  0  0
  -20.5931  -28.3734   23.1217 C   0  0  2  0  0  0
  -20.6795  -26.9429   22.5404 C   0  0  0  0  0  0
  -19.5769  -26.6377   21.5215 C   0  0  0  0  0  0
  -18.1952  -26.7932   22.1625 C   0  0  0  0  0  0
  -19.1571  -28.8882   23.2836 C   0  0  0  0  0  0
  -18.9486  -30.1477   23.8863 C   0  0  0  0  0  0
  -17.6479  -30.6591   24.0559 C   0  0  0  0  0  0
  -25.9081  -34.9388   23.5049 C   0  0  0  0  0  0
  -16.5370  -29.9085   23.6335 C   0  0  0  0  0  0
  -16.7295  -28.6500   23.0360 C   0  0  0  0  0  0
  -26.4543  -31.6546   25.0700 C   0  0  0  0  0  0
  -25.3711  -31.3760   26.1385 C   0  0  0  0  0  0
  -27.0427  -30.2932   24.6330 C   0  0  0  0  0  0
  -27.6057  -32.4329   25.7496 C   0  0  0  0  0  0
  -27.5571  -37.1774   24.8466 C   0  0  0  0  0  0
  -21.4287  -29.3045   22.3581 N   0  0  0  0  0  0
  -26.4283  -37.3726   23.9403 N   0  0  0  0  0  0
  -24.7284  -31.0171   22.0880 N   0  0  0  0  0  0
  -23.4212  -28.8063   23.3012 O   0  0  0  0  0  0
  -28.2708  -26.0547   20.2265 O   0  0  0  0  0  0
  -26.5678  -34.8893   22.4634 O   0  0  0  0  0  0
  -23.5598  -32.1278   23.6995 O   0  0  0  0  0  0
  -32.0115  -19.6007   20.5213 C   0  0  0  0  0  0
  -31.6916  -18.2194   20.5172 C   0  0  0  0  0  0
  -31.0378  -20.6356   20.4382 C   0  0  0  0  0  0
  -29.3705  -18.9033   20.3559 C   0  0  0  0  0  0
  -30.3479  -17.8142   20.4325 C   0  0  0  0  0  0
  -29.6451  -20.3907   20.3446 C   0  0  0  0  0  0
  -28.0515  -18.1682   20.3099 C   0  0  0  0  0  0
  -28.3869  -16.6109   20.2955 C   0  0  0  0  0  0
  -29.0922  -23.1583   20.3321 C   0  0  0  0  0  0
  -28.0185  -24.4912   20.0868 C   0  0  0  0  0  0
  -29.8449  -16.3798   20.4187 N   0  0  0  0  0  0
  -28.7501  -21.6014   20.2503 N   0  0  0  0  0  0
  -31.4608  -12.8602   19.1624 H   0  0  0  0  0  0
  -30.4672  -11.7649   20.0721 H   0  0  0  0  0  0
  -29.8717  -11.7233   17.6214 H   0  0  0  0  0  0
  -29.5695  -13.4434   17.6536 H   0  0  0  0  0  0
  -27.9965  -11.2486   19.0357 H   0  0  0  0  0  0
  -27.3918  -12.3598   17.8344 H   0  0  0  0  0  0
  -27.5348  -14.1986   19.3314 H   0  0  0  0  0  0
  -28.8048  -12.3949   21.4548 H   0  0  0  0  0  0
  -28.3422  -14.0503   21.7251 H   0  0  0  0  0  0
  -25.2753   -9.5643   22.4783 H   0  0  0  0  0  0
  -23.9989   -7.4589   22.7473 H   0  0  0  0  0  0
  -21.0838   -8.8775   19.8955 H   0  0  0  0  0  0
  -22.3715  -10.9664   19.6181 H   0  0  0  0  0  0
  -21.2011   -7.6141   23.9726 H   0  0  0  0  0  0
  -21.1482   -6.0510   25.9080 H   0  0  0  0  0  0
  -22.0602   -2.7606   23.2836 H   0  0  0  0  0  0
  -22.3987  -11.9872   22.4898 H   0  0  0  0  0  0
  -21.0994  -13.1238   22.2645 H   0  0  0  0  0  0
  -24.6154  -15.8287   20.5130 H   0  0  0  0  0  0
  -26.2305  -15.6331   20.0592 H   0  0  0  0  0  0
  -26.7303  -32.5250   23.0958 H   0  0  0  0  0  0
  -25.0080  -33.9574   25.0288 H   0  0  0  0  0  0
  -22.7622  -31.2799   21.3666 H   0  0  0  0  0  0
  -23.3756  -35.9568   23.3296 H   0  0  0  0  0  0
  -24.3570  -36.8885   22.2058 H   0  0  0  0  0  0
  -23.7249  -37.6429   23.6697 H   0  0  0  0  0  0
  -26.1817  -31.4381   20.6139 H   0  0  0  0  0  0
  -26.8845  -30.7431   22.0376 H   0  0  0  0  0  0
  -28.1415  -28.7376   21.2479 H   0  0  0  0  0  0
  -25.9087  -25.8008   19.0135 H   0  0  0  0  0  0
  -23.9902  -27.2807   18.9781 H   0  0  0  0  0  0
  -23.8334  -30.5470   19.3925 H   0  0  0  0  0  0
  -22.8028  -29.2221   19.8387 H   0  0  0  0  0  0
  -25.1316  -36.1831   25.0802 H   0  0  0  0  0  0
  -21.0023  -28.3335   24.1338 H   0  0  0  0  0  0
  -20.5694  -26.2348   23.3632 H   0  0  0  0  0  0
  -21.6659  -26.7436   22.1200 H   0  0  0  0  0  0
  -19.6937  -25.6282   21.1263 H   0  0  0  0  0  0
  -19.6701  -27.3169   20.6732 H   0  0  0  0  0  0
  -17.4220  -26.6677   21.4029 H   0  0  0  0  0  0
  -18.0350  -26.0081   22.9029 H   0  0  0  0  0  0
  -19.7960  -30.7308   24.2214 H   0  0  0  0  0  0
  -17.5031  -31.6268   24.5173 H   0  0  0  0  0  0
  -15.5369  -30.2980   23.7673 H   0  0  0  0  0  0
  -15.8693  -28.0809   22.7096 H   0  0  0  0  0  0
  -24.5879  -30.7128   25.7692 H   0  0  0  0  0  0
  -24.8919  -32.2958   26.4749 H   0  0  0  0  0  0
  -25.7968  -30.8956   27.0204 H   0  0  0  0  0  0
  -26.3069  -29.6623   24.1330 H   0  0  0  0  0  0
  -27.4013  -29.7260   25.4930 H   0  0  0  0  0  0
  -27.8984  -30.4145   23.9684 H   0  0  0  0  0  0
  -27.2637  -33.3648   26.2008 H   0  0  0  0  0  0
  -28.3905  -32.6860   25.0355 H   0  0  0  0  0  0
  -28.0693  -31.8504   26.5468 H   0  0  0  0  0  0
  -28.2581  -38.0076   24.7498 H   0  0  0  0  0  0
  -28.1075  -36.2601   24.6315 H   0  0  0  0  0  0
  -27.2286  -37.1446   25.8869 H   0  0  0  0  0  0
  -20.9514  -29.8739   21.6732 H   0  0  0  0  0  0
  -26.0147  -38.2791   24.1401 H   0  0  0  0  0  0
  -33.0531  -19.8806   20.5887 H   0  0  0  0  0  0
  -32.4853  -17.4891   20.5836 H   0  0  0  0  0  0
  -31.3980  -21.6543   20.4464 H   0  0  0  0  0  0
  -27.4852  -18.4660   19.4268 H   0  0  0  0  0  0
  -27.4615  -18.4342   21.1875 H   0  0  0  0  0  0
  -28.0690  -16.2171   19.3331 H   0  0  0  0  0  0
  -27.8446  -16.1042   21.0909 H   0  0  0  0  0  0
  -29.5284  -23.2993   21.3215 H   0  0  0  0  0  0
  -29.9236  -23.3138   19.6434 H   0  0  0  0  0  0
  -27.1536  -24.2945   20.7209 H   0  0  0  0  0  0
  -27.6498  -24.3646   19.0691 H   0  0  0  0  0  0
  -27.7566  -21.4000   20.1579 H   0  0  0  0  0  0
  1 25  1  0  0  0
  1 30  2  0  0  0
  1 81  1  0  0  0
  2  3  1  0  0  0
  2 25  1  0  0  0
  2 83  1  0  0  0
  2 84  1  0  0  0
  3  4  1  0  0  0
  3 85  1  0  0  0
  3 86  1  0  0  0
  4  5  1  0  0  0
  4 87  1  0  0  0
  4 88  1  0  0  0
  5  6  1  0  0  0
  5 26  1  0  0  0
  5 89  1  0  0  0
  6 25  1  0  0  0
  6 90  1  0  0  0
  6 91  1  0  0  0
  7  8  2  0  0  0
  7 26  1  0  0  0
  7 29  1  0  0  0
  8  9  1  0  0  0
  8 22  1  0  0  0
  9 10  1  0  0  0
  9 27  2  0  0  0
 10 11  2  0  0  0
 10 15  1  0  0  0
 11 12  1  0  0  0
 11 92  1  0  0  0
 12 13  2  0  0  0
 12 93  1  0  0  0
 13 14  1  0  0  0
 13 31  1  0  0  0
 14 15  2  0  0  0
 14 94  1  0  0  0
 15 95  1  0  0  0
 16 17  2  0  0  0
 16 21  1  0  0  0
 16 31  1  0  0  0
 17 18  1  0  0  0
 17 96  1  0  0  0
 18 19  2  0  0  0
 18 97  1  0  0  0
 19 20  1  0  0  0
 19 24  1  0  0  0
 20 21  2  0  0  0
 20 98  1  0  0  0
 21 23  1  0  0  0
 22 28  1  0  0  0
 22 32  2  0  0  0
 26 27  1  0  0  0
 28 99  1  0  0  0
 28100  1  0  0  0
 29101  1  0  0  0
 29102  1  0  0  0
 33 34  1  0  0  0
 33 66  1  0  0  0
 33 70  2  0  0  0
 34 36  1  0  0  0
 34 59  1  0  0  0
 34103  1  0  0  0
 35 44  2  0  0  0
 35 45  1  0  0  0
 35 68  1  0  0  0
 36 56  1  0  0  0
 36104  1  0  0  0
 37 39  1  0  0  0
 37 47  1  0  0  0
 37 66  1  0  0  0
 37105  1  0  0  0
 38 43  2  0  0  0
 38 46  1  0  0  0
 38 47  1  0  0  0
 39 64  1  0  0  0
 39 67  2  0  0  0
 40 52  1  0  0  0
 40 53  2  0  0  0
 40 58  1  0  0  0
 41106  1  0  0  0
 41107  1  0  0  0
 41108  1  0  0  0
 41 48  1  0  0  0
 42 43  1  0  0  0
 42 66  1  0  0  0
 42109  1  0  0  0
 42110  1  0  0  0
 43 44  1  0  0  0
 44111  1  0  0  0
 45 46  2  0  0  0
 45112  1  0  0  0
 46113  1  0  0  0
 47114  1  0  0  0
 47115  1  0  0  0
 48 56  1  0  0  0
 48 65  1  0  0  0
 48116  1  0  0  0
 49 50  1  0  0  0
 49 53  1  0  0  0
 49 64  1  0  0  0
 49117  1  0  0  0
 50 51  1  0  0  0
 50118  1  0  0  0
 50119  1  0  0  0
 51 52  1  0  0  0
 51120  1  0  0  0
 51121  1  0  0  0
 52122  1  0  0  0
 52123  1  0  0  0
 53 54  1  0  0  0
 54 55  2  0  0  0
 54124  1  0  0  0
 55 57  1  0  0  0
 55125  1  0  0  0
 56 69  2  0  0  0
 57 58  2  0  0  0
 57126  1  0  0  0
 58127  1  0  0  0
 59 60  1  0  0  0
 59 61  1  0  0  0
 59 62  1  0  0  0
 60128  1  0  0  0
 60129  1  0  0  0
 60130  1  0  0  0
 61131  1  0  0  0
 61132  1  0  0  0
 61133  1  0  0  0
 62134  1  0  0  0
 62135  1  0  0  0
 62136  1  0  0  0
 63 65  1  0  0  0
 63137  1  0  0  0
 63138  1  0  0  0
 63139  1  0  0  0
 64140  1  0  0  0
 65141  1  0  0  0
 68 80  1  0  0  0
 71 72  2  0  0  0
 71 73  1  0  0  0
 71142  1  0  0  0
 72 75  1  0  0  0
 72143  1  0  0  0
 73 76  2  0  0  0
 73144  1  0  0  0
 74 75  2  0  0  0
 74 76  1  0  0  0
 74 77  1  0  0  0
 75 81  1  0  0  0
 76 82  1  0  0  0
 77 78  1  0  0  0
 77145  1  0  0  0
 77146  1  0  0  0
 78 81  1  0  0  0
 78147  1  0  0  0
 78148  1  0  0  0
 79 80  1  0  0  0
 79 82  1  0  0  0
 79149  1  0  0  0
 79150  1  0  0  0
 80151  1  0  0  0
 80152  1  0  0  0
 82153  1  0  0  0
M  ISO  4   1 100  68 101  80 101  81 100
M  END
> <chiral flag>
0

> <version>
0

> <s_m_source_file>
/data/baiqing/PycharmProjects/Reinvent-master-3.2/result/LINK_invent/BTK/process_docking_weight1_custom_product_contain_oxygen_bond_distance_aromatic_linkinvent_7_9_3/rearranged_h_0010.sdf

> <i_m_source_file_index>
51

> <r_mmod_Potential_Energy-OPLS-2005>
867.214050292969

> <r_mmod_Stretch_Energy-OPLS-2005>
325.043243408203

> <r_mmod_Bend_Energy-OPLS-2005>
363.287048339844

> <r_mmod_Torsional_Energy-OPLS-2005>
262.888671875

> <r_mmod_Improper_Torsional_Energy-OPLS-2005>
4.93514537811279

> <r_mmod_Van_der_Waal_Energy-OPLS-2005>
128.081802368164

> <r_mmod_Electrostatic_Energy-OPLS-2005>
-284.107147216797

> <r_mmod_Solvation_Energy-OPLS-2005>
-209.8720703125

> <b_mmod_Minimization_Converged-OPLS-2005>
0

> <r_mmod_RMS_Derivative-OPLS-2005>
1.23597192764282

$$$$
51
                    3D
 Structure written by MMmdl.
158167  0  0  1  0            999 V2000
  -30.6150  -14.7262   20.3353 C   0  0  0  0  0  0
  -30.4335  -12.4053   19.4564 C   0  0  0  0  0  0
  -29.4954  -12.3733   18.2273 C   0  0  0  0  0  0
  -28.0155  -12.2760   18.6527 C   0  0  0  0  0  0
  -27.6319  -13.2124   19.8328 C   0  0  2  0  0  0
  -28.6926  -13.1918   20.9525 C   0  0  0  0  0  0
  -25.2519  -13.8159   20.5753 C   0  0  0  0  0  0
  -24.1784  -13.0412   20.9199 C   0  0  0  0  0  0
  -24.6359  -11.6895   20.8766 C   0  0  0  0  0  0
  -23.9050  -10.4284   21.0413 C   0  0  0  0  0  0
  -24.3619   -9.4204   21.9187 C   0  0  0  0  0  0
  -23.6303   -8.2240   22.0759 C   0  0  0  0  0  0
  -22.4280   -8.0286   21.3551 C   0  0  0  0  0  0
  -21.9902   -9.0254   20.4656 C   0  0  0  0  0  0
  -22.7224  -10.2131   20.3062 C   0  0  0  0  0  0
  -21.6850   -6.0748   22.5283 C   0  0  0  0  0  0
  -21.4003   -6.5645   23.8223 C   0  0  0  0  0  0
  -21.3651   -5.6792   24.9179 C   0  0  0  0  0  0
  -21.6040   -4.3061   24.7219 C   0  0  0  0  0  0
  -21.8825   -3.8152   23.4344 C   0  0  0  0  0  0
  -21.9195   -4.6975   22.3398 C   0  0  0  0  0  0
  -22.7821  -13.5222   21.1845 C   0  0  0  0  0  0
  -22.1676   -4.2171   21.0974 F   0  0  0  0  0  0
  -21.5619   -3.4543   25.7728 F   0  0  0  0  0  0
  -29.9842  -13.5050   20.3321 N   0  0  0  0  0  0
  -26.2920  -12.9318   20.3316 N   0  0  0  0  0  0
  -25.9277  -11.6486   20.5819 N   0  0  0  0  0  0
  -22.0481  -12.8222   22.0428 N   0  0  0  0  0  0
  -25.4196  -15.1886   20.4300 N   0  0  0  0  0  0
  -31.8451  -14.7829   20.2558 O   0  0  0  0  0  0
  -21.6640   -6.8885   21.4247 O   0  0  0  0  0  0
  -22.3502  -14.5528   20.6696 O   0  0  0  0  0  0
  -24.6273  -31.8580   23.1995 C   0  0  0  0  0  0
  -25.9114  -32.4772   23.8337 C   0  0  1  0  0  0
  -27.2377  -27.3231   20.1274 C   0  0  0  0  0  0
  -25.5925  -33.8573   24.2258 N   0  0  0  0  0  0
  -23.4213  -30.4783   21.5411 C   0  0  2  0  0  0
  -24.8712  -28.9271   20.1145 C   0  0  0  0  0  0
  -22.7480  -29.4606   22.4929 C   0  0  0  0  0  0
  -18.0272  -28.1405   22.8485 C   0  0  0  0  0  0
  -24.1479  -36.7289   23.2637 C   0  0  0  0  0  0
  -25.9619  -30.7922   21.3685 C   0  0  0  0  0  0
  -26.0390  -29.4179   20.7128 C   0  0  0  0  0  0
  -27.2288  -28.6304   20.7009 C   0  0  0  0  0  0
  -26.0493  -26.8766   19.5139 C   0  0  0  0  0  0
  -24.8773  -27.6609   19.5046 C   0  0  0  0  0  0
  -23.6370  -29.8058   20.1600 C   0  0  0  0  0  0
  -25.4109  -36.3072   24.0323 C   0  0  1  0  0  0
  -20.5875  -28.3707   23.1291 C   0  0  2  0  0  0
  -20.6763  -26.9434   22.5414 C   0  0  0  0  0  0
  -19.5742  -26.6396   21.5215 C   0  0  0  0  0  0
  -18.1915  -26.7950   22.1621 C   0  0  0  0  0  0
  -19.1526  -28.8875   23.2877 C   0  0  0  0  0  0
  -18.9454  -30.1477   23.8902 C   0  0  0  0  0  0
  -17.6454  -30.6604   24.0572 C   0  0  0  0  0  0
  -25.9049  -34.9453   23.5093 C   0  0  0  0  0  0
  -16.5342  -29.9110   23.6345 C   0  0  0  0  0  0
  -16.7260  -28.6532   23.0361 C   0  0  0  0  0  0
  -26.4498  -31.6601   25.0726 C   0  0  0  0  0  0
  -25.3732  -31.3770   26.1459 C   0  0  0  0  0  0
  -27.0333  -30.3013   24.6211 C   0  0  0  0  0  0
  -27.6049  -32.4357   25.7491 C   0  0  0  0  0  0
  -27.5570  -37.1796   24.8467 C   0  0  0  0  0  0
  -21.4186  -29.3052   22.3683 N   0  0  0  0  0  0
  -26.4282  -37.3778   23.9410 N   0  0  0  0  0  0
  -24.6883  -31.0598   22.0935 N   0  0  0  0  0  0
  -23.4202  -28.8157   23.3025 O   0  0  0  0  0  0
  -28.3623  -26.4873   20.1410 O   0  0  0  0  0  0
  -26.5622  -34.8938   22.4662 O   0  0  0  0  0  0
  -23.5436  -32.1358   23.7337 O   0  0  0  0  0  0
  -30.7232  -19.4798   19.7651 C   0  0  0  0  0  0
  -30.9157  -18.0708   19.8773 C   0  0  0  0  0  0
  -28.4550  -19.2419   20.5144 C   0  0  0  0  0  0
  -29.4700  -20.1031   20.0105 C   0  0  0  0  0  0
  -29.8595  -17.1922   20.2414 C   0  0  0  0  0  0
  -28.6410  -17.8241   20.6198 C   0  0  0  0  0  0
  -28.2903  -23.9238   19.6500 C   0  0  0  0  0  0
  -29.3096  -24.6583   21.6271 C   0  0  0  0  0  0
  -29.3840  -23.1087   21.5081 C   0  0  0  0  0  0
  -28.1978  -25.1057   20.6632 C   0  0  1  0  0  0
  -29.7540  -15.7352   18.3397 C   0  0  0  0  0  0
  -29.1845  -21.5407   19.4178 C   0  0  0  0  0  0
  -28.8480  -22.7937   20.1882 N   0  0  0  0  0  0
  -29.8788  -15.7845   19.8145 N   0  0  0  0  0  0
  -27.8958  -24.0260   18.4852 O   0  0  0  0  0  0
  -27.5844  -17.0500   20.9665 F   0  0  0  0  0  0
  -31.4684  -12.5311   19.1333 H   0  0  0  0  0  0
  -30.3981  -11.4561   19.9940 H   0  0  0  0  0  0
  -29.7426  -11.5134   17.6036 H   0  0  0  0  0  0
  -29.6530  -13.2300   17.5812 H   0  0  0  0  0  0
  -27.8476  -11.2392   18.9466 H   0  0  0  0  0  0
  -27.3607  -12.4534   17.7994 H   0  0  0  0  0  0
  -27.5945  -14.2204   19.4299 H   0  0  0  0  0  0
  -28.7247  -12.2195   21.4462 H   0  0  0  0  0  0
  -28.4514  -13.9307   21.7173 H   0  0  0  0  0  0
  -25.2773   -9.5682   22.4745 H   0  0  0  0  0  0
  -24.0023   -7.4622   22.7455 H   0  0  0  0  0  0
  -21.0841   -8.8763   19.8959 H   0  0  0  0  0  0
  -22.3686  -10.9676   19.6176 H   0  0  0  0  0  0
  -21.2001   -7.6155   23.9726 H   0  0  0  0  0  0
  -21.1461   -6.0524   25.9079 H   0  0  0  0  0  0
  -22.0612   -2.7617   23.2830 H   0  0  0  0  0  0
  -22.4110  -11.9892   22.4818 H   0  0  0  0  0  0
  -21.1101  -13.1239   22.2631 H   0  0  0  0  0  0
  -24.6661  -15.8373   20.6253 H   0  0  0  0  0  0
  -26.3137  -15.6544   20.3121 H   0  0  0  0  0  0
  -26.7188  -32.5413   23.1088 H   0  0  0  0  0  0
  -25.0092  -33.9716   25.0417 H   0  0  0  0  0  0
  -22.7142  -31.2973   21.3922 H   0  0  0  0  0  0
  -23.3744  -35.9614   23.3299 H   0  0  0  0  0  0
  -24.3578  -36.8908   22.2050 H   0  0  0  0  0  0
  -23.7233  -37.6496   23.6668 H   0  0  0  0  0  0
  -26.0969  -31.5575   20.6029 H   0  0  0  0  0  0
  -26.8427  -30.8383   21.9984 H   0  0  0  0  0  0
  -28.1296  -29.0110   21.1610 H   0  0  0  0  0  0
  -26.0203  -25.9040   19.0431 H   0  0  0  0  0  0
  -23.9833  -27.2761   19.0326 H   0  0  0  0  0  0
  -23.7537  -30.5784   19.3991 H   0  0  0  0  0  0
  -22.7588  -29.2316   19.8614 H   0  0  0  0  0  0
  -25.1282  -36.1917   25.0815 H   0  0  0  0  0  0
  -20.9958  -28.3280   24.1416 H   0  0  0  0  0  0
  -20.5667  -26.2319   23.3609 H   0  0  0  0  0  0
  -21.6626  -26.7449   22.1205 H   0  0  0  0  0  0
  -19.6906  -25.6304   21.1251 H   0  0  0  0  0  0
  -19.6694  -27.3207   20.6747 H   0  0  0  0  0  0
  -17.4184  -26.6697   21.4022 H   0  0  0  0  0  0
  -18.0312  -26.0097   22.9026 H   0  0  0  0  0  0
  -19.7931  -30.7288   24.2276 H   0  0  0  0  0  0
  -17.5019  -31.6291   24.5165 H   0  0  0  0  0  0
  -15.5355  -30.3017   23.7697 H   0  0  0  0  0  0
  -15.8647  -28.0862   22.7088 H   0  0  0  0  0  0
  -24.5907  -30.7102   25.7824 H   0  0  0  0  0  0
  -24.8922  -32.2942   26.4864 H   0  0  0  0  0  0
  -25.8062  -30.8983   27.0246 H   0  0  0  0  0  0
  -26.2922  -29.6773   24.1207 H   0  0  0  0  0  0
  -27.3974  -29.7274   25.4743 H   0  0  0  0  0  0
  -27.8808  -30.4278   23.9473 H   0  0  0  0  0  0
  -27.2651  -33.3660   26.2064 H   0  0  0  0  0  0
  -28.3864  -32.6929   25.0325 H   0  0  0  0  0  0
  -28.0728  -31.8498   26.5413 H   0  0  0  0  0  0
  -28.2588  -38.0093   24.7513 H   0  0  0  0  0  0
  -28.1055  -36.2625   24.6271 H   0  0  0  0  0  0
  -27.2297  -37.1420   25.8875 H   0  0  0  0  0  0
  -20.9388  -29.8751   21.6857 H   0  0  0  0  0  0
  -26.0145  -38.2839   24.1444 H   0  0  0  0  0  0
  -31.5318  -20.0692   19.3549 H   0  0  0  0  0  0
  -31.8501  -17.6512   19.5313 H   0  0  0  0  0  0
  -27.4711  -19.6446   20.7031 H   0  0  0  0  0  0
  -30.2580  -25.0935   21.3075 H   0  0  0  0  0  0
  -29.1339  -24.9901   22.6507 H   0  0  0  0  0  0
  -28.7602  -22.6330   22.2653 H   0  0  0  0  0  0
  -30.4029  -22.7402   21.6334 H   0  0  0  0  0  0
  -27.2406  -25.0103   21.1782 H   0  0  0  0  0  0
  -29.7113  -16.7227   17.8779 H   0  0  0  0  0  0
  -28.8375  -15.2448   18.0240 H   0  0  0  0  0  0
  -30.5976  -15.2337   17.8608 H   0  0  0  0  0  0
  -28.3724  -21.3861   18.7046 H   0  0  0  0  0  0
  -30.0383  -21.8042   18.7928 H   0  0  0  0  0  0
  1 25  1  0  0  0
  1 30  2  0  0  0
  1 84  1  0  0  0
  2  3  1  0  0  0
  2 25  1  0  0  0
  2 87  1  0  0  0
  2 88  1  0  0  0
  3  4  1  0  0  0
  3 89  1  0  0  0
  3 90  1  0  0  0
  4  5  1  0  0  0
  4 91  1  0  0  0
  4 92  1  0  0  0
  5  6  1  0  0  0
  5 26  1  0  0  0
  5 93  1  0  0  0
  6 25  1  0  0  0
  6 94  1  0  0  0
  6 95  1  0  0  0
  7  8  2  0  0  0
  7 26  1  0  0  0
  7 29  1  0  0  0
  8  9  1  0  0  0
  8 22  1  0  0  0
  9 10  1  0  0  0
  9 27  2  0  0  0
 10 11  2  0  0  0
 10 15  1  0  0  0
 11 12  1  0  0  0
 11 96  1  0  0  0
 12 13  2  0  0  0
 12 97  1  0  0  0
 13 14  1  0  0  0
 13 31  1  0  0  0
 14 15  2  0  0  0
 14 98  1  0  0  0
 15 99  1  0  0  0
 16 17  2  0  0  0
 16 21  1  0  0  0
 16 31  1  0  0  0
 17 18  1  0  0  0
 17100  1  0  0  0
 18 19  2  0  0  0
 18101  1  0  0  0
 19 20  1  0  0  0
 19 24  1  0  0  0
 20 21  2  0  0  0
 20102  1  0  0  0
 21 23  1  0  0  0
 22 28  1  0  0  0
 22 32  2  0  0  0
 26 27  1  0  0  0
 28103  1  0  0  0
 28104  1  0  0  0
 29105  1  0  0  0
 29106  1  0  0  0
 33 34  1  0  0  0
 33 66  1  0  0  0
 33 70  2  0  0  0
 34 36  1  0  0  0
 34 59  1  0  0  0
 34107  1  0  0  0
 35 44  2  0  0  0
 35 45  1  0  0  0
 35 68  1  0  0  0
 36 56  1  0  0  0
 36108  1  0  0  0
 37 39  1  0  0  0
 37 47  1  0  0  0
 37 66  1  0  0  0
 37109  1  0  0  0
 38 43  2  0  0  0
 38 46  1  0  0  0
 38 47  1  0  0  0
 39 64  1  0  0  0
 39 67  2  0  0  0
 40 52  1  0  0  0
 40 53  2  0  0  0
 40 58  1  0  0  0
 41110  1  0  0  0
 41111  1  0  0  0
 41112  1  0  0  0
 41 48  1  0  0  0
 42 43  1  0  0  0
 42 66  1  0  0  0
 42113  1  0  0  0
 42114  1  0  0  0
 43 44  1  0  0  0
 44115  1  0  0  0
 45 46  2  0  0  0
 45116  1  0  0  0
 46117  1  0  0  0
 47118  1  0  0  0
 47119  1  0  0  0
 48 56  1  0  0  0
 48 65  1  0  0  0
 48120  1  0  0  0
 49 50  1  0  0  0
 49 53  1  0  0  0
 49 64  1  0  0  0
 49121  1  0  0  0
 50 51  1  0  0  0
 50122  1  0  0  0
 50123  1  0  0  0
 51 52  1  0  0  0
 51124  1  0  0  0
 51125  1  0  0  0
 52126  1  0  0  0
 52127  1  0  0  0
 53 54  1  0  0  0
 54 55  2  0  0  0
 54128  1  0  0  0
 55 57  1  0  0  0
 55129  1  0  0  0
 56 69  2  0  0  0
 57 58  2  0  0  0
 57130  1  0  0  0
 58131  1  0  0  0
 59 60  1  0  0  0
 59 61  1  0  0  0
 59 62  1  0  0  0
 60132  1  0  0  0
 60133  1  0  0  0
 60134  1  0  0  0
 61135  1  0  0  0
 61136  1  0  0  0
 61137  1  0  0  0
 62138  1  0  0  0
 62139  1  0  0  0
 62140  1  0  0  0
 63 65  1  0  0  0
 63141  1  0  0  0
 63142  1  0  0  0
 63143  1  0  0  0
 64144  1  0  0  0
 65145  1  0  0  0
 68 80  1  0  0  0
 71 72  2  0  0  0
 71 74  1  0  0  0
 71146  1  0  0  0
 72 75  1  0  0  0
 72147  1  0  0  0
 73 74  2  0  0  0
 73 76  1  0  0  0
 73148  1  0  0  0
 74 82  1  0  0  0
 75 76  2  0  0  0
 75 84  1  0  0  0
 76 86  1  0  0  0
 77 80  1  0  0  0
 77 83  1  0  0  0
 77 85  2  0  0  0
 78 79  1  0  0  0
 78 80  1  0  0  0
 78149  1  0  0  0
 78150  1  0  0  0
 79 83  1  0  0  0
 79151  1  0  0  0
 79152  1  0  0  0
 80153  1  0  0  0
 81 84  1  0  0  0
 81154  1  0  0  0
 81155  1  0  0  0
 81156  1  0  0  0
 82 83  1  0  0  0
 82157  1  0  0  0
 82158  1  0  0  0
M  ISO  4   1 100  68 101  80 101  84 100
M  END
> <chiral flag>
0

> <version>
0

> <s_m_source_file>
/data/baiqing/PycharmProjects/Reinvent-master-3.2/result/LINK_invent/BTK/process_docking_weight1_custom_product_contain_oxygen_bond_distance_aromatic_linkinvent_7_9_3/rearranged_h_0010.sdf

> <i_m_source_file_index>
52

> <r_mmod_Potential_Energy-OPLS-2005>
409.766723632812

> <r_mmod_Stretch_Energy-OPLS-2005>
84.3068923950195

> <r_mmod_Bend_Energy-OPLS-2005>
191.943862915039

> <r_mmod_Torsional_Energy-OPLS-2005>
402.933135986328

> <r_mmod_Improper_Torsional_Energy-OPLS-2005>
33.0904922485352

> <r_mmod_Van_der_Waal_Energy-OPLS-2005>
133.998352050781

> <r_mmod_Electrostatic_Energy-OPLS-2005>
-306.713775634766

> <r_mmod_Solvation_Energy-OPLS-2005>
-209.443725585938

> <b_mmod_Minimization_Converged-OPLS-2005>
0

> <r_mmod_RMS_Derivative-OPLS-2005>
2.4897735118866

$$$$
52
                    3D
 Structure written by MMmdl.
143151  0  0  1  0            999 V2000
  -30.3241  -15.7265   20.3110 C   0  0  0  0  0  0
  -30.4194  -13.1129   19.5748 C   0  0  0  0  0  0
  -29.5650  -12.6706   18.3499 C   0  0  0  0  0  0
  -28.1386  -12.3021   18.7824 C   0  0  0  0  0  0
  -27.5842  -13.3229   19.8023 C   0  0  2  0  0  0
  -28.5690  -13.7111   20.9283 C   0  0  0  0  0  0
  -25.2277  -13.8315   20.5773 C   0  0  0  0  0  0
  -24.1686  -13.0446   20.9265 C   0  0  0  0  0  0
  -24.6401  -11.6959   20.8734 C   0  0  0  0  0  0
  -23.9114  -10.4301   21.0386 C   0  0  0  0  0  0
  -24.3654   -9.4220   21.9174 C   0  0  0  0  0  0
  -23.6321   -8.2257   22.0751 C   0  0  0  0  0  0
  -22.4299   -8.0293   21.3546 C   0  0  0  0  0  0
  -21.9943   -9.0261   20.4639 C   0  0  0  0  0  0
  -22.7278  -10.2137   20.3042 C   0  0  0  0  0  0
  -21.6865   -6.0746   22.5281 C   0  0  0  0  0  0
  -21.4024   -6.5645   23.8216 C   0  0  0  0  0  0
  -21.3662   -5.6795   24.9176 C   0  0  0  0  0  0
  -21.6045   -4.3056   24.7224 C   0  0  0  0  0  0
  -21.8818   -3.8151   23.4343 C   0  0  0  0  0  0
  -21.9198   -4.6972   22.3403 C   0  0  0  0  0  0
  -22.7702  -13.5169   21.1916 C   0  0  0  0  0  0
  -22.1664   -4.2158   21.0981 F   0  0  0  0  0  0
  -21.5624   -3.4539   25.7735 F   0  0  0  0  0  0
  -29.7646  -14.3010   20.2936 N   0  0  0  0  0  0
  -26.2705  -12.9662   20.3141 N   0  0  0  0  0  0
  -25.9340  -11.6720   20.5626 N   0  0  0  0  0  0
  -22.0377  -12.8145   22.0471 N   0  0  0  0  0  0
  -25.3906  -15.2065   20.4283 N   0  0  0  0  0  0
  -31.5537  -15.6649   20.1241 O   0  0  0  0  0  0
  -21.6659   -6.8895   21.4246 O   0  0  0  0  0  0
  -22.3370  -14.5463   20.6757 O   0  0  0  0  0  0
  -24.6901  -31.7921   23.1469 C   0  0  0  0  0  0
  -25.9453  -32.4427   23.8034 C   0  0  1  0  0  0
  -27.2242  -26.6235   20.2294 C   0  0  0  0  0  0
  -25.6008  -33.8257   24.1915 N   0  0  0  0  0  0
  -23.5193  -30.3895   21.5034 C   0  0  2  0  0  0
  -24.9779  -28.7153   20.1233 C   0  0  0  0  0  0
  -22.7793  -29.4262   22.4711 C   0  0  0  0  0  0
  -18.0340  -28.1421   22.8454 C   0  0  0  0  0  0
  -24.1496  -36.7128   23.2649 C   0  0  0  0  0  0
  -26.1024  -30.4961   21.4277 C   0  0  0  0  0  0
  -26.1652  -29.0511   20.7837 C   0  0  0  0  0  0
  -27.2675  -28.0334   20.8081 C   0  0  0  0  0  0
  -26.0129  -26.5281   19.4917 C   0  0  0  0  0  0
  -24.9450  -27.4798   19.4537 C   0  0  0  0  0  0
  -23.7776  -29.6796   20.1422 C   0  0  0  0  0  0
  -25.4148  -36.2870   24.0275 C   0  0  1  0  0  0
  -20.5977  -28.3776   23.1144 C   0  0  2  0  0  0
  -20.6803  -26.9431   22.5409 C   0  0  0  0  0  0
  -19.5778  -26.6366   21.5223 C   0  0  0  0  0  0
  -18.1961  -26.7947   22.1624 C   0  0  0  0  0  0
  -19.1608  -28.8926   23.2773 C   0  0  0  0  0  0
  -18.9509  -30.1514   23.8812 C   0  0  0  0  0  0
  -17.6498  -30.6603   24.0546 C   0  0  0  0  0  0
  -25.9137  -34.9263   23.4937 C   0  0  0  0  0  0
  -16.5388  -29.9080   23.6358 C   0  0  0  0  0  0
  -16.7320  -28.6503   23.0372 C   0  0  0  0  0  0
  -26.4611  -31.6491   25.0683 C   0  0  0  0  0  0
  -25.3664  -31.3831   26.1291 C   0  0  0  0  0  0
  -27.0551  -30.2816   24.6640 C   0  0  0  0  0  0
  -27.6048  -32.4371   25.7497 C   0  0  0  0  0  0
  -27.5571  -37.1709   24.8460 C   0  0  0  0  0  0
  -21.4435  -29.3010   22.3458 N   0  0  0  0  0  0
  -26.4265  -37.3646   23.9420 N   0  0  0  0  0  0
  -24.7946  -30.9282   22.0778 N   0  0  0  0  0  0
  -23.4203  -28.7882   23.3094 O   0  0  0  0  0  0
  -28.1868  -25.3748   20.2624 O   0  0  0  0  0  0
  -26.5787  -34.8856   22.4560 O   0  0  0  0  0  0
  -23.5906  -32.1043   23.6370 O   0  0  0  0  0  0
  -26.7403  -23.2141   20.4561 C   0  0  0  0  0  0
  -26.4078  -21.8192   20.5279 C   0  0  0  0  0  0
  -28.9767  -22.3956   20.2650 C   0  0  0  0  0  0
  -28.6996  -20.7878   20.3436 C   0  0  0  0  0  0
  -28.0493  -23.7374   20.3081 C   0  0  0  0  0  0
  -27.2931  -20.6910   20.4776 C   0  0  0  0  0  0
  -29.6570  -19.1456   20.3031 C   0  0  0  0  0  0
  -29.3857  -17.3775   20.4080 O   0  0  0  0  0  0
  -26.7431  -19.4569   20.5675 F   0  0  0  0  0  0
  -31.4177  -13.3785   19.2256 H   0  0  0  0  0  0
  -30.5692  -12.2783   20.2620 H   0  0  0  0  0  0
  -30.0340  -11.8286   17.8392 H   0  0  0  0  0  0
  -29.5268  -13.4877   17.6280 H   0  0  0  0  0  0
  -28.1753  -11.3129   19.2406 H   0  0  0  0  0  0
  -27.4813  -12.2183   17.9161 H   0  0  0  0  0  0
  -27.4351  -14.2272   19.2104 H   0  0  0  0  0  0
  -28.8174  -12.8569   21.5599 H   0  0  0  0  0  0
  -28.1180  -14.4596   21.5818 H   0  0  0  0  0  0
  -25.2795   -9.5703   22.4752 H   0  0  0  0  0  0
  -24.0027   -7.4654   22.7479 H   0  0  0  0  0  0
  -21.0872   -8.8785   19.8948 H   0  0  0  0  0  0
  -22.3734  -10.9672   19.6150 H   0  0  0  0  0  0
  -21.2021   -7.6155   23.9722 H   0  0  0  0  0  0
  -21.1482   -6.0525   25.9080 H   0  0  0  0  0  0
  -22.0593   -2.7613   23.2844 H   0  0  0  0  0  0
  -22.4033  -11.9833   22.4881 H   0  0  0  0  0  0
  -21.0977  -13.1133   22.2652 H   0  0  0  0  0  0
  -24.6297  -15.8624   20.5669 H   0  0  0  0  0  0
  -26.2521  -15.6541   20.1401 H   0  0  0  0  0  0
  -26.7530  -32.4874   23.0737 H   0  0  0  0  0  0
  -25.0058  -33.9286   25.0004 H   0  0  0  0  0  0
  -22.8484  -31.2282   21.3077 H   0  0  0  0  0  0
  -23.3798  -35.9414   23.3222 H   0  0  0  0  0  0
  -24.3573  -36.8885   22.2082 H   0  0  0  0  0  0
  -23.7207  -37.6258   23.6788 H   0  0  0  0  0  0
  -26.3153  -31.2139   20.6345 H   0  0  0  0  0  0
  -26.9505  -30.5676   22.0958 H   0  0  0  0  0  0
  -28.1605  -28.2996   21.3562 H   0  0  0  0  0  0
  -25.8475  -25.6071   18.9510 H   0  0  0  0  0  0
  -24.0558  -27.2171   18.8972 H   0  0  0  0  0  0
  -23.9571  -30.4361   19.3777 H   0  0  0  0  0  0
  -22.8816  -29.1474   19.8181 H   0  0  0  0  0  0
  -25.1356  -36.1616   25.0763 H   0  0  0  0  0  0
  -21.0052  -28.3396   24.1277 H   0  0  0  0  0  0
  -20.5672  -26.2395   23.3670 H   0  0  0  0  0  0
  -21.6662  -26.7370   22.1224 H   0  0  0  0  0  0
  -19.6933  -25.6260   21.1296 H   0  0  0  0  0  0
  -19.6727  -27.3140   20.6723 H   0  0  0  0  0  0
  -17.4234  -26.6693   21.4025 H   0  0  0  0  0  0
  -18.0342  -26.0110   22.9038 H   0  0  0  0  0  0
  -19.7981  -30.7355   24.2142 H   0  0  0  0  0  0
  -17.5044  -31.6278   24.5159 H   0  0  0  0  0  0
  -15.5384  -30.2951   23.7732 H   0  0  0  0  0  0
  -15.8721  -28.0793   22.7138 H   0  0  0  0  0  0
  -24.5843  -30.7200   25.7575 H   0  0  0  0  0  0
  -24.8872  -32.3068   26.4544 H   0  0  0  0  0  0
  -25.7824  -30.9081   27.0185 H   0  0  0  0  0  0
  -26.3282  -29.6412   24.1635 H   0  0  0  0  0  0
  -27.3944  -29.7288   25.5411 H   0  0  0  0  0  0
  -27.9281  -30.3919   24.0205 H   0  0  0  0  0  0
  -27.2573  -33.3742   26.1861 H   0  0  0  0  0  0
  -28.3960  -32.6827   25.0400 H   0  0  0  0  0  0
  -28.0607  -31.8651   26.5589 H   0  0  0  0  0  0
  -28.2515  -38.0075   24.7575 H   0  0  0  0  0  0
  -28.1140  -36.2603   24.6201 H   0  0  0  0  0  0
  -27.2298  -37.1240   25.8861 H   0  0  0  0  0  0
  -20.9761  -29.8635   21.6484 H   0  0  0  0  0  0
  -26.0083  -38.2679   24.1478 H   0  0  0  0  0  0
  -25.9212  -23.9131   20.5288 H   0  0  0  0  0  0
  -25.3589  -21.5869   20.6375 H   0  0  0  0  0  0
  -30.0275  -22.6244   20.1632 H   0  0  0  0  0  0
  -30.4146  -19.3076   21.0699 H   0  0  0  0  0  0
  -30.2154  -19.2337   19.3715 H   0  0  0  0  0  0
  1 25  1  0  0  0
  1 30  2  0  0  0
  1 78  1  0  0  0
  2  3  1  0  0  0
  2 25  1  0  0  0
  2 80  1  0  0  0
  2 81  1  0  0  0
  3  4  1  0  0  0
  3 82  1  0  0  0
  3 83  1  0  0  0
  4  5  1  0  0  0
  4 84  1  0  0  0
  4 85  1  0  0  0
  5  6  1  0  0  0
  5 26  1  0  0  0
  5 86  1  0  0  0
  6 25  1  0  0  0
  6 87  1  0  0  0
  6 88  1  0  0  0
  7  8  2  0  0  0
  7 26  1  0  0  0
  7 29  1  0  0  0
  8  9  1  0  0  0
  8 22  1  0  0  0
  9 10  1  0  0  0
  9 27  2  0  0  0
 10 11  2  0  0  0
 10 15  1  0  0  0
 11 12  1  0  0  0
 11 89  1  0  0  0
 12 13  2  0  0  0
 12 90  1  0  0  0
 13 14  1  0  0  0
 13 31  1  0  0  0
 14 15  2  0  0  0
 14 91  1  0  0  0
 15 92  1  0  0  0
 16 17  2  0  0  0
 16 21  1  0  0  0
 16 31  1  0  0  0
 17 18  1  0  0  0
 17 93  1  0  0  0
 18 19  2  0  0  0
 18 94  1  0  0  0
 19 20  1  0  0  0
 19 24  1  0  0  0
 20 21  2  0  0  0
 20 95  1  0  0  0
 21 23  1  0  0  0
 22 28  1  0  0  0
 22 32  2  0  0  0
 26 27  1  0  0  0
 28 96  1  0  0  0
 28 97  1  0  0  0
 29 98  1  0  0  0
 29 99  1  0  0  0
 33 34  1  0  0  0
 33 66  1  0  0  0
 33 70  2  0  0  0
 34 36  1  0  0  0
 34 59  1  0  0  0
 34100  1  0  0  0
 35 44  2  0  0  0
 35 45  1  0  0  0
 35 68  1  0  0  0
 36 56  1  0  0  0
 36101  1  0  0  0
 37 39  1  0  0  0
 37 47  1  0  0  0
 37 66  1  0  0  0
 37102  1  0  0  0
 38 43  2  0  0  0
 38 46  1  0  0  0
 38 47  1  0  0  0
 39 64  1  0  0  0
 39 67  2  0  0  0
 40 52  1  0  0  0
 40 53  2  0  0  0
 40 58  1  0  0  0
 41103  1  0  0  0
 41104  1  0  0  0
 41105  1  0  0  0
 41 48  1  0  0  0
 42 43  1  0  0  0
 42 66  1  0  0  0
 42106  1  0  0  0
 42107  1  0  0  0
 43 44  1  0  0  0
 44108  1  0  0  0
 45 46  2  0  0  0
 45109  1  0  0  0
 46110  1  0  0  0
 47111  1  0  0  0
 47112  1  0  0  0
 48 56  1  0  0  0
 48 65  1  0  0  0
 48113  1  0  0  0
 49 50  1  0  0  0
 49 53  1  0  0  0
 49 64  1  0  0  0
 49114  1  0  0  0
 50 51  1  0  0  0
 50115  1  0  0  0
 50116  1  0  0  0
 51 52  1  0  0  0
 51117  1  0  0  0
 51118  1  0  0  0
 52119  1  0  0  0
 52120  1  0  0  0
 53 54  1  0  0  0
 54 55  2  0  0  0
 54121  1  0  0  0
 55 57  1  0  0  0
 55122  1  0  0  0
 56 69  2  0  0  0
 57 58  2  0  0  0
 57123  1  0  0  0
 58124  1  0  0  0
 59 60  1  0  0  0
 59 61  1  0  0  0
 59 62  1  0  0  0
 60125  1  0  0  0
 60126  1  0  0  0
 60127  1  0  0  0
 61128  1  0  0  0
 61129  1  0  0  0
 61130  1  0  0  0
 62131  1  0  0  0
 62132  1  0  0  0
 62133  1  0  0  0
 63 65  1  0  0  0
 63134  1  0  0  0
 63135  1  0  0  0
 63136  1  0  0  0
 64137  1  0  0  0
 65138  1  0  0  0
 68 75  1  0  0  0
 71 72  2  0  0  0
 71 75  1  0  0  0
 71139  1  0  0  0
 72 76  1  0  0  0
 72140  1  0  0  0
 73 74  1  0  0  0
 73 75  2  0  0  0
 73141  1  0  0  0
 74 76  2  0  0  0
 74 77  1  0  0  0
 76 79  1  0  0  0
 77 78  1  0  0  0
 77142  1  0  0  0
 77143  1  0  0  0
M  ISO  4   1 100  68 101  75 101  78 100
M  END
> <chiral flag>
0

> <version>
0

> <s_m_source_file>
/data/baiqing/PycharmProjects/Reinvent-master-3.2/result/LINK_invent/BTK/process_docking_weight1_custom_product_contain_oxygen_bond_distance_aromatic_linkinvent_7_9_3/rearranged_h_0010.sdf

> <i_m_source_file_index>
53

> <r_mmod_Potential_Energy-OPLS-2005>
2748.34204101562

> <r_mmod_Stretch_Energy-OPLS-2005>
1296.6103515625

> <r_mmod_Bend_Energy-OPLS-2005>
629.391540527344

> <r_mmod_Torsional_Energy-OPLS-2005>
179.202026367188

> <r_mmod_Improper_Torsional_Energy-OPLS-2005>
2.52218437194824

> <r_mmod_Van_der_Waal_Energy-OPLS-2005>
126.641242980957

> <r_mmod_Electrostatic_Energy-OPLS-2005>
-329.592559814453

> <r_mmod_Solvation_Energy-OPLS-2005>
-192.647827148438

> <b_mmod_Minimization_Converged-OPLS-2005>
0

> <r_mmod_RMS_Derivative-OPLS-2005>
0.750420868396759

$$$$
53
                    3D
 Structure written by MMmdl.
158167  0  0  1  0            999 V2000
  -30.6265  -14.7456   20.4589 C   0  0  0  0  0  0
  -30.4253  -12.4557   19.4774 C   0  0  0  0  0  0
  -29.5062  -12.5002   18.2380 C   0  0  0  0  0  0
  -28.0343  -12.3240   18.6553 C   0  0  0  0  0  0
  -27.6389  -13.2339   19.8493 C   0  0  2  0  0  0
  -28.6826  -13.1845   20.9861 C   0  0  0  0  0  0
  -25.2500  -13.8205   20.5708 C   0  0  0  0  0  0
  -24.1795  -13.0446   20.9215 C   0  0  0  0  0  0
  -24.6389  -11.6923   20.8757 C   0  0  0  0  0  0
  -23.9070  -10.4297   21.0412 C   0  0  0  0  0  0
  -24.3620   -9.4210   21.9187 C   0  0  0  0  0  0
  -23.6294   -8.2245   22.0755 C   0  0  0  0  0  0
  -22.4278   -8.0283   21.3544 C   0  0  0  0  0  0
  -21.9915   -9.0257   20.4646 C   0  0  0  0  0  0
  -22.7245  -10.2137   20.3058 C   0  0  0  0  0  0
  -21.6854   -6.0737   22.5278 C   0  0  0  0  0  0
  -21.4016   -6.5641   23.8211 C   0  0  0  0  0  0
  -21.3659   -5.6793   24.9173 C   0  0  0  0  0  0
  -21.6042   -4.3055   24.7223 C   0  0  0  0  0  0
  -21.8821   -3.8147   23.4345 C   0  0  0  0  0  0
  -21.9194   -4.6964   22.3402 C   0  0  0  0  0  0
  -22.7816  -13.5223   21.1870 C   0  0  0  0  0  0
  -22.1662   -4.2150   21.0979 F   0  0  0  0  0  0
  -21.5627   -3.4539   25.7737 F   0  0  0  0  0  0
  -29.9817  -13.5295   20.3986 N   0  0  0  0  0  0
  -26.2923  -12.9415   20.3290 N   0  0  0  0  0  0
  -25.9318  -11.6556   20.5764 N   0  0  0  0  0  0
  -22.0464  -12.8211   22.0424 N   0  0  0  0  0  0
  -25.4189  -15.1930   20.4123 N   0  0  0  0  0  0
  -31.8106  -14.8111   20.1192 O   0  0  0  0  0  0
  -21.6643   -6.8881   21.4240 O   0  0  0  0  0  0
  -22.3499  -14.5528   20.6716 O   0  0  0  0  0  0
  -24.6312  -31.8538   23.1963 C   0  0  0  0  0  0
  -25.9136  -32.4745   23.8313 C   0  0  1  0  0  0
  -27.2229  -27.2553   20.1250 C   0  0  0  0  0  0
  -25.5926  -33.8551   24.2233 N   0  0  0  0  0  0
  -23.4275  -30.4747   21.5406 C   0  0  2  0  0  0
  -24.8731  -28.9158   20.1101 C   0  0  0  0  0  0
  -22.7497  -29.4593   22.4918 C   0  0  0  0  0  0
  -18.0289  -28.1384   22.8485 C   0  0  0  0  0  0
  -24.1490  -36.7276   23.2641 C   0  0  0  0  0  0
  -25.9729  -30.7632   21.3768 C   0  0  0  0  0  0
  -26.0433  -29.3852   20.7182 C   0  0  0  0  0  0
  -27.2169  -28.5665   20.7137 C   0  0  0  0  0  0
  -26.0242  -26.8450   19.5010 C   0  0  0  0  0  0
  -24.8690  -27.6545   19.4927 C   0  0  0  0  0  0
  -23.6438  -29.8039   20.1579 C   0  0  0  0  0  0
  -25.4120  -36.3063   24.0320 C   0  0  1  0  0  0
  -20.5893  -28.3697   23.1267 C   0  0  2  0  0  0
  -20.6779  -26.9414   22.5409 C   0  0  0  0  0  0
  -19.5754  -26.6382   21.5213 C   0  0  0  0  0  0
  -18.1933  -26.7926   22.1623 C   0  0  0  0  0  0
  -19.1543  -28.8858   23.2870 C   0  0  0  0  0  0
  -18.9466  -30.1458   23.8888 C   0  0  0  0  0  0
  -17.6464  -30.6587   24.0561 C   0  0  0  0  0  0
  -25.9062  -34.9436   23.5083 C   0  0  0  0  0  0
  -16.5355  -29.9085   23.6334 C   0  0  0  0  0  0
  -16.7276  -28.6501   23.0355 C   0  0  0  0  0  0
  -26.4499  -31.6583   25.0715 C   0  0  0  0  0  0
  -25.3712  -31.3744   26.1429 C   0  0  0  0  0  0
  -27.0355  -30.2997   24.6221 C   0  0  0  0  0  0
  -27.6045  -32.4339   25.7486 C   0  0  0  0  0  0
  -27.5581  -37.1790   24.8462 C   0  0  0  0  0  0
  -21.4206  -29.3039   22.3654 N   0  0  0  0  0  0
  -26.4293  -37.3764   23.9406 N   0  0  0  0  0  0
  -24.6964  -31.0492   22.0942 N   0  0  0  0  0  0
  -23.4190  -28.8145   23.3032 O   0  0  0  0  0  0
  -28.3485  -26.4022   20.1984 O   0  0  0  0  0  0
  -26.5646  -34.8916   22.4660 O   0  0  0  0  0  0
  -23.5461  -32.1368   23.7255 O   0  0  0  0  0  0
  -29.3964  -19.8775   20.3894 C   0  0  0  0  0  0
  -28.2800  -19.7538   22.9186 C   0  0  0  0  0  0
  -29.4960  -18.6153   21.1203 C   0  0  0  0  0  0
  -28.9659  -18.6286   22.4264 C   0  0  0  0  0  0
  -28.7647  -21.0989   20.8985 C   0  0  0  0  0  0
  -28.1695  -20.9590   22.1942 C   0  0  0  0  0  0
  -29.2930  -17.4757   23.3630 C   0  0  0  0  0  0
  -30.7916  -17.0820   23.2873 C   0  0  0  0  0  0
  -31.4612  -17.3888   21.9204 C   0  0  0  0  0  0
  -30.4275  -17.3552   20.7699 C   0  0  1  0  0  0
  -28.4111  -24.9899   19.6721 C   0  0  0  0  0  0
  -28.2948  -23.6702   20.6090 C   0  0  0  0  0  0
  -29.9046  -15.9078   20.7168 N   0  0  0  0  0  0
  -28.7835  -22.3247   20.1391 O   0  0  0  0  0  0
  -27.3143  -22.2092   23.0311 Cl  0  0  0  0  0  0
  -31.4672  -12.5685   19.1731 H   0  0  0  0  0  0
  -30.3647  -11.4842   19.9705 H   0  0  0  0  0  0
  -29.7895  -11.7206   17.5294 H   0  0  0  0  0  0
  -29.6315  -13.4506   17.7167 H   0  0  0  0  0  0
  -27.8973  -11.2775   18.9301 H   0  0  0  0  0  0
  -27.3740  -12.5027   17.8060 H   0  0  0  0  0  0
  -27.6299  -14.2519   19.4590 H   0  0  0  0  0  0
  -28.7188  -12.1939   21.4415 H   0  0  0  0  0  0
  -28.4176  -13.8798   21.7842 H   0  0  0  0  0  0
  -25.2762   -9.5687   22.4766 H   0  0  0  0  0  0
  -24.0003   -7.4637   22.7474 H   0  0  0  0  0  0
  -21.0847   -8.8778   19.8951 H   0  0  0  0  0  0
  -22.3702  -10.9677   19.6169 H   0  0  0  0  0  0
  -21.2012   -7.6150   23.9715 H   0  0  0  0  0  0
  -21.1478   -6.0524   25.9076 H   0  0  0  0  0  0
  -22.0600   -2.7611   23.2845 H   0  0  0  0  0  0
  -22.4086  -11.9871   22.4808 H   0  0  0  0  0  0
  -21.1080  -13.1227   22.2630 H   0  0  0  0  0  0
  -24.6507  -15.8453   20.5252 H   0  0  0  0  0  0
  -26.2632  -15.6340   20.0710 H   0  0  0  0  0  0
  -26.7204  -32.5380   23.1054 H   0  0  0  0  0  0
  -25.0055  -33.9688   25.0365 H   0  0  0  0  0  0
  -22.7249  -31.2976   21.3938 H   0  0  0  0  0  0
  -23.3759  -35.9603   23.3299 H   0  0  0  0  0  0
  -24.3578  -36.8911   22.2057 H   0  0  0  0  0  0
  -23.7244  -37.6472   23.6678 H   0  0  0  0  0  0
  -26.1151  -31.5242   20.6082 H   0  0  0  0  0  0
  -26.8490  -30.8098   22.0124 H   0  0  0  0  0  0
  -28.1143  -28.9230   21.1997 H   0  0  0  0  0  0
  -25.9403  -25.8753   19.0364 H   0  0  0  0  0  0
  -23.9689  -27.2859   19.0200 H   0  0  0  0  0  0
  -23.7661  -30.5782   19.3998 H   0  0  0  0  0  0
  -22.7619  -29.2362   19.8555 H   0  0  0  0  0  0
  -25.1306  -36.1905   25.0813 H   0  0  0  0  0  0
  -20.9986  -28.3285   24.1388 H   0  0  0  0  0  0
  -20.5683  -26.2311   23.3616 H   0  0  0  0  0  0
  -21.6648  -26.7441   22.1202 H   0  0  0  0  0  0
  -19.6917  -25.6294   21.1244 H   0  0  0  0  0  0
  -19.6686  -27.3193   20.6742 H   0  0  0  0  0  0
  -17.4203  -26.6672   21.4023 H   0  0  0  0  0  0
  -18.0328  -26.0064   22.9014 H   0  0  0  0  0  0
  -19.7943  -30.7274   24.2253 H   0  0  0  0  0  0
  -17.5021  -31.6266   24.5164 H   0  0  0  0  0  0
  -15.5356  -30.2983   23.7668 H   0  0  0  0  0  0
  -15.8674  -28.0820   22.7078 H   0  0  0  0  0  0
  -24.5881  -30.7104   25.7749 H   0  0  0  0  0  0
  -24.8906  -32.2915   26.4840 H   0  0  0  0  0  0
  -25.8012  -30.8921   27.0214 H   0  0  0  0  0  0
  -26.2948  -29.6730   24.1237 H   0  0  0  0  0  0
  -27.4020  -29.7276   25.4755 H   0  0  0  0  0  0
  -27.8832  -30.4267   23.9484 H   0  0  0  0  0  0
  -27.2649  -33.3648   26.2042 H   0  0  0  0  0  0
  -28.3860  -32.6892   25.0316 H   0  0  0  0  0  0
  -28.0709  -31.8482   26.5416 H   0  0  0  0  0  0
  -28.2591  -38.0093   24.7521 H   0  0  0  0  0  0
  -28.1086  -36.2624   24.6281 H   0  0  0  0  0  0
  -27.2295  -37.1429   25.8864 H   0  0  0  0  0  0
  -20.9402  -29.8753   21.6844 H   0  0  0  0  0  0
  -26.0167  -38.2835   24.1413 H   0  0  0  0  0  0
  -29.8830  -19.9349   19.4264 H   0  0  0  0  0  0
  -27.8781  -19.7236   23.9214 H   0  0  0  0  0  0
  -28.6685  -16.6268   23.0821 H   0  0  0  0  0  0
  -29.0229  -17.7164   24.3922 H   0  0  0  0  0  0
  -30.8959  -16.0260   23.5388 H   0  0  0  0  0  0
  -31.3436  -17.6236   24.0561 H   0  0  0  0  0  0
  -32.2982  -16.7118   21.7519 H   0  0  0  0  0  0
  -31.9120  -18.3825   21.9556 H   0  0  0  0  0  0
  -30.9296  -17.5631   19.8236 H   0  0  0  0  0  0
  -27.7711  -24.8684   18.8006 H   0  0  0  0  0  0
  -29.4130  -24.9380   19.2462 H   0  0  0  0  0  0
  -27.2362  -23.5811   20.8473 H   0  0  0  0  0  0
  -28.8265  -23.8942   21.5336 H   0  0  0  0  0  0
  -28.9225  -15.7870   20.9079 H   0  0  0  0  0  0
  1 25  1  0  0  0
  1 30  2  0  0  0
  1 83  1  0  0  0
  2  3  1  0  0  0
  2 25  1  0  0  0
  2 86  1  0  0  0
  2 87  1  0  0  0
  3  4  1  0  0  0
  3 88  1  0  0  0
  3 89  1  0  0  0
  4  5  1  0  0  0
  4 90  1  0  0  0
  4 91  1  0  0  0
  5  6  1  0  0  0
  5 26  1  0  0  0
  5 92  1  0  0  0
  6 25  1  0  0  0
  6 93  1  0  0  0
  6 94  1  0  0  0
  7  8  2  0  0  0
  7 26  1  0  0  0
  7 29  1  0  0  0
  8  9  1  0  0  0
  8 22  1  0  0  0
  9 10  1  0  0  0
  9 27  2  0  0  0
 10 11  2  0  0  0
 10 15  1  0  0  0
 11 12  1  0  0  0
 11 95  1  0  0  0
 12 13  2  0  0  0
 12 96  1  0  0  0
 13 14  1  0  0  0
 13 31  1  0  0  0
 14 15  2  0  0  0
 14 97  1  0  0  0
 15 98  1  0  0  0
 16 17  2  0  0  0
 16 21  1  0  0  0
 16 31  1  0  0  0
 17 18  1  0  0  0
 17 99  1  0  0  0
 18 19  2  0  0  0
 18100  1  0  0  0
 19 20  1  0  0  0
 19 24  1  0  0  0
 20 21  2  0  0  0
 20101  1  0  0  0
 21 23  1  0  0  0
 22 28  1  0  0  0
 22 32  2  0  0  0
 26 27  1  0  0  0
 28102  1  0  0  0
 28103  1  0  0  0
 29104  1  0  0  0
 29105  1  0  0  0
 33 34  1  0  0  0
 33 66  1  0  0  0
 33 70  2  0  0  0
 34 36  1  0  0  0
 34 59  1  0  0  0
 34106  1  0  0  0
 35 44  2  0  0  0
 35 45  1  0  0  0
 35 68  1  0  0  0
 36 56  1  0  0  0
 36107  1  0  0  0
 37 39  1  0  0  0
 37 47  1  0  0  0
 37 66  1  0  0  0
 37108  1  0  0  0
 38 43  2  0  0  0
 38 46  1  0  0  0
 38 47  1  0  0  0
 39 64  1  0  0  0
 39 67  2  0  0  0
 40 52  1  0  0  0
 40 53  2  0  0  0
 40 58  1  0  0  0
 41109  1  0  0  0
 41110  1  0  0  0
 41111  1  0  0  0
 41 48  1  0  0  0
 42 43  1  0  0  0
 42 66  1  0  0  0
 42112  1  0  0  0
 42113  1  0  0  0
 43 44  1  0  0  0
 44114  1  0  0  0
 45 46  2  0  0  0
 45115  1  0  0  0
 46116  1  0  0  0
 47117  1  0  0  0
 47118  1  0  0  0
 48 56  1  0  0  0
 48 65  1  0  0  0
 48119  1  0  0  0
 49 50  1  0  0  0
 49 53  1  0  0  0
 49 64  1  0  0  0
 49120  1  0  0  0
 50 51  1  0  0  0
 50121  1  0  0  0
 50122  1  0  0  0
 51 52  1  0  0  0
 51123  1  0  0  0
 51124  1  0  0  0
 52125  1  0  0  0
 52126  1  0  0  0
 53 54  1  0  0  0
 54 55  2  0  0  0
 54127  1  0  0  0
 55 57  1  0  0  0
 55128  1  0  0  0
 56 69  2  0  0  0
 57 58  2  0  0  0
 57129  1  0  0  0
 58130  1  0  0  0
 59 60  1  0  0  0
 59 61  1  0  0  0
 59 62  1  0  0  0
 60131  1  0  0  0
 60132  1  0  0  0
 60133  1  0  0  0
 61134  1  0  0  0
 61135  1  0  0  0
 61136  1  0  0  0
 62137  1  0  0  0
 62138  1  0  0  0
 62139  1  0  0  0
 63 65  1  0  0  0
 63140  1  0  0  0
 63141  1  0  0  0
 63142  1  0  0  0
 64143  1  0  0  0
 65144  1  0  0  0
 68 81  1  0  0  0
 71 73  2  0  0  0
 71 75  1  0  0  0
 71145  1  0  0  0
 72 74  2  0  0  0
 72 76  1  0  0  0
 72146  1  0  0  0
 73 74  1  0  0  0
 73 80  1  0  0  0
 74 77  1  0  0  0
 75 76  2  0  0  0
 75 84  1  0  0  0
 76 85  1  0  0  0
 77 78  1  0  0  0
 77147  1  0  0  0
 77148  1  0  0  0
 78 79  1  0  0  0
 78149  1  0  0  0
 78150  1  0  0  0
 79 80  1  0  0  0
 79151  1  0  0  0
 79152  1  0  0  0
 80 83  1  0  0  0
 80153  1  0  0  0
 81 82  1  0  0  0
 81154  1  0  0  0
 81155  1  0  0  0
 82 84  1  0  0  0
 82156  1  0  0  0
 82157  1  0  0  0
 83158  1  0  0  0
M  ISO  4   1 100  68 101  81 101  83 100
M  END
> <chiral flag>
0

> <version>
0

> <s_m_source_file>
/data/baiqing/PycharmProjects/Reinvent-master-3.2/result/LINK_invent/BTK/process_docking_weight1_custom_product_contain_oxygen_bond_distance_aromatic_linkinvent_7_9_3/rearranged_h_0010.sdf

> <i_m_source_file_index>
54

> <r_mmod_Potential_Energy-OPLS-2005>
222.425827026367

> <r_mmod_Stretch_Energy-OPLS-2005>
140.607543945312

> <r_mmod_Bend_Energy-OPLS-2005>
214.027374267578

> <r_mmod_Torsional_Energy-OPLS-2005>
217.560043334961

> <r_mmod_Improper_Torsional_Energy-OPLS-2005>
7.14033603668213

> <r_mmod_Van_der_Waal_Energy-OPLS-2005>
158.877746582031

> <r_mmod_Electrostatic_Energy-OPLS-2005>
-395.196594238281

> <r_mmod_Solvation_Energy-OPLS-2005>
-205.208389282227

> <b_mmod_Minimization_Converged-OPLS-2005>
0

> <r_mmod_RMS_Derivative-OPLS-2005>
0.520427227020264

$$$$
54
                    3D
 Structure written by MMmdl.
147155  0  0  1  0            999 V2000
  -30.2080  -15.8793   20.3025 C   0  0  0  0  0  0
  -30.4053  -13.2674   19.5362 C   0  0  0  0  0  0
  -29.5573  -12.7125   18.3482 C   0  0  0  0  0  0
  -28.1528  -12.3014   18.8087 C   0  0  0  0  0  0
  -27.5871  -13.3306   19.8083 C   0  0  2  0  0  0
  -28.5874  -13.7703   20.9095 C   0  0  0  0  0  0
  -25.2285  -13.8317   20.5825 C   0  0  0  0  0  0
  -24.1701  -13.0436   20.9306 C   0  0  0  0  0  0
  -24.6435  -11.6957   20.8770 C   0  0  0  0  0  0
  -23.9141  -10.4295   21.0393 C   0  0  0  0  0  0
  -24.3669   -9.4207   21.9178 C   0  0  0  0  0  0
  -23.6324   -8.2250   22.0753 C   0  0  0  0  0  0
  -22.4303   -8.0295   21.3544 C   0  0  0  0  0  0
  -21.9952   -9.0272   20.4643 C   0  0  0  0  0  0
  -22.7303  -10.2139   20.3048 C   0  0  0  0  0  0
  -21.6860   -6.0748   22.5279 C   0  0  0  0  0  0
  -21.4020   -6.5648   23.8213 C   0  0  0  0  0  0
  -21.3657   -5.6797   24.9174 C   0  0  0  0  0  0
  -21.6043   -4.3060   24.7221 C   0  0  0  0  0  0
  -21.8820   -3.8155   23.4343 C   0  0  0  0  0  0
  -21.9196   -4.6973   22.3400 C   0  0  0  0  0  0
  -22.7706  -13.5149   21.1932 C   0  0  0  0  0  0
  -22.1663   -4.2160   21.0977 F   0  0  0  0  0  0
  -21.5623   -3.4541   25.7732 F   0  0  0  0  0  0
  -29.7181  -14.4699   20.2343 N   0  0  0  0  0  0
  -26.2759  -12.9691   20.3269 N   0  0  0  0  0  0
  -25.9392  -11.6735   20.5700 N   0  0  0  0  0  0
  -22.0378  -12.8119   22.0482 N   0  0  0  0  0  0
  -25.3846  -15.2060   20.4247 N   0  0  0  0  0  0
  -31.4500  -15.7769   20.1799 O   0  0  0  0  0  0
  -21.6653   -6.8899   21.4245 O   0  0  0  0  0  0
  -22.3375  -14.5443   20.6767 O   0  0  0  0  0  0
  -24.6999  -31.7791   23.1350 C   0  0  0  0  0  0
  -25.9497  -32.4361   23.7963 C   0  0  1  0  0  0
  -27.2345  -26.5250   20.2341 C   0  0  0  0  0  0
  -25.6007  -33.8194   24.1841 N   0  0  0  0  0  0
  -23.5334  -30.3727   21.4932 C   0  0  2  0  0  0
  -24.9897  -28.6713   20.1240 C   0  0  0  0  0  0
  -22.7835  -29.4209   22.4660 C   0  0  0  0  0  0
  -18.0351  -28.1438   22.8455 C   0  0  0  0  0  0
  -24.1486  -36.7096   23.2658 C   0  0  0  0  0  0
  -26.1201  -30.4535   21.4240 C   0  0  0  0  0  0
  -26.1816  -28.9981   20.7789 C   0  0  0  0  0  0
  -27.2780  -27.9595   20.7919 C   0  0  0  0  0  0
  -26.0048  -26.4470   19.5192 C   0  0  0  0  0  0
  -24.9504  -27.4241   19.4698 C   0  0  0  0  0  0
  -23.7953  -29.6500   20.1371 C   0  0  0  0  0  0
  -25.4144  -36.2831   24.0275 C   0  0  1  0  0  0
  -20.5993  -28.3800   23.1116 C   0  0  2  0  0  0
  -20.6808  -26.9444   22.5407 C   0  0  0  0  0  0
  -19.5783  -26.6372   21.5224 C   0  0  0  0  0  0
  -18.1967  -26.7966   22.1620 C   0  0  0  0  0  0
  -19.1622  -28.8947   23.2764 C   0  0  0  0  0  0
  -18.9526  -30.1528   23.8814 C   0  0  0  0  0  0
  -17.6514  -30.6616   24.0552 C   0  0  0  0  0  0
  -25.9141  -34.9228   23.4908 C   0  0  0  0  0  0
  -16.5401  -29.9096   23.6361 C   0  0  0  0  0  0
  -16.7330  -28.6519   23.0380 C   0  0  0  0  0  0
  -26.4620  -31.6476   25.0661 C   0  0  0  0  0  0
  -25.3637  -31.3853   26.1246 C   0  0  0  0  0  0
  -27.0578  -30.2793   24.6689 C   0  0  0  0  0  0
  -27.6040  -32.4376   25.7483 C   0  0  0  0  0  0
  -27.5551  -37.1699   24.8472 C   0  0  0  0  0  0
  -21.4466  -29.3009   22.3412 N   0  0  0  0  0  0
  -26.4251  -37.3616   23.9421 N   0  0  0  0  0  0
  -24.8102  -30.9060   22.0695 N   0  0  0  0  0  0
  -23.4202  -28.7848   23.3093 O   0  0  0  0  0  0
  -28.2288  -25.2701   20.3071 O   0  0  0  0  0  0
  -26.5803  -34.8847   22.4540 O   0  0  0  0  0  0
  -23.5983  -32.0946   23.6200 O   0  0  0  0  0  0
  -29.0070  -20.4083   21.4266 C   0  0  0  0  0  0
  -28.8149  -20.3602   19.1958 C   0  0  0  0  0  0
  -28.2095  -22.0310   21.3069 C   0  0  0  0  0  0
  -28.8954  -22.1650   19.1502 C   0  0  0  0  0  0
  -29.4841  -19.1808   20.2792 C   0  0  2  0  0  0
  -28.4463  -23.4132   20.2815 C   0  0  1  0  0  0
  -29.4452  -17.3077   20.3278 N   0  0  0  0  0  0
  -31.3736  -13.5706   19.1367 H   0  0  0  0  0  0
  -30.6372  -12.4748   20.2501 H   0  0  0  0  0  0
  -30.0622  -11.8674   17.8782 H   0  0  0  0  0  0
  -29.4720  -13.4841   17.5817 H   0  0  0  0  0  0
  -28.2294  -11.3287   19.2968 H   0  0  0  0  0  0
  -27.4850  -12.1703   17.9563 H   0  0  0  0  0  0
  -27.4159  -14.2152   19.1929 H   0  0  0  0  0  0
  -28.9065  -12.9318   21.5303 H   0  0  0  0  0  0
  -28.1062  -14.4794   21.5845 H   0  0  0  0  0  0
  -25.2809   -9.5675   22.4765 H   0  0  0  0  0  0
  -24.0019   -7.4643   22.7480 H   0  0  0  0  0  0
  -21.0880   -8.8811   19.8951 H   0  0  0  0  0  0
  -22.3769  -10.9685   19.6161 H   0  0  0  0  0  0
  -21.2017   -7.6157   23.9721 H   0  0  0  0  0  0
  -21.1472   -6.0525   25.9076 H   0  0  0  0  0  0
  -22.0599   -2.7617   23.2840 H   0  0  0  0  0  0
  -22.4025  -11.9796   22.4878 H   0  0  0  0  0  0
  -21.0982  -13.1107   22.2685 H   0  0  0  0  0  0
  -24.6102  -15.8522   20.5322 H   0  0  0  0  0  0
  -26.2250  -15.6482   20.0772 H   0  0  0  0  0  0
  -26.7593  -32.4786   23.0682 H   0  0  0  0  0  0
  -25.0061  -33.9199   24.9934 H   0  0  0  0  0  0
  -22.8689  -31.2144   21.2873 H   0  0  0  0  0  0
  -23.3777  -35.9393   23.3254 H   0  0  0  0  0  0
  -24.3549  -36.8828   22.2085 H   0  0  0  0  0  0
  -23.7212  -37.6238   23.6788 H   0  0  0  0  0  0
  -26.3412  -31.1655   20.6279 H   0  0  0  0  0  0
  -26.9650  -30.5277   22.0962 H   0  0  0  0  0  0
  -28.1750  -28.2272   21.3318 H   0  0  0  0  0  0
  -25.8133  -25.5164   19.0038 H   0  0  0  0  0  0
  -24.0551  -27.1625   18.9233 H   0  0  0  0  0  0
  -23.9847  -30.4004   19.3686 H   0  0  0  0  0  0
  -22.8957  -29.1252   19.8112 H   0  0  0  0  0  0
  -25.1359  -36.1560   25.0763 H   0  0  0  0  0  0
  -21.0078  -28.3435   24.1243 H   0  0  0  0  0  0
  -20.5664  -26.2425   23.3683 H   0  0  0  0  0  0
  -21.6667  -26.7363   22.1231 H   0  0  0  0  0  0
  -19.6933  -25.6262   21.1305 H   0  0  0  0  0  0
  -19.6736  -27.3144   20.6726 H   0  0  0  0  0  0
  -17.4240  -26.6723   21.4019 H   0  0  0  0  0  0
  -18.0338  -26.0130   22.9032 H   0  0  0  0  0  0
  -19.8002  -30.7370   24.2139 H   0  0  0  0  0  0
  -17.5066  -31.6289   24.5172 H   0  0  0  0  0  0
  -15.5400  -30.2975   23.7736 H   0  0  0  0  0  0
  -15.8729  -28.0810   22.7145 H   0  0  0  0  0  0
  -24.5860  -30.7163   25.7546 H   0  0  0  0  0  0
  -24.8788  -32.3095   26.4397 H   0  0  0  0  0  0
  -25.7774  -30.9196   27.0198 H   0  0  0  0  0  0
  -26.3328  -29.6350   24.1706 H   0  0  0  0  0  0
  -27.3967  -29.7313   25.5490 H   0  0  0  0  0  0
  -27.9319  -30.3881   24.0266 H   0  0  0  0  0  0
  -27.2569  -33.3779   26.1775 H   0  0  0  0  0  0
  -28.3992  -32.6769   25.0409 H   0  0  0  0  0  0
  -28.0550  -31.8691   26.5625 H   0  0  0  0  0  0
  -28.2533  -38.0027   24.7528 H   0  0  0  0  0  0
  -28.1080  -36.2550   24.6287 H   0  0  0  0  0  0
  -27.2272  -37.1319   25.8875 H   0  0  0  0  0  0
  -20.9807  -29.8618   21.6415 H   0  0  0  0  0  0
  -26.0058  -38.2647   24.1460 H   0  0  0  0  0  0
  -28.3926  -19.8709   22.1492 H   0  0  0  0  0  0
  -29.9213  -20.6058   21.9877 H   0  0  0  0  0  0
  -29.1587  -20.0483   18.2096 H   0  0  0  0  0  0
  -27.7473  -20.1350   19.1656 H   0  0  0  0  0  0
  -28.2549  -22.4307   22.3202 H   0  0  0  0  0  0
  -27.1511  -21.7970   21.1851 H   0  0  0  0  0  0
  -28.3558  -22.4305   18.2413 H   0  0  0  0  0  0
  -29.9326  -22.3831   18.8922 H   0  0  0  0  0  0
  -30.5599  -19.3206   20.1638 H   0  0  0  0  0  0
  -29.4535  -23.6212   20.6440 H   0  0  0  0  0  0
  -28.4688  -17.0514   20.3771 H   0  0  0  0  0  0
  1 25  1  0  0  0
  1 30  2  0  0  0
  1 77  1  0  0  0
  2  3  1  0  0  0
  2 25  1  0  0  0
  2 78  1  0  0  0
  2 79  1  0  0  0
  3  4  1  0  0  0
  3 80  1  0  0  0
  3 81  1  0  0  0
  4  5  1  0  0  0
  4 82  1  0  0  0
  4 83  1  0  0  0
  5  6  1  0  0  0
  5 26  1  0  0  0
  5 84  1  0  0  0
  6 25  1  0  0  0
  6 85  1  0  0  0
  6 86  1  0  0  0
  7  8  2  0  0  0
  7 26  1  0  0  0
  7 29  1  0  0  0
  8  9  1  0  0  0
  8 22  1  0  0  0
  9 10  1  0  0  0
  9 27  2  0  0  0
 10 11  2  0  0  0
 10 15  1  0  0  0
 11 12  1  0  0  0
 11 87  1  0  0  0
 12 13  2  0  0  0
 12 88  1  0  0  0
 13 14  1  0  0  0
 13 31  1  0  0  0
 14 15  2  0  0  0
 14 89  1  0  0  0
 15 90  1  0  0  0
 16 17  2  0  0  0
 16 21  1  0  0  0
 16 31  1  0  0  0
 17 18  1  0  0  0
 17 91  1  0  0  0
 18 19  2  0  0  0
 18 92  1  0  0  0
 19 20  1  0  0  0
 19 24  1  0  0  0
 20 21  2  0  0  0
 20 93  1  0  0  0
 21 23  1  0  0  0
 22 28  1  0  0  0
 22 32  2  0  0  0
 26 27  1  0  0  0
 28 94  1  0  0  0
 28 95  1  0  0  0
 29 96  1  0  0  0
 29 97  1  0  0  0
 33 34  1  0  0  0
 33 66  1  0  0  0
 33 70  2  0  0  0
 34 36  1  0  0  0
 34 59  1  0  0  0
 34 98  1  0  0  0
 35 44  2  0  0  0
 35 45  1  0  0  0
 35 68  1  0  0  0
 36 56  1  0  0  0
 36 99  1  0  0  0
 37 39  1  0  0  0
 37 47  1  0  0  0
 37 66  1  0  0  0
 37100  1  0  0  0
 38 43  2  0  0  0
 38 46  1  0  0  0
 38 47  1  0  0  0
 39 64  1  0  0  0
 39 67  2  0  0  0
 40 52  1  0  0  0
 40 53  2  0  0  0
 40 58  1  0  0  0
 41101  1  0  0  0
 41102  1  0  0  0
 41103  1  0  0  0
 41 48  1  0  0  0
 42 43  1  0  0  0
 42 66  1  0  0  0
 42104  1  0  0  0
 42105  1  0  0  0
 43 44  1  0  0  0
 44106  1  0  0  0
 45 46  2  0  0  0
 45107  1  0  0  0
 46108  1  0  0  0
 47109  1  0  0  0
 47110  1  0  0  0
 48 56  1  0  0  0
 48 65  1  0  0  0
 48111  1  0  0  0
 49 50  1  0  0  0
 49 53  1  0  0  0
 49 64  1  0  0  0
 49112  1  0  0  0
 50 51  1  0  0  0
 50113  1  0  0  0
 50114  1  0  0  0
 51 52  1  0  0  0
 51115  1  0  0  0
 51116  1  0  0  0
 52117  1  0  0  0
 52118  1  0  0  0
 53 54  1  0  0  0
 54 55  2  0  0  0
 54119  1  0  0  0
 55 57  1  0  0  0
 55120  1  0  0  0
 56 69  2  0  0  0
 57 58  2  0  0  0
 57121  1  0  0  0
 58122  1  0  0  0
 59 60  1  0  0  0
 59 61  1  0  0  0
 59 62  1  0  0  0
 60123  1  0  0  0
 60124  1  0  0  0
 60125  1  0  0  0
 61126  1  0  0  0
 61127  1  0  0  0
 61128  1  0  0  0
 62129  1  0  0  0
 62130  1  0  0  0
 62131  1  0  0  0
 63 65  1  0  0  0
 63132  1  0  0  0
 63133  1  0  0  0
 63134  1  0  0  0
 64135  1  0  0  0
 65136  1  0  0  0
 68 76  1  0  0  0
 71 73  1  0  0  0
 71 75  1  0  0  0
 71137  1  0  0  0
 71138  1  0  0  0
 72 74  1  0  0  0
 72 75  1  0  0  0
 72139  1  0  0  0
 72140  1  0  0  0
 73 76  1  0  0  0
 73141  1  0  0  0
 73142  1  0  0  0
 74 76  1  0  0  0
 74143  1  0  0  0
 74144  1  0  0  0
 75 77  1  0  0  0
 75145  1  0  0  0
 76146  1  0  0  0
 77147  1  0  0  0
M  ISO  4   1 100  68 101  76 101  77 100
M  END
> <chiral flag>
0

> <version>
0

> <s_m_source_file>
/data/baiqing/PycharmProjects/Reinvent-master-3.2/result/LINK_invent/BTK/process_docking_weight1_custom_product_contain_oxygen_bond_distance_aromatic_linkinvent_7_9_3/rearranged_h_0010.sdf

> <i_m_source_file_index>
55

> <r_mmod_Potential_Energy-OPLS-2005>
3508.3359375

> <r_mmod_Stretch_Energy-OPLS-2005>
1375.18981933594

> <r_mmod_Bend_Energy-OPLS-2005>
1047.43798828125

> <r_mmod_Torsional_Energy-OPLS-2005>
244.690505981445

> <r_mmod_Improper_Torsional_Energy-OPLS-2005>
3.74291706085205

> <r_mmod_Van_der_Waal_Energy-OPLS-2005>
121.230651855469

> <r_mmod_Electrostatic_Energy-OPLS-2005>
-364.220825195312

> <r_mmod_Solvation_Energy-OPLS-2005>
-216.269866943359

> <b_mmod_Minimization_Converged-OPLS-2005>
0

> <r_mmod_RMS_Derivative-OPLS-2005>
0.805095314979553

$$$$
55
                    3D
 Structure written by MMmdl.
151159  0  0  1  0            999 V2000
  -30.6049  -14.7365   20.4399 C   0  0  0  0  0  0
  -30.4334  -12.4432   19.4800 C   0  0  0  0  0  0
  -29.5146  -12.5083   18.2395 C   0  0  0  0  0  0
  -28.0388  -12.3345   18.6491 C   0  0  0  0  0  0
  -27.6439  -13.2321   19.8521 C   0  0  2  0  0  0
  -28.6863  -13.1589   20.9898 C   0  0  0  0  0  0
  -25.2519  -13.8203   20.5691 C   0  0  0  0  0  0
  -24.1807  -13.0444   20.9202 C   0  0  0  0  0  0
  -24.6401  -11.6925   20.8744 C   0  0  0  0  0  0
  -23.9075  -10.4297   21.0402 C   0  0  0  0  0  0
  -24.3621   -9.4212   21.9183 C   0  0  0  0  0  0
  -23.6297   -8.2246   22.0753 C   0  0  0  0  0  0
  -22.4279   -8.0285   21.3544 C   0  0  0  0  0  0
  -21.9914   -9.0259   20.4646 C   0  0  0  0  0  0
  -22.7244  -10.2138   20.3056 C   0  0  0  0  0  0
  -21.6854   -6.0736   22.5279 C   0  0  0  0  0  0
  -21.4015   -6.5639   23.8213 C   0  0  0  0  0  0
  -21.3659   -5.6790   24.9175 C   0  0  0  0  0  0
  -21.6046   -4.3054   24.7224 C   0  0  0  0  0  0
  -21.8817   -3.8147   23.4343 C   0  0  0  0  0  0
  -21.9193   -4.6965   22.3402 C   0  0  0  0  0  0
  -22.7826  -13.5227   21.1862 C   0  0  0  0  0  0
  -22.1659   -4.2154   21.0978 F   0  0  0  0  0  0
  -21.5629   -3.4535   25.7732 F   0  0  0  0  0  0
  -29.9919  -13.5042   20.4150 N   0  0  0  0  0  0
  -26.2946  -12.9411   20.3275 N   0  0  0  0  0  0
  -25.9330  -11.6554   20.5744 N   0  0  0  0  0  0
  -22.0463  -12.8224   22.0421 N   0  0  0  0  0  0
  -25.4198  -15.1926   20.4115 N   0  0  0  0  0  0
  -31.7988  -14.8278   20.1399 O   0  0  0  0  0  0
  -21.6642   -6.8882   21.4243 O   0  0  0  0  0  0
  -22.3511  -14.5532   20.6710 O   0  0  0  0  0  0
  -24.6310  -31.8557   23.1971 C   0  0  0  0  0  0
  -25.9140  -32.4755   23.8313 C   0  0  1  0  0  0
  -27.2209  -27.2636   20.1228 C   0  0  0  0  0  0
  -25.5937  -33.8554   24.2254 N   0  0  0  0  0  0
  -23.4267  -30.4779   21.5405 C   0  0  2  0  0  0
  -24.8719  -28.9218   20.1089 C   0  0  0  0  0  0
  -22.7498  -29.4612   22.4911 C   0  0  0  0  0  0
  -18.0296  -28.1385   22.8497 C   0  0  0  0  0  0
  -24.1491  -36.7275   23.2642 C   0  0  0  0  0  0
  -25.9715  -30.7689   21.3748 C   0  0  0  0  0  0
  -26.0420  -29.3912   20.7168 C   0  0  0  0  0  0
  -27.2147  -28.5731   20.7133 C   0  0  0  0  0  0
  -26.0221  -26.8532   19.4978 C   0  0  0  0  0  0
  -24.8668  -27.6610   19.4916 C   0  0  0  0  0  0
  -23.6433  -29.8093   20.1570 C   0  0  0  0  0  0
  -25.4120  -36.3070   24.0331 C   0  0  1  0  0  0
  -20.5900  -28.3699   23.1277 C   0  0  2  0  0  0
  -20.6784  -26.9414   22.5418 C   0  0  0  0  0  0
  -19.5754  -26.6383   21.5228 C   0  0  0  0  0  0
  -18.1934  -26.7930   22.1636 C   0  0  0  0  0  0
  -19.1549  -28.8860   23.2883 C   0  0  0  0  0  0
  -18.9467  -30.1461   23.8899 C   0  0  0  0  0  0
  -17.6465  -30.6588   24.0565 C   0  0  0  0  0  0
  -25.9061  -34.9441   23.5099 C   0  0  0  0  0  0
  -16.5356  -29.9086   23.6328 C   0  0  0  0  0  0
  -16.7282  -28.6503   23.0355 C   0  0  0  0  0  0
  -26.4503  -31.6575   25.0702 C   0  0  0  0  0  0
  -25.3724  -31.3726   26.1421 C   0  0  0  0  0  0
  -27.0352  -30.2993   24.6181 C   0  0  0  0  0  0
  -27.6052  -32.4316   25.7475 C   0  0  0  0  0  0
  -27.5582  -37.1797   24.8468 C   0  0  0  0  0  0
  -21.4206  -29.3048   22.3658 N   0  0  0  0  0  0
  -26.4290  -37.3771   23.9412 N   0  0  0  0  0  0
  -24.6956  -31.0529   22.0936 N   0  0  0  0  0  0
  -23.4205  -28.8157   23.3008 O   0  0  0  0  0  0
  -28.3457  -26.4121   20.2042 O   0  0  0  0  0  0
  -26.5629  -34.8921   22.4665 O   0  0  0  0  0  0
  -23.5465  -32.1373   23.7279 O   0  0  0  0  0  0
  -30.0244  -19.7928   18.7263 C   0  0  0  0  0  0
  -30.5128  -18.6214   18.1171 C   0  0  0  0  0  0
  -29.4095  -18.4582   20.6608 C   0  0  0  0  0  0
  -29.9226  -17.2282   20.0600 C   0  0  0  0  0  0
  -29.4442  -19.7693   20.0151 C   0  0  0  0  0  0
  -30.4528  -17.3666   18.7514 C   0  0  0  0  0  0
  -28.4525  -23.6736   20.5332 C   0  0  0  0  0  0
  -28.4268  -25.0232   19.6345 C   0  0  0  0  0  0
  -28.9341  -22.2798   19.8527 C   0  0  0  0  0  0
  -29.8267  -15.8669   20.6622 N   0  0  0  0  0  0
  -28.9423  -20.9771   20.5977 O   0  0  0  0  0  0
  -30.8645  -16.2882   18.0440 F   0  0  0  0  0  0
  -31.4769  -12.5621   19.1822 H   0  0  0  0  0  0
  -30.3696  -11.4644   19.9573 H   0  0  0  0  0  0
  -29.7972  -11.7393   17.5193 H   0  0  0  0  0  0
  -29.6454  -13.4661   17.7325 H   0  0  0  0  0  0
  -27.8928  -11.2850   18.9074 H   0  0  0  0  0  0
  -27.3841  -12.5317   17.7993 H   0  0  0  0  0  0
  -27.6422  -14.2550   19.4747 H   0  0  0  0  0  0
  -28.7149  -12.1596   21.4272 H   0  0  0  0  0  0
  -28.4246  -13.8399   21.8014 H   0  0  0  0  0  0
  -25.2766   -9.5688   22.4758 H   0  0  0  0  0  0
  -24.0005   -7.4638   22.7474 H   0  0  0  0  0  0
  -21.0840   -8.8777   19.8958 H   0  0  0  0  0  0
  -22.3698  -10.9674   19.6165 H   0  0  0  0  0  0
  -21.2008   -7.6146   23.9719 H   0  0  0  0  0  0
  -21.1485   -6.0518   25.9078 H   0  0  0  0  0  0
  -22.0598   -2.7609   23.2839 H   0  0  0  0  0  0
  -22.4074  -11.9891   22.4824 H   0  0  0  0  0  0
  -21.1082  -13.1256   22.2625 H   0  0  0  0  0  0
  -24.6480  -15.8419   20.5177 H   0  0  0  0  0  0
  -26.2635  -15.6345   20.0691 H   0  0  0  0  0  0
  -26.7204  -32.5403   23.1051 H   0  0  0  0  0  0
  -25.0084  -33.9681   25.0400 H   0  0  0  0  0  0
  -22.7232  -31.3004   21.3947 H   0  0  0  0  0  0
  -23.3759  -35.9603   23.3303 H   0  0  0  0  0  0
  -24.3579  -36.8893   22.2055 H   0  0  0  0  0  0
  -23.7240  -37.6476   23.6663 H   0  0  0  0  0  0
  -26.1124  -31.5292   20.6053 H   0  0  0  0  0  0
  -26.8491  -30.8164   22.0080 H   0  0  0  0  0  0
  -28.1110  -28.9291   21.2022 H   0  0  0  0  0  0
  -25.9310  -25.8839   19.0354 H   0  0  0  0  0  0
  -23.9658  -27.2925   19.0210 H   0  0  0  0  0  0
  -23.7677  -30.5846   19.4000 H   0  0  0  0  0  0
  -22.7612  -29.2430   19.8527 H   0  0  0  0  0  0
  -25.1304  -36.1911   25.0825 H   0  0  0  0  0  0
  -21.0005  -28.3279   24.1395 H   0  0  0  0  0  0
  -20.5697  -26.2307   23.3624 H   0  0  0  0  0  0
  -21.6649  -26.7444   22.1201 H   0  0  0  0  0  0
  -19.6907  -25.6298   21.1249 H   0  0  0  0  0  0
  -19.6681  -27.3204   20.6765 H   0  0  0  0  0  0
  -17.4208  -26.6696   21.4029 H   0  0  0  0  0  0
  -18.0314  -26.0070   22.9025 H   0  0  0  0  0  0
  -19.7940  -30.7285   24.2261 H   0  0  0  0  0  0
  -17.5015  -31.6266   24.5168 H   0  0  0  0  0  0
  -15.5356  -30.2985   23.7651 H   0  0  0  0  0  0
  -15.8685  -28.0821   22.7066 H   0  0  0  0  0  0
  -24.5906  -30.7068   25.7752 H   0  0  0  0  0  0
  -24.8908  -32.2897   26.4821 H   0  0  0  0  0  0
  -25.8038  -30.8921   27.0213 H   0  0  0  0  0  0
  -26.2939  -29.6731   24.1206 H   0  0  0  0  0  0
  -27.4044  -29.7259   25.4694 H   0  0  0  0  0  0
  -27.8809  -30.4268   23.9419 H   0  0  0  0  0  0
  -27.2656  -33.3622   26.2034 H   0  0  0  0  0  0
  -28.3868  -32.6867   25.0308 H   0  0  0  0  0  0
  -28.0714  -31.8454   26.5404 H   0  0  0  0  0  0
  -28.2602  -38.0090   24.7522 H   0  0  0  0  0  0
  -28.1074  -36.2625   24.6288 H   0  0  0  0  0  0
  -27.2299  -37.1438   25.8869 H   0  0  0  0  0  0
  -20.9391  -29.8752   21.6849 H   0  0  0  0  0  0
  -26.0167  -38.2846   24.1405 H   0  0  0  0  0  0
  -30.1010  -20.7072   18.1589 H   0  0  0  0  0  0
  -30.9268  -18.6803   17.1216 H   0  0  0  0  0  0
  -28.9685  -18.3975   21.6452 H   0  0  0  0  0  0
  -27.4557  -23.5293   20.9504 H   0  0  0  0  0  0
  -29.0996  -23.8579   21.3900 H   0  0  0  0  0  0
  -27.7251  -24.8840   18.8156 H   0  0  0  0  0  0
  -29.3882  -25.0339   19.1214 H   0  0  0  0  0  0
  -28.3284  -22.1305   18.9578 H   0  0  0  0  0  0
  -29.9506  -22.4562   19.5013 H   0  0  0  0  0  0
  -28.9567  -15.6790   21.1361 H   0  0  0  0  0  0
  1 25  1  0  0  0
  1 30  2  0  0  0
  1 80  1  0  0  0
  2  3  1  0  0  0
  2 25  1  0  0  0
  2 83  1  0  0  0
  2 84  1  0  0  0
  3  4  1  0  0  0
  3 85  1  0  0  0
  3 86  1  0  0  0
  4  5  1  0  0  0
  4 87  1  0  0  0
  4 88  1  0  0  0
  5  6  1  0  0  0
  5 26  1  0  0  0
  5 89  1  0  0  0
  6 25  1  0  0  0
  6 90  1  0  0  0
  6 91  1  0  0  0
  7  8  2  0  0  0
  7 26  1  0  0  0
  7 29  1  0  0  0
  8  9  1  0  0  0
  8 22  1  0  0  0
  9 10  1  0  0  0
  9 27  2  0  0  0
 10 11  2  0  0  0
 10 15  1  0  0  0
 11 12  1  0  0  0
 11 92  1  0  0  0
 12 13  2  0  0  0
 12 93  1  0  0  0
 13 14  1  0  0  0
 13 31  1  0  0  0
 14 15  2  0  0  0
 14 94  1  0  0  0
 15 95  1  0  0  0
 16 17  2  0  0  0
 16 21  1  0  0  0
 16 31  1  0  0  0
 17 18  1  0  0  0
 17 96  1  0  0  0
 18 19  2  0  0  0
 18 97  1  0  0  0
 19 20  1  0  0  0
 19 24  1  0  0  0
 20 21  2  0  0  0
 20 98  1  0  0  0
 21 23  1  0  0  0
 22 28  1  0  0  0
 22 32  2  0  0  0
 26 27  1  0  0  0
 28 99  1  0  0  0
 28100  1  0  0  0
 29101  1  0  0  0
 29102  1  0  0  0
 33 34  1  0  0  0
 33 66  1  0  0  0
 33 70  2  0  0  0
 34 36  1  0  0  0
 34 59  1  0  0  0
 34103  1  0  0  0
 35 44  2  0  0  0
 35 45  1  0  0  0
 35 68  1  0  0  0
 36 56  1  0  0  0
 36104  1  0  0  0
 37 39  1  0  0  0
 37 47  1  0  0  0
 37 66  1  0  0  0
 37105  1  0  0  0
 38 43  2  0  0  0
 38 46  1  0  0  0
 38 47  1  0  0  0
 39 64  1  0  0  0
 39 67  2  0  0  0
 40 52  1  0  0  0
 40 53  2  0  0  0
 40 58  1  0  0  0
 41106  1  0  0  0
 41107  1  0  0  0
 41108  1  0  0  0
 41 48  1  0  0  0
 42 43  1  0  0  0
 42 66  1  0  0  0
 42109  1  0  0  0
 42110  1  0  0  0
 43 44  1  0  0  0
 44111  1  0  0  0
 45 46  2  0  0  0
 45112  1  0  0  0
 46113  1  0  0  0
 47114  1  0  0  0
 47115  1  0  0  0
 48 56  1  0  0  0
 48 65  1  0  0  0
 48116  1  0  0  0
 49 50  1  0  0  0
 49 53  1  0  0  0
 49 64  1  0  0  0
 49117  1  0  0  0
 50 51  1  0  0  0
 50118  1  0  0  0
 50119  1  0  0  0
 51 52  1  0  0  0
 51120  1  0  0  0
 51121  1  0  0  0
 52122  1  0  0  0
 52123  1  0  0  0
 53 54  1  0  0  0
 54 55  2  0  0  0
 54124  1  0  0  0
 55 57  1  0  0  0
 55125  1  0  0  0
 56 69  2  0  0  0
 57 58  2  0  0  0
 57126  1  0  0  0
 58127  1  0  0  0
 59 60  1  0  0  0
 59 61  1  0  0  0
 59 62  1  0  0  0
 60128  1  0  0  0
 60129  1  0  0  0
 60130  1  0  0  0
 61131  1  0  0  0
 61132  1  0  0  0
 61133  1  0  0  0
 62134  1  0  0  0
 62135  1  0  0  0
 62136  1  0  0  0
 63 65  1  0  0  0
 63137  1  0  0  0
 63138  1  0  0  0
 63139  1  0  0  0
 64140  1  0  0  0
 65141  1  0  0  0
 68 78  1  0  0  0
 71 72  2  0  0  0
 71 75  1  0  0  0
 71142  1  0  0  0
 72 76  1  0  0  0
 72143  1  0  0  0
 73 74  1  0  0  0
 73 75  2  0  0  0
 73144  1  0  0  0
 74 76  2  0  0  0
 74 80  1  0  0  0
 75 81  1  0  0  0
 76 82  1  0  0  0
 77 78  1  0  0  0
 77 79  1  0  0  0
 77145  1  0  0  0
 77146  1  0  0  0
 78147  1  0  0  0
 78148  1  0  0  0
 79 81  1  0  0  0
 79149  1  0  0  0
 79150  1  0  0  0
 80151  1  0  0  0
M  ISO  4   1 100  68 101  78 101  80 100
M  END
> <chiral flag>
0

> <version>
0

> <s_m_source_file>
/data/baiqing/PycharmProjects/Reinvent-master-3.2/result/LINK_invent/BTK/process_docking_weight1_custom_product_contain_oxygen_bond_distance_aromatic_linkinvent_7_9_3/rearranged_h_0010.sdf

> <i_m_source_file_index>
56

> <r_mmod_Potential_Energy-OPLS-2005>
140.908309936523

> <r_mmod_Stretch_Energy-OPLS-2005>
127.390289306641

> <r_mmod_Bend_Energy-OPLS-2005>
175.288391113281

> <r_mmod_Torsional_Energy-OPLS-2005>
223.818344116211

> <r_mmod_Improper_Torsional_Energy-OPLS-2005>
4.31514692306519

> <r_mmod_Van_der_Waal_Energy-OPLS-2005>
145.746307373047

> <r_mmod_Electrostatic_Energy-OPLS-2005>
-398.012573242188

> <r_mmod_Solvation_Energy-OPLS-2005>
-218.417419433594

> <b_mmod_Minimization_Converged-OPLS-2005>
0

> <r_mmod_RMS_Derivative-OPLS-2005>
0.826157033443451

$$$$
56
                    3D
 Structure written by MMmdl.
153161  0  0  1  0            999 V2000
  -30.6128  -14.6502   20.5012 C   0  0  0  0  0  0
  -30.4407  -12.3997   19.4515 C   0  0  0  0  0  0
  -29.5076  -12.5064   18.2235 C   0  0  0  0  0  0
  -28.0307  -12.3430   18.6354 C   0  0  0  0  0  0
  -27.6530  -13.2145   19.8626 C   0  0  2  0  0  0
  -28.6981  -13.0694   20.9917 C   0  0  0  0  0  0
  -25.2566  -13.8167   20.5683 C   0  0  0  0  0  0
  -24.1832  -13.0436   20.9196 C   0  0  0  0  0  0
  -24.6393  -11.6906   20.8740 C   0  0  0  0  0  0
  -23.9063  -10.4289   21.0408 C   0  0  0  0  0  0
  -24.3617   -9.4205   21.9186 C   0  0  0  0  0  0
  -23.6292   -8.2241   22.0757 C   0  0  0  0  0  0
  -22.4273   -8.0279   21.3550 C   0  0  0  0  0  0
  -21.9909   -9.0251   20.4648 C   0  0  0  0  0  0
  -22.7237  -10.2130   20.3058 C   0  0  0  0  0  0
  -21.6852   -6.0737   22.5281 C   0  0  0  0  0  0
  -21.4010   -6.5641   23.8213 C   0  0  0  0  0  0
  -21.3659   -5.6796   24.9176 C   0  0  0  0  0  0
  -21.6044   -4.3060   24.7224 C   0  0  0  0  0  0
  -21.8820   -3.8149   23.4346 C   0  0  0  0  0  0
  -21.9192   -4.6965   22.3403 C   0  0  0  0  0  0
  -22.7855  -13.5234   21.1855 C   0  0  0  0  0  0
  -22.1662   -4.2153   21.0980 F   0  0  0  0  0  0
  -21.5628   -3.4543   25.7736 F   0  0  0  0  0  0
  -30.0128  -13.4191   20.4303 N   0  0  0  0  0  0
  -26.2985  -12.9341   20.3311 N   0  0  0  0  0  0
  -25.9322  -11.6499   20.5756 N   0  0  0  0  0  0
  -22.0495  -12.8224   22.0408 N   0  0  0  0  0  0
  -25.4283  -15.1885   20.4081 N   0  0  0  0  0  0
  -31.7733  -14.8197   20.1145 O   0  0  0  0  0  0
  -21.6640   -6.8876   21.4241 O   0  0  0  0  0  0
  -22.3546  -14.5544   20.6706 O   0  0  0  0  0  0
  -24.6259  -31.8596   23.2031 C   0  0  0  0  0  0
  -25.9106  -32.4781   23.8350 C   0  0  1  0  0  0
  -27.2246  -27.3210   20.1140 C   0  0  0  0  0  0
  -25.5930  -33.8578   24.2281 N   0  0  0  0  0  0
  -23.4195  -30.4842   21.5454 C   0  0  2  0  0  0
  -24.8658  -28.9409   20.1096 C   0  0  0  0  0  0
  -22.7472  -29.4616   22.4925 C   0  0  0  0  0  0
  -18.0291  -28.1390   22.8475 C   0  0  0  0  0  0
  -24.1494  -36.7277   23.2641 C   0  0  0  0  0  0
  -25.9605  -30.7911   21.3739 C   0  0  0  0  0  0
  -26.0348  -29.4197   20.7141 C   0  0  0  0  0  0
  -27.2161  -28.6213   20.7066 C   0  0  0  0  0  0
  -26.0310  -26.8948   19.4868 C   0  0  0  0  0  0
  -24.8662  -27.6831   19.4888 C   0  0  0  0  0  0
  -23.6339  -29.8198   20.1600 C   0  0  0  0  0  0
  -25.4119  -36.3079   24.0331 C   0  0  1  0  0  0
  -20.5893  -28.3680   23.1283 C   0  0  2  0  0  0
  -20.6787  -26.9406   22.5408 C   0  0  0  0  0  0
  -19.5761  -26.6382   21.5212 C   0  0  0  0  0  0
  -18.1938  -26.7934   22.1616 C   0  0  0  0  0  0
  -19.1545  -28.8850   23.2880 C   0  0  0  0  0  0
  -18.9471  -30.1453   23.8895 C   0  0  0  0  0  0
  -17.6473  -30.6590   24.0555 C   0  0  0  0  0  0
  -25.9050  -34.9452   23.5104 C   0  0  0  0  0  0
  -16.5357  -29.9085   23.6339 C   0  0  0  0  0  0
  -16.7279  -28.6510   23.0340 C   0  0  0  0  0  0
  -26.4497  -31.6591   25.0716 C   0  0  0  0  0  0
  -25.3738  -31.3728   26.1444 C   0  0  0  0  0  0
  -27.0340  -30.3024   24.6150 C   0  0  0  0  0  0
  -27.6054  -32.4321   25.7489 C   0  0  0  0  0  0
  -27.5583  -37.1795   24.8471 C   0  0  0  0  0  0
  -21.4183  -29.3039   22.3668 N   0  0  0  0  0  0
  -26.4292  -37.3773   23.9412 N   0  0  0  0  0  0
  -24.6877  -31.0606   22.0984 N   0  0  0  0  0  0
  -23.4194  -28.8157   23.3003 O   0  0  0  0  0  0
  -28.3469  -26.4776   20.1669 O   0  0  0  0  0  0
  -26.5610  -34.8917   22.4666 O   0  0  0  0  0  0
  -23.5422  -32.1389   23.7356 O   0  0  0  0  0  0
  -30.9628  -17.8949   20.2378 C   0  0  0  0  0  0
  -28.7563  -17.9369   21.1648 C   0  0  0  0  0  0
  -29.8515  -20.1168   20.6378 C   0  0  0  0  0  0
  -29.8675  -17.1517   20.7500 C   0  0  0  0  0  0
  -30.9512  -19.3237   20.1780 C   0  0  0  0  0  0
  -28.7420  -19.3648   21.1142 C   0  0  0  0  0  0
  -29.9344  -21.6632   20.7153 C   0  0  0  0  0  0
  -31.2142  -22.1316   21.4089 C   0  0  0  0  0  0
  -29.3092  -24.0401   20.4737 C   0  0  0  0  0  0
  -28.1462  -25.0171   20.0062 C   0  0  0  0  0  0
  -29.0589  -22.5560   20.3154 N   0  0  0  0  0  0
  -29.7922  -15.6875   20.8715 N   0  0  0  0  0  0
  -32.0550  -19.9361   19.6800 F   0  0  0  0  0  0
  -27.6417  -20.0075   21.5804 F   0  0  0  0  0  0
  -31.4800  -12.5330   19.1470 H   0  0  0  0  0  0
  -30.3841  -11.4041   19.8937 H   0  0  0  0  0  0
  -29.7718  -11.7495   17.4837 H   0  0  0  0  0  0
  -29.6469  -13.4730   17.7358 H   0  0  0  0  0  0
  -27.8676  -11.2900   18.8672 H   0  0  0  0  0  0
  -27.3759  -12.5723   17.7932 H   0  0  0  0  0  0
  -27.6710  -14.2492   19.5206 H   0  0  0  0  0  0
  -28.7125  -12.0467   21.3704 H   0  0  0  0  0  0
  -28.4396  -13.6964   21.8463 H   0  0  0  0  0  0
  -25.2762   -9.5685   22.4763 H   0  0  0  0  0  0
  -24.0005   -7.4632   22.7477 H   0  0  0  0  0  0
  -21.0844   -8.8768   19.8949 H   0  0  0  0  0  0
  -22.3698  -10.9671   19.6168 H   0  0  0  0  0  0
  -21.2001   -7.6148   23.9718 H   0  0  0  0  0  0
  -21.1480   -6.0525   25.9079 H   0  0  0  0  0  0
  -22.0597   -2.7611   23.2846 H   0  0  0  0  0  0
  -22.4107  -11.9879   22.4791 H   0  0  0  0  0  0
  -21.1113  -13.1251   22.2616 H   0  0  0  0  0  0
  -24.6564  -15.8390   20.5062 H   0  0  0  0  0  0
  -26.2642  -15.6214   20.0378 H   0  0  0  0  0  0
  -26.7158  -32.5439   23.1080 H   0  0  0  0  0  0
  -25.0110  -33.9730   25.0448 H   0  0  0  0  0  0
  -22.7144  -31.3058   21.4028 H   0  0  0  0  0  0
  -23.3767  -35.9604   23.3308 H   0  0  0  0  0  0
  -24.3587  -36.8888   22.2056 H   0  0  0  0  0  0
  -23.7241  -37.6480   23.6655 H   0  0  0  0  0  0
  -26.0924  -31.5565   20.6082 H   0  0  0  0  0  0
  -26.8410  -30.8374   22.0030 H   0  0  0  0  0  0
  -28.1124  -28.9838   21.1898 H   0  0  0  0  0  0
  -25.9703  -25.9347   18.9960 H   0  0  0  0  0  0
  -23.9703  -27.3094   19.0128 H   0  0  0  0  0  0
  -23.7508  -30.5976   19.4044 H   0  0  0  0  0  0
  -22.7542  -29.2497   19.8560 H   0  0  0  0  0  0
  -25.1306  -36.1928   25.0829 H   0  0  0  0  0  0
  -20.9986  -28.3253   24.1405 H   0  0  0  0  0  0
  -20.5705  -26.2285   23.3600 H   0  0  0  0  0  0
  -21.6650  -26.7444   22.1191 H   0  0  0  0  0  0
  -19.6935  -25.6301   21.1230 H   0  0  0  0  0  0
  -19.6717  -27.3197   20.6752 H   0  0  0  0  0  0
  -17.4213  -26.6675   21.4012 H   0  0  0  0  0  0
  -18.0332  -26.0089   22.9024 H   0  0  0  0  0  0
  -19.7953  -30.7270   24.2251 H   0  0  0  0  0  0
  -17.5034  -31.6271   24.5156 H   0  0  0  0  0  0
  -15.5362  -30.2983   23.7685 H   0  0  0  0  0  0
  -15.8675  -28.0836   22.7046 H   0  0  0  0  0  0
  -24.5918  -30.7067   25.7777 H   0  0  0  0  0  0
  -24.8921  -32.2899   26.4851 H   0  0  0  0  0  0
  -25.8067  -30.8923   27.0227 H   0  0  0  0  0  0
  -26.2906  -29.6773   24.1185 H   0  0  0  0  0  0
  -27.4083  -29.7273   25.4629 H   0  0  0  0  0  0
  -27.8757  -30.4336   23.9341 H   0  0  0  0  0  0
  -27.2667  -33.3626   26.2053 H   0  0  0  0  0  0
  -28.3875  -32.6863   25.0324 H   0  0  0  0  0  0
  -28.0706  -31.8453   26.5419 H   0  0  0  0  0  0
  -28.2594  -38.0094   24.7516 H   0  0  0  0  0  0
  -28.1081  -36.2624   24.6300 H   0  0  0  0  0  0
  -27.2294  -37.1445   25.8871 H   0  0  0  0  0  0
  -20.9352  -29.8752   21.6875 H   0  0  0  0  0  0
  -26.0176  -38.2848   24.1426 H   0  0  0  0  0  0
  -31.8464  -17.3815   19.8892 H   0  0  0  0  0  0
  -27.8786  -17.4441   21.5574 H   0  0  0  0  0  0
  -31.7766  -21.2975   21.8281 H   0  0  0  0  0  0
  -30.9917  -22.7947   22.2440 H   0  0  0  0  0  0
  -31.8642  -22.6522   20.7059 H   0  0  0  0  0  0
  -29.5029  -24.2751   21.5208 H   0  0  0  0  0  0
  -30.2125  -24.3191   19.9282 H   0  0  0  0  0  0
  -27.2498  -24.7289   20.5572 H   0  0  0  0  0  0
  -27.9426  -24.8197   18.9533 H   0  0  0  0  0  0
  -28.9034  -15.3483   21.2059 H   0  0  0  0  0  0
  1 25  1  0  0  0
  1 30  2  0  0  0
  1 82  1  0  0  0
  2  3  1  0  0  0
  2 25  1  0  0  0
  2 85  1  0  0  0
  2 86  1  0  0  0
  3  4  1  0  0  0
  3 87  1  0  0  0
  3 88  1  0  0  0
  4  5  1  0  0  0
  4 89  1  0  0  0
  4 90  1  0  0  0
  5  6  1  0  0  0
  5 26  1  0  0  0
  5 91  1  0  0  0
  6 25  1  0  0  0
  6 92  1  0  0  0
  6 93  1  0  0  0
  7  8  2  0  0  0
  7 26  1  0  0  0
  7 29  1  0  0  0
  8  9  1  0  0  0
  8 22  1  0  0  0
  9 10  1  0  0  0
  9 27  2  0  0  0
 10 11  2  0  0  0
 10 15  1  0  0  0
 11 12  1  0  0  0
 11 94  1  0  0  0
 12 13  2  0  0  0
 12 95  1  0  0  0
 13 14  1  0  0  0
 13 31  1  0  0  0
 14 15  2  0  0  0
 14 96  1  0  0  0
 15 97  1  0  0  0
 16 17  2  0  0  0
 16 21  1  0  0  0
 16 31  1  0  0  0
 17 18  1  0  0  0
 17 98  1  0  0  0
 18 19  2  0  0  0
 18 99  1  0  0  0
 19 20  1  0  0  0
 19 24  1  0  0  0
 20 21  2  0  0  0
 20100  1  0  0  0
 21 23  1  0  0  0
 22 28  1  0  0  0
 22 32  2  0  0  0
 26 27  1  0  0  0
 28101  1  0  0  0
 28102  1  0  0  0
 29103  1  0  0  0
 29104  1  0  0  0
 33 34  1  0  0  0
 33 66  1  0  0  0
 33 70  2  0  0  0
 34 36  1  0  0  0
 34 59  1  0  0  0
 34105  1  0  0  0
 35 44  2  0  0  0
 35 45  1  0  0  0
 35 68  1  0  0  0
 36 56  1  0  0  0
 36106  1  0  0  0
 37 39  1  0  0  0
 37 47  1  0  0  0
 37 66  1  0  0  0
 37107  1  0  0  0
 38 43  2  0  0  0
 38 46  1  0  0  0
 38 47  1  0  0  0
 39 64  1  0  0  0
 39 67  2  0  0  0
 40 52  1  0  0  0
 40 53  2  0  0  0
 40 58  1  0  0  0
 41108  1  0  0  0
 41109  1  0  0  0
 41110  1  0  0  0
 41 48  1  0  0  0
 42 43  1  0  0  0
 42 66  1  0  0  0
 42111  1  0  0  0
 42112  1  0  0  0
 43 44  1  0  0  0
 44113  1  0  0  0
 45 46  2  0  0  0
 45114  1  0  0  0
 46115  1  0  0  0
 47116  1  0  0  0
 47117  1  0  0  0
 48 56  1  0  0  0
 48 65  1  0  0  0
 48118  1  0  0  0
 49 50  1  0  0  0
 49 53  1  0  0  0
 49 64  1  0  0  0
 49119  1  0  0  0
 50 51  1  0  0  0
 50120  1  0  0  0
 50121  1  0  0  0
 51 52  1  0  0  0
 51122  1  0  0  0
 51123  1  0  0  0
 52124  1  0  0  0
 52125  1  0  0  0
 53 54  1  0  0  0
 54 55  2  0  0  0
 54126  1  0  0  0
 55 57  1  0  0  0
 55127  1  0  0  0
 56 69  2  0  0  0
 57 58  2  0  0  0
 57128  1  0  0  0
 58129  1  0  0  0
 59 60  1  0  0  0
 59 61  1  0  0  0
 59 62  1  0  0  0
 60130  1  0  0  0
 60131  1  0  0  0
 60132  1  0  0  0
 61133  1  0  0  0
 61134  1  0  0  0
 61135  1  0  0  0
 62136  1  0  0  0
 62137  1  0  0  0
 62138  1  0  0  0
 63 65  1  0  0  0
 63139  1  0  0  0
 63140  1  0  0  0
 63141  1  0  0  0
 64142  1  0  0  0
 65143  1  0  0  0
 68 80  1  0  0  0
 71 74  2  0  0  0
 71 75  1  0  0  0
 71144  1  0  0  0
 72 74  1  0  0  0
 72 76  2  0  0  0
 72145  1  0  0  0
 73 75  2  0  0  0
 73 76  1  0  0  0
 73 77  1  0  0  0
 74 82  1  0  0  0
 75 83  1  0  0  0
 76 84  1  0  0  0
 77 78  1  0  0  0
 77 81  2  0  0  0
 78146  1  0  0  0
 78147  1  0  0  0
 78148  1  0  0  0
 79 80  1  0  0  0
 79 81  1  0  0  0
 79149  1  0  0  0
 79150  1  0  0  0
 80151  1  0  0  0
 80152  1  0  0  0
 82153  1  0  0  0
M  ISO  4   1 100  68 101  80 101  82 100
M  END
> <chiral flag>
0

> <version>
0

> <s_m_source_file>
/data/baiqing/PycharmProjects/Reinvent-master-3.2/result/LINK_invent/BTK/process_docking_weight1_custom_product_contain_oxygen_bond_distance_aromatic_linkinvent_7_9_3/rearranged_h_0010.sdf

> <i_m_source_file_index>
57

> <r_mmod_Potential_Energy-OPLS-2005>
139.39323425293

> <r_mmod_Stretch_Energy-OPLS-2005>
89.7912673950195

> <r_mmod_Bend_Energy-OPLS-2005>
138.339935302734

> <r_mmod_Torsional_Energy-OPLS-2005>
221.168594360352

> <r_mmod_Improper_Torsional_Energy-OPLS-2005>
4.41828966140747

> <r_mmod_Van_der_Waal_Energy-OPLS-2005>
154.160263061523

> <r_mmod_Electrostatic_Energy-OPLS-2005>
-302.177978515625

> <r_mmod_Solvation_Energy-OPLS-2005>
-216.084213256836

> <b_mmod_Minimization_Converged-OPLS-2005>
0

> <r_mmod_RMS_Derivative-OPLS-2005>
1.14181804656982

$$$$
57
                    3D
 Structure written by MMmdl.
162171  0  0  1  0            999 V2000
  -30.6403  -14.7924   20.4392 C   0  0  0  0  0  0
  -30.4293  -12.4880   19.4705 C   0  0  0  0  0  0
  -29.5053  -12.4811   18.2343 C   0  0  0  0  0  0
  -28.0405  -12.2644   18.6610 C   0  0  0  0  0  0
  -27.6237  -13.1936   19.8261 C   0  0  2  0  0  0
  -28.6778  -13.2339   20.9591 C   0  0  0  0  0  0
  -25.2476  -13.8055   20.5703 C   0  0  0  0  0  0
  -24.1752  -13.0356   20.9238 C   0  0  0  0  0  0
  -24.6311  -11.6832   20.8783 C   0  0  0  0  0  0
  -23.8989  -10.4242   21.0434 C   0  0  0  0  0  0
  -24.3563   -9.4167   21.9199 C   0  0  0  0  0  0
  -23.6254   -8.2199   22.0754 C   0  0  0  0  0  0
  -22.4239   -8.0237   21.3542 C   0  0  0  0  0  0
  -21.9859   -9.0206   20.4650 C   0  0  0  0  0  0
  -22.7174  -10.2088   20.3069 C   0  0  0  0  0  0
  -21.6840   -6.0702   22.5276 C   0  0  0  0  0  0
  -21.4003   -6.5618   23.8203 C   0  0  0  0  0  0
  -21.3660   -5.6779   24.9170 C   0  0  0  0  0  0
  -21.6045   -4.3040   24.7230 C   0  0  0  0  0  0
  -21.8824   -3.8126   23.4353 C   0  0  0  0  0  0
  -21.9192   -4.6935   22.3403 C   0  0  0  0  0  0
  -22.7790  -13.5181   21.1895 C   0  0  0  0  0  0
  -22.1664   -4.2123   21.0982 F   0  0  0  0  0  0
  -21.5636   -3.4531   25.7745 F   0  0  0  0  0  0
  -29.9709  -13.5841   20.3571 N   0  0  0  0  0  0
  -26.2841  -12.9182   20.3232 N   0  0  0  0  0  0
  -25.9219  -11.6375   20.5762 N   0  0  0  0  0  0
  -22.0427  -12.8196   22.0463 N   0  0  0  0  0  0
  -25.4129  -15.1777   20.4118 N   0  0  0  0  0  0
  -31.8551  -14.8118   20.2233 O   0  0  0  0  0  0
  -21.6615   -6.8832   21.4232 O   0  0  0  0  0  0
  -22.3502  -14.5492   20.6730 O   0  0  0  0  0  0
  -24.6315  -31.8560   23.1984 C   0  0  0  0  0  0
  -25.9143  -32.4759   23.8335 C   0  0  1  0  0  0
  -27.2249  -27.2651   20.1309 C   0  0  0  0  0  0
  -25.5940  -33.8559   24.2259 N   0  0  0  0  0  0
  -23.4282  -30.4786   21.5421 C   0  0  2  0  0  0
  -24.8764  -28.9274   20.1120 C   0  0  0  0  0  0
  -22.7507  -29.4604   22.4913 C   0  0  0  0  0  0
  -18.0296  -28.1389   22.8479 C   0  0  0  0  0  0
  -24.1490  -36.7281   23.2639 C   0  0  0  0  0  0
  -25.9744  -30.7714   21.3777 C   0  0  0  0  0  0
  -26.0491  -29.3942   20.7194 C   0  0  0  0  0  0
  -27.2260  -28.5773   20.7149 C   0  0  0  0  0  0
  -26.0255  -26.8686   19.4945 C   0  0  0  0  0  0
  -24.8704  -27.6728   19.4879 C   0  0  0  0  0  0
  -23.6469  -29.8131   20.1584 C   0  0  0  0  0  0
  -25.4115  -36.3068   24.0324 C   0  0  1  0  0  0
  -20.5900  -28.3702   23.1267 C   0  0  2  0  0  0
  -20.6780  -26.9417   22.5408 C   0  0  0  0  0  0
  -19.5757  -26.6386   21.5209 C   0  0  0  0  0  0
  -18.1939  -26.7932   22.1619 C   0  0  0  0  0  0
  -19.1548  -28.8861   23.2868 C   0  0  0  0  0  0
  -18.9469  -30.1460   23.8890 C   0  0  0  0  0  0
  -17.6466  -30.6588   24.0560 C   0  0  0  0  0  0
  -25.9055  -34.9441   23.5092 C   0  0  0  0  0  0
  -16.5358  -29.9081   23.6330 C   0  0  0  0  0  0
  -16.7282  -28.6500   23.0350 C   0  0  0  0  0  0
  -26.4504  -31.6581   25.0725 C   0  0  0  0  0  0
  -25.3724  -31.3742   26.1445 C   0  0  0  0  0  0
  -27.0342  -30.2991   24.6220 C   0  0  0  0  0  0
  -27.6062  -32.4319   25.7499 C   0  0  0  0  0  0
  -27.5579  -37.1795   24.8462 C   0  0  0  0  0  0
  -21.4212  -29.3045   22.3655 N   0  0  0  0  0  0
  -26.4287  -37.3769   23.9408 N   0  0  0  0  0  0
  -24.6970  -31.0531   22.0958 N   0  0  0  0  0  0
  -23.4207  -28.8149   23.3015 O   0  0  0  0  0  0
  -28.3236  -26.3713   20.1828 O   0  0  0  0  0  0
  -26.5625  -34.8918   22.4659 O   0  0  0  0  0  0
  -23.5465  -32.1383   23.7279 O   0  0  0  0  0  0
  -31.5163  -18.8913   22.4385 C   0  0  0  0  0  0
  -30.8399  -19.9879   21.8408 C   0  0  0  0  0  0
  -31.2865  -17.5527   22.0366 C   0  0  0  0  0  0
  -29.6879  -18.4187   20.4241 C   0  0  0  0  0  0
  -29.8917  -19.8063   20.8051 C   0  0  0  0  0  0
  -30.3560  -17.3033   21.0119 C   0  0  0  0  0  0
  -27.0450  -20.8375   23.6619 C   0  0  0  0  0  0
  -27.5187  -21.0760   22.4251 C   0  0  0  0  0  0
  -28.2573  -22.3003   22.1317 C   0  0  0  0  0  0
  -28.7763  -17.8812   19.3603 C   0  0  0  0  0  0
  -28.8312  -16.3347   19.5653 C   0  0  0  0  0  0
  -29.2124  -21.0854   20.1248 C   0  0  0  0  0  0
  -29.2064  -23.7668   20.3917 C   0  0  0  0  0  0
  -28.0445  -24.8926   20.2468 C   0  0  0  0  0  0
  -29.9307  -16.0047   20.4919 N   0  0  0  0  0  0
  -28.8499  -22.3598   20.9076 N   0  0  0  0  0  0
  -28.2833  -23.2587   22.9120 O   0  0  0  0  0  0
  -31.4669  -12.6139   19.1568 H   0  0  0  0  0  0
  -30.3861  -11.5312   19.9933 H   0  0  0  0  0  0
  -29.8098  -11.6975   17.5394 H   0  0  0  0  0  0
  -29.5998  -13.4242   17.6939 H   0  0  0  0  0  0
  -27.9347  -11.2235   18.9666 H   0  0  0  0  0  0
  -27.3734  -12.4014   17.8089 H   0  0  0  0  0  0
  -27.5559  -14.1569   19.3460 H   0  0  0  0  0  0
  -28.7414  -12.2713   21.4687 H   0  0  0  0  0  0
  -28.3976  -13.9696   21.7149 H   0  0  0  0  0  0
  -25.2707   -9.5657   22.4767 H   0  0  0  0  0  0
  -23.9971   -7.4591   22.7469 H   0  0  0  0  0  0
  -21.0786   -8.8708   19.8966 H   0  0  0  0  0  0
  -22.3621  -10.9619   19.6178 H   0  0  0  0  0  0
  -21.1981   -7.6124   23.9693 H   0  0  0  0  0  0
  -21.1485   -6.0514   25.9071 H   0  0  0  0  0  0
  -22.0608   -2.7590   23.2859 H   0  0  0  0  0  0
  -22.4015  -11.9856   22.4866 H   0  0  0  0  0  0
  -21.1058  -13.1259   22.2679 H   0  0  0  0  0  0
  -24.6454  -15.8292   20.5326 H   0  0  0  0  0  0
  -26.2619  -15.6218   20.0916 H   0  0  0  0  0  0
  -26.7214  -32.5417   23.1082 H   0  0  0  0  0  0
  -25.0091  -33.9693   25.0409 H   0  0  0  0  0  0
  -22.7243  -31.3004   21.3954 H   0  0  0  0  0  0
  -23.3754  -35.9610   23.3296 H   0  0  0  0  0  0
  -24.3586  -36.8910   22.2055 H   0  0  0  0  0  0
  -23.7248  -37.6482   23.6666 H   0  0  0  0  0  0
  -26.1137  -31.5333   20.6096 H   0  0  0  0  0  0
  -26.8511  -30.8189   22.0118 H   0  0  0  0  0  0
  -28.1229  -28.9312   21.2036 H   0  0  0  0  0  0
  -25.9423  -25.9158   18.9970 H   0  0  0  0  0  0
  -23.9743  -27.3096   19.0034 H   0  0  0  0  0  0
  -23.7710  -30.5886   19.4015 H   0  0  0  0  0  0
  -22.7661  -29.2454   19.8536 H   0  0  0  0  0  0
  -25.1299  -36.1907   25.0816 H   0  0  0  0  0  0
  -20.9989  -28.3280   24.1388 H   0  0  0  0  0  0
  -20.5672  -26.2315   23.3616 H   0  0  0  0  0  0
  -21.6651  -26.7436   22.1212 H   0  0  0  0  0  0
  -19.6917  -25.6293   21.1249 H   0  0  0  0  0  0
  -19.6693  -27.3187   20.6727 H   0  0  0  0  0  0
  -17.4208  -26.6681   21.4021 H   0  0  0  0  0  0
  -18.0332  -26.0077   22.9017 H   0  0  0  0  0  0
  -19.7944  -30.7275   24.2263 H   0  0  0  0  0  0
  -17.5021  -31.6267   24.5161 H   0  0  0  0  0  0
  -15.5356  -30.2977   23.7658 H   0  0  0  0  0  0
  -15.8685  -28.0810   22.7071 H   0  0  0  0  0  0
  -24.5902  -30.7085   25.7778 H   0  0  0  0  0  0
  -24.8913  -32.2916   26.4845 H   0  0  0  0  0  0
  -25.8040  -30.8943   27.0237 H   0  0  0  0  0  0
  -26.2922  -29.6748   24.1228 H   0  0  0  0  0  0
  -27.3988  -29.7248   25.4746 H   0  0  0  0  0  0
  -27.8818  -30.4248   23.9481 H   0  0  0  0  0  0
  -27.2672  -33.3623   26.2064 H   0  0  0  0  0  0
  -28.3877  -32.6873   25.0332 H   0  0  0  0  0  0
  -28.0722  -31.8455   26.5428 H   0  0  0  0  0  0
  -28.2591  -38.0094   24.7508 H   0  0  0  0  0  0
  -28.1081  -36.2628   24.6282 H   0  0  0  0  0  0
  -27.2307  -37.1445   25.8868 H   0  0  0  0  0  0
  -20.9402  -29.8771   21.6859 H   0  0  0  0  0  0
  -26.0165  -38.2843   24.1405 H   0  0  0  0  0  0
  -32.2326  -19.0847   23.2251 H   0  0  0  0  0  0
  -31.0708  -20.9877   22.1816 H   0  0  0  0  0  0
  -31.8133  -16.7416   22.5195 H   0  0  0  0  0  0
  -26.4898  -19.9360   23.8760 H   0  0  0  0  0  0
  -27.1987  -21.5294   24.4790 H   0  0  0  0  0  0
  -27.3215  -20.3420   21.6591 H   0  0  0  0  0  0
  -29.1563  -18.1668   18.3784 H   0  0  0  0  0  0
  -27.7633  -18.2720   19.4668 H   0  0  0  0  0  0
  -28.8933  -15.8041   18.6139 H   0  0  0  0  0  0
  -27.9136  -16.0628   20.0769 H   0  0  0  0  0  0
  -28.3057  -20.7531   19.6180 H   0  0  0  0  0  0
  -29.8827  -21.3786   19.3172 H   0  0  0  0  0  0
  -29.9651  -24.1610   21.0694 H   0  0  0  0  0  0
  -29.7155  -23.6740   19.4326 H   0  0  0  0  0  0
  -27.3268  -24.7661   21.0571 H   0  0  0  0  0  0
  -27.5107  -24.6050   19.3430 H   0  0  0  0  0  0
  1 25  1  0  0  0
  1 30  2  0  0  0
  1 85  1  0  0  0
  2  3  1  0  0  0
  2 25  1  0  0  0
  2 88  1  0  0  0
  2 89  1  0  0  0
  3  4  1  0  0  0
  3 90  1  0  0  0
  3 91  1  0  0  0
  4  5  1  0  0  0
  4 92  1  0  0  0
  4 93  1  0  0  0
  5  6  1  0  0  0
  5 26  1  0  0  0
  5 94  1  0  0  0
  6 25  1  0  0  0
  6 95  1  0  0  0
  6 96  1  0  0  0
  7  8  2  0  0  0
  7 26  1  0  0  0
  7 29  1  0  0  0
  8  9  1  0  0  0
  8 22  1  0  0  0
  9 10  1  0  0  0
  9 27  2  0  0  0
 10 11  2  0  0  0
 10 15  1  0  0  0
 11 12  1  0  0  0
 11 97  1  0  0  0
 12 13  2  0  0  0
 12 98  1  0  0  0
 13 14  1  0  0  0
 13 31  1  0  0  0
 14 15  2  0  0  0
 14 99  1  0  0  0
 15100  1  0  0  0
 16 17  2  0  0  0
 16 21  1  0  0  0
 16 31  1  0  0  0
 17 18  1  0  0  0
 17101  1  0  0  0
 18 19  2  0  0  0
 18102  1  0  0  0
 19 20  1  0  0  0
 19 24  1  0  0  0
 20 21  2  0  0  0
 20103  1  0  0  0
 21 23  1  0  0  0
 22 28  1  0  0  0
 22 32  2  0  0  0
 26 27  1  0  0  0
 28104  1  0  0  0
 28105  1  0  0  0
 29106  1  0  0  0
 29107  1  0  0  0
 33 34  1  0  0  0
 33 66  1  0  0  0
 33 70  2  0  0  0
 34 36  1  0  0  0
 34 59  1  0  0  0
 34108  1  0  0  0
 35 44  2  0  0  0
 35 45  1  0  0  0
 35 68  1  0  0  0
 36 56  1  0  0  0
 36109  1  0  0  0
 37 39  1  0  0  0
 37 47  1  0  0  0
 37 66  1  0  0  0
 37110  1  0  0  0
 38 43  2  0  0  0
 38 46  1  0  0  0
 38 47  1  0  0  0
 39 64  1  0  0  0
 39 67  2  0  0  0
 40 52  1  0  0  0
 40 53  2  0  0  0
 40 58  1  0  0  0
 41111  1  0  0  0
 41112  1  0  0  0
 41113  1  0  0  0
 41 48  1  0  0  0
 42 43  1  0  0  0
 42 66  1  0  0  0
 42114  1  0  0  0
 42115  1  0  0  0
 43 44  1  0  0  0
 44116  1  0  0  0
 45 46  2  0  0  0
 45117  1  0  0  0
 46118  1  0  0  0
 47119  1  0  0  0
 47120  1  0  0  0
 48 56  1  0  0  0
 48 65  1  0  0  0
 48121  1  0  0  0
 49 50  1  0  0  0
 49 53  1  0  0  0
 49 64  1  0  0  0
 49122  1  0  0  0
 50 51  1  0  0  0
 50123  1  0  0  0
 50124  1  0  0  0
 51 52  1  0  0  0
 51125  1  0  0  0
 51126  1  0  0  0
 52127  1  0  0  0
 52128  1  0  0  0
 53 54  1  0  0  0
 54 55  2  0  0  0
 54129  1  0  0  0
 55 57  1  0  0  0
 55130  1  0  0  0
 56 69  2  0  0  0
 57 58  2  0  0  0
 57131  1  0  0  0
 58132  1  0  0  0
 59 60  1  0  0  0
 59 61  1  0  0  0
 59 62  1  0  0  0
 60133  1  0  0  0
 60134  1  0  0  0
 60135  1  0  0  0
 61136  1  0  0  0
 61137  1  0  0  0
 61138  1  0  0  0
 62139  1  0  0  0
 62140  1  0  0  0
 62141  1  0  0  0
 63 65  1  0  0  0
 63142  1  0  0  0
 63143  1  0  0  0
 63144  1  0  0  0
 64145  1  0  0  0
 65146  1  0  0  0
 68 84  1  0  0  0
 71 72  2  0  0  0
 71 73  1  0  0  0
 71147  1  0  0  0
 72 75  1  0  0  0
 72148  1  0  0  0
 73 76  2  0  0  0
 73149  1  0  0  0
 74 75  2  0  0  0
 74 76  1  0  0  0
 74 80  1  0  0  0
 75 82  1  0  0  0
 76 85  1  0  0  0
 77 78  2  0  0  0
 77150  1  0  0  0
 77151  1  0  0  0
 78 79  1  0  0  0
 78152  1  0  0  0
 79 86  1  0  0  0
 79 87  2  0  0  0
 80 81  1  0  0  0
 80153  1  0  0  0
 80154  1  0  0  0
 81 85  1  0  0  0
 81155  1  0  0  0
 81156  1  0  0  0
 82 86  1  0  0  0
 82157  1  0  0  0
 82158  1  0  0  0
 83 84  1  0  0  0
 83 86  1  0  0  0
 83159  1  0  0  0
 83160  1  0  0  0
 84161  1  0  0  0
 84162  1  0  0  0
M  ISO  4   1 100  68 101  84 101  85 100
M  END
> <chiral flag>
0

> <version>
0

> <s_m_source_file>
/data/baiqing/PycharmProjects/Reinvent-master-3.2/result/LINK_invent/BTK/process_docking_weight1_custom_product_contain_oxygen_bond_distance_aromatic_linkinvent_7_9_3/rearranged_h_0010.sdf

> <i_m_source_file_index>
58

> <r_mmod_Potential_Energy-OPLS-2005>
391.012878417969

> <r_mmod_Stretch_Energy-OPLS-2005>
129.107528686523

> <r_mmod_Bend_Energy-OPLS-2005>
223.827026367188

> <r_mmod_Torsional_Energy-OPLS-2005>
314.646759033203

> <r_mmod_Improper_Torsional_Energy-OPLS-2005>
8.07575798034668

> <r_mmod_Van_der_Waal_Energy-OPLS-2005>
150.590637207031

> <r_mmod_Electrostatic_Energy-OPLS-2005>
-316.902282714844

> <r_mmod_Solvation_Energy-OPLS-2005>
-220.976501464844

> <b_mmod_Minimization_Converged-OPLS-2005>
0

> <r_mmod_RMS_Derivative-OPLS-2005>
0.917438447475433

$$$$
58
                    3D
 Structure written by MMmdl.
149157  0  0  1  0            999 V2000
  -30.5268  -14.9002   20.4346 C   0  0  0  0  0  0
  -30.4537  -12.5539   19.4879 C   0  0  0  0  0  0
  -29.5240  -12.5325   18.2507 C   0  0  0  0  0  0
  -28.0532  -12.3281   18.6658 C   0  0  0  0  0  0
  -27.6386  -13.2408   19.8500 C   0  0  2  0  0  0
  -28.6865  -13.2135   20.9848 C   0  0  0  0  0  0
  -25.2451  -13.8153   20.5684 C   0  0  0  0  0  0
  -24.1765  -13.0383   20.9178 C   0  0  0  0  0  0
  -24.6400  -11.6883   20.8733 C   0  0  0  0  0  0
  -23.9083  -10.4265   21.0396 C   0  0  0  0  0  0
  -24.3627   -9.4187   21.9182 C   0  0  0  0  0  0
  -23.6292   -8.2231   22.0757 C   0  0  0  0  0  0
  -22.4273   -8.0274   21.3547 C   0  0  0  0  0  0
  -21.9913   -9.0246   20.4647 C   0  0  0  0  0  0
  -22.7251  -10.2116   20.3048 C   0  0  0  0  0  0
  -21.6850   -6.0732   22.5281 C   0  0  0  0  0  0
  -21.4012   -6.5636   23.8214 C   0  0  0  0  0  0
  -21.3660   -5.6789   24.9176 C   0  0  0  0  0  0
  -21.6043   -4.3052   24.7226 C   0  0  0  0  0  0
  -21.8819   -3.8145   23.4347 C   0  0  0  0  0  0
  -21.9192   -4.6961   22.3404 C   0  0  0  0  0  0
  -22.7789  -13.5169   21.1854 C   0  0  0  0  0  0
  -22.1661   -4.2147   21.0981 F   0  0  0  0  0  0
  -21.5629   -3.4537   25.7739 F   0  0  0  0  0  0
  -29.9733  -13.6247   20.4012 N   0  0  0  0  0  0
  -26.2930  -12.9412   20.3301 N   0  0  0  0  0  0
  -25.9345  -11.6539   20.5759 N   0  0  0  0  0  0
  -22.0451  -12.8170   22.0431 N   0  0  0  0  0  0
  -25.3973  -15.1876   20.4153 N   0  0  0  0  0  0
  -31.7150  -15.0360   20.1227 O   0  0  0  0  0  0
  -21.6634   -6.8875   21.4243 O   0  0  0  0  0  0
  -22.3465  -14.5481   20.6716 O   0  0  0  0  0  0
  -24.6417  -31.8460   23.1898 C   0  0  0  0  0  0
  -25.9197  -32.4706   23.8284 C   0  0  1  0  0  0
  -27.2240  -27.1612   20.1444 C   0  0  0  0  0  0
  -25.5951  -33.8511   24.2202 N   0  0  0  0  0  0
  -23.4443  -30.4661   21.5351 C   0  0  2  0  0  0
  -24.8944  -28.8972   20.1110 C   0  0  0  0  0  0
  -22.7558  -29.4558   22.4867 C   0  0  0  0  0  0
  -18.0304  -28.1393   22.8479 C   0  0  0  0  0  0
  -24.1491  -36.7261   23.2642 C   0  0  0  0  0  0
  -25.9990  -30.7280   21.3849 C   0  0  0  0  0  0
  -26.0717  -29.3416   20.7261 C   0  0  0  0  0  0
  -27.2376  -28.4903   20.7249 C   0  0  0  0  0  0
  -26.0175  -26.8124   19.4953 C   0  0  0  0  0  0
  -24.8790  -27.6448   19.4811 C   0  0  0  0  0  0
  -23.6697  -29.7961   20.1543 C   0  0  0  0  0  0
  -25.4122  -36.3039   24.0318 C   0  0  1  0  0  0
  -20.5915  -28.3718   23.1239 C   0  0  2  0  0  0
  -20.6787  -26.9423   22.5403 C   0  0  0  0  0  0
  -19.5761  -26.6381   21.5211 C   0  0  0  0  0  0
  -18.1943  -26.7932   22.1625 C   0  0  0  0  0  0
  -19.1560  -28.8873   23.2852 C   0  0  0  0  0  0
  -18.9476  -30.1469   23.8878 C   0  0  0  0  0  0
  -17.6473  -30.6590   24.0559 C   0  0  0  0  0  0
  -25.9070  -34.9413   23.5067 C   0  0  0  0  0  0
  -16.5365  -29.9083   23.6334 C   0  0  0  0  0  0
  -16.7289  -28.6501   23.0357 C   0  0  0  0  0  0
  -26.4524  -31.6566   25.0717 C   0  0  0  0  0  0
  -25.3713  -31.3748   26.1414 C   0  0  0  0  0  0
  -27.0389  -30.2966   24.6282 C   0  0  0  0  0  0
  -27.6055  -32.4329   25.7503 C   0  0  0  0  0  0
  -27.5575  -37.1788   24.8466 C   0  0  0  0  0  0
  -21.4253  -29.3049   22.3614 N   0  0  0  0  0  0
  -26.4288  -37.3749   23.9407 N   0  0  0  0  0  0
  -24.7147  -31.0338   22.0921 N   0  0  0  0  0  0
  -23.4209  -28.8103   23.3010 O   0  0  0  0  0  0
  -28.2885  -26.1936   20.2089 O   0  0  0  0  0  0
  -26.5654  -34.8907   22.4644 O   0  0  0  0  0  0
  -23.5540  -32.1326   23.7130 O   0  0  0  0  0  0
  -30.2718  -19.9635   20.2876 C   0  0  0  0  0  0
  -30.5709  -18.5270   20.3538 C   0  0  0  0  0  0
  -27.9792  -19.4844   20.5411 C   0  0  0  0  0  0
  -28.9448  -20.5249   20.3726 C   0  0  0  0  0  0
  -29.5701  -17.5023   20.5257 C   0  0  0  0  0  0
  -28.2682  -18.0752   20.6197 C   0  0  0  0  0  0
  -29.0301  -23.3681   20.3266 C   0  0  0  0  0  0
  -28.0005  -24.6762   20.0903 C   0  0  0  0  0  0
  -29.6535  -15.9832   20.6551 N   0  0  0  0  0  0
  -28.4580  -21.9272   20.2844 N   0  0  0  0  0  0
  -27.2315  -17.2229   20.7918 F   0  0  0  0  0  0
  -31.4861  -12.7220   19.1770 H   0  0  0  0  0  0
  -30.4481  -11.5874   19.9944 H   0  0  0  0  0  0
  -29.8309  -11.7460   17.5599 H   0  0  0  0  0  0
  -29.6215  -13.4726   17.7054 H   0  0  0  0  0  0
  -27.9347  -11.2819   18.9500 H   0  0  0  0  0  0
  -27.3925  -12.4880   17.8129 H   0  0  0  0  0  0
  -27.6130  -14.2545   19.4491 H   0  0  0  0  0  0
  -28.7594  -12.2172   21.4233 H   0  0  0  0  0  0
  -28.3947  -13.8813   21.7970 H   0  0  0  0  0  0
  -25.2770   -9.5663   22.4758 H   0  0  0  0  0  0
  -23.9996   -7.4622   22.7478 H   0  0  0  0  0  0
  -21.0843   -8.8768   19.8954 H   0  0  0  0  0  0
  -22.3713  -10.9655   19.6156 H   0  0  0  0  0  0
  -21.2005   -7.6144   23.9716 H   0  0  0  0  0  0
  -21.1482   -6.0520   25.9079 H   0  0  0  0  0  0
  -22.0599   -2.7607   23.2847 H   0  0  0  0  0  0
  -22.4075  -11.9835   22.4817 H   0  0  0  0  0  0
  -21.1075  -13.1202   22.2657 H   0  0  0  0  0  0
  -24.6241  -15.8232   20.5724 H   0  0  0  0  0  0
  -26.2642  -15.6811   20.2333 H   0  0  0  0  0  0
  -26.7264  -32.5322   23.1017 H   0  0  0  0  0  0
  -25.0077  -33.9628   25.0335 H   0  0  0  0  0  0
  -22.7460  -31.2915   21.3817 H   0  0  0  0  0  0
  -23.3755  -35.9591   23.3297 H   0  0  0  0  0  0
  -24.3578  -36.8899   22.2059 H   0  0  0  0  0  0
  -23.7245  -37.6456   23.6682 H   0  0  0  0  0  0
  -26.1516  -31.4838   20.6133 H   0  0  0  0  0  0
  -26.8706  -30.7780   22.0259 H   0  0  0  0  0  0
  -28.1351  -28.8273   21.2243 H   0  0  0  0  0  0
  -25.9160  -25.8569   19.0048 H   0  0  0  0  0  0
  -23.9803  -27.2988   18.9892 H   0  0  0  0  0  0
  -23.8039  -30.5708   19.3984 H   0  0  0  0  0  0
  -22.7854  -29.2362   19.8446 H   0  0  0  0  0  0
  -25.1309  -36.1871   25.0810 H   0  0  0  0  0  0
  -21.0009  -28.3307   24.1359 H   0  0  0  0  0  0
  -20.5679  -26.2332   23.3621 H   0  0  0  0  0  0
  -21.6654  -26.7428   22.1203 H   0  0  0  0  0  0
  -19.6921  -25.6286   21.1255 H   0  0  0  0  0  0
  -19.6695  -27.3178   20.6730 H   0  0  0  0  0  0
  -17.4210  -26.6675   21.4031 H   0  0  0  0  0  0
  -18.0345  -26.0078   22.9026 H   0  0  0  0  0  0
  -19.7952  -30.7290   24.2241 H   0  0  0  0  0  0
  -17.5025  -31.6268   24.5164 H   0  0  0  0  0  0
  -15.5364  -30.2978   23.7665 H   0  0  0  0  0  0
  -15.8690  -28.0810   22.7084 H   0  0  0  0  0  0
  -24.5901  -30.7086   25.7735 H   0  0  0  0  0  0
  -24.8892  -32.2926   26.4788 H   0  0  0  0  0  0
  -25.8001  -30.8957   27.0225 H   0  0  0  0  0  0
  -26.3003  -29.6691   24.1282 H   0  0  0  0  0  0
  -27.4003  -29.7261   25.4849 H   0  0  0  0  0  0
  -27.8909  -30.4209   23.9595 H   0  0  0  0  0  0
  -27.2648  -33.3645   26.2032 H   0  0  0  0  0  0
  -28.3893  -32.6863   25.0353 H   0  0  0  0  0  0
  -28.0693  -31.8486   26.5461 H   0  0  0  0  0  0
  -28.2588  -38.0088   24.7507 H   0  0  0  0  0  0
  -28.1075  -36.2617   24.6300 H   0  0  0  0  0  0
  -27.2293  -37.1445   25.8870 H   0  0  0  0  0  0
  -20.9458  -29.8766   21.6799 H   0  0  0  0  0  0
  -26.0156  -38.2819   24.1403 H   0  0  0  0  0  0
  -31.1021  -20.6423   20.1539 H   0  0  0  0  0  0
  -31.6040  -18.2208   20.2760 H   0  0  0  0  0  0
  -26.9386  -19.7615   20.6198 H   0  0  0  0  0  0
  -29.5089  -23.4913   21.2988 H   0  0  0  0  0  0
  -29.8371  -23.4288   19.5954 H   0  0  0  0  0  0
  -27.1514  -24.5025   20.7527 H   0  0  0  0  0  0
  -27.6127  -24.5330   19.0822 H   0  0  0  0  0  0
  -28.7423  -15.6155   20.8847 H   0  0  0  0  0  0
  -27.4410  -21.9665   20.2841 H   0  0  0  0  0  0
  1 25  1  0  0  0
  1 30  2  0  0  0
  1 79  1  0  0  0
  2  3  1  0  0  0
  2 25  1  0  0  0
  2 82  1  0  0  0
  2 83  1  0  0  0
  3  4  1  0  0  0
  3 84  1  0  0  0
  3 85  1  0  0  0
  4  5  1  0  0  0
  4 86  1  0  0  0
  4 87  1  0  0  0
  5  6  1  0  0  0
  5 26  1  0  0  0
  5 88  1  0  0  0
  6 25  1  0  0  0
  6 89  1  0  0  0
  6 90  1  0  0  0
  7  8  2  0  0  0
  7 26  1  0  0  0
  7 29  1  0  0  0
  8  9  1  0  0  0
  8 22  1  0  0  0
  9 10  1  0  0  0
  9 27  2  0  0  0
 10 11  2  0  0  0
 10 15  1  0  0  0
 11 12  1  0  0  0
 11 91  1  0  0  0
 12 13  2  0  0  0
 12 92  1  0  0  0
 13 14  1  0  0  0
 13 31  1  0  0  0
 14 15  2  0  0  0
 14 93  1  0  0  0
 15 94  1  0  0  0
 16 17  2  0  0  0
 16 21  1  0  0  0
 16 31  1  0  0  0
 17 18  1  0  0  0
 17 95  1  0  0  0
 18 19  2  0  0  0
 18 96  1  0  0  0
 19 20  1  0  0  0
 19 24  1  0  0  0
 20 21  2  0  0  0
 20 97  1  0  0  0
 21 23  1  0  0  0
 22 28  1  0  0  0
 22 32  2  0  0  0
 26 27  1  0  0  0
 28 98  1  0  0  0
 28 99  1  0  0  0
 29100  1  0  0  0
 29101  1  0  0  0
 33 34  1  0  0  0
 33 66  1  0  0  0
 33 70  2  0  0  0
 34 36  1  0  0  0
 34 59  1  0  0  0
 34102  1  0  0  0
 35 44  2  0  0  0
 35 45  1  0  0  0
 35 68  1  0  0  0
 36 56  1  0  0  0
 36103  1  0  0  0
 37 39  1  0  0  0
 37 47  1  0  0  0
 37 66  1  0  0  0
 37104  1  0  0  0
 38 43  2  0  0  0
 38 46  1  0  0  0
 38 47  1  0  0  0
 39 64  1  0  0  0
 39 67  2  0  0  0
 40 52  1  0  0  0
 40 53  2  0  0  0
 40 58  1  0  0  0
 41105  1  0  0  0
 41106  1  0  0  0
 41107  1  0  0  0
 41 48  1  0  0  0
 42 43  1  0  0  0
 42 66  1  0  0  0
 42108  1  0  0  0
 42109  1  0  0  0
 43 44  1  0  0  0
 44110  1  0  0  0
 45 46  2  0  0  0
 45111  1  0  0  0
 46112  1  0  0  0
 47113  1  0  0  0
 47114  1  0  0  0
 48 56  1  0  0  0
 48 65  1  0  0  0
 48115  1  0  0  0
 49 50  1  0  0  0
 49 53  1  0  0  0
 49 64  1  0  0  0
 49116  1  0  0  0
 50 51  1  0  0  0
 50117  1  0  0  0
 50118  1  0  0  0
 51 52  1  0  0  0
 51119  1  0  0  0
 51120  1  0  0  0
 52121  1  0  0  0
 52122  1  0  0  0
 53 54  1  0  0  0
 54 55  2  0  0  0
 54123  1  0  0  0
 55 57  1  0  0  0
 55124  1  0  0  0
 56 69  2  0  0  0
 57 58  2  0  0  0
 57125  1  0  0  0
 58126  1  0  0  0
 59 60  1  0  0  0
 59 61  1  0  0  0
 59 62  1  0  0  0
 60127  1  0  0  0
 60128  1  0  0  0
 60129  1  0  0  0
 61130  1  0  0  0
 61131  1  0  0  0
 61132  1  0  0  0
 62133  1  0  0  0
 62134  1  0  0  0
 62135  1  0  0  0
 63 65  1  0  0  0
 63136  1  0  0  0
 63137  1  0  0  0
 63138  1  0  0  0
 64139  1  0  0  0
 65140  1  0  0  0
 68 78  1  0  0  0
 71 72  2  0  0  0
 71 74  1  0  0  0
 71141  1  0  0  0
 72 75  1  0  0  0
 72142  1  0  0  0
 73 74  2  0  0  0
 73 76  1  0  0  0
 73143  1  0  0  0
 74 80  1  0  0  0
 75 76  2  0  0  0
 75 79  1  0  0  0
 76 81  1  0  0  0
 77 78  1  0  0  0
 77 80  1  0  0  0
 77144  1  0  0  0
 77145  1  0  0  0
 78146  1  0  0  0
 78147  1  0  0  0
 79148  1  0  0  0
 80149  1  0  0  0
M  ISO  4   1 100  68 101  78 101  79 100
M  END
> <chiral flag>
0

> <version>
0

> <s_m_source_file>
/data/baiqing/PycharmProjects/Reinvent-master-3.2/result/LINK_invent/BTK/process_docking_weight1_custom_product_contain_oxygen_bond_distance_aromatic_linkinvent_7_9_3/rearranged_h_0010.sdf

> <i_m_source_file_index>
59

> <r_mmod_Potential_Energy-OPLS-2005>
383.99658203125

> <r_mmod_Stretch_Energy-OPLS-2005>
201.653121948242

> <r_mmod_Bend_Energy-OPLS-2005>
292.421051025391

> <r_mmod_Torsional_Energy-OPLS-2005>
202.540115356445

> <r_mmod_Improper_Torsional_Energy-OPLS-2005>
4.12791681289673

> <r_mmod_Van_der_Waal_Energy-OPLS-2005>
134.1064453125

> <r_mmod_Electrostatic_Energy-OPLS-2005>
-401.087951660156

> <r_mmod_Solvation_Energy-OPLS-2005>
-214.647521972656

> <b_mmod_Minimization_Converged-OPLS-2005>
0

> <r_mmod_RMS_Derivative-OPLS-2005>
0.230514645576477

$$$$
59
                    3D
 Structure written by MMmdl.
160169  0  0  1  0            999 V2000
  -30.6149  -14.6374   20.5045 C   0  0  0  0  0  0
  -30.4394  -12.3896   19.4543 C   0  0  0  0  0  0
  -29.5083  -12.5106   18.2259 C   0  0  0  0  0  0
  -28.0311  -12.3481   18.6378 C   0  0  0  0  0  0
  -27.6543  -13.2162   19.8682 C   0  0  2  0  0  0
  -28.6980  -13.0608   20.9981 C   0  0  0  0  0  0
  -25.2543  -13.8160   20.5690 C   0  0  0  0  0  0
  -24.1805  -13.0420   20.9164 C   0  0  0  0  0  0
  -24.6386  -11.6899   20.8734 C   0  0  0  0  0  0
  -23.9064  -10.4282   21.0403 C   0  0  0  0  0  0
  -24.3611   -9.4201   21.9187 C   0  0  0  0  0  0
  -23.6282   -8.2242   22.0765 C   0  0  0  0  0  0
  -22.4263   -8.0279   21.3552 C   0  0  0  0  0  0
  -21.9897   -9.0256   20.4655 C   0  0  0  0  0  0
  -22.7235  -10.2126   20.3057 C   0  0  0  0  0  0
  -21.6849   -6.0729   22.5281 C   0  0  0  0  0  0
  -21.4021   -6.5637   23.8213 C   0  0  0  0  0  0
  -21.3661   -5.6790   24.9178 C   0  0  0  0  0  0
  -21.6040   -4.3053   24.7225 C   0  0  0  0  0  0
  -21.8818   -3.8143   23.4349 C   0  0  0  0  0  0
  -21.9193   -4.6960   22.3404 C   0  0  0  0  0  0
  -22.7827  -13.5221   21.1831 C   0  0  0  0  0  0
  -22.1657   -4.2148   21.0981 F   0  0  0  0  0  0
  -21.5626   -3.4538   25.7740 F   0  0  0  0  0  0
  -30.0170  -13.4051   20.4399 N   0  0  0  0  0  0
  -26.2987  -12.9354   20.3342 N   0  0  0  0  0  0
  -25.9317  -11.6507   20.5756 N   0  0  0  0  0  0
  -22.0470  -12.8226   22.0400 N   0  0  0  0  0  0
  -25.4230  -15.1880   20.4155 N   0  0  0  0  0  0
  -31.7664  -14.8163   20.0971 O   0  0  0  0  0  0
  -21.6632   -6.8873   21.4243 O   0  0  0  0  0  0
  -22.3518  -14.5539   20.6700 O   0  0  0  0  0  0
  -24.6251  -31.8607   23.2028 C   0  0  0  0  0  0
  -25.9103  -32.4784   23.8356 C   0  0  1  0  0  0
  -27.2266  -27.3292   20.1197 C   0  0  0  0  0  0
  -25.5922  -33.8584   24.2286 N   0  0  0  0  0  0
  -23.4182  -30.4836   21.5458 C   0  0  2  0  0  0
  -24.8649  -28.9363   20.1151 C   0  0  0  0  0  0
  -22.7467  -29.4626   22.4949 C   0  0  0  0  0  0
  -18.0285  -28.1381   22.8489 C   0  0  0  0  0  0
  -24.1488  -36.7299   23.2639 C   0  0  0  0  0  0
  -25.9577  -30.7943   21.3713 C   0  0  0  0  0  0
  -26.0332  -29.4206   20.7174 C   0  0  0  0  0  0
  -27.2188  -28.6304   20.7076 C   0  0  0  0  0  0
  -26.0394  -26.8958   19.4885 C   0  0  0  0  0  0
  -24.8692  -27.6784   19.4923 C   0  0  0  0  0  0
  -23.6329  -29.8165   20.1619 C   0  0  0  0  0  0
  -25.4111  -36.3088   24.0332 C   0  0  1  0  0  0
  -20.5882  -28.3683   23.1290 C   0  0  2  0  0  0
  -20.6774  -26.9410   22.5410 C   0  0  0  0  0  0
  -19.5752  -26.6385   21.5210 C   0  0  0  0  0  0
  -18.1932  -26.7924   22.1623 C   0  0  0  0  0  0
  -19.1536  -28.8850   23.2887 C   0  0  0  0  0  0
  -18.9459  -30.1451   23.8907 C   0  0  0  0  0  0
  -17.6460  -30.6586   24.0561 C   0  0  0  0  0  0
  -25.9051  -34.9456   23.5111 C   0  0  0  0  0  0
  -16.5352  -29.9086   23.6324 C   0  0  0  0  0  0
  -16.7272  -28.6499   23.0353 C   0  0  0  0  0  0
  -26.4490  -31.6590   25.0724 C   0  0  0  0  0  0
  -25.3725  -31.3723   26.1455 C   0  0  0  0  0  0
  -27.0322  -30.3015   24.6160 C   0  0  0  0  0  0
  -27.6055  -32.4320   25.7492 C   0  0  0  0  0  0
  -27.5579  -37.1805   24.8466 C   0  0  0  0  0  0
  -21.4182  -29.3041   22.3690 N   0  0  0  0  0  0
  -26.4290  -37.3780   23.9411 N   0  0  0  0  0  0
  -24.6858  -31.0629   22.0969 N   0  0  0  0  0  0
  -23.4198  -28.8163   23.3023 O   0  0  0  0  0  0
  -28.3543  -26.5003   20.1241 O   0  0  0  0  0  0
  -26.5619  -34.8920   22.4677 O   0  0  0  0  0  0
  -23.5421  -32.1400   23.7369 O   0  0  0  0  0  0
  -30.6648  -19.2836   19.8620 C   0  0  0  0  0  0
  -30.8324  -17.8838   20.1054 C   0  0  0  0  0  0
  -28.4468  -19.2016   20.7873 C   0  0  0  0  0  0
  -29.4621  -19.9815   20.1758 C   0  0  0  0  0  0
  -29.7923  -17.1030   20.6774 C   0  0  0  0  0  0
  -28.6102  -17.8063   21.0274 C   0  0  0  0  0  0
  -31.5182  -23.4435   20.8479 C   0  0  0  0  0  0
  -30.6983  -24.6114   20.3097 C   0  0  0  0  0  0
  -30.4674  -22.5800   21.5396 C   0  0  0  0  0  0
  -29.2868  -24.0439   20.0372 C   0  0  2  0  0  0
  -29.2113  -21.4686   19.7011 C   0  0  0  0  0  0
  -28.1852  -25.0845   20.5308 C   0  0  0  0  0  0
  -29.8080  -15.6610   20.9191 N   0  0  0  0  0  0
  -29.2717  -22.6414   20.6687 N   0  3  1  0  0  0
  -27.5862  -17.1101   21.5770 F   0  0  0  0  0  0
  -31.4807  -12.5181   19.1542 H   0  0  0  0  0  0
  -30.3758  -11.3905   19.8891 H   0  0  0  0  0  0
  -29.7717  -11.7626   17.4762 H   0  0  0  0  0  0
  -29.6502  -13.4811   17.7477 H   0  0  0  0  0  0
  -27.8712  -11.2950   18.8712 H   0  0  0  0  0  0
  -27.3749  -12.5777   17.7973 H   0  0  0  0  0  0
  -27.6745  -14.2527   19.5309 H   0  0  0  0  0  0
  -28.7050  -12.0363   21.3732 H   0  0  0  0  0  0
  -28.4403  -13.6851   21.8551 H   0  0  0  0  0  0
  -25.2755   -9.5677   22.4764 H   0  0  0  0  0  0
  -23.9995   -7.4630   22.7479 H   0  0  0  0  0  0
  -21.0832   -8.8774   19.8955 H   0  0  0  0  0  0
  -22.3702  -10.9667   19.6165 H   0  0  0  0  0  0
  -21.2023   -7.6145   23.9721 H   0  0  0  0  0  0
  -21.1481   -6.0518   25.9081 H   0  0  0  0  0  0
  -22.0597   -2.7608   23.2845 H   0  0  0  0  0  0
  -22.4081  -11.9886   22.4788 H   0  0  0  0  0  0
  -21.1102  -13.1283   22.2628 H   0  0  0  0  0  0
  -24.6667  -15.8429   20.5771 H   0  0  0  0  0  0
  -26.3019  -15.6475   20.2152 H   0  0  0  0  0  0
  -26.7171  -32.5456   23.1107 H   0  0  0  0  0  0
  -25.0059  -33.9722   25.0425 H   0  0  0  0  0  0
  -22.7120  -31.3039   21.4023 H   0  0  0  0  0  0
  -23.3749  -35.9633   23.3299 H   0  0  0  0  0  0
  -24.3584  -36.8920   22.2054 H   0  0  0  0  0  0
  -23.7244  -37.6501   23.6662 H   0  0  0  0  0  0
  -26.0874  -31.5561   20.6011 H   0  0  0  0  0  0
  -26.8391  -30.8453   21.9988 H   0  0  0  0  0  0
  -28.1185  -29.0039   21.1771 H   0  0  0  0  0  0
  -26.0032  -25.9450   18.9770 H   0  0  0  0  0  0
  -23.9764  -27.3051   19.0100 H   0  0  0  0  0  0
  -23.7536  -30.5919   19.4046 H   0  0  0  0  0  0
  -22.7529  -29.2464   19.8594 H   0  0  0  0  0  0
  -25.1289  -36.1939   25.0824 H   0  0  0  0  0  0
  -20.9973  -28.3255   24.1413 H   0  0  0  0  0  0
  -20.5676  -26.2295   23.3606 H   0  0  0  0  0  0
  -21.6645  -26.7446   22.1206 H   0  0  0  0  0  0
  -19.6915  -25.6298   21.1241 H   0  0  0  0  0  0
  -19.6686  -27.3194   20.6738 H   0  0  0  0  0  0
  -17.4200  -26.6672   21.4024 H   0  0  0  0  0  0
  -18.0332  -26.0064   22.9017 H   0  0  0  0  0  0
  -19.7934  -30.7258   24.2291 H   0  0  0  0  0  0
  -17.5015  -31.6267   24.5157 H   0  0  0  0  0  0
  -15.5353  -30.2991   23.7640 H   0  0  0  0  0  0
  -15.8670  -28.0815   22.7074 H   0  0  0  0  0  0
  -24.5902  -30.7068   25.7787 H   0  0  0  0  0  0
  -24.8913  -32.2886   26.4885 H   0  0  0  0  0  0
  -25.8053  -30.8901   27.0227 H   0  0  0  0  0  0
  -26.2880  -29.6777   24.1192 H   0  0  0  0  0  0
  -27.4035  -29.7262   25.4652 H   0  0  0  0  0  0
  -27.8750  -30.4312   23.9364 H   0  0  0  0  0  0
  -27.2669  -33.3622   26.2068 H   0  0  0  0  0  0
  -28.3862  -32.6875   25.0315 H   0  0  0  0  0  0
  -28.0722  -31.8444   26.5407 H   0  0  0  0  0  0
  -28.2600  -38.0099   24.7510 H   0  0  0  0  0  0
  -28.1072  -36.2634   24.6290 H   0  0  0  0  0  0
  -27.2303  -37.1452   25.8870 H   0  0  0  0  0  0
  -20.9362  -29.8769   21.6902 H   0  0  0  0  0  0
  -26.0174  -38.2858   24.1401 H   0  0  0  0  0  0
  -31.4707  -19.8170   19.3761 H   0  0  0  0  0  0
  -31.7624  -17.4132   19.8192 H   0  0  0  0  0  0
  -27.4999  -19.6578   21.0372 H   0  0  0  0  0  0
  -32.3141  -23.7598   21.5233 H   0  0  0  0  0  0
  -31.9777  -22.8928   20.0260 H   0  0  0  0  0  0
  -31.1456  -25.0598   19.4213 H   0  0  0  0  0  0
  -30.6561  -25.3920   21.0712 H   0  0  0  0  0  0
  -30.2117  -23.0252   22.5022 H   0  0  0  0  0  0
  -30.8254  -21.5719   21.7484 H   0  0  0  0  0  0
  -29.1661  -23.9344   18.9581 H   0  0  0  0  0  0
  -28.2355  -21.4969   19.2149 H   0  0  0  0  0  0
  -29.9272  -21.6659   18.9023 H   0  0  0  0  0  0
  -28.1772  -25.0856   21.6219 H   0  0  0  0  0  0
  -27.2120  -24.6915   20.2422 H   0  0  0  0  0  0
  -28.9379  -15.3299   21.3073 H   0  0  0  0  0  0
  -28.4596  -22.5486   21.2622 H   0  0  0  0  0  0
  1 25  1  0  0  0
  1 30  2  0  0  0
  1 83  1  0  0  0
  2  3  1  0  0  0
  2 25  1  0  0  0
  2 86  1  0  0  0
  2 87  1  0  0  0
  3  4  1  0  0  0
  3 88  1  0  0  0
  3 89  1  0  0  0
  4  5  1  0  0  0
  4 90  1  0  0  0
  4 91  1  0  0  0
  5  6  1  0  0  0
  5 26  1  0  0  0
  5 92  1  0  0  0
  6 25  1  0  0  0
  6 93  1  0  0  0
  6 94  1  0  0  0
  7  8  2  0  0  0
  7 26  1  0  0  0
  7 29  1  0  0  0
  8  9  1  0  0  0
  8 22  1  0  0  0
  9 10  1  0  0  0
  9 27  2  0  0  0
 10 11  2  0  0  0
 10 15  1  0  0  0
 11 12  1  0  0  0
 11 95  1  0  0  0
 12 13  2  0  0  0
 12 96  1  0  0  0
 13 14  1  0  0  0
 13 31  1  0  0  0
 14 15  2  0  0  0
 14 97  1  0  0  0
 15 98  1  0  0  0
 16 17  2  0  0  0
 16 21  1  0  0  0
 16 31  1  0  0  0
 17 18  1  0  0  0
 17 99  1  0  0  0
 18 19  2  0  0  0
 18100  1  0  0  0
 19 20  1  0  0  0
 19 24  1  0  0  0
 20 21  2  0  0  0
 20101  1  0  0  0
 21 23  1  0  0  0
 22 28  1  0  0  0
 22 32  2  0  0  0
 26 27  1  0  0  0
 28102  1  0  0  0
 28103  1  0  0  0
 29104  1  0  0  0
 29105  1  0  0  0
 33 34  1  0  0  0
 33 66  1  0  0  0
 33 70  2  0  0  0
 34 36  1  0  0  0
 34 59  1  0  0  0
 34106  1  0  0  0
 35 44  2  0  0  0
 35 45  1  0  0  0
 35 68  1  0  0  0
 36 56  1  0  0  0
 36107  1  0  0  0
 37 39  1  0  0  0
 37 47  1  0  0  0
 37 66  1  0  0  0
 37108  1  0  0  0
 38 43  2  0  0  0
 38 46  1  0  0  0
 38 47  1  0  0  0
 39 64  1  0  0  0
 39 67  2  0  0  0
 40 52  1  0  0  0
 40 53  2  0  0  0
 40 58  1  0  0  0
 41109  1  0  0  0
 41110  1  0  0  0
 41111  1  0  0  0
 41 48  1  0  0  0
 42 43  1  0  0  0
 42 66  1  0  0  0
 42112  1  0  0  0
 42113  1  0  0  0
 43 44  1  0  0  0
 44114  1  0  0  0
 45 46  2  0  0  0
 45115  1  0  0  0
 46116  1  0  0  0
 47117  1  0  0  0
 47118  1  0  0  0
 48 56  1  0  0  0
 48 65  1  0  0  0
 48119  1  0  0  0
 49 50  1  0  0  0
 49 53  1  0  0  0
 49 64  1  0  0  0
 49120  1  0  0  0
 50 51  1  0  0  0
 50121  1  0  0  0
 50122  1  0  0  0
 51 52  1  0  0  0
 51123  1  0  0  0
 51124  1  0  0  0
 52125  1  0  0  0
 52126  1  0  0  0
 53 54  1  0  0  0
 54 55  2  0  0  0
 54127  1  0  0  0
 55 57  1  0  0  0
 55128  1  0  0  0
 56 69  2  0  0  0
 57 58  2  0  0  0
 57129  1  0  0  0
 58130  1  0  0  0
 59 60  1  0  0  0
 59 61  1  0  0  0
 59 62  1  0  0  0
 60131  1  0  0  0
 60132  1  0  0  0
 60133  1  0  0  0
 61134  1  0  0  0
 61135  1  0  0  0
 61136  1  0  0  0
 62137  1  0  0  0
 62138  1  0  0  0
 62139  1  0  0  0
 63 65  1  0  0  0
 63140  1  0  0  0
 63141  1  0  0  0
 63142  1  0  0  0
 64143  1  0  0  0
 65144  1  0  0  0
 68 82  1  0  0  0
 71 72  2  0  0  0
 71 74  1  0  0  0
 71145  1  0  0  0
 72 75  1  0  0  0
 72146  1  0  0  0
 73 74  2  0  0  0
 73 76  1  0  0  0
 73147  1  0  0  0
 74 81  1  0  0  0
 75 76  2  0  0  0
 75 83  1  0  0  0
 76 85  1  0  0  0
 77 78  1  0  0  0
 77 79  1  0  0  0
 77148  1  0  0  0
 77149  1  0  0  0
 78 80  1  0  0  0
 78150  1  0  0  0
 78151  1  0  0  0
 79 84  1  0  0  0
 79152  1  0  0  0
 79153  1  0  0  0
 80 82  1  0  0  0
 80 84  1  0  0  0
 80154  1  0  0  0
 81155  1  0  0  0
 81156  1  0  0  0
 81 84  1  0  0  0
 82157  1  0  0  0
 82158  1  0  0  0
 83159  1  0  0  0
 84160  1  0  0  0
M  CHG  1  84   1
M  ISO  4   1 100  68 101  82 101  83 100
M  END
> <chiral flag>
0

> <version>
0

> <s_m_source_file>
/data/baiqing/PycharmProjects/Reinvent-master-3.2/result/LINK_invent/BTK/process_docking_weight1_custom_product_contain_oxygen_bond_distance_aromatic_linkinvent_7_9_3/rearranged_h_0010.sdf

> <i_m_source_file_index>
60

> <r_mmod_Potential_Energy-OPLS-2005>
22.1129570007324

> <r_mmod_Stretch_Energy-OPLS-2005>
80.3119430541992

> <r_mmod_Bend_Energy-OPLS-2005>
163.003128051758

> <r_mmod_Torsional_Energy-OPLS-2005>
288.649932861328

> <r_mmod_Improper_Torsional_Energy-OPLS-2005>
4.53385353088379

> <r_mmod_Van_der_Waal_Energy-OPLS-2005>
137.763717651367

> <r_mmod_Electrostatic_Energy-OPLS-2005>
-263.133239746094

> <r_mmod_Solvation_Energy-OPLS-2005>
-433.199249267578

> <b_mmod_Minimization_Converged-OPLS-2005>
0

> <r_mmod_RMS_Derivative-OPLS-2005>
1.13686311244965

$$$$
60
                    3D
 Structure written by MMmdl.
150158  0  0  1  0            999 V2000
  -30.4952  -15.1793   20.3772 C   0  0  0  0  0  0
  -30.4313  -12.7432   19.5401 C   0  0  0  0  0  0
  -29.5346  -12.5671   18.2886 C   0  0  0  0  0  0
  -28.0721  -12.3156   18.6948 C   0  0  0  0  0  0
  -27.6124  -13.2748   19.8202 C   0  0  2  0  0  0
  -28.6434  -13.3928   20.9569 C   0  0  0  0  0  0
  -25.2373  -13.8252   20.5681 C   0  0  0  0  0  0
  -24.1740  -13.0440   20.9231 C   0  0  0  0  0  0
  -24.6403  -11.6941   20.8748 C   0  0  0  0  0  0
  -23.9103  -10.4299   21.0404 C   0  0  0  0  0  0
  -24.3647   -9.4211   21.9181 C   0  0  0  0  0  0
  -23.6311   -8.2252   22.0757 C   0  0  0  0  0  0
  -22.4291   -8.0294   21.3546 C   0  0  0  0  0  0
  -21.9933   -9.0271   20.4648 C   0  0  0  0  0  0
  -22.7275  -10.2141   20.3054 C   0  0  0  0  0  0
  -21.6859   -6.0744   22.5278 C   0  0  0  0  0  0
  -21.4019   -6.5641   23.8214 C   0  0  0  0  0  0
  -21.3657   -5.6792   24.9172 C   0  0  0  0  0  0
  -21.6043   -4.3056   24.7219 C   0  0  0  0  0  0
  -21.8821   -3.8152   23.4340 C   0  0  0  0  0  0
  -21.9194   -4.6972   22.3398 C   0  0  0  0  0  0
  -22.7759  -13.5186   21.1895 C   0  0  0  0  0  0
  -22.1661   -4.2157   21.0975 F   0  0  0  0  0  0
  -21.5624   -3.4540   25.7731 F   0  0  0  0  0  0
  -29.8949  -13.8896   20.3649 N   0  0  0  0  0  0
  -26.2808  -12.9536   20.3160 N   0  0  0  0  0  0
  -25.9339  -11.6644   20.5703 N   0  0  0  0  0  0
  -22.0437  -12.8165   22.0461 N   0  0  0  0  0  0
  -25.3977  -15.1981   20.4078 N   0  0  0  0  0  0
  -31.7081  -15.1174   20.1315 O   0  0  0  0  0  0
  -21.6647   -6.8896   21.4244 O   0  0  0  0  0  0
  -22.3426  -14.5492   20.6753 O   0  0  0  0  0  0
  -24.6581  -31.8302   23.1759 C   0  0  0  0  0  0
  -25.9279  -32.4624   23.8207 C   0  0  1  0  0  0
  -27.2113  -26.9895   20.1725 C   0  0  0  0  0  0
  -25.5969  -33.8437   24.2113 N   0  0  0  0  0  0
  -23.4687  -30.4453   21.5251 C   0  0  2  0  0  0
  -24.9183  -28.8449   20.1128 C   0  0  0  0  0  0
  -22.7643  -29.4475   22.4814 C   0  0  0  0  0  0
  -18.0320  -28.1407   22.8477 C   0  0  0  0  0  0
  -24.1488  -36.7230   23.2648 C   0  0  0  0  0  0
  -26.0350  -30.6570   21.3955 C   0  0  0  0  0  0
  -26.1026  -29.2532   20.7390 C   0  0  0  0  0  0
  -27.2481  -28.3471   20.7425 C   0  0  0  0  0  0
  -25.9981  -26.7192   19.5011 C   0  0  0  0  0  0
  -24.8880  -27.5966   19.4738 C   0  0  0  0  0  0
  -23.7041  -29.7675   20.1488 C   0  0  0  0  0  0
  -25.4128  -36.2992   24.0305 C   0  0  1  0  0  0
  -20.5942  -28.3747   23.1210 C   0  0  2  0  0  0
  -20.6799  -26.9437   22.5404 C   0  0  0  0  0  0
  -19.5766  -26.6380   21.5222 C   0  0  0  0  0  0
  -18.1949  -26.7939   22.1630 C   0  0  0  0  0  0
  -19.1582  -28.8899   23.2828 C   0  0  0  0  0  0
  -18.9489  -30.1491   23.8859 C   0  0  0  0  0  0
  -17.6486  -30.6599   24.0562 C   0  0  0  0  0  0
  -25.9090  -34.9373   23.5030 C   0  0  0  0  0  0
  -16.5376  -29.9086   23.6343 C   0  0  0  0  0  0
  -16.7301  -28.6509   23.0361 C   0  0  0  0  0  0
  -26.4542  -31.6546   25.0713 C   0  0  0  0  0  0
  -25.3684  -31.3787   26.1390 C   0  0  0  0  0  0
  -27.0419  -30.2914   24.6403 C   0  0  0  0  0  0
  -27.6055  -32.4339   25.7501 C   0  0  0  0  0  0
  -27.5565  -37.1778   24.8471 C   0  0  0  0  0  0
  -21.4321  -29.3044   22.3565 N   0  0  0  0  0  0
  -26.4282  -37.3717   23.9405 N   0  0  0  0  0  0
  -24.7417  -31.0029   22.0862 N   0  0  0  0  0  0
  -23.4224  -28.8029   23.3018 O   0  0  0  0  0  0
  -28.2290  -25.9198   20.2225 O   0  0  0  0  0  0
  -26.5696  -34.8895   22.4622 O   0  0  0  0  0  0
  -23.5665  -32.1241   23.6891 O   0  0  0  0  0  0
  -30.4002  -17.8310   19.5957 C   0  0  0  0  0  0
  -30.0323  -19.2697   19.6023 C   0  0  0  0  0  0
  -28.5235  -18.8202   21.2768 C   0  0  0  0  0  0
  -29.8740  -16.7396   20.4173 C   0  0  0  0  0  0
  -28.9084  -17.3845   21.3056 C   0  0  0  0  0  0
  -29.0408  -19.9018   20.4486 C   0  0  0  0  0  0
  -28.2715  -16.5745   22.4177 C   0  0  0  0  0  0
  -28.9489  -22.8699   20.1862 C   0  0  0  0  0  0
  -27.9345  -24.3220   20.2661 C   0  0  0  0  0  0
  -28.5244  -21.3489   20.5309 N   0  0  0  0  0  0
  -31.4600  -12.9074   19.2186 H   0  0  0  0  0  0
  -30.4630  -11.8223   20.1256 H   0  0  0  0  0  0
  -29.8996  -11.7466   17.6697 H   0  0  0  0  0  0
  -29.5944  -13.4663   17.6736 H   0  0  0  0  0  0
  -27.9989  -11.2834   19.0395 H   0  0  0  0  0  0
  -27.4138  -12.3962   17.8287 H   0  0  0  0  0  0
  -27.5456  -14.2578   19.3525 H   0  0  0  0  0  0
  -28.7875  -12.4337   21.4561 H   0  0  0  0  0  0
  -28.2827  -14.0632   21.7265 H   0  0  0  0  0  0
  -25.2796   -9.5679   22.4757 H   0  0  0  0  0  0
  -24.0011   -7.4644   22.7482 H   0  0  0  0  0  0
  -21.0862   -8.8807   19.8957 H   0  0  0  0  0  0
  -22.3745  -10.9684   19.6163 H   0  0  0  0  0  0
  -21.2019   -7.6152   23.9719 H   0  0  0  0  0  0
  -21.1472   -6.0520   25.9073 H   0  0  0  0  0  0
  -22.0602   -2.7616   23.2837 H   0  0  0  0  0  0
  -22.4071  -11.9810   22.4810 H   0  0  0  0  0  0
  -21.1061  -13.1181   22.2708 H   0  0  0  0  0  0
  -24.6324  -15.8495   20.5417 H   0  0  0  0  0  0
  -26.2465  -15.6462   20.0870 H   0  0  0  0  0  0
  -26.7354  -32.5175   23.0935 H   0  0  0  0  0  0
  -25.0074  -33.9524   25.0235 H   0  0  0  0  0  0
  -22.7787  -31.2757   21.3602 H   0  0  0  0  0  0
  -23.3750  -35.9561   23.3308 H   0  0  0  0  0  0
  -24.3559  -36.8869   22.2063 H   0  0  0  0  0  0
  -23.7255  -37.6425   23.6699 H   0  0  0  0  0  0
  -26.2080  -31.4003   20.6163 H   0  0  0  0  0  0
  -26.8995  -30.7113   22.0453 H   0  0  0  0  0  0
  -28.1495  -28.6610   21.2495 H   0  0  0  0  0  0
  -25.8720  -25.7724   19.0001 H   0  0  0  0  0  0
  -23.9883  -27.2800   18.9639 H   0  0  0  0  0  0
  -23.8569  -30.5393   19.3938 H   0  0  0  0  0  0
  -22.8140  -29.2214   19.8312 H   0  0  0  0  0  0
  -25.1318  -36.1805   25.0797 H   0  0  0  0  0  0
  -21.0034  -28.3343   24.1332 H   0  0  0  0  0  0
  -20.5699  -26.2359   23.3639 H   0  0  0  0  0  0
  -21.6660  -26.7419   22.1199 H   0  0  0  0  0  0
  -19.6925  -25.6282   21.1275 H   0  0  0  0  0  0
  -19.6702  -27.3173   20.6744 H   0  0  0  0  0  0
  -17.4220  -26.6700   21.4030 H   0  0  0  0  0  0
  -18.0332  -26.0086   22.9033 H   0  0  0  0  0  0
  -19.7964  -30.7321   24.2206 H   0  0  0  0  0  0
  -17.5031  -31.6271   24.5174 H   0  0  0  0  0  0
  -15.5376  -30.2975   23.7683 H   0  0  0  0  0  0
  -15.8704  -28.0813   22.7093 H   0  0  0  0  0  0
  -24.5872  -30.7125   25.7708 H   0  0  0  0  0  0
  -24.8870  -32.2984   26.4719 H   0  0  0  0  0  0
  -25.7930  -30.9021   27.0233 H   0  0  0  0  0  0
  -26.3066  -29.6615   24.1391 H   0  0  0  0  0  0
  -27.3942  -29.7254   25.5034 H   0  0  0  0  0  0
  -27.9006  -30.4096   23.9798 H   0  0  0  0  0  0
  -27.2648  -33.3693   26.1950 H   0  0  0  0  0  0
  -28.3926  -32.6815   25.0367 H   0  0  0  0  0  0
  -28.0651  -31.8550   26.5519 H   0  0  0  0  0  0
  -28.2588  -38.0063   24.7480 H   0  0  0  0  0  0
  -28.1052  -36.2593   24.6340 H   0  0  0  0  0  0
  -27.2280  -37.1475   25.8872 H   0  0  0  0  0  0
  -20.9572  -29.8753   21.6715 H   0  0  0  0  0  0
  -26.0138  -38.2781   24.1389 H   0  0  0  0  0  0
  -31.1744  -17.5534   18.8941 H   0  0  0  0  0  0
  -30.5474  -19.9071   18.8972 H   0  0  0  0  0  0
  -27.7692  -19.1171   21.9919 H   0  0  0  0  0  0
  -27.9753  -17.2145   23.2491 H   0  0  0  0  0  0
  -28.9722  -15.8463   22.8249 H   0  0  0  0  0  0
  -27.3747  -16.0675   22.0664 H   0  0  0  0  0  0
  -29.7945  -23.0696   20.8451 H   0  0  0  0  0  0
  -29.3857  -22.8463   19.1871 H   0  0  0  0  0  0
  -27.3657  -24.2095   21.1893 H   0  0  0  0  0  0
  -27.1987  -24.1524   19.4823 H   0  0  0  0  0  0
  -27.7124  -21.3847   21.1445 H   0  0  0  0  0  0
  1 25  1  0  0  0
  1 30  2  0  0  0
  1 74  1  0  0  0
  2  3  1  0  0  0
  2 25  1  0  0  0
  2 81  1  0  0  0
  2 82  1  0  0  0
  3  4  1  0  0  0
  3 83  1  0  0  0
  3 84  1  0  0  0
  4  5  1  0  0  0
  4 85  1  0  0  0
  4 86  1  0  0  0
  5  6  1  0  0  0
  5 26  1  0  0  0
  5 87  1  0  0  0
  6 25  1  0  0  0
  6 88  1  0  0  0
  6 89  1  0  0  0
  7  8  2  0  0  0
  7 26  1  0  0  0
  7 29  1  0  0  0
  8  9  1  0  0  0
  8 22  1  0  0  0
  9 10  1  0  0  0
  9 27  2  0  0  0
 10 11  2  0  0  0
 10 15  1  0  0  0
 11 12  1  0  0  0
 11 90  1  0  0  0
 12 13  2  0  0  0
 12 91  1  0  0  0
 13 14  1  0  0  0
 13 31  1  0  0  0
 14 15  2  0  0  0
 14 92  1  0  0  0
 15 93  1  0  0  0
 16 17  2  0  0  0
 16 21  1  0  0  0
 16 31  1  0  0  0
 17 18  1  0  0  0
 17 94  1  0  0  0
 18 19  2  0  0  0
 18 95  1  0  0  0
 19 20  1  0  0  0
 19 24  1  0  0  0
 20 21  2  0  0  0
 20 96  1  0  0  0
 21 23  1  0  0  0
 22 28  1  0  0  0
 22 32  2  0  0  0
 26 27  1  0  0  0
 28 97  1  0  0  0
 28 98  1  0  0  0
 29 99  1  0  0  0
 29100  1  0  0  0
 33 34  1  0  0  0
 33 66  1  0  0  0
 33 70  2  0  0  0
 34 36  1  0  0  0
 34 59  1  0  0  0
 34101  1  0  0  0
 35 44  2  0  0  0
 35 45  1  0  0  0
 35 68  1  0  0  0
 36 56  1  0  0  0
 36102  1  0  0  0
 37 39  1  0  0  0
 37 47  1  0  0  0
 37 66  1  0  0  0
 37103  1  0  0  0
 38 43  2  0  0  0
 38 46  1  0  0  0
 38 47  1  0  0  0
 39 64  1  0  0  0
 39 67  2  0  0  0
 40 52  1  0  0  0
 40 53  2  0  0  0
 40 58  1  0  0  0
 41104  1  0  0  0
 41105  1  0  0  0
 41106  1  0  0  0
 41 48  1  0  0  0
 42 43  1  0  0  0
 42 66  1  0  0  0
 42107  1  0  0  0
 42108  1  0  0  0
 43 44  1  0  0  0
 44109  1  0  0  0
 45 46  2  0  0  0
 45110  1  0  0  0
 46111  1  0  0  0
 47112  1  0  0  0
 47113  1  0  0  0
 48 56  1  0  0  0
 48 65  1  0  0  0
 48114  1  0  0  0
 49 50  1  0  0  0
 49 53  1  0  0  0
 49 64  1  0  0  0
 49115  1  0  0  0
 50 51  1  0  0  0
 50116  1  0  0  0
 50117  1  0  0  0
 51 52  1  0  0  0
 51118  1  0  0  0
 51119  1  0  0  0
 52120  1  0  0  0
 52121  1  0  0  0
 53 54  1  0  0  0
 54 55  2  0  0  0
 54122  1  0  0  0
 55 57  1  0  0  0
 55123  1  0  0  0
 56 69  2  0  0  0
 57 58  2  0  0  0
 57124  1  0  0  0
 58125  1  0  0  0
 59 60  1  0  0  0
 59 61  1  0  0  0
 59 62  1  0  0  0
 60126  1  0  0  0
 60127  1  0  0  0
 60128  1  0  0  0
 61129  1  0  0  0
 61130  1  0  0  0
 61131  1  0  0  0
 62132  1  0  0  0
 62133  1  0  0  0
 62134  1  0  0  0
 63 65  1  0  0  0
 63135  1  0  0  0
 63136  1  0  0  0
 63137  1  0  0  0
 64138  1  0  0  0
 65139  1  0  0  0
 68 79  1  0  0  0
 71 72  2  0  0  0
 71 74  1  0  0  0
 71140  1  0  0  0
 72 76  1  0  0  0
 72141  1  0  0  0
 73 75  1  0  0  0
 73 76  2  0  0  0
 73142  1  0  0  0
 74 75  2  0  0  0
 75 77  1  0  0  0
 76 80  1  0  0  0
 77143  1  0  0  0
 77144  1  0  0  0
 77145  1  0  0  0
 78 79  1  0  0  0
 78 80  1  0  0  0
 78146  1  0  0  0
 78147  1  0  0  0
 79148  1  0  0  0
 79149  1  0  0  0
 80150  1  0  0  0
M  ISO  4   1 100  68 101  74 100  79 101
M  END
> <chiral flag>
0

> <version>
0

> <s_m_source_file>
/data/baiqing/PycharmProjects/Reinvent-master-3.2/result/LINK_invent/BTK/process_docking_weight1_custom_product_contain_oxygen_bond_distance_aromatic_linkinvent_7_9_3/rearranged_h_0010.sdf

> <i_m_source_file_index>
61

> <r_mmod_Potential_Energy-OPLS-2005>
1073.42578125

> <r_mmod_Stretch_Energy-OPLS-2005>
430.092041015625

> <r_mmod_Bend_Energy-OPLS-2005>
425.007263183594

> <r_mmod_Torsional_Energy-OPLS-2005>
195.4853515625

> <r_mmod_Improper_Torsional_Energy-OPLS-2005>
6.09414196014404

> <r_mmod_Van_der_Waal_Energy-OPLS-2005>
133.953216552734

> <r_mmod_Electrostatic_Energy-OPLS-2005>
-272.035522460938

> <r_mmod_Solvation_Energy-OPLS-2005>
-204.979049682617

> <b_mmod_Minimization_Converged-OPLS-2005>
0

> <r_mmod_RMS_Derivative-OPLS-2005>
1.16358590126038

$$$$
61
                    3D
 Structure written by MMmdl.
148156  0  0  1  0            999 V2000
  -30.5182  -14.9243   20.4273 C   0  0  0  0  0  0
  -30.4485  -12.5676   19.5002 C   0  0  0  0  0  0
  -29.5256  -12.5341   18.2581 C   0  0  0  0  0  0
  -28.0559  -12.3244   18.6711 C   0  0  0  0  0  0
  -27.6374  -13.2425   19.8489 C   0  0  2  0  0  0
  -28.6796  -13.2319   20.9887 C   0  0  0  0  0  0
  -25.2490  -13.8205   20.5707 C   0  0  0  0  0  0
  -24.1793  -13.0436   20.9212 C   0  0  0  0  0  0
  -24.6401  -11.6919   20.8745 C   0  0  0  0  0  0
  -23.9080  -10.4292   21.0404 C   0  0  0  0  0  0
  -24.3627   -9.4208   21.9183 C   0  0  0  0  0  0
  -23.6298   -8.2244   22.0754 C   0  0  0  0  0  0
  -22.4280   -8.0283   21.3545 C   0  0  0  0  0  0
  -21.9918   -9.0257   20.4646 C   0  0  0  0  0  0
  -22.7251  -10.2134   20.3054 C   0  0  0  0  0  0
  -21.6855   -6.0737   22.5279 C   0  0  0  0  0  0
  -21.4015   -6.5641   23.8213 C   0  0  0  0  0  0
  -21.3660   -5.6793   24.9174 C   0  0  0  0  0  0
  -21.6044   -4.3056   24.7225 C   0  0  0  0  0  0
  -21.8819   -3.8148   23.4346 C   0  0  0  0  0  0
  -21.9193   -4.6965   22.3402 C   0  0  0  0  0  0
  -22.7813  -13.5212   21.1871 C   0  0  0  0  0  0
  -22.1662   -4.2151   21.0980 F   0  0  0  0  0  0
  -21.5628   -3.4539   25.7737 F   0  0  0  0  0  0
  -29.9639  -13.6466   20.4064 N   0  0  0  0  0  0
  -26.2921  -12.9428   20.3276 N   0  0  0  0  0  0
  -25.9336  -11.6561   20.5746 N   0  0  0  0  0  0
  -22.0465  -12.8199   22.0428 N   0  0  0  0  0  0
  -25.4163  -15.1932   20.4141 N   0  0  0  0  0  0
  -31.6994  -15.0452   20.0829 O   0  0  0  0  0  0
  -21.6642   -6.8881   21.4242 O   0  0  0  0  0  0
  -22.3492  -14.5516   20.6719 O   0  0  0  0  0  0
  -24.6426  -31.8438   23.1879 C   0  0  0  0  0  0
  -25.9201  -32.4692   23.8268 C   0  0  1  0  0  0
  -27.2223  -27.1392   20.1425 C   0  0  0  0  0  0
  -25.5951  -33.8498   24.2185 N   0  0  0  0  0  0
  -23.4460  -30.4626   21.5332 C   0  0  2  0  0  0
  -24.8954  -28.8895   20.1072 C   0  0  0  0  0  0
  -22.7563  -29.4543   22.4859 C   0  0  0  0  0  0
  -18.0303  -28.1395   22.8479 C   0  0  0  0  0  0
  -24.1491  -36.7253   23.2642 C   0  0  0  0  0  0
  -26.0011  -30.7171   21.3868 C   0  0  0  0  0  0
  -26.0706  -29.3288   20.7274 C   0  0  0  0  0  0
  -27.2298  -28.4677   20.7317 C   0  0  0  0  0  0
  -26.0182  -26.7996   19.4846 C   0  0  0  0  0  0
  -24.8819  -27.6384   19.4725 C   0  0  0  0  0  0
  -23.6715  -29.7909   20.1521 C   0  0  0  0  0  0
  -25.4124  -36.3031   24.0316 C   0  0  1  0  0  0
  -20.5915  -28.3719   23.1238 C   0  0  2  0  0  0
  -20.6787  -26.9424   22.5404 C   0  0  0  0  0  0
  -19.5760  -26.6382   21.5213 C   0  0  0  0  0  0
  -18.1942  -26.7933   22.1627 C   0  0  0  0  0  0
  -19.1560  -28.8876   23.2850 C   0  0  0  0  0  0
  -18.9477  -30.1473   23.8875 C   0  0  0  0  0  0
  -17.6473  -30.6592   24.0559 C   0  0  0  0  0  0
  -25.9074  -34.9406   23.5060 C   0  0  0  0  0  0
  -16.5364  -29.9085   23.6336 C   0  0  0  0  0  0
  -16.7288  -28.6504   23.0358 C   0  0  0  0  0  0
  -26.4524  -31.6563   25.0712 C   0  0  0  0  0  0
  -25.3709  -31.3759   26.1410 C   0  0  0  0  0  0
  -27.0387  -30.2957   24.6298 C   0  0  0  0  0  0
  -27.6056  -32.4328   25.7496 C   0  0  0  0  0  0
  -27.5575  -37.1784   24.8466 C   0  0  0  0  0  0
  -21.4256  -29.3044   22.3609 N   0  0  0  0  0  0
  -26.4287  -37.3744   23.9408 N   0  0  0  0  0  0
  -24.7163  -31.0294   22.0911 N   0  0  0  0  0  0
  -23.4208  -28.8095   23.3011 O   0  0  0  0  0  0
  -28.2978  -26.1831   20.2513 O   0  0  0  0  0  0
  -26.5662  -34.8905   22.4640 O   0  0  0  0  0  0
  -23.5547  -32.1315   23.7102 O   0  0  0  0  0  0
  -30.4933  -18.3565   19.6582 C   0  0  0  0  0  0
  -28.5603  -19.8249   21.0345 C   0  0  0  0  0  0
  -29.6793  -17.5586   20.5240 C   0  0  0  0  0  0
  -29.3532  -20.6200   20.1431 C   0  0  0  0  0  0
  -30.3291  -19.7915   19.4747 C   0  0  0  0  0  0
  -28.7081  -18.3830   21.2002 C   0  0  0  0  0  0
  -28.3216  -24.7180   19.7170 C   0  0  0  0  0  0
  -28.5917  -23.2487   20.5102 C   0  0  0  0  0  0
  -29.6856  -16.0342   20.7086 N   0  0  0  0  0  0
  -29.2413  -22.0463   19.8039 O   0  0  0  0  0  0
  -31.1555  -20.3988   18.5893 F   0  0  0  0  0  0
  -27.8534  -17.7570   22.0444 F   0  0  0  0  0  0
  -31.4823  -12.7307   19.1917 H   0  0  0  0  0  0
  -30.4409  -11.6048   20.0137 H   0  0  0  0  0  0
  -29.8390  -11.7442   17.5741 H   0  0  0  0  0  0
  -29.6201  -13.4712   17.7072 H   0  0  0  0  0  0
  -27.9426  -11.2795   18.9621 H   0  0  0  0  0  0
  -27.3951  -12.4757   17.8167 H   0  0  0  0  0  0
  -27.6122  -14.2531   19.4405 H   0  0  0  0  0  0
  -28.7569  -12.2410   21.4389 H   0  0  0  0  0  0
  -28.3804  -13.9079   21.7911 H   0  0  0  0  0  0
  -25.2771   -9.5683   22.4760 H   0  0  0  0  0  0
  -24.0005   -7.4636   22.7475 H   0  0  0  0  0  0
  -21.0849   -8.8779   19.8952 H   0  0  0  0  0  0
  -22.3710  -10.9674   19.6164 H   0  0  0  0  0  0
  -21.2008   -7.6149   23.9716 H   0  0  0  0  0  0
  -21.1482   -6.0524   25.9077 H   0  0  0  0  0  0
  -22.0598   -2.7610   23.2846 H   0  0  0  0  0  0
  -22.4089  -11.9862   22.4814 H   0  0  0  0  0  0
  -21.1081  -13.1217   22.2636 H   0  0  0  0  0  0
  -24.6501  -15.8455   20.5392 H   0  0  0  0  0  0
  -26.2653  -15.6402   20.0942 H   0  0  0  0  0  0
  -26.7265  -32.5294   23.0994 H   0  0  0  0  0  0
  -25.0075  -33.9613   25.0317 H   0  0  0  0  0  0
  -22.7485  -31.2885   21.3788 H   0  0  0  0  0  0
  -23.3759  -35.9579   23.3293 H   0  0  0  0  0  0
  -24.3576  -36.8897   22.2059 H   0  0  0  0  0  0
  -23.7241  -37.6444   23.6687 H   0  0  0  0  0  0
  -26.1577  -31.4720   20.6150 H   0  0  0  0  0  0
  -26.8713  -30.7661   22.0297 H   0  0  0  0  0  0
  -28.1234  -28.7980   21.2425 H   0  0  0  0  0  0
  -25.8999  -25.8458   18.9982 H   0  0  0  0  0  0
  -23.9827  -27.2959   18.9789 H   0  0  0  0  0  0
  -23.8066  -30.5651   19.3960 H   0  0  0  0  0  0
  -22.7864  -29.2321   19.8428 H   0  0  0  0  0  0
  -25.1313  -36.1857   25.0808 H   0  0  0  0  0  0
  -21.0008  -28.3309   24.1359 H   0  0  0  0  0  0
  -20.5681  -26.2334   23.3622 H   0  0  0  0  0  0
  -21.6653  -26.7430   22.1201 H   0  0  0  0  0  0
  -19.6921  -25.6287   21.1255 H   0  0  0  0  0  0
  -19.6695  -27.3181   20.6733 H   0  0  0  0  0  0
  -17.4209  -26.6674   21.4033 H   0  0  0  0  0  0
  -18.0346  -26.0082   22.9031 H   0  0  0  0  0  0
  -19.7952  -30.7296   24.2233 H   0  0  0  0  0  0
  -17.5026  -31.6270   24.5165 H   0  0  0  0  0  0
  -15.5363  -30.2980   23.7673 H   0  0  0  0  0  0
  -15.8688  -28.0814   22.7087 H   0  0  0  0  0  0
  -24.5887  -30.7108   25.7731 H   0  0  0  0  0  0
  -24.8900  -32.2944   26.4783 H   0  0  0  0  0  0
  -25.7990  -30.8963   27.0221 H   0  0  0  0  0  0
  -26.3003  -29.6678   24.1300 H   0  0  0  0  0  0
  -27.3989  -29.7261   25.4875 H   0  0  0  0  0  0
  -27.8917  -30.4189   23.9622 H   0  0  0  0  0  0
  -27.2656  -33.3659   26.2001 H   0  0  0  0  0  0
  -28.3906  -32.6836   25.0349 H   0  0  0  0  0  0
  -28.0678  -31.8497   26.5471 H   0  0  0  0  0  0
  -28.2586  -38.0086   24.7511 H   0  0  0  0  0  0
  -28.1077  -36.2615   24.6296 H   0  0  0  0  0  0
  -27.2290  -37.1434   25.8869 H   0  0  0  0  0  0
  -20.9466  -29.8753   21.6784 H   0  0  0  0  0  0
  -26.0152  -38.2812   24.1410 H   0  0  0  0  0  0
  -31.2573  -17.8619   19.0776 H   0  0  0  0  0  0
  -27.7775  -20.3151   21.5926 H   0  0  0  0  0  0
  -27.4790  -24.5474   19.0542 H   0  0  0  0  0  0
  -29.1561  -24.7744   19.0182 H   0  0  0  0  0  0
  -27.6494  -22.9152   20.9451 H   0  0  0  0  0  0
  -29.2379  -23.4612   21.3619 H   0  0  0  0  0  0
  -28.8179  -15.7174   21.1150 H   0  0  0  0  0  0
  1 25  1  0  0  0
  1 30  2  0  0  0
  1 79  1  0  0  0
  2  3  1  0  0  0
  2 25  1  0  0  0
  2 83  1  0  0  0
  2 84  1  0  0  0
  3  4  1  0  0  0
  3 85  1  0  0  0
  3 86  1  0  0  0
  4  5  1  0  0  0
  4 87  1  0  0  0
  4 88  1  0  0  0
  5  6  1  0  0  0
  5 26  1  0  0  0
  5 89  1  0  0  0
  6 25  1  0  0  0
  6 90  1  0  0  0
  6 91  1  0  0  0
  7  8  2  0  0  0
  7 26  1  0  0  0
  7 29  1  0  0  0
  8  9  1  0  0  0
  8 22  1  0  0  0
  9 10  1  0  0  0
  9 27  2  0  0  0
 10 11  2  0  0  0
 10 15  1  0  0  0
 11 12  1  0  0  0
 11 92  1  0  0  0
 12 13  2  0  0  0
 12 93  1  0  0  0
 13 14  1  0  0  0
 13 31  1  0  0  0
 14 15  2  0  0  0
 14 94  1  0  0  0
 15 95  1  0  0  0
 16 17  2  0  0  0
 16 21  1  0  0  0
 16 31  1  0  0  0
 17 18  1  0  0  0
 17 96  1  0  0  0
 18 19  2  0  0  0
 18 97  1  0  0  0
 19 20  1  0  0  0
 19 24  1  0  0  0
 20 21  2  0  0  0
 20 98  1  0  0  0
 21 23  1  0  0  0
 22 28  1  0  0  0
 22 32  2  0  0  0
 26 27  1  0  0  0
 28 99  1  0  0  0
 28100  1  0  0  0
 29101  1  0  0  0
 29102  1  0  0  0
 33 34  1  0  0  0
 33 66  1  0  0  0
 33 70  2  0  0  0
 34 36  1  0  0  0
 34 59  1  0  0  0
 34103  1  0  0  0
 35 44  2  0  0  0
 35 45  1  0  0  0
 35 68  1  0  0  0
 36 56  1  0  0  0
 36104  1  0  0  0
 37 39  1  0  0  0
 37 47  1  0  0  0
 37 66  1  0  0  0
 37105  1  0  0  0
 38 43  2  0  0  0
 38 46  1  0  0  0
 38 47  1  0  0  0
 39 64  1  0  0  0
 39 67  2  0  0  0
 40 52  1  0  0  0
 40 53  2  0  0  0
 40 58  1  0  0  0
 41106  1  0  0  0
 41107  1  0  0  0
 41108  1  0  0  0
 41 48  1  0  0  0
 42 43  1  0  0  0
 42 66  1  0  0  0
 42109  1  0  0  0
 42110  1  0  0  0
 43 44  1  0  0  0
 44111  1  0  0  0
 45 46  2  0  0  0
 45112  1  0  0  0
 46113  1  0  0  0
 47114  1  0  0  0
 47115  1  0  0  0
 48 56  1  0  0  0
 48 65  1  0  0  0
 48116  1  0  0  0
 49 50  1  0  0  0
 49 53  1  0  0  0
 49 64  1  0  0  0
 49117  1  0  0  0
 50 51  1  0  0  0
 50118  1  0  0  0
 50119  1  0  0  0
 51 52  1  0  0  0
 51120  1  0  0  0
 51121  1  0  0  0
 52122  1  0  0  0
 52123  1  0  0  0
 53 54  1  0  0  0
 54 55  2  0  0  0
 54124  1  0  0  0
 55 57  1  0  0  0
 55125  1  0  0  0
 56 69  2  0  0  0
 57 58  2  0  0  0
 57126  1  0  0  0
 58127  1  0  0  0
 59 60  1  0  0  0
 59 61  1  0  0  0
 59 62  1  0  0  0
 60128  1  0  0  0
 60129  1  0  0  0
 60130  1  0  0  0
 61131  1  0  0  0
 61132  1  0  0  0
 61133  1  0  0  0
 62134  1  0  0  0
 62135  1  0  0  0
 62136  1  0  0  0
 63 65  1  0  0  0
 63137  1  0  0  0
 63138  1  0  0  0
 63139  1  0  0  0
 64140  1  0  0  0
 65141  1  0  0  0
 68 77  1  0  0  0
 71 73  2  0  0  0
 71 75  1  0  0  0
 71142  1  0  0  0
 72 74  1  0  0  0
 72 76  2  0  0  0
 72143  1  0  0  0
 73 76  1  0  0  0
 73 79  1  0  0  0
 74 75  2  0  0  0
 74 80  1  0  0  0
 75 81  1  0  0  0
 76 82  1  0  0  0
 77 78  1  0  0  0
 77144  1  0  0  0
 77145  1  0  0  0
 78 80  1  0  0  0
 78146  1  0  0  0
 78147  1  0  0  0
 79148  1  0  0  0
M  ISO  4   1 100  68 101  77 101  79 100
M  END
> <chiral flag>
0

> <version>
0

> <s_m_source_file>
/data/baiqing/PycharmProjects/Reinvent-master-3.2/result/LINK_invent/BTK/process_docking_weight1_custom_product_contain_oxygen_bond_distance_aromatic_linkinvent_7_9_3/rearranged_h_0010.sdf

> <i_m_source_file_index>
62

> <r_mmod_Potential_Energy-OPLS-2005>
455.152130126953

> <r_mmod_Stretch_Energy-OPLS-2005>
227.920120239258

> <r_mmod_Bend_Energy-OPLS-2005>
295.857421875

> <r_mmod_Torsional_Energy-OPLS-2005>
212.856811523438

> <r_mmod_Improper_Torsional_Energy-OPLS-2005>
3.46052241325378

> <r_mmod_Van_der_Waal_Energy-OPLS-2005>
130.192138671875

> <r_mmod_Electrostatic_Energy-OPLS-2005>
-386.322631835938

> <r_mmod_Solvation_Energy-OPLS-2005>
-209.379211425781

> <b_mmod_Minimization_Converged-OPLS-2005>
0

> <r_mmod_RMS_Derivative-OPLS-2005>
0.111098766326904

$$$$
62
                    3D
 Structure written by MMmdl.
154162  0  0  1  0            999 V2000
  -30.6744  -14.6356   20.5267 C   0  0  0  0  0  0
  -30.4246  -12.4063   19.4453 C   0  0  0  0  0  0
  -29.5015  -12.5114   18.2135 C   0  0  0  0  0  0
  -28.0206  -12.3577   18.6194 C   0  0  0  0  0  0
  -27.6472  -13.2147   19.8590 C   0  0  2  0  0  0
  -28.6928  -13.0448   20.9789 C   0  0  0  0  0  0
  -25.2503  -13.8141   20.5613 C   0  0  0  0  0  0
  -24.1798  -13.0411   20.9208 C   0  0  0  0  0  0
  -24.6370  -11.6888   20.8755 C   0  0  0  0  0  0
  -23.9049  -10.4279   21.0417 C   0  0  0  0  0  0
  -24.3603   -9.4208   21.9197 C   0  0  0  0  0  0
  -23.6285   -8.2240   22.0763 C   0  0  0  0  0  0
  -22.4269   -8.0279   21.3545 C   0  0  0  0  0  0
  -21.9905   -9.0251   20.4653 C   0  0  0  0  0  0
  -22.7224  -10.2136   20.3065 C   0  0  0  0  0  0
  -21.6855   -6.0744   22.5291 C   0  0  0  0  0  0
  -21.4015   -6.5637   23.8229 C   0  0  0  0  0  0
  -21.3651   -5.6784   24.9182 C   0  0  0  0  0  0
  -21.6050   -4.3059   24.7225 C   0  0  0  0  0  0
  -21.8820   -3.8151   23.4348 C   0  0  0  0  0  0
  -21.9186   -4.6971   22.3405 C   0  0  0  0  0  0
  -22.7823  -13.5208   21.1848 C   0  0  0  0  0  0
  -22.1632   -4.2150   21.0985 F   0  0  0  0  0  0
  -21.5628   -3.4546   25.7738 F   0  0  0  0  0  0
  -29.9928  -13.4398   20.4172 N   0  0  0  0  0  0
  -26.2930  -12.9335   20.3261 N   0  0  0  0  0  0
  -25.9282  -11.6492   20.5718 N   0  0  0  0  0  0
  -22.0450  -12.8229   22.0421 N   0  0  0  0  0  0
  -25.4147  -15.1849   20.3928 N   0  0  0  0  0  0
  -31.8473  -14.6858   20.1396 O   0  0  0  0  0  0
  -21.6625   -6.8886   21.4256 O   0  0  0  0  0  0
  -22.3506  -14.5507   20.6671 O   0  0  0  0  0  0
  -24.6286  -31.8603   23.2050 C   0  0  0  0  0  0
  -25.9127  -32.4781   23.8385 C   0  0  1  0  0  0
  -27.2139  -27.3242   20.1012 C   0  0  0  0  0  0
  -25.5935  -33.8584   24.2294 N   0  0  0  0  0  0
  -23.4193  -30.4911   21.5479 C   0  0  2  0  0  0
  -24.8603  -28.9541   20.1108 C   0  0  0  0  0  0
  -22.7482  -29.4642   22.4934 C   0  0  0  0  0  0
  -18.0288  -28.1376   22.8501 C   0  0  0  0  0  0
  -24.1483  -36.7283   23.2646 C   0  0  0  0  0  0
  -25.9627  -30.7935   21.3748 C   0  0  0  0  0  0
  -26.0341  -29.4243   20.7131 C   0  0  0  0  0  0
  -27.2160  -28.6218   20.7017 C   0  0  0  0  0  0
  -26.0101  -26.9163   19.4720 C   0  0  0  0  0  0
  -24.8487  -27.7021   19.4847 C   0  0  0  0  0  0
  -23.6323  -29.8352   20.1604 C   0  0  0  0  0  0
  -25.4108  -36.3081   24.0342 C   0  0  1  0  0  0
  -20.5896  -28.3679   23.1276 C   0  0  2  0  0  0
  -20.6779  -26.9401   22.5390 C   0  0  0  0  0  0
  -19.5742  -26.6378   21.5205 C   0  0  0  0  0  0
  -18.1931  -26.7921   22.1629 C   0  0  0  0  0  0
  -19.1549  -28.8851   23.2886 C   0  0  0  0  0  0
  -18.9474  -30.1467   23.8883 C   0  0  0  0  0  0
  -17.6472  -30.6583   24.0576 C   0  0  0  0  0  0
  -25.9047  -34.9455   23.5110 C   0  0  0  0  0  0
  -16.5362  -29.9079   23.6336 C   0  0  0  0  0  0
  -16.7278  -28.6496   23.0359 C   0  0  0  0  0  0
  -26.4504  -31.6574   25.0737 C   0  0  0  0  0  0
  -25.3768  -31.3735   26.1497 C   0  0  0  0  0  0
  -27.0328  -30.2991   24.6177 C   0  0  0  0  0  0
  -27.6071  -32.4304   25.7513 C   0  0  0  0  0  0
  -27.5569  -37.1796   24.8470 C   0  0  0  0  0  0
  -21.4201  -29.3050   22.3680 N   0  0  0  0  0  0
  -26.4270  -37.3781   23.9427 N   0  0  0  0  0  0
  -24.6893  -31.0641   22.0994 N   0  0  0  0  0  0
  -23.4211  -28.8180   23.3003 O   0  0  0  0  0  0
  -28.3182  -26.4530   20.1501 O   0  0  0  0  0  0
  -26.5602  -34.8919   22.4667 O   0  0  0  0  0  0
  -23.5445  -32.1397   23.7387 O   0  0  0  0  0  0
  -30.7341  -19.6786   20.6735 C   0  0  0  0  0  0
  -28.6380  -18.8154   19.8646 C   0  0  0  0  0  0
  -30.2391  -21.0140   20.5984 C   0  0  0  0  0  0
  -28.1415  -20.1494   19.7938 C   0  0  0  0  0  0
  -29.9569  -18.5447   20.2996 C   0  0  0  0  0  0
  -28.9254  -21.2838   20.1436 C   0  0  0  0  0  0
  -29.0179  -16.0283   21.8068 C   0  0  0  0  0  0
  -30.6262  -17.1198   20.2358 C   0  0  0  0  0  0
  -29.0261  -23.8260   20.2463 C   0  0  0  0  0  0
  -28.0268  -25.0167   19.9290 C   0  0  0  0  0  0
  -29.9980  -15.8355   20.7326 N   0  0  0  0  0  0
  -28.3437  -22.5553   20.0045 O   0  0  0  0  0  0
  -31.4635  -12.5198   19.1343 H   0  0  0  0  0  0
  -30.3641  -11.4097   19.8850 H   0  0  0  0  0  0
  -29.7650  -11.7509   17.4781 H   0  0  0  0  0  0
  -29.6534  -13.4753   17.7249 H   0  0  0  0  0  0
  -27.8487  -11.3040   18.8423 H   0  0  0  0  0  0
  -27.3658  -12.5983   17.7812 H   0  0  0  0  0  0
  -27.6739  -14.2551   19.5359 H   0  0  0  0  0  0
  -28.7234  -11.9995   21.2953 H   0  0  0  0  0  0
  -28.4126  -13.5823   21.8790 H   0  0  0  0  0  0
  -25.2745   -9.5697   22.4781 H   0  0  0  0  0  0
  -24.0013   -7.4628   22.7463 H   0  0  0  0  0  0
  -21.0847   -8.8749   19.8950 H   0  0  0  0  0  0
  -22.3666  -10.9672   19.6166 H   0  0  0  0  0  0
  -21.2009   -7.6139   23.9747 H   0  0  0  0  0  0
  -21.1442   -6.0495   25.9083 H   0  0  0  0  0  0
  -22.0601   -2.7620   23.2839 H   0  0  0  0  0  0
  -22.4033  -11.9881   22.4822 H   0  0  0  0  0  0
  -21.1064  -13.1245   22.2578 H   0  0  0  0  0  0
  -24.6383  -15.8314   20.4881 H   0  0  0  0  0  0
  -26.2462  -15.6174   20.0095 H   0  0  0  0  0  0
  -26.7209  -32.5443   23.1163 H   0  0  0  0  0  0
  -25.0141  -33.9730   25.0484 H   0  0  0  0  0  0
  -22.7121  -31.3113   21.4104 H   0  0  0  0  0  0
  -23.3733  -35.9621   23.3293 H   0  0  0  0  0  0
  -24.3574  -36.8888   22.2053 H   0  0  0  0  0  0
  -23.7214  -37.6485   23.6657 H   0  0  0  0  0  0
  -26.0966  -31.5588   20.6100 H   0  0  0  0  0  0
  -26.8435  -30.8376   22.0035 H   0  0  0  0  0  0
  -28.1131  -28.9801   21.1878 H   0  0  0  0  0  0
  -25.9146  -25.9674   18.9653 H   0  0  0  0  0  0
  -23.9504  -27.3375   19.0031 H   0  0  0  0  0  0
  -23.7563  -30.6141   19.4067 H   0  0  0  0  0  0
  -22.7514  -29.2697   19.8547 H   0  0  0  0  0  0
  -25.1272  -36.1931   25.0827 H   0  0  0  0  0  0
  -21.0006  -28.3246   24.1393 H   0  0  0  0  0  0
  -20.5661  -26.2300   23.3606 H   0  0  0  0  0  0
  -21.6653  -26.7420   22.1198 H   0  0  0  0  0  0
  -19.6883  -25.6290   21.1235 H   0  0  0  0  0  0
  -19.6659  -27.3206   20.6749 H   0  0  0  0  0  0
  -17.4199  -26.6696   21.4032 H   0  0  0  0  0  0
  -18.0323  -26.0056   22.9015 H   0  0  0  0  0  0
  -19.7948  -30.7309   24.2208 H   0  0  0  0  0  0
  -17.5018  -31.6252   24.5197 H   0  0  0  0  0  0
  -15.5357  -30.2982   23.7654 H   0  0  0  0  0  0
  -15.8686  -28.0816   22.7058 H   0  0  0  0  0  0
  -24.5927  -30.7078   25.7870 H   0  0  0  0  0  0
  -24.9005  -32.2921   26.4940 H   0  0  0  0  0  0
  -25.8133  -30.8921   27.0258 H   0  0  0  0  0  0
  -26.2876  -29.6762   24.1212 H   0  0  0  0  0  0
  -27.4029  -29.7229   25.4662 H   0  0  0  0  0  0
  -27.8763  -30.4265   23.9391 H   0  0  0  0  0  0
  -27.2686  -33.3635   26.2051 H   0  0  0  0  0  0
  -28.3931  -32.6793   25.0366 H   0  0  0  0  0  0
  -28.0699  -31.8442   26.5472 H   0  0  0  0  0  0
  -28.2591  -38.0086   24.7519 H   0  0  0  0  0  0
  -28.1041  -36.2614   24.6285 H   0  0  0  0  0  0
  -27.2298  -37.1453   25.8875 H   0  0  0  0  0  0
  -20.9361  -29.8802   21.6936 H   0  0  0  0  0  0
  -26.0132  -38.2843   24.1441 H   0  0  0  0  0  0
  -31.7573  -19.5374   20.9930 H   0  0  0  0  0  0
  -27.9998  -18.0018   19.5453 H   0  0  0  0  0  0
  -30.8896  -21.8297   20.8792 H   0  0  0  0  0  0
  -27.1331  -20.3048   19.4341 H   0  0  0  0  0  0
  -28.9832  -17.0553   22.1685 H   0  0  0  0  0  0
  -29.2573  -15.4139   22.6756 H   0  0  0  0  0  0
  -28.0135  -15.7791   21.4669 H   0  0  0  0  0  0
  -31.5974  -17.2043   20.7264 H   0  0  0  0  0  0
  -30.8524  -16.9670   19.1803 H   0  0  0  0  0  0
  -29.3542  -23.8697   21.2857 H   0  0  0  0  0  0
  -29.9127  -23.8993   19.6128 H   0  0  0  0  0  0
  -27.1305  -24.7838   20.5072 H   0  0  0  0  0  0
  -27.7635  -24.8961   18.8774 H   0  0  0  0  0  0
  1 25  1  0  0  0
  1 30  2  0  0  0
  1 81  1  0  0  0
  2  3  1  0  0  0
  2 25  1  0  0  0
  2 83  1  0  0  0
  2 84  1  0  0  0
  3  4  1  0  0  0
  3 85  1  0  0  0
  3 86  1  0  0  0
  4  5  1  0  0  0
  4 87  1  0  0  0
  4 88  1  0  0  0
  5  6  1  0  0  0
  5 26  1  0  0  0
  5 89  1  0  0  0
  6 25  1  0  0  0
  6 90  1  0  0  0
  6 91  1  0  0  0
  7  8  2  0  0  0
  7 26  1  0  0  0
  7 29  1  0  0  0
  8  9  1  0  0  0
  8 22  1  0  0  0
  9 10  1  0  0  0
  9 27  2  0  0  0
 10 11  2  0  0  0
 10 15  1  0  0  0
 11 12  1  0  0  0
 11 92  1  0  0  0
 12 13  2  0  0  0
 12 93  1  0  0  0
 13 14  1  0  0  0
 13 31  1  0  0  0
 14 15  2  0  0  0
 14 94  1  0  0  0
 15 95  1  0  0  0
 16 17  2  0  0  0
 16 21  1  0  0  0
 16 31  1  0  0  0
 17 18  1  0  0  0
 17 96  1  0  0  0
 18 19  2  0  0  0
 18 97  1  0  0  0
 19 20  1  0  0  0
 19 24  1  0  0  0
 20 21  2  0  0  0
 20 98  1  0  0  0
 21 23  1  0  0  0
 22 28  1  0  0  0
 22 32  2  0  0  0
 26 27  1  0  0  0
 28 99  1  0  0  0
 28100  1  0  0  0
 29101  1  0  0  0
 29102  1  0  0  0
 33 34  1  0  0  0
 33 66  1  0  0  0
 33 70  2  0  0  0
 34 36  1  0  0  0
 34 59  1  0  0  0
 34103  1  0  0  0
 35 44  2  0  0  0
 35 45  1  0  0  0
 35 68  1  0  0  0
 36 56  1  0  0  0
 36104  1  0  0  0
 37 39  1  0  0  0
 37 47  1  0  0  0
 37 66  1  0  0  0
 37105  1  0  0  0
 38 43  2  0  0  0
 38 46  1  0  0  0
 38 47  1  0  0  0
 39 64  1  0  0  0
 39 67  2  0  0  0
 40 52  1  0  0  0
 40 53  2  0  0  0
 40 58  1  0  0  0
 41106  1  0  0  0
 41107  1  0  0  0
 41108  1  0  0  0
 41 48  1  0  0  0
 42 43  1  0  0  0
 42 66  1  0  0  0
 42109  1  0  0  0
 42110  1  0  0  0
 43 44  1  0  0  0
 44111  1  0  0  0
 45 46  2  0  0  0
 45112  1  0  0  0
 46113  1  0  0  0
 47114  1  0  0  0
 47115  1  0  0  0
 48 56  1  0  0  0
 48 65  1  0  0  0
 48116  1  0  0  0
 49 50  1  0  0  0
 49 53  1  0  0  0
 49 64  1  0  0  0
 49117  1  0  0  0
 50 51  1  0  0  0
 50118  1  0  0  0
 50119  1  0  0  0
 51 52  1  0  0  0
 51120  1  0  0  0
 51121  1  0  0  0
 52122  1  0  0  0
 52123  1  0  0  0
 53 54  1  0  0  0
 54 55  2  0  0  0
 54124  1  0  0  0
 55 57  1  0  0  0
 55125  1  0  0  0
 56 69  2  0  0  0
 57 58  2  0  0  0
 57126  1  0  0  0
 58127  1  0  0  0
 59 60  1  0  0  0
 59 61  1  0  0  0
 59 62  1  0  0  0
 60128  1  0  0  0
 60129  1  0  0  0
 60130  1  0  0  0
 61131  1  0  0  0
 61132  1  0  0  0
 61133  1  0  0  0
 62134  1  0  0  0
 62135  1  0  0  0
 62136  1  0  0  0
 63 65  1  0  0  0
 63137  1  0  0  0
 63138  1  0  0  0
 63139  1  0  0  0
 64140  1  0  0  0
 65141  1  0  0  0
 68 80  1  0  0  0
 71 73  2  0  0  0
 71 75  1  0  0  0
 71142  1  0  0  0
 72 74  1  0  0  0
 72 75  2  0  0  0
 72143  1  0  0  0
 73 76  1  0  0  0
 73144  1  0  0  0
 74 76  2  0  0  0
 74145  1  0  0  0
 75 78  1  0  0  0
 76 82  1  0  0  0
 77 81  1  0  0  0
 77146  1  0  0  0
 77147  1  0  0  0
 77148  1  0  0  0
 78 81  1  0  0  0
 78149  1  0  0  0
 78150  1  0  0  0
 79 80  1  0  0  0
 79 82  1  0  0  0
 79151  1  0  0  0
 79152  1  0  0  0
 80153  1  0  0  0
 80154  1  0  0  0
M  ISO  4   1 100  68 101  80 101  81 100
M  END
> <chiral flag>
0

> <version>
0

> <s_m_source_file>
/data/baiqing/PycharmProjects/Reinvent-master-3.2/result/LINK_invent/BTK/process_docking_weight1_custom_product_contain_oxygen_bond_distance_aromatic_linkinvent_7_9_3/rearranged_h_0010.sdf

> <i_m_source_file_index>
63

> <r_mmod_Potential_Energy-OPLS-2005>
201.725250244141

> <r_mmod_Stretch_Energy-OPLS-2005>
82.1855239868164

> <r_mmod_Bend_Energy-OPLS-2005>
172.377166748047

> <r_mmod_Torsional_Energy-OPLS-2005>
242.583190917969

> <r_mmod_Improper_Torsional_Energy-OPLS-2005>
10.8558902740479

> <r_mmod_Van_der_Waal_Energy-OPLS-2005>
161.658981323242

> <r_mmod_Electrostatic_Energy-OPLS-2005>
-314.80859375

> <r_mmod_Solvation_Energy-OPLS-2005>
-200.482284545898

> <b_mmod_Minimization_Converged-OPLS-2005>
0

> <r_mmod_RMS_Derivative-OPLS-2005>
3.26605582237244

$$$$
63
                    3D
 Structure written by MMmdl.
155163  0  0  1  0            999 V2000
  -30.5107  -15.0458   20.3753 C   0  0  0  0  0  0
  -30.4442  -12.6541   19.4990 C   0  0  0  0  0  0
  -29.5289  -12.5253   18.2606 C   0  0  0  0  0  0
  -28.0669  -12.2914   18.6880 C   0  0  0  0  0  0
  -27.6219  -13.2514   19.8217 C   0  0  2  0  0  0
  -28.6634  -13.3335   20.9536 C   0  0  0  0  0  0
  -25.2433  -13.8206   20.5728 C   0  0  0  0  0  0
  -24.1741  -13.0418   20.9223 C   0  0  0  0  0  0
  -24.6356  -11.6899   20.8711 C   0  0  0  0  0  0
  -23.9040  -10.4279   21.0377 C   0  0  0  0  0  0
  -24.3588   -9.4190   21.9147 C   0  0  0  0  0  0
  -23.6267   -8.2224   22.0725 C   0  0  0  0  0  0
  -22.4257   -8.0252   21.3516 C   0  0  0  0  0  0
  -21.9882   -9.0231   20.4625 C   0  0  0  0  0  0
  -22.7213  -10.2116   20.3032 C   0  0  0  0  0  0
  -21.6853   -6.0700   22.5251 C   0  0  0  0  0  0
  -21.4027   -6.5606   23.8187 C   0  0  0  0  0  0
  -21.3676   -5.6755   24.9152 C   0  0  0  0  0  0
  -21.6058   -4.3020   24.7208 C   0  0  0  0  0  0
  -21.8826   -3.8114   23.4320 C   0  0  0  0  0  0
  -21.9188   -4.6935   22.3379 C   0  0  0  0  0  0
  -22.7765  -13.5196   21.1863 C   0  0  0  0  0  0
  -22.1660   -4.2119   21.0957 F   0  0  0  0  0  0
  -21.5634   -3.4509   25.7724 F   0  0  0  0  0  0
  -29.9217  -13.7741   20.3355 N   0  0  0  0  0  0
  -26.2844  -12.9444   20.3185 N   0  0  0  0  0  0
  -25.9283  -11.6556   20.5664 N   0  0  0  0  0  0
  -22.0402  -12.8231   22.0440 N   0  0  0  0  0  0
  -25.4070  -15.1944   20.4230 N   0  0  0  0  0  0
  -31.7319  -15.0682   20.1762 O   0  0  0  0  0  0
  -21.6612   -6.8856   21.4226 O   0  0  0  0  0  0
  -22.3443  -14.5486   20.6671 O   0  0  0  0  0  0
  -24.6489  -31.8407   23.1850 C   0  0  0  0  0  0
  -25.9227  -32.4676   23.8268 C   0  0  1  0  0  0
  -27.2164  -27.0698   20.1326 C   0  0  0  0  0  0
  -25.5948  -33.8495   24.2182 N   0  0  0  0  0  0
  -23.4552  -30.4594   21.5341 C   0  0  2  0  0  0
  -24.9017  -28.8735   20.1092 C   0  0  0  0  0  0
  -22.7587  -29.4546   22.4873 C   0  0  0  0  0  0
  -18.0307  -28.1396   22.8482 C   0  0  0  0  0  0
  -24.1483  -36.7234   23.2651 C   0  0  0  0  0  0
  -26.0186  -30.6853   21.3991 C   0  0  0  0  0  0
  -26.0837  -29.2918   20.7336 C   0  0  0  0  0  0
  -27.2382  -28.4066   20.7294 C   0  0  0  0  0  0
  -26.0047  -26.7733   19.4691 C   0  0  0  0  0  0
  -24.8786  -27.6284   19.4647 C   0  0  0  0  0  0
  -23.6812  -29.7863   20.1545 C   0  0  0  0  0  0
  -25.4126  -36.3042   24.0328 C   0  0  1  0  0  0
  -20.5925  -28.3741   23.1218 C   0  0  2  0  0  0
  -20.6800  -26.9442   22.5398 C   0  0  0  0  0  0
  -19.5768  -26.6380   21.5217 C   0  0  0  0  0  0
  -18.1951  -26.7937   22.1627 C   0  0  0  0  0  0
  -19.1564  -28.8882   23.2841 C   0  0  0  0  0  0
  -18.9485  -30.1478   23.8864 C   0  0  0  0  0  0
  -17.6483  -30.6601   24.0554 C   0  0  0  0  0  0
  -25.9089  -34.9413   23.5078 C   0  0  0  0  0  0
  -16.5375  -29.9092   23.6339 C   0  0  0  0  0  0
  -16.7291  -28.6503   23.0373 C   0  0  0  0  0  0
  -26.4512  -31.6578   25.0752 C   0  0  0  0  0  0
  -25.3655  -31.3801   26.1419 C   0  0  0  0  0  0
  -27.0374  -30.2952   24.6415 C   0  0  0  0  0  0
  -27.6038  -32.4364   25.7513 C   0  0  0  0  0  0
  -27.5593  -37.1779   24.8475 C   0  0  0  0  0  0
  -21.4274  -29.3056   22.3580 N   0  0  0  0  0  0
  -26.4298  -37.3756   23.9420 N   0  0  0  0  0  0
  -24.7281  -31.0181   22.0930 N   0  0  0  0  0  0
  -23.4200  -28.8120   23.3062 O   0  0  0  0  0  0
  -28.2605  -26.0470   20.1711 O   0  0  0  0  0  0
  -26.5691  -34.8916   22.4672 O   0  0  0  0  0  0
  -23.5590  -32.1330   23.7018 O   0  0  0  0  0  0
  -31.6736  -19.4509   21.3045 C   0  0  0  0  0  0
  -31.2968  -18.1188   21.0296 C   0  0  0  0  0  0
  -30.8447  -20.5647   21.0401 C   0  0  0  0  0  0
  -29.2047  -19.0160   20.1906 C   0  0  0  0  0  0
  -30.0391  -17.7882   20.4913 C   0  0  0  0  0  0
  -29.5688  -20.4656   20.4344 C   0  0  0  0  0  0
  -29.2602  -23.5024   21.9072 C   0  0  0  0  0  0
  -30.4280  -23.6320   19.6526 C   0  0  0  0  0  0
  -28.0480  -24.6047   19.9448 C   0  0  2  0  0  0
  -29.1079  -23.3016   20.3890 C   0  0  0  0  0  0
  -29.7271  -16.2618   20.3622 N   0  0  0  0  0  0
  -28.8018  -21.7441   20.1467 N   0  0  0  0  0  0
  -27.8931  -24.4209   18.6089 F   0  0  0  0  0  0
  -31.4707  -12.8331   19.1753 H   0  0  0  0  0  0
  -30.4735  -11.7257   20.0711 H   0  0  0  0  0  0
  -29.8747  -11.7066   17.6263 H   0  0  0  0  0  0
  -29.5964  -13.4311   17.6560 H   0  0  0  0  0  0
  -27.9961  -11.2629   19.0425 H   0  0  0  0  0  0
  -27.3987  -12.3663   17.8302 H   0  0  0  0  0  0
  -27.5656  -14.2371   19.3569 H   0  0  0  0  0  0
  -28.7766  -12.3705   21.4538 H   0  0  0  0  0  0
  -28.3418  -14.0421   21.7176 H   0  0  0  0  0  0
  -25.2740   -9.5679   22.4695 H   0  0  0  0  0  0
  -23.9974   -7.4631   22.7450 H   0  0  0  0  0  0
  -21.0798   -8.8773   19.8928 H   0  0  0  0  0  0
  -22.3670  -10.9650   19.6126 H   0  0  0  0  0  0
  -21.2033   -7.6113   23.9711 H   0  0  0  0  0  0
  -21.1497   -6.0459   25.9061 H   0  0  0  0  0  0
  -22.0594   -2.7567   23.2815 H   0  0  0  0  0  0
  -22.4016  -11.9971   22.4978 H   0  0  0  0  0  0
  -21.1002  -13.1256   22.2556 H   0  0  0  0  0  0
  -24.6378  -15.8419   20.5619 H   0  0  0  0  0  0
  -26.2574  -15.6500   20.1228 H   0  0  0  0  0  0
  -26.7303  -32.5241   23.0994 H   0  0  0  0  0  0
  -25.0014  -33.9603   25.0275 H   0  0  0  0  0  0
  -22.7615  -31.2898   21.3804 H   0  0  0  0  0  0
  -23.3780  -35.9533   23.3315 H   0  0  0  0  0  0
  -24.3563  -36.8862   22.2066 H   0  0  0  0  0  0
  -23.7198  -37.6419   23.6677 H   0  0  0  0  0  0
  -26.1957  -31.4413   20.6326 H   0  0  0  0  0  0
  -26.8794  -30.7251   22.0540 H   0  0  0  0  0  0
  -28.1375  -28.7273   21.2358 H   0  0  0  0  0  0
  -25.8925  -25.8280   18.9586 H   0  0  0  0  0  0
  -23.9789  -27.3041   18.9600 H   0  0  0  0  0  0
  -23.8169  -30.5627   19.4009 H   0  0  0  0  0  0
  -22.7905  -29.2358   19.8464 H   0  0  0  0  0  0
  -25.1314  -36.1892   25.0824 H   0  0  0  0  0  0
  -21.0016  -28.3350   24.1340 H   0  0  0  0  0  0
  -20.5707  -26.2368   23.3631 H   0  0  0  0  0  0
  -21.6670  -26.7461   22.1198 H   0  0  0  0  0  0
  -19.6946  -25.6282   21.1276 H   0  0  0  0  0  0
  -19.6700  -27.3158   20.6721 H   0  0  0  0  0  0
  -17.4228  -26.6675   21.4028 H   0  0  0  0  0  0
  -18.0355  -26.0081   22.9020 H   0  0  0  0  0  0
  -19.7963  -30.7293   24.2236 H   0  0  0  0  0  0
  -17.5041  -31.6279   24.5153 H   0  0  0  0  0  0
  -15.5375  -30.2985   23.7674 H   0  0  0  0  0  0
  -15.8693  -28.0794   22.7135 H   0  0  0  0  0  0
  -24.5808  -30.7191   25.7730 H   0  0  0  0  0  0
  -24.8842  -32.2978   26.4807 H   0  0  0  0  0  0
  -25.7867  -30.8978   27.0242 H   0  0  0  0  0  0
  -26.3009  -29.6668   24.1383 H   0  0  0  0  0  0
  -27.3895  -29.7288   25.5052 H   0  0  0  0  0  0
  -27.8973  -30.4172   23.9818 H   0  0  0  0  0  0
  -27.2635  -33.3684   26.2040 H   0  0  0  0  0  0
  -28.3828  -32.6907   25.0316 H   0  0  0  0  0  0
  -28.0723  -31.8530   26.5445 H   0  0  0  0  0  0
  -28.2618  -38.0073   24.7538 H   0  0  0  0  0  0
  -28.1076  -36.2607   24.6277 H   0  0  0  0  0  0
  -27.2308  -37.1415   25.8877 H   0  0  0  0  0  0
  -20.9520  -29.8700   21.6680 H   0  0  0  0  0  0
  -26.0178  -38.2840   24.1389 H   0  0  0  0  0  0
  -32.6439  -19.6224   21.7472 H   0  0  0  0  0  0
  -32.0017  -17.3374   21.2748 H   0  0  0  0  0  0
  -31.2545  -21.5165   21.3319 H   0  0  0  0  0  0
  -28.2349  -18.8422   19.7485 H   0  0  0  0  0  0
  -29.6173  -24.5086   22.1330 H   0  0  0  0  0  0
  -29.9448  -22.8023   22.3806 H   0  0  0  0  0  0
  -28.2916  -23.3928   22.3987 H   0  0  0  0  0  0
  -30.7050  -24.6786   19.7854 H   0  0  0  0  0  0
  -30.3267  -23.4661   18.5788 H   0  0  0  0  0  0
  -31.2862  -23.0521   19.9743 H   0  0  0  0  0  0
  -27.0957  -24.3459   20.4065 H   0  0  0  0  0  0
  -28.7412  -16.0671   20.2831 H   0  0  0  0  0  0
  -27.8999  -21.6032   19.6953 H   0  0  0  0  0  0
  1 25  1  0  0  0
  1 30  2  0  0  0
  1 81  1  0  0  0
  2  3  1  0  0  0
  2 25  1  0  0  0
  2 84  1  0  0  0
  2 85  1  0  0  0
  3  4  1  0  0  0
  3 86  1  0  0  0
  3 87  1  0  0  0
  4  5  1  0  0  0
  4 88  1  0  0  0
  4 89  1  0  0  0
  5  6  1  0  0  0
  5 26  1  0  0  0
  5 90  1  0  0  0
  6 25  1  0  0  0
  6 91  1  0  0  0
  6 92  1  0  0  0
  7  8  2  0  0  0
  7 26  1  0  0  0
  7 29  1  0  0  0
  8  9  1  0  0  0
  8 22  1  0  0  0
  9 10  1  0  0  0
  9 27  2  0  0  0
 10 11  2  0  0  0
 10 15  1  0  0  0
 11 12  1  0  0  0
 11 93  1  0  0  0
 12 13  2  0  0  0
 12 94  1  0  0  0
 13 14  1  0  0  0
 13 31  1  0  0  0
 14 15  2  0  0  0
 14 95  1  0  0  0
 15 96  1  0  0  0
 16 17  2  0  0  0
 16 21  1  0  0  0
 16 31  1  0  0  0
 17 18  1  0  0  0
 17 97  1  0  0  0
 18 19  2  0  0  0
 18 98  1  0  0  0
 19 20  1  0  0  0
 19 24  1  0  0  0
 20 21  2  0  0  0
 20 99  1  0  0  0
 21 23  1  0  0  0
 22 28  1  0  0  0
 22 32  2  0  0  0
 26 27  1  0  0  0
 28100  1  0  0  0
 28101  1  0  0  0
 29102  1  0  0  0
 29103  1  0  0  0
 33 34  1  0  0  0
 33 66  1  0  0  0
 33 70  2  0  0  0
 34 36  1  0  0  0
 34 59  1  0  0  0
 34104  1  0  0  0
 35 44  2  0  0  0
 35 45  1  0  0  0
 35 68  1  0  0  0
 36 56  1  0  0  0
 36105  1  0  0  0
 37 39  1  0  0  0
 37 47  1  0  0  0
 37 66  1  0  0  0
 37106  1  0  0  0
 38 43  2  0  0  0
 38 46  1  0  0  0
 38 47  1  0  0  0
 39 64  1  0  0  0
 39 67  2  0  0  0
 40 52  1  0  0  0
 40 53  2  0  0  0
 40 58  1  0  0  0
 41107  1  0  0  0
 41108  1  0  0  0
 41109  1  0  0  0
 41 48  1  0  0  0
 42 43  1  0  0  0
 42 66  1  0  0  0
 42110  1  0  0  0
 42111  1  0  0  0
 43 44  1  0  0  0
 44112  1  0  0  0
 45 46  2  0  0  0
 45113  1  0  0  0
 46114  1  0  0  0
 47115  1  0  0  0
 47116  1  0  0  0
 48 56  1  0  0  0
 48 65  1  0  0  0
 48117  1  0  0  0
 49 50  1  0  0  0
 49 53  1  0  0  0
 49 64  1  0  0  0
 49118  1  0  0  0
 50 51  1  0  0  0
 50119  1  0  0  0
 50120  1  0  0  0
 51 52  1  0  0  0
 51121  1  0  0  0
 51122  1  0  0  0
 52123  1  0  0  0
 52124  1  0  0  0
 53 54  1  0  0  0
 54 55  2  0  0  0
 54125  1  0  0  0
 55 57  1  0  0  0
 55126  1  0  0  0
 56 69  2  0  0  0
 57 58  2  0  0  0
 57127  1  0  0  0
 58128  1  0  0  0
 59 60  1  0  0  0
 59 61  1  0  0  0
 59 62  1  0  0  0
 60129  1  0  0  0
 60130  1  0  0  0
 60131  1  0  0  0
 61132  1  0  0  0
 61133  1  0  0  0
 61134  1  0  0  0
 62135  1  0  0  0
 62136  1  0  0  0
 62137  1  0  0  0
 63 65  1  0  0  0
 63138  1  0  0  0
 63139  1  0  0  0
 63140  1  0  0  0
 64141  1  0  0  0
 65142  1  0  0  0
 68 79  1  0  0  0
 71 72  2  0  0  0
 71 73  1  0  0  0
 71143  1  0  0  0
 72 75  1  0  0  0
 72144  1  0  0  0
 73 76  2  0  0  0
 73145  1  0  0  0
 74 75  2  0  0  0
 74 76  1  0  0  0
 74146  1  0  0  0
 75 81  1  0  0  0
 76 82  1  0  0  0
 77147  1  0  0  0
 77148  1  0  0  0
 77149  1  0  0  0
 77 80  1  0  0  0
 78 80  1  0  0  0
 78150  1  0  0  0
 78151  1  0  0  0
 78152  1  0  0  0
 79 80  1  0  0  0
 79 83  1  0  0  0
 79153  1  0  0  0
 80 82  1  0  0  0
 81154  1  0  0  0
 82155  1  0  0  0
M  ISO  4   1 100  68 101  79 101  81 100
M  END
> <chiral flag>
0

> <version>
0

> <s_m_source_file>
/data/baiqing/PycharmProjects/Reinvent-master-3.2/result/LINK_invent/BTK/process_docking_weight1_custom_product_contain_oxygen_bond_distance_aromatic_linkinvent_7_9_3/rearranged_h_0010.sdf

> <i_m_source_file_index>
64

> <r_mmod_Potential_Energy-OPLS-2005>
674.361145019531

> <r_mmod_Stretch_Energy-OPLS-2005>
343.913696289062

> <r_mmod_Bend_Energy-OPLS-2005>
298.431915283203

> <r_mmod_Torsional_Energy-OPLS-2005>
198.340042114258

> <r_mmod_Improper_Torsional_Energy-OPLS-2005>
6.15165328979492

> <r_mmod_Van_der_Waal_Energy-OPLS-2005>
136.729583740234

> <r_mmod_Electrostatic_Energy-OPLS-2005>
-360.850738525391

> <r_mmod_Solvation_Energy-OPLS-2005>
-210.300155639648

> <b_mmod_Minimization_Converged-OPLS-2005>
0

> <r_mmod_RMS_Derivative-OPLS-2005>
3.41393446922302

$$$$
64
                    3D
 Structure written by MMmdl.
148156  0  0  1  0            999 V2000
  -30.5240  -15.0305   20.4080 C   0  0  0  0  0  0
  -30.4388  -12.6434   19.5039 C   0  0  0  0  0  0
  -29.5241  -12.5382   18.2615 C   0  0  0  0  0  0
  -28.0611  -12.3094   18.6833 C   0  0  0  0  0  0
  -27.6239  -13.2560   19.8317 C   0  0  2  0  0  0
  -28.6662  -13.3282   20.9679 C   0  0  0  0  0  0
  -25.2436  -13.8226   20.5719 C   0  0  0  0  0  0
  -24.1766  -13.0438   20.9240 C   0  0  0  0  0  0
  -24.6398  -11.6927   20.8759 C   0  0  0  0  0  0
  -23.9084  -10.4295   21.0409 C   0  0  0  0  0  0
  -24.3631   -9.4207   21.9185 C   0  0  0  0  0  0
  -23.6303   -8.2243   22.0753 C   0  0  0  0  0  0
  -22.4285   -8.0283   21.3543 C   0  0  0  0  0  0
  -21.9923   -9.0259   20.4645 C   0  0  0  0  0  0
  -22.7256  -10.2137   20.3057 C   0  0  0  0  0  0
  -21.6856   -6.0739   22.5279 C   0  0  0  0  0  0
  -21.4018   -6.5641   23.8213 C   0  0  0  0  0  0
  -21.3662   -5.6791   24.9174 C   0  0  0  0  0  0
  -21.6044   -4.3055   24.7223 C   0  0  0  0  0  0
  -21.8818   -3.8149   23.4344 C   0  0  0  0  0  0
  -21.9192   -4.6966   22.3401 C   0  0  0  0  0  0
  -22.7785  -13.5205   21.1888 C   0  0  0  0  0  0
  -22.1660   -4.2151   21.0978 F   0  0  0  0  0  0
  -21.5627   -3.4538   25.7735 F   0  0  0  0  0  0
  -29.9295  -13.7618   20.3567 N   0  0  0  0  0  0
  -26.2865  -12.9473   20.3232 N   0  0  0  0  0  0
  -25.9331  -11.6594   20.5736 N   0  0  0  0  0  0
  -22.0433  -12.8198   22.0443 N   0  0  0  0  0  0
  -25.4064  -15.1959   20.4136 N   0  0  0  0  0  0
  -31.7335  -15.0529   20.1555 O   0  0  0  0  0  0
  -21.6643   -6.8884   21.4242 O   0  0  0  0  0  0
  -22.3469  -14.5507   20.6724 O   0  0  0  0  0  0
  -24.6492  -31.8381   23.1829 C   0  0  0  0  0  0
  -25.9237  -32.4663   23.8243 C   0  0  1  0  0  0
  -27.2164  -27.0776   20.1596 C   0  0  0  0  0  0
  -25.5959  -33.8471   24.2159 N   0  0  0  0  0  0
  -23.4562  -30.4557   21.5292 C   0  0  2  0  0  0
  -24.9063  -28.8709   20.1101 C   0  0  0  0  0  0
  -22.7598  -29.4520   22.4832 C   0  0  0  0  0  0
  -18.0310  -28.1396   22.8474 C   0  0  0  0  0  0
  -24.1493  -36.7245   23.2644 C   0  0  0  0  0  0
  -26.0161  -30.6930   21.3903 C   0  0  0  0  0  0
  -26.0859  -29.2984   20.7325 C   0  0  0  0  0  0
  -27.2407  -28.4193   20.7371 C   0  0  0  0  0  0
  -26.0099  -26.7659   19.4951 C   0  0  0  0  0  0
  -24.8847  -27.6207   19.4741 C   0  0  0  0  0  0
  -23.6864  -29.7811   20.1504 C   0  0  0  0  0  0
  -25.4127  -36.3016   24.0313 C   0  0  1  0  0  0
  -20.5927  -28.3732   23.1218 C   0  0  2  0  0  0
  -20.6792  -26.9428   22.5400 C   0  0  0  0  0  0
  -19.5764  -26.6378   21.5212 C   0  0  0  0  0  0
  -18.1947  -26.7932   22.1625 C   0  0  0  0  0  0
  -19.1567  -28.8883   23.2837 C   0  0  0  0  0  0
  -18.9482  -30.1476   23.8868 C   0  0  0  0  0  0
  -17.6477  -30.6592   24.0557 C   0  0  0  0  0  0
  -25.9081  -34.9391   23.5050 C   0  0  0  0  0  0
  -16.5368  -29.9083   23.6334 C   0  0  0  0  0  0
  -16.7293  -28.6501   23.0358 C   0  0  0  0  0  0
  -26.4535  -31.6552   25.0710 C   0  0  0  0  0  0
  -25.3706  -31.3754   26.1396 C   0  0  0  0  0  0
  -27.0409  -30.2939   24.6334 C   0  0  0  0  0  0
  -27.6053  -32.4331   25.7502 C   0  0  0  0  0  0
  -27.5576  -37.1780   24.8465 C   0  0  0  0  0  0
  -21.4283  -29.3050   22.3583 N   0  0  0  0  0  0
  -26.4286  -37.3735   23.9408 N   0  0  0  0  0  0
  -24.7275  -31.0185   22.0889 N   0  0  0  0  0  0
  -23.4213  -28.8073   23.3010 O   0  0  0  0  0  0
  -28.2520  -26.0563   20.2356 O   0  0  0  0  0  0
  -26.5675  -34.8901   22.4635 O   0  0  0  0  0  0
  -23.5596  -32.1281   23.7015 O   0  0  0  0  0  0
  -30.7406  -20.6194   20.9635 C   0  0  0  0  0  0
  -31.6109  -19.5512   21.2807 C   0  0  0  0  0  0
  -30.0302  -17.7697   20.5871 C   0  0  0  0  0  0
  -29.4436  -20.4045   20.4560 C   0  0  0  0  0  0
  -31.2778  -18.1857   21.1167 C   0  0  0  0  0  0
  -29.1279  -18.9372   20.2810 C   0  0  0  0  0  0
  -27.9699  -24.5035   20.0727 C   0  0  0  0  0  0
  -28.9560  -23.1230   20.3820 C   0  0  0  0  0  0
  -29.7387  -16.2378   20.4764 N   0  0  0  0  0  0
  -28.6004  -21.5968   20.1804 O   0  0  0  0  0  0
  -32.1866  -17.2745   21.5338 F   0  0  0  0  0  0
  -27.8981  -18.6321   19.7996 F   0  0  0  0  0  0
  -31.4700  -12.8073   19.1873 H   0  0  0  0  0  0
  -30.4468  -11.7052   20.0611 H   0  0  0  0  0  0
  -29.8589  -11.7291   17.6108 H   0  0  0  0  0  0
  -29.5973  -13.4552   17.6747 H   0  0  0  0  0  0
  -27.9740  -11.2726   19.0104 H   0  0  0  0  0  0
  -27.3960  -12.4153   17.8254 H   0  0  0  0  0  0
  -27.5719  -14.2479   19.3819 H   0  0  0  0  0  0
  -28.7745  -12.3653   21.4692 H   0  0  0  0  0  0
  -28.3516  -14.0426   21.7304 H   0  0  0  0  0  0
  -25.2773   -9.5684   22.4764 H   0  0  0  0  0  0
  -24.0008   -7.4636   22.7478 H   0  0  0  0  0  0
  -21.0852   -8.8787   19.8954 H   0  0  0  0  0  0
  -22.3716  -10.9678   19.6169 H   0  0  0  0  0  0
  -21.2014   -7.6149   23.9719 H   0  0  0  0  0  0
  -21.1484   -6.0520   25.9077 H   0  0  0  0  0  0
  -22.0595   -2.7610   23.2842 H   0  0  0  0  0  0
  -22.4059  -11.9874   22.4851 H   0  0  0  0  0  0
  -21.1045  -13.1215   22.2633 H   0  0  0  0  0  0
  -24.6312  -15.8406   20.5233 H   0  0  0  0  0  0
  -26.2401  -15.6428   20.0560 H   0  0  0  0  0  0
  -26.7305  -32.5248   23.0968 H   0  0  0  0  0  0
  -25.0073  -33.9572   25.0285 H   0  0  0  0  0  0
  -22.7622  -31.2836   21.3699 H   0  0  0  0  0  0
  -23.3761  -35.9570   23.3286 H   0  0  0  0  0  0
  -24.3578  -36.8900   22.2063 H   0  0  0  0  0  0
  -23.7243  -37.6431   23.6698 H   0  0  0  0  0  0
  -26.1792  -31.4436   20.6156 H   0  0  0  0  0  0
  -26.8838  -30.7446   22.0363 H   0  0  0  0  0  0
  -28.1375  -28.7415   21.2478 H   0  0  0  0  0  0
  -25.9019  -25.8102   19.0047 H   0  0  0  0  0  0
  -23.9858  -27.2889   18.9728 H   0  0  0  0  0  0
  -23.8299  -30.5537   19.3941 H   0  0  0  0  0  0
  -22.7995  -29.2276   19.8370 H   0  0  0  0  0  0
  -25.1318  -36.1837   25.0805 H   0  0  0  0  0  0
  -21.0020  -28.3327   24.1339 H   0  0  0  0  0  0
  -20.5681  -26.2349   23.3627 H   0  0  0  0  0  0
  -21.6657  -26.7423   22.1201 H   0  0  0  0  0  0
  -19.6925  -25.6282   21.1261 H   0  0  0  0  0  0
  -19.6697  -27.3172   20.6729 H   0  0  0  0  0  0
  -17.4215  -26.6672   21.4031 H   0  0  0  0  0  0
  -18.0350  -26.0081   22.9029 H   0  0  0  0  0  0
  -19.7958  -30.7297   24.2226 H   0  0  0  0  0  0
  -17.5030  -31.6268   24.5166 H   0  0  0  0  0  0
  -15.5368  -30.2977   23.7671 H   0  0  0  0  0  0
  -15.8695  -28.0809   22.7091 H   0  0  0  0  0  0
  -24.5891  -30.7097   25.7713 H   0  0  0  0  0  0
  -24.8890  -32.2939   26.4759 H   0  0  0  0  0  0
  -25.7979  -30.8964   27.0215 H   0  0  0  0  0  0
  -26.3038  -29.6645   24.1334 H   0  0  0  0  0  0
  -27.3991  -29.7258   25.4930 H   0  0  0  0  0  0
  -27.8961  -30.4155   23.9682 H   0  0  0  0  0  0
  -27.2636  -33.3655   26.2006 H   0  0  0  0  0  0
  -28.3902  -32.6853   25.0360 H   0  0  0  0  0  0
  -28.0678  -31.8506   26.5479 H   0  0  0  0  0  0
  -28.2581  -38.0087   24.7515 H   0  0  0  0  0  0
  -28.1084  -36.2616   24.6290 H   0  0  0  0  0  0
  -27.2292  -37.1425   25.8867 H   0  0  0  0  0  0
  -20.9506  -29.8760   21.6750 H   0  0  0  0  0  0
  -26.0147  -38.2800   24.1408 H   0  0  0  0  0  0
  -31.0921  -21.6253   21.1353 H   0  0  0  0  0  0
  -32.5822  -19.7889   21.6895 H   0  0  0  0  0  0
  -27.0593  -24.3308   20.6468 H   0  0  0  0  0  0
  -27.6641  -24.3918   19.0327 H   0  0  0  0  0  0
  -29.2643  -23.2070   21.4241 H   0  0  0  0  0  0
  -29.8706  -23.2777   19.8092 H   0  0  0  0  0  0
  -28.7516  -16.0385   20.4556 H   0  0  0  0  0  0
  1 25  1  0  0  0
  1 30  2  0  0  0
  1 79  1  0  0  0
  2  3  1  0  0  0
  2 25  1  0  0  0
  2 83  1  0  0  0
  2 84  1  0  0  0
  3  4  1  0  0  0
  3 85  1  0  0  0
  3 86  1  0  0  0
  4  5  1  0  0  0
  4 87  1  0  0  0
  4 88  1  0  0  0
  5  6  1  0  0  0
  5 26  1  0  0  0
  5 89  1  0  0  0
  6 25  1  0  0  0
  6 90  1  0  0  0
  6 91  1  0  0  0
  7  8  2  0  0  0
  7 26  1  0  0  0
  7 29  1  0  0  0
  8  9  1  0  0  0
  8 22  1  0  0  0
  9 10  1  0  0  0
  9 27  2  0  0  0
 10 11  2  0  0  0
 10 15  1  0  0  0
 11 12  1  0  0  0
 11 92  1  0  0  0
 12 13  2  0  0  0
 12 93  1  0  0  0
 13 14  1  0  0  0
 13 31  1  0  0  0
 14 15  2  0  0  0
 14 94  1  0  0  0
 15 95  1  0  0  0
 16 17  2  0  0  0
 16 21  1  0  0  0
 16 31  1  0  0  0
 17 18  1  0  0  0
 17 96  1  0  0  0
 18 19  2  0  0  0
 18 97  1  0  0  0
 19 20  1  0  0  0
 19 24  1  0  0  0
 20 21  2  0  0  0
 20 98  1  0  0  0
 21 23  1  0  0  0
 22 28  1  0  0  0
 22 32  2  0  0  0
 26 27  1  0  0  0
 28 99  1  0  0  0
 28100  1  0  0  0
 29101  1  0  0  0
 29102  1  0  0  0
 33 34  1  0  0  0
 33 66  1  0  0  0
 33 70  2  0  0  0
 34 36  1  0  0  0
 34 59  1  0  0  0
 34103  1  0  0  0
 35 44  2  0  0  0
 35 45  1  0  0  0
 35 68  1  0  0  0
 36 56  1  0  0  0
 36104  1  0  0  0
 37 39  1  0  0  0
 37 47  1  0  0  0
 37 66  1  0  0  0
 37105  1  0  0  0
 38 43  2  0  0  0
 38 46  1  0  0  0
 38 47  1  0  0  0
 39 64  1  0  0  0
 39 67  2  0  0  0
 40 52  1  0  0  0
 40 53  2  0  0  0
 40 58  1  0  0  0
 41106  1  0  0  0
 41107  1  0  0  0
 41108  1  0  0  0
 41 48  1  0  0  0
 42 43  1  0  0  0
 42 66  1  0  0  0
 42109  1  0  0  0
 42110  1  0  0  0
 43 44  1  0  0  0
 44111  1  0  0  0
 45 46  2  0  0  0
 45112  1  0  0  0
 46113  1  0  0  0
 47114  1  0  0  0
 47115  1  0  0  0
 48 56  1  0  0  0
 48 65  1  0  0  0
 48116  1  0  0  0
 49 50  1  0  0  0
 49 53  1  0  0  0
 49 64  1  0  0  0
 49117  1  0  0  0
 50 51  1  0  0  0
 50118  1  0  0  0
 50119  1  0  0  0
 51 52  1  0  0  0
 51120  1  0  0  0
 51121  1  0  0  0
 52122  1  0  0  0
 52123  1  0  0  0
 53 54  1  0  0  0
 54 55  2  0  0  0
 54124  1  0  0  0
 55 57  1  0  0  0
 55125  1  0  0  0
 56 69  2  0  0  0
 57 58  2  0  0  0
 57126  1  0  0  0
 58127  1  0  0  0
 59 60  1  0  0  0
 59 61  1  0  0  0
 59 62  1  0  0  0
 60128  1  0  0  0
 60129  1  0  0  0
 60130  1  0  0  0
 61131  1  0  0  0
 61132  1  0  0  0
 61133  1  0  0  0
 62134  1  0  0  0
 62135  1  0  0  0
 62136  1  0  0  0
 63 65  1  0  0  0
 63137  1  0  0  0
 63138  1  0  0  0
 63139  1  0  0  0
 64140  1  0  0  0
 65141  1  0  0  0
 68 77  1  0  0  0
 71 72  2  0  0  0
 71 74  1  0  0  0
 71142  1  0  0  0
 72 75  1  0  0  0
 72143  1  0  0  0
 73 75  2  0  0  0
 73 76  1  0  0  0
 73 79  1  0  0  0
 74 76  2  0  0  0
 74 80  1  0  0  0
 75 81  1  0  0  0
 76 82  1  0  0  0
 77 78  1  0  0  0
 77144  1  0  0  0
 77145  1  0  0  0
 78 80  1  0  0  0
 78146  1  0  0  0
 78147  1  0  0  0
 79148  1  0  0  0
M  ISO  4   1 100  68 101  77 101  79 100
M  END
> <chiral flag>
0

> <version>
0

> <s_m_source_file>
/data/baiqing/PycharmProjects/Reinvent-master-3.2/result/LINK_invent/BTK/process_docking_weight1_custom_product_contain_oxygen_bond_distance_aromatic_linkinvent_7_9_3/rearranged_h_0010.sdf

> <i_m_source_file_index>
65

> <r_mmod_Potential_Energy-OPLS-2005>
607.976867675781

> <r_mmod_Stretch_Energy-OPLS-2005>
333.83203125

> <r_mmod_Bend_Energy-OPLS-2005>
282.001831054688

> <r_mmod_Torsional_Energy-OPLS-2005>
213.207305908203

> <r_mmod_Improper_Torsional_Energy-OPLS-2005>
6.25095129013062

> <r_mmod_Van_der_Waal_Energy-OPLS-2005>
133.498718261719

> <r_mmod_Electrostatic_Energy-OPLS-2005>
-397.152160644531

> <r_mmod_Solvation_Energy-OPLS-2005>
-214.874771118164

> <b_mmod_Minimization_Converged-OPLS-2005>
0

> <r_mmod_RMS_Derivative-OPLS-2005>
0.44061478972435

$$$$
65
                    3D
 Structure written by MMmdl.
155163  0  0  1  0            999 V2000
  -30.2002  -15.4655   20.0935 C   0  0  0  0  0  0
  -30.4159  -12.9981   19.4382 C   0  0  0  0  0  0
  -29.5180  -12.5543   18.2661 C   0  0  0  0  0  0
  -28.1049  -12.2101   18.7661 C   0  0  0  0  0  0
  -27.5660  -13.2600   19.7650 C   0  0  2  0  0  0
  -28.5761  -13.6016   20.8645 C   0  0  0  0  0  0
  -25.2274  -13.8187   20.5766 C   0  0  0  0  0  0
  -24.1639  -13.0372   20.9320 C   0  0  0  0  0  0
  -24.6292  -11.6891   20.8796 C   0  0  0  0  0  0
  -23.9024  -10.4264   21.0434 C   0  0  0  0  0  0
  -24.3602   -9.4177   21.9199 C   0  0  0  0  0  0
  -23.6280   -8.2205   22.0763 C   0  0  0  0  0  0
  -22.4261   -8.0255   21.3548 C   0  0  0  0  0  0
  -21.9888   -9.0220   20.4645 C   0  0  0  0  0  0
  -22.7213  -10.2103   20.3061 C   0  0  0  0  0  0
  -21.6845   -6.0719   22.5282 C   0  0  0  0  0  0
  -21.4005   -6.5628   23.8213 C   0  0  0  0  0  0
  -21.3660   -5.6783   24.9177 C   0  0  0  0  0  0
  -21.6047   -4.3048   24.7231 C   0  0  0  0  0  0
  -21.8817   -3.8137   23.4356 C   0  0  0  0  0  0
  -21.9189   -4.6947   22.3409 C   0  0  0  0  0  0
  -22.7681  -13.5158   21.1969 C   0  0  0  0  0  0
  -22.1658   -4.2135   21.0985 F   0  0  0  0  0  0
  -21.5633   -3.4537   25.7746 F   0  0  0  0  0  0
  -29.7452  -14.1394   20.1543 N   0  0  0  0  0  0
  -26.2594  -12.9407   20.3021 N   0  0  0  0  0  0
  -25.9184  -11.6535   20.5626 N   0  0  0  0  0  0
  -22.0328  -12.8135   22.0523 N   0  0  0  0  0  0
  -25.3875  -15.1924   20.4280 N   0  0  0  0  0  0
  -31.4335  -15.5230   20.0639 O   0  0  0  0  0  0
  -21.6632   -6.8856   21.4241 O   0  0  0  0  0  0
  -22.3376  -14.5462   20.6810 O   0  0  0  0  0  0
  -24.6075  -31.9156   23.2404 C   0  0  0  0  0  0
  -25.9011  -32.4908   23.8608 C   0  0  1  0  0  0
  -27.0425  -27.7251   20.0319 C   0  0  0  0  0  0
  -25.5767  -33.8723   24.2464 N   0  0  0  0  0  0
  -23.3018  -30.5992   21.6082 C   0  0  2  0  0  0
  -24.6199  -29.1220   20.1721 C   0  0  0  0  0  0
  -22.7292  -29.5043   22.5013 C   0  0  0  0  0  0
  -18.0252  -28.1342   22.8648 C   0  0  0  0  0  0
  -24.1350  -36.7233   23.2647 C   0  0  0  0  0  0
  -25.7123  -31.0601   21.2371 C   0  0  0  0  0  0
  -25.7952  -29.6942   20.7282 C   0  0  0  0  0  0
  -26.9691  -28.9717   20.6471 C   0  0  0  0  0  0
  -25.8426  -26.9846   19.9455 C   0  0  0  0  0  0
  -24.6453  -27.6940   19.8106 C   0  0  0  0  0  0
  -23.4009  -30.0356   20.2309 C   0  0  0  0  0  0
  -25.4042  -36.3174   24.0342 C   0  0  1  0  0  0
  -20.5848  -28.3583   23.1441 C   0  0  2  0  0  0
  -20.6613  -26.9307   22.5558 C   0  0  0  0  0  0
  -19.5642  -26.6346   21.5377 C   0  0  0  0  0  0
  -18.1859  -26.7929   22.1736 C   0  0  0  0  0  0
  -19.1487  -28.8797   23.3079 C   0  0  0  0  0  0
  -18.9321  -30.1351   23.9169 C   0  0  0  0  0  0
  -17.6315  -30.6562   24.0589 C   0  0  0  0  0  0
  -25.9068  -34.9535   23.5251 C   0  0  0  0  0  0
  -16.5237  -29.9083   23.6132 C   0  0  0  0  0  0
  -16.7225  -28.6435   23.0305 C   0  0  0  0  0  0
  -26.4453  -31.6635   25.0734 C   0  0  0  0  0  0
  -25.4031  -31.3528   26.1632 C   0  0  0  0  0  0
  -27.0099  -30.3193   24.5615 C   0  0  0  0  0  0
  -27.6171  -32.4333   25.7383 C   0  0  0  0  0  0
  -27.5586  -37.1719   24.8459 C   0  0  0  0  0  0
  -21.4201  -29.3190   22.4182 N   0  0  0  0  0  0
  -26.4263  -37.3926   23.9437 N   0  0  0  0  0  0
  -24.5789  -31.1865   22.1017 N   0  0  0  0  0  0
  -23.4212  -28.7699   23.1912 O   0  0  0  0  0  0
  -28.2967  -27.2081   20.2006 O   0  0  0  0  0  0
  -26.5760  -34.9018   22.4861 O   0  0  0  0  0  0
  -23.5469  -32.1706   23.7970 O   0  0  0  0  0  0
  -29.7229  -20.9290   19.0202 C   0  0  0  0  0  0
  -29.4417  -22.2954   18.6782 C   0  0  0  0  0  0
  -27.1397  -21.8258   18.6922 C   0  0  0  0  0  0
  -28.7692  -19.8481   19.2234 C   0  0  0  0  0  0
  -28.1592  -22.8260   18.4537 C   0  0  0  0  0  0
  -27.4059  -20.4158   19.0589 C   0  0  0  0  0  0
  -27.8315  -24.6151   16.5755 C   0  0  0  0  0  0
  -29.5463  -18.3060   19.5462 C   0  0  0  0  0  0
  -27.9970  -25.4387   18.5840 C   0  0  0  0  0  0
  -28.5800  -25.8439   19.8165 C   0  0  0  0  0  0
  -29.3278  -16.6603   19.8550 N   0  0  0  0  0  0
  -28.1052  -24.2048   17.9374 N   0  0  0  0  0  0
  -26.3118  -19.6726   19.2730 F   0  0  0  0  0  0
  -31.3617  -13.3381   19.0140 H   0  0  0  0  0  0
  -30.6556  -12.2004   20.1380 H   0  0  0  0  0  0
  -29.9671  -11.7001   17.7664 H   0  0  0  0  0  0
  -29.4510  -13.3520   17.5218 H   0  0  0  0  0  0
  -28.1791  -11.2485   19.2751 H   0  0  0  0  0  0
  -27.4186  -12.0626   17.9277 H   0  0  0  0  0  0
  -27.4157  -14.1585   19.1600 H   0  0  0  0  0  0
  -28.8284  -12.7604   21.5071 H   0  0  0  0  0  0
  -28.1581  -14.3823   21.5003 H   0  0  0  0  0  0
  -25.2742   -9.5666   22.4774 H   0  0  0  0  0  0
  -23.9993   -7.4605   22.7476 H   0  0  0  0  0  0
  -21.0830   -8.8736   19.8953 H   0  0  0  0  0  0
  -22.3672  -10.9644   19.6181 H   0  0  0  0  0  0
  -21.1991   -7.6137   23.9712 H   0  0  0  0  0  0
  -21.1486   -6.0519   25.9083 H   0  0  0  0  0  0
  -22.0599   -2.7598   23.2861 H   0  0  0  0  0  0
  -22.3954  -11.9809   22.4910 H   0  0  0  0  0  0
  -21.0933  -13.1141   22.2711 H   0  0  0  0  0  0
  -24.6158  -15.8354   20.5671 H   0  0  0  0  0  0
  -26.2253  -15.6520   20.1000 H   0  0  0  0  0  0
  -26.7159  -32.5673   23.1663 H   0  0  0  0  0  0
  -24.9321  -34.0184   25.0045 H   0  0  0  0  0  0
  -22.5746  -31.3940   21.6053 H   0  0  0  0  0  0
  -23.3930  -35.9269   23.3110 H   0  0  0  0  0  0
  -24.3464  -36.9129   22.2137 H   0  0  0  0  0  0
  -23.6792  -37.6149   23.6902 H   0  0  0  0  0  0
  -25.5685  -31.7207   20.3661 H   0  0  0  0  0  0
  -26.6969  -31.2915   21.6067 H   0  0  0  0  0  0
  -27.9169  -29.4700   20.9842 H   0  0  0  0  0  0
  -25.7244  -25.9009   20.0099 H   0  0  0  0  0  0
  -23.7169  -27.1900   19.6189 H   0  0  0  0  0  0
  -23.5118  -30.8637   19.5974 H   0  0  0  0  0  0
  -22.4612  -29.5632   19.9110 H   0  0  0  0  0  0
  -25.1244  -36.2135   25.0887 H   0  0  0  0  0  0
  -20.9821  -28.3078   24.1638 H   0  0  0  0  0  0
  -20.5303  -26.2422   23.3878 H   0  0  0  0  0  0
  -21.6554  -26.7185   22.1529 H   0  0  0  0  0  0
  -19.6773  -25.6284   21.1327 H   0  0  0  0  0  0
  -19.6439  -27.3254   20.7028 H   0  0  0  0  0  0
  -17.4170  -26.6882   21.4009 H   0  0  0  0  0  0
  -17.9992  -25.9922   22.8942 H   0  0  0  0  0  0
  -19.7658  -30.7133   24.2814 H   0  0  0  0  0  0
  -17.4726  -31.6323   24.5123 H   0  0  0  0  0  0
  -15.5168  -30.3049   23.7289 H   0  0  0  0  0  0
  -15.8660  -28.0813   22.6897 H   0  0  0  0  0  0
  -24.6411  -30.6526   25.8226 H   0  0  0  0  0  0
  -24.8936  -32.2489   26.5230 H   0  0  0  0  0  0
  -25.8741  -30.8926   27.0312 H   0  0  0  0  0  0
  -26.2283  -29.6740   24.1705 H   0  0  0  0  0  0
  -27.5141  -29.7476   25.3399 H   0  0  0  0  0  0
  -27.7158  -30.4649   23.7497 H   0  0  0  0  0  0
  -27.2946  -33.3868   26.1625 H   0  0  0  0  0  0
  -28.4052  -32.6530   25.0142 H   0  0  0  0  0  0
  -28.0776  -31.8722   26.5565 H   0  0  0  0  0  0
  -28.2556  -38.0062   24.7710 H   0  0  0  0  0  0
  -28.1091  -36.2640   24.6022 H   0  0  0  0  0  0
  -27.2275  -37.1025   25.8829 H   0  0  0  0  0  0
  -20.9350  -29.9184   21.7896 H   0  0  0  0  0  0
  -26.0167  -38.2962   24.1640 H   0  0  0  0  0  0
  -30.7548  -20.7341   19.1187 H   0  0  0  0  0  0
  -30.2511  -23.0019   18.5518 H   0  0  0  0  0  0
  -26.1252  -22.2106   18.6010 H   0  0  0  0  0  0
  -27.9201  -23.7853   15.8361 H   0  0  0  0  0  0
  -28.5390  -25.3663   16.2363 H   0  0  0  0  0  0
  -26.8710  -25.1021   16.4970 H   0  0  0  0  0  0
  -30.1886  -18.6344   20.3583 H   0  0  0  0  0  0
  -30.1752  -18.2897   18.6568 H   0  0  0  0  0  0
  -28.2649  -26.2742   17.9314 H   0  0  0  0  0  0
  -26.9357  -25.4070   18.7019 H   0  0  0  0  0  0
  -28.1379  -25.3710   20.6984 H   0  0  0  0  0  0
  -29.6283  -26.0774   19.8616 H   0  0  0  0  0  0
  -28.3327  -16.4486   19.8067 H   0  0  0  0  0  0
  1 25  1  0  0  0
  1 30  2  0  0  0
  1 81  1  0  0  0
  2  3  1  0  0  0
  2 25  1  0  0  0
  2 84  1  0  0  0
  2 85  1  0  0  0
  3  4  1  0  0  0
  3 86  1  0  0  0
  3 87  1  0  0  0
  4  5  1  0  0  0
  4 88  1  0  0  0
  4 89  1  0  0  0
  5  6  1  0  0  0
  5 26  1  0  0  0
  5 90  1  0  0  0
  6 25  1  0  0  0
  6 91  1  0  0  0
  6 92  1  0  0  0
  7  8  2  0  0  0
  7 26  1  0  0  0
  7 29  1  0  0  0
  8  9  1  0  0  0
  8 22  1  0  0  0
  9 10  1  0  0  0
  9 27  2  0  0  0
 10 11  2  0  0  0
 10 15  1  0  0  0
 11 12  1  0  0  0
 11 93  1  0  0  0
 12 13  2  0  0  0
 12 94  1  0  0  0
 13 14  1  0  0  0
 13 31  1  0  0  0
 14 15  2  0  0  0
 14 95  1  0  0  0
 15 96  1  0  0  0
 16 17  2  0  0  0
 16 21  1  0  0  0
 16 31  1  0  0  0
 17 18  1  0  0  0
 17 97  1  0  0  0
 18 19  2  0  0  0
 18 98  1  0  0  0
 19 20  1  0  0  0
 19 24  1  0  0  0
 20 21  2  0  0  0
 20 99  1  0  0  0
 21 23  1  0  0  0
 22 28  1  0  0  0
 22 32  2  0  0  0
 26 27  1  0  0  0
 28100  1  0  0  0
 28101  1  0  0  0
 29102  1  0  0  0
 29103  1  0  0  0
 33 34  1  0  0  0
 33 66  1  0  0  0
 33 70  2  0  0  0
 34 36  1  0  0  0
 34 59  1  0  0  0
 34104  1  0  0  0
 35 44  2  0  0  0
 35 45  1  0  0  0
 35 68  1  0  0  0
 36 56  1  0  0  0
 36105  1  0  0  0
 37 39  1  0  0  0
 37 47  1  0  0  0
 37 66  1  0  0  0
 37106  1  0  0  0
 38 43  2  0  0  0
 38 46  1  0  0  0
 38 47  1  0  0  0
 39 64  1  0  0  0
 39 67  2  0  0  0
 40 52  1  0  0  0
 40 53  2  0  0  0
 40 58  1  0  0  0
 41107  1  0  0  0
 41108  1  0  0  0
 41109  1  0  0  0
 41 48  1  0  0  0
 42 43  1  0  0  0
 42 66  1  0  0  0
 42110  1  0  0  0
 42111  1  0  0  0
 43 44  1  0  0  0
 44112  1  0  0  0
 45 46  2  0  0  0
 45113  1  0  0  0
 46114  1  0  0  0
 47115  1  0  0  0
 47116  1  0  0  0
 48 56  1  0  0  0
 48 65  1  0  0  0
 48117  1  0  0  0
 49 50  1  0  0  0
 49 53  1  0  0  0
 49 64  1  0  0  0
 49118  1  0  0  0
 50 51  1  0  0  0
 50119  1  0  0  0
 50120  1  0  0  0
 51 52  1  0  0  0
 51121  1  0  0  0
 51122  1  0  0  0
 52123  1  0  0  0
 52124  1  0  0  0
 53 54  1  0  0  0
 54 55  2  0  0  0
 54125  1  0  0  0
 55 57  1  0  0  0
 55126  1  0  0  0
 56 69  2  0  0  0
 57 58  2  0  0  0
 57127  1  0  0  0
 58128  1  0  0  0
 59 60  1  0  0  0
 59 61  1  0  0  0
 59 62  1  0  0  0
 60129  1  0  0  0
 60130  1  0  0  0
 60131  1  0  0  0
 61132  1  0  0  0
 61133  1  0  0  0
 61134  1  0  0  0
 62135  1  0  0  0
 62136  1  0  0  0
 62137  1  0  0  0
 63 65  1  0  0  0
 63138  1  0  0  0
 63139  1  0  0  0
 63140  1  0  0  0
 64141  1  0  0  0
 65142  1  0  0  0
 68 80  1  0  0  0
 71 72  2  0  0  0
 71 74  1  0  0  0
 71143  1  0  0  0
 72 75  1  0  0  0
 72144  1  0  0  0
 73 75  2  0  0  0
 73 76  1  0  0  0
 73145  1  0  0  0
 74 76  2  0  0  0
 74 78  1  0  0  0
 75 82  1  0  0  0
 76 83  1  0  0  0
 77 82  1  0  0  0
 77146  1  0  0  0
 77147  1  0  0  0
 77148  1  0  0  0
 78 81  1  0  0  0
 78149  1  0  0  0
 78150  1  0  0  0
 79 80  1  0  0  0
 79 82  1  0  0  0
 79151  1  0  0  0
 79152  1  0  0  0
 80153  1  0  0  0
 80154  1  0  0  0
 81155  1  0  0  0
M  ISO  4   1 100  68 101  80 101  81 100
M  END
> <chiral flag>
0

> <version>
0

> <s_m_source_file>
/data/baiqing/PycharmProjects/Reinvent-master-3.2/result/LINK_invent/BTK/process_docking_weight1_custom_product_contain_oxygen_bond_distance_aromatic_linkinvent_7_9_3/rearranged_h_0010.sdf

> <i_m_source_file_index>
66

> <r_mmod_Potential_Energy-OPLS-2005>
1450.30725097656

> <r_mmod_Stretch_Energy-OPLS-2005>
349.715301513672

> <r_mmod_Bend_Energy-OPLS-2005>
563.630126953125

> <r_mmod_Torsional_Energy-OPLS-2005>
275.981964111328

> <r_mmod_Improper_Torsional_Energy-OPLS-2005>
17.8028717041016

> <r_mmod_Van_der_Waal_Energy-OPLS-2005>
195.080139160156

> <r_mmod_Electrostatic_Energy-OPLS-2005>
-360.411010742188

> <r_mmod_Solvation_Energy-OPLS-2005>
-212.73779296875

> <b_mmod_Minimization_Converged-OPLS-2005>
0

> <r_mmod_RMS_Derivative-OPLS-2005>
87.7099761962891

$$$$
66
                    3D
 Structure written by MMmdl.
150158  0  0  1  0            999 V2000
  -30.3180  -15.3455   20.3902 C   0  0  0  0  0  0
  -30.4551  -12.8662   19.5503 C   0  0  0  0  0  0
  -29.5376  -12.6047   18.3231 C   0  0  0  0  0  0
  -28.0788  -12.3335   18.7383 C   0  0  0  0  0  0
  -27.6223  -13.2783   19.8771 C   0  0  2  0  0  0
  -28.6687  -13.3502   20.9999 C   0  0  0  0  0  0
  -25.2376  -13.8322   20.6001 C   0  0  0  0  0  0
  -24.1755  -13.0460   20.9436 C   0  0  0  0  0  0
  -24.6406  -11.6952   20.8860 C   0  0  0  0  0  0
  -23.9112  -10.4323   21.0429 C   0  0  0  0  0  0
  -24.3634   -9.4205   21.9162 C   0  0  0  0  0  0
  -23.6303   -8.2240   22.0716 C   0  0  0  0  0  0
  -22.4278   -8.0286   21.3514 C   0  0  0  0  0  0
  -21.9963   -9.0268   20.4613 C   0  0  0  0  0  0
  -22.7309  -10.2157   20.3044 C   0  0  0  0  0  0
  -21.6875   -6.0728   22.5278 C   0  0  0  0  0  0
  -21.4048   -6.5634   23.8214 C   0  0  0  0  0  0
  -21.3654   -5.6787   24.9164 C   0  0  0  0  0  0
  -21.6024   -4.3045   24.7239 C   0  0  0  0  0  0
  -21.8819   -3.8149   23.4359 C   0  0  0  0  0  0
  -21.9196   -4.6951   22.3416 C   0  0  0  0  0  0
  -22.7803  -13.5190   21.2010 C   0  0  0  0  0  0
  -22.1653   -4.2140   21.1001 F   0  0  0  0  0  0
  -21.5604   -3.4533   25.7736 F   0  0  0  0  0  0
  -29.8562  -13.9787   20.3932 N   0  0  0  0  0  0
  -26.2868  -12.9620   20.3604 N   0  0  0  0  0  0
  -25.9353  -11.6722   20.5942 N   0  0  0  0  0  0
  -22.0496  -12.8077   22.0499 N   0  0  0  0  0  0
  -25.3822  -15.2089   20.4388 N   0  0  0  0  0  0
  -31.5175  -15.3819   20.0685 O   0  0  0  0  0  0
  -21.6630   -6.8875   21.4233 O   0  0  0  0  0  0
  -22.3493  -14.5480   20.6836 O   0  0  0  0  0  0
  -24.6702  -31.8191   23.1643 C   0  0  0  0  0  0
  -25.9379  -32.4570   23.8101 C   0  0  1  0  0  0
  -27.2388  -26.9120   20.1487 C   0  0  0  0  0  0
  -25.6039  -33.8379   24.2050 N   0  0  0  0  0  0
  -23.4830  -30.4286   21.5107 C   0  0  2  0  0  0
  -24.9365  -28.8074   20.1043 C   0  0  0  0  0  0
  -22.7699  -29.4426   22.4781 C   0  0  0  0  0  0
  -18.0348  -28.1430   22.8459 C   0  0  0  0  0  0
  -24.1510  -36.7184   23.2637 C   0  0  0  0  0  0
  -26.0499  -30.6272   21.3843 C   0  0  0  0  0  0
  -26.1230  -29.2073   20.7353 C   0  0  0  0  0  0
  -27.2633  -28.2800   20.7330 C   0  0  0  0  0  0
  -26.0186  -26.6733   19.4764 C   0  0  0  0  0  0
  -24.9100  -27.5604   19.4586 C   0  0  0  0  0  0
  -23.7217  -29.7353   20.1405 C   0  0  0  0  0  0
  -25.4148  -36.2957   24.0302 C   0  0  1  0  0  0
  -20.5948  -28.3755   23.1199 C   0  0  2  0  0  0
  -20.6814  -26.9449   22.5389 C   0  0  0  0  0  0
  -19.5781  -26.6394   21.5188 C   0  0  0  0  0  0
  -18.1967  -26.7969   22.1617 C   0  0  0  0  0  0
  -19.1598  -28.8907   23.2813 C   0  0  0  0  0  0
  -18.9525  -30.1498   23.8836 C   0  0  0  0  0  0
  -17.6499  -30.6593   24.0546 C   0  0  0  0  0  0
  -25.9124  -34.9356   23.4979 C   0  0  0  0  0  0
  -16.5373  -29.9099   23.6337 C   0  0  0  0  0  0
  -16.7319  -28.6531   23.0341 C   0  0  0  0  0  0
  -26.4647  -31.6484   25.0599 C   0  0  0  0  0  0
  -25.3795  -31.3698   26.1265 C   0  0  0  0  0  0
  -27.0477  -30.2844   24.6244 C   0  0  0  0  0  0
  -27.6177  -32.4214   25.7430 C   0  0  0  0  0  0
  -27.5559  -37.1772   24.8488 C   0  0  0  0  0  0
  -21.4347  -29.3022   22.3545 N   0  0  0  0  0  0
  -26.4271  -37.3686   23.9440 N   0  0  0  0  0  0
  -24.7564  -30.9867   22.0767 N   0  0  0  0  0  0
  -23.4244  -28.7984   23.3030 O   0  0  0  0  0  0
  -28.2490  -25.8073   20.2351 O   0  0  0  0  0  0
  -26.5655  -34.8884   22.4535 O   0  0  0  0  0  0
  -23.5773  -32.1147   23.6764 O   0  0  0  0  0  0
  -28.4858  -16.8733   21.6646 C   0  0  0  0  0  0
  -27.7266  -18.0361   21.9896 C   0  0  0  0  0  0
  -29.4884  -16.8234   20.6520 C   0  0  0  0  0  0
  -28.9060  -19.5938   20.4452 C   0  0  0  0  0  0
  -27.8957  -19.3138   21.4017 C   0  0  0  0  0  0
  -29.6492  -18.2687   20.0750 C   0  0  0  0  0  0
  -28.4236  -22.6275   21.9732 C   0  0  0  0  0  0
  -28.1839  -24.1953   19.8064 C   0  0  0  0  0  0
  -28.8392  -22.6383   20.5034 C   0  0  2  0  0  0
  -28.9754  -21.0819   19.9158 N   0  0  0  0  0  0
  -27.0010  -20.2699   21.7519 F   0  0  0  0  0  0
  -30.5684  -18.3891   19.0847 F   0  0  0  0  0  0
  -31.4547  -13.1272   19.2008 H   0  0  0  0  0  0
  -30.6041  -11.9477   20.1217 H   0  0  0  0  0  0
  -29.9220  -11.7665   17.7398 H   0  0  0  0  0  0
  -29.5648  -13.4786   17.6736 H   0  0  0  0  0  0
  -28.0159  -11.2956   19.0689 H   0  0  0  0  0  0
  -27.4045  -12.4342   17.8904 H   0  0  0  0  0  0
  -27.5683  -14.2798   19.4502 H   0  0  0  0  0  0
  -28.8745  -12.3477   21.3841 H   0  0  0  0  0  0
  -28.3123  -13.8962   21.8675 H   0  0  0  0  0  0
  -25.2786   -9.5630   22.4723 H   0  0  0  0  0  0
  -24.0016   -7.4621   22.7418 H   0  0  0  0  0  0
  -21.0933   -8.8811   19.8900 H   0  0  0  0  0  0
  -22.3808  -10.9677   19.6133 H   0  0  0  0  0  0
  -21.2068   -7.6164   23.9738 H   0  0  0  0  0  0
  -21.1462   -6.0497   25.9066 H   0  0  0  0  0  0
  -22.0601   -2.7624   23.2872 H   0  0  0  0  0  0
  -22.4294  -11.9745   22.4782 H   0  0  0  0  0  0
  -21.1066  -13.0967   22.2722 H   0  0  0  0  0  0
  -24.5843  -15.8295   20.5394 H   0  0  0  0  0  0
  -26.1807  -15.6721   20.0289 H   0  0  0  0  0  0
  -26.7438  -32.5130   23.0830 H   0  0  0  0  0  0
  -25.0377  -33.9439   25.0321 H   0  0  0  0  0  0
  -22.7944  -31.2581   21.3401 H   0  0  0  0  0  0
  -23.3760  -35.9521   23.3311 H   0  0  0  0  0  0
  -24.3578  -36.8773   22.2030 H   0  0  0  0  0  0
  -23.7261  -37.6400   23.6632 H   0  0  0  0  0  0
  -26.2058  -31.3575   20.5882 H   0  0  0  0  0  0
  -26.9220  -30.7085   22.0220 H   0  0  0  0  0  0
  -28.1618  -28.5915   21.2468 H   0  0  0  0  0  0
  -25.8913  -25.7218   18.9809 H   0  0  0  0  0  0
  -24.0111  -27.2492   18.9460 H   0  0  0  0  0  0
  -23.8784  -30.4975   19.3798 H   0  0  0  0  0  0
  -22.8319  -29.1884   19.8296 H   0  0  0  0  0  0
  -25.1357  -36.1719   25.0770 H   0  0  0  0  0  0
  -21.0057  -28.3351   24.1311 H   0  0  0  0  0  0
  -20.5685  -26.2378   23.3633 H   0  0  0  0  0  0
  -21.6706  -26.7396   22.1192 H   0  0  0  0  0  0
  -19.6923  -25.6301   21.1245 H   0  0  0  0  0  0
  -19.6728  -27.3210   20.6723 H   0  0  0  0  0  0
  -17.4242  -26.6703   21.4003 H   0  0  0  0  0  0
  -18.0342  -26.0111   22.9012 H   0  0  0  0  0  0
  -19.7976  -30.7347   24.2163 H   0  0  0  0  0  0
  -17.5047  -31.6269   24.5202 H   0  0  0  0  0  0
  -15.5385  -30.2983   23.7701 H   0  0  0  0  0  0
  -15.8727  -28.0853   22.7056 H   0  0  0  0  0  0
  -24.6106  -30.6875   25.7634 H   0  0  0  0  0  0
  -24.8844  -32.2862   26.4450 H   0  0  0  0  0  0
  -25.8100  -30.9094   27.0162 H   0  0  0  0  0  0
  -26.3095  -29.6613   24.1178 H   0  0  0  0  0  0
  -27.3975  -29.7110   25.4841 H   0  0  0  0  0  0
  -27.9074  -30.4059   23.9650 H   0  0  0  0  0  0
  -27.2820  -33.3602   26.1846 H   0  0  0  0  0  0
  -28.4129  -32.6561   25.0341 H   0  0  0  0  0  0
  -28.0688  -31.8375   26.5467 H   0  0  0  0  0  0
  -28.2615  -38.0030   24.7479 H   0  0  0  0  0  0
  -28.0994  -36.2550   24.6388 H   0  0  0  0  0  0
  -27.2267  -37.1531   25.8885 H   0  0  0  0  0  0
  -20.9631  -29.8685   21.6640 H   0  0  0  0  0  0
  -26.0114  -38.2750   24.1384 H   0  0  0  0  0  0
  -28.2775  -15.9785   22.2314 H   0  0  0  0  0  0
  -26.9395  -17.9852   22.7371 H   0  0  0  0  0  0
  -28.7455  -23.5492   22.4568 H   0  0  0  0  0  0
  -28.8841  -21.8062   22.5259 H   0  0  0  0  0  0
  -27.3385  -22.5745   22.0759 H   0  0  0  0  0  0
  -27.1424  -23.9981   19.5622 H   0  0  0  0  0  0
  -28.6693  -24.2378   18.8286 H   0  0  0  0  0  0
  -29.9063  -22.8800   20.5335 H   0  0  0  0  0  0
  -29.4922  -21.0986   19.0407 H   0  0  0  0  0  0
  1 25  1  0  0  0
  1 30  2  0  0  0
  1 73  1  0  0  0
  2  3  1  0  0  0
  2 25  1  0  0  0
  2 83  1  0  0  0
  2 84  1  0  0  0
  3  4  1  0  0  0
  3 85  1  0  0  0
  3 86  1  0  0  0
  4  5  1  0  0  0
  4 87  1  0  0  0
  4 88  1  0  0  0
  5  6  1  0  0  0
  5 26  1  0  0  0
  5 89  1  0  0  0
  6 25  1  0  0  0
  6 90  1  0  0  0
  6 91  1  0  0  0
  7  8  2  0  0  0
  7 26  1  0  0  0
  7 29  1  0  0  0
  8  9  1  0  0  0
  8 22  1  0  0  0
  9 10  1  0  0  0
  9 27  2  0  0  0
 10 11  2  0  0  0
 10 15  1  0  0  0
 11 12  1  0  0  0
 11 92  1  0  0  0
 12 13  2  0  0  0
 12 93  1  0  0  0
 13 14  1  0  0  0
 13 31  1  0  0  0
 14 15  2  0  0  0
 14 94  1  0  0  0
 15 95  1  0  0  0
 16 17  2  0  0  0
 16 21  1  0  0  0
 16 31  1  0  0  0
 17 18  1  0  0  0
 17 96  1  0  0  0
 18 19  2  0  0  0
 18 97  1  0  0  0
 19 20  1  0  0  0
 19 24  1  0  0  0
 20 21  2  0  0  0
 20 98  1  0  0  0
 21 23  1  0  0  0
 22 28  1  0  0  0
 22 32  2  0  0  0
 26 27  1  0  0  0
 28 99  1  0  0  0
 28100  1  0  0  0
 29101  1  0  0  0
 29102  1  0  0  0
 33 34  1  0  0  0
 33 66  1  0  0  0
 33 70  2  0  0  0
 34 36  1  0  0  0
 34 59  1  0  0  0
 34103  1  0  0  0
 35 44  2  0  0  0
 35 45  1  0  0  0
 35 68  1  0  0  0
 36 56  1  0  0  0
 36104  1  0  0  0
 37 39  1  0  0  0
 37 47  1  0  0  0
 37 66  1  0  0  0
 37105  1  0  0  0
 38 43  2  0  0  0
 38 46  1  0  0  0
 38 47  1  0  0  0
 39 64  1  0  0  0
 39 67  2  0  0  0
 40 52  1  0  0  0
 40 53  2  0  0  0
 40 58  1  0  0  0
 41106  1  0  0  0
 41107  1  0  0  0
 41108  1  0  0  0
 41 48  1  0  0  0
 42 43  1  0  0  0
 42 66  1  0  0  0
 42109  1  0  0  0
 42110  1  0  0  0
 43 44  1  0  0  0
 44111  1  0  0  0
 45 46  2  0  0  0
 45112  1  0  0  0
 46113  1  0  0  0
 47114  1  0  0  0
 47115  1  0  0  0
 48 56  1  0  0  0
 48 65  1  0  0  0
 48116  1  0  0  0
 49 50  1  0  0  0
 49 53  1  0  0  0
 49 64  1  0  0  0
 49117  1  0  0  0
 50 51  1  0  0  0
 50118  1  0  0  0
 50119  1  0  0  0
 51 52  1  0  0  0
 51120  1  0  0  0
 51121  1  0  0  0
 52122  1  0  0  0
 52123  1  0  0  0
 53 54  1  0  0  0
 54 55  2  0  0  0
 54124  1  0  0  0
 55 57  1  0  0  0
 55125  1  0  0  0
 56 69  2  0  0  0
 57 58  2  0  0  0
 57126  1  0  0  0
 58127  1  0  0  0
 59 60  1  0  0  0
 59 61  1  0  0  0
 59 62  1  0  0  0
 60128  1  0  0  0
 60129  1  0  0  0
 60130  1  0  0  0
 61131  1  0  0  0
 61132  1  0  0  0
 61133  1  0  0  0
 62134  1  0  0  0
 62135  1  0  0  0
 62136  1  0  0  0
 63 65  1  0  0  0
 63137  1  0  0  0
 63138  1  0  0  0
 63139  1  0  0  0
 64140  1  0  0  0
 65141  1  0  0  0
 68 78  1  0  0  0
 71 72  2  0  0  0
 71 73  1  0  0  0
 71142  1  0  0  0
 72 75  1  0  0  0
 72143  1  0  0  0
 73 76  2  0  0  0
 74 75  2  0  0  0
 74 76  1  0  0  0
 74 80  1  0  0  0
 75 81  1  0  0  0
 76 82  1  0  0  0
 77144  1  0  0  0
 77145  1  0  0  0
 77146  1  0  0  0
 77 79  1  0  0  0
 78 79  1  0  0  0
 78147  1  0  0  0
 78148  1  0  0  0
 79 80  1  0  0  0
 79149  1  0  0  0
 80150  1  0  0  0
M  ISO  4   1 100  68 101  73 100  78 101
M  END
> <chiral flag>
0

> <version>
0

> <s_m_source_file>
/data/baiqing/PycharmProjects/Reinvent-master-3.2/result/LINK_invent/BTK/process_docking_weight1_custom_product_contain_oxygen_bond_distance_aromatic_linkinvent_7_9_3/rearranged_h_0010.sdf

> <i_m_source_file_index>
67

> <r_mmod_Potential_Energy-OPLS-2005>
1498.36987304688

> <r_mmod_Stretch_Energy-OPLS-2005>
661.899841308594

> <r_mmod_Bend_Energy-OPLS-2005>
468.7333984375

> <r_mmod_Torsional_Energy-OPLS-2005>
197.470428466797

> <r_mmod_Improper_Torsional_Energy-OPLS-2005>
4.32961559295654

> <r_mmod_Van_der_Waal_Energy-OPLS-2005>
128.320358276367

> <r_mmod_Electrostatic_Energy-OPLS-2005>
-270.746154785156

> <r_mmod_Solvation_Energy-OPLS-2005>
-202.002304077148

> <b_mmod_Minimization_Converged-OPLS-2005>
0

> <r_mmod_RMS_Derivative-OPLS-2005>
9.47260570526123

$$$$
67
                    3D
 Structure written by MMmdl.
152161  0  0  1  0            999 V2000
  -30.5168  -14.9399   20.4391 C   0  0  0  0  0  0
  -30.4563  -12.5851   19.4957 C   0  0  0  0  0  0
  -29.5251  -12.5365   18.2599 C   0  0  0  0  0  0
  -28.0595  -12.3146   18.6820 C   0  0  0  0  0  0
  -27.6371  -13.2417   19.8516 C   0  0  2  0  0  0
  -28.6835  -13.2392   20.9880 C   0  0  0  0  0  0
  -25.2463  -13.8165   20.5724 C   0  0  0  0  0  0
  -24.1766  -13.0392   20.9186 C   0  0  0  0  0  0
  -24.6396  -11.6890   20.8743 C   0  0  0  0  0  0
  -23.9076  -10.4272   21.0399 C   0  0  0  0  0  0
  -24.3622   -9.4193   21.9184 C   0  0  0  0  0  0
  -23.6292   -8.2236   22.0757 C   0  0  0  0  0  0
  -22.4276   -8.0278   21.3546 C   0  0  0  0  0  0
  -21.9911   -9.0247   20.4647 C   0  0  0  0  0  0
  -22.7244  -10.2122   20.3053 C   0  0  0  0  0  0
  -21.6848   -6.0737   22.5279 C   0  0  0  0  0  0
  -21.4011   -6.5641   23.8212 C   0  0  0  0  0  0
  -21.3656   -5.6793   24.9173 C   0  0  0  0  0  0
  -21.6043   -4.3056   24.7220 C   0  0  0  0  0  0
  -21.8818   -3.8149   23.4341 C   0  0  0  0  0  0
  -21.9192   -4.6967   22.3400 C   0  0  0  0  0  0
  -22.7790  -13.5185   21.1856 C   0  0  0  0  0  0
  -22.1661   -4.2153   21.0975 F   0  0  0  0  0  0
  -21.5628   -3.4538   25.7732 F   0  0  0  0  0  0
  -29.9646  -13.6607   20.4004 N   0  0  0  0  0  0
  -26.2927  -12.9416   20.3328 N   0  0  0  0  0  0
  -25.9342  -11.6544   20.5781 N   0  0  0  0  0  0
  -22.0441  -12.8187   22.0428 N   0  0  0  0  0  0
  -25.4014  -15.1896   20.4236 N   0  0  0  0  0  0
  -31.7086  -15.0660   20.1356 O   0  0  0  0  0  0
  -21.6635   -6.8877   21.4242 O   0  0  0  0  0  0
  -22.3473  -14.5497   20.6714 O   0  0  0  0  0  0
  -24.6436  -31.8453   23.1913 C   0  0  0  0  0  0
  -25.9216  -32.4704   23.8280 C   0  0  1  0  0  0
  -27.2135  -27.1291   20.1520 C   0  0  0  0  0  0
  -25.5970  -33.8512   24.2192 N   0  0  0  0  0  0
  -23.4476  -30.4674   21.5371 C   0  0  2  0  0  0
  -24.8979  -28.8997   20.1137 C   0  0  0  0  0  0
  -22.7571  -29.4561   22.4860 C   0  0  0  0  0  0
  -18.0313  -28.1415   22.8487 C   0  0  0  0  0  0
  -24.1498  -36.7255   23.2645 C   0  0  0  0  0  0
  -26.0061  -30.7141   21.3959 C   0  0  0  0  0  0
  -26.0754  -29.3247   20.7420 C   0  0  0  0  0  0
  -27.2336  -28.4550   20.7506 C   0  0  0  0  0  0
  -26.0232  -26.8387   19.4498 C   0  0  0  0  0  0
  -24.8851  -27.6679   19.4506 C   0  0  0  0  0  0
  -23.6755  -29.8021   20.1557 C   0  0  0  0  0  0
  -25.4130  -36.3028   24.0319 C   0  0  1  0  0  0
  -20.5929  -28.3735   23.1239 C   0  0  2  0  0  0
  -20.6806  -26.9440   22.5402 C   0  0  0  0  0  0
  -19.5772  -26.6396   21.5222 C   0  0  0  0  0  0
  -18.1951  -26.7960   22.1628 C   0  0  0  0  0  0
  -19.1570  -28.8893   23.2859 C   0  0  0  0  0  0
  -18.9486  -30.1492   23.8878 C   0  0  0  0  0  0
  -17.6483  -30.6609   24.0572 C   0  0  0  0  0  0
  -25.9076  -34.9410   23.5054 C   0  0  0  0  0  0
  -16.5370  -29.9104   23.6350 C   0  0  0  0  0  0
  -16.7296  -28.6530   23.0357 C   0  0  0  0  0  0
  -26.4538  -31.6569   25.0715 C   0  0  0  0  0  0
  -25.3722  -31.3771   26.1407 C   0  0  0  0  0  0
  -27.0395  -30.2959   24.6299 C   0  0  0  0  0  0
  -27.6068  -32.4333   25.7496 C   0  0  0  0  0  0
  -27.5572  -37.1790   24.8475 C   0  0  0  0  0  0
  -21.4264  -29.3063   22.3612 N   0  0  0  0  0  0
  -26.4291  -37.3735   23.9402 N   0  0  0  0  0  0
  -24.7190  -31.0304   22.0962 N   0  0  0  0  0  0
  -23.4213  -28.8098   23.3003 O   0  0  0  0  0  0
  -28.2570  -26.1252   20.1735 O   0  0  0  0  0  0
  -26.5646  -34.8908   22.4620 O   0  0  0  0  0  0
  -23.5553  -32.1337   23.7121 O   0  0  0  0  0  0
  -30.2719  -20.0422   20.3711 C   0  0  0  0  0  0
  -30.5668  -18.5995   20.4220 C   0  0  0  0  0  0
  -27.9796  -19.5625   20.5459 C   0  0  0  0  0  0
  -28.9458  -20.6199   20.4251 C   0  0  0  0  0  0
  -29.5653  -17.5651   20.5432 C   0  0  0  0  0  0
  -28.2639  -18.1486   20.6064 C   0  0  0  0  0  0
  -29.0434  -23.3904   20.4667 C   0  0  0  0  0  0
  -26.8352  -23.8628   19.8437 C   0  0  0  0  0  0
  -27.0460  -22.3626   20.1681 C   0  0  0  0  0  0
  -27.9644  -24.6251   20.5406 C   0  0  2  0  0  0
  -28.4796  -22.0987   20.3506 N   0  0  0  0  0  0
  -29.6451  -16.0342   20.6513 N   0  0  0  0  0  0
  -30.2592  -23.6014   20.5315 O   0  0  0  0  0  0
  -27.2155  -17.3020   20.7310 F   0  0  0  0  0  0
  -31.4851  -12.7659   19.1792 H   0  0  0  0  0  0
  -30.4672  -11.6257   20.0142 H   0  0  0  0  0  0
  -29.8428  -11.7459   17.5789 H   0  0  0  0  0  0
  -29.6045  -13.4719   17.7035 H   0  0  0  0  0  0
  -27.9626  -11.2722   18.9885 H   0  0  0  0  0  0
  -27.3903  -12.4442   17.8307 H   0  0  0  0  0  0
  -27.6051  -14.2494   19.4366 H   0  0  0  0  0  0
  -28.7694  -12.2504   21.4412 H   0  0  0  0  0  0
  -28.3828  -13.9156   21.7900 H   0  0  0  0  0  0
  -25.2763   -9.5673   22.4766 H   0  0  0  0  0  0
  -23.9991   -7.4629   22.7483 H   0  0  0  0  0  0
  -21.0839   -8.8770   19.8957 H   0  0  0  0  0  0
  -22.3700  -10.9664   19.6169 H   0  0  0  0  0  0
  -21.2001   -7.6149   23.9715 H   0  0  0  0  0  0
  -21.1479   -6.0522   25.9075 H   0  0  0  0  0  0
  -22.0601   -2.7610   23.2835 H   0  0  0  0  0  0
  -22.4053  -11.9842   22.4803 H   0  0  0  0  0  0
  -21.1079  -13.1242   22.2664 H   0  0  0  0  0  0
  -24.6282  -15.8245   20.5841 H   0  0  0  0  0  0
  -26.2686  -15.6834   20.2449 H   0  0  0  0  0  0
  -26.7273  -32.5304   23.0996 H   0  0  0  0  0  0
  -25.0131  -33.9627   25.0349 H   0  0  0  0  0  0
  -22.7510  -31.2944   21.3846 H   0  0  0  0  0  0
  -23.3751  -35.9596   23.3317 H   0  0  0  0  0  0
  -24.3576  -36.8860   22.2053 H   0  0  0  0  0  0
  -23.7271  -37.6467   23.6666 H   0  0  0  0  0  0
  -26.1625  -31.4663   20.6211 H   0  0  0  0  0  0
  -26.8766  -30.7650   22.0375 H   0  0  0  0  0  0
  -28.1281  -28.7783   21.2643 H   0  0  0  0  0  0
  -25.9389  -25.9437   18.8620 H   0  0  0  0  0  0
  -24.0013  -27.3481   18.9161 H   0  0  0  0  0  0
  -23.8139  -30.5796   19.4038 H   0  0  0  0  0  0
  -22.7905  -29.2465   19.8409 H   0  0  0  0  0  0
  -25.1318  -36.1852   25.0812 H   0  0  0  0  0  0
  -21.0017  -28.3323   24.1360 H   0  0  0  0  0  0
  -20.5731  -26.2340   23.3615 H   0  0  0  0  0  0
  -21.6667  -26.7466   22.1170 H   0  0  0  0  0  0
  -19.6934  -25.6303   21.1260 H   0  0  0  0  0  0
  -19.6717  -27.3205   20.6752 H   0  0  0  0  0  0
  -17.4222  -26.6715   21.4029 H   0  0  0  0  0  0
  -18.0336  -26.0111   22.9029 H   0  0  0  0  0  0
  -19.7961  -30.7326   24.2219 H   0  0  0  0  0  0
  -17.5038  -31.6288   24.5177 H   0  0  0  0  0  0
  -15.5370  -30.2998   23.7707 H   0  0  0  0  0  0
  -15.8693  -28.0852   22.7063 H   0  0  0  0  0  0
  -24.5907  -30.7117   25.7725 H   0  0  0  0  0  0
  -24.8922  -32.2967   26.4766 H   0  0  0  0  0  0
  -25.8002  -30.8982   27.0224 H   0  0  0  0  0  0
  -26.3010  -29.6679   24.1305 H   0  0  0  0  0  0
  -27.4006  -29.7256   25.4868 H   0  0  0  0  0  0
  -27.8922  -30.4185   23.9616 H   0  0  0  0  0  0
  -27.2672  -33.3678   26.1972 H   0  0  0  0  0  0
  -28.3933  -32.6812   25.0357 H   0  0  0  0  0  0
  -28.0673  -31.8521   26.5489 H   0  0  0  0  0  0
  -28.2595  -38.0076   24.7465 H   0  0  0  0  0  0
  -28.1048  -36.2594   24.6357 H   0  0  0  0  0  0
  -27.2277  -37.1502   25.8876 H   0  0  0  0  0  0
  -20.9470  -29.8753   21.6776 H   0  0  0  0  0  0
  -26.0152  -38.2802   24.1387 H   0  0  0  0  0  0
  -31.1093  -20.7198   20.2760 H   0  0  0  0  0  0
  -31.6021  -18.2939   20.3737 H   0  0  0  0  0  0
  -26.9328  -19.8162   20.6075 H   0  0  0  0  0  0
  -25.8468  -24.1820   20.1750 H   0  0  0  0  0  0
  -26.9049  -24.0037   18.7642 H   0  0  0  0  0  0
  -26.6256  -21.7451   19.3735 H   0  0  0  0  0  0
  -26.5265  -22.1104   21.0943 H   0  0  0  0  0  0
  -27.7036  -24.6732   21.5986 H   0  0  0  0  0  0
  -28.7285  -15.6683   20.8619 H   0  0  0  0  0  0
  1 25  1  0  0  0
  1 30  2  0  0  0
  1 82  1  0  0  0
  2  3  1  0  0  0
  2 25  1  0  0  0
  2 85  1  0  0  0
  2 86  1  0  0  0
  3  4  1  0  0  0
  3 87  1  0  0  0
  3 88  1  0  0  0
  4  5  1  0  0  0
  4 89  1  0  0  0
  4 90  1  0  0  0
  5  6  1  0  0  0
  5 26  1  0  0  0
  5 91  1  0  0  0
  6 25  1  0  0  0
  6 92  1  0  0  0
  6 93  1  0  0  0
  7  8  2  0  0  0
  7 26  1  0  0  0
  7 29  1  0  0  0
  8  9  1  0  0  0
  8 22  1  0  0  0
  9 10  1  0  0  0
  9 27  2  0  0  0
 10 11  2  0  0  0
 10 15  1  0  0  0
 11 12  1  0  0  0
 11 94  1  0  0  0
 12 13  2  0  0  0
 12 95  1  0  0  0
 13 14  1  0  0  0
 13 31  1  0  0  0
 14 15  2  0  0  0
 14 96  1  0  0  0
 15 97  1  0  0  0
 16 17  2  0  0  0
 16 21  1  0  0  0
 16 31  1  0  0  0
 17 18  1  0  0  0
 17 98  1  0  0  0
 18 19  2  0  0  0
 18 99  1  0  0  0
 19 20  1  0  0  0
 19 24  1  0  0  0
 20 21  2  0  0  0
 20100  1  0  0  0
 21 23  1  0  0  0
 22 28  1  0  0  0
 22 32  2  0  0  0
 26 27  1  0  0  0
 28101  1  0  0  0
 28102  1  0  0  0
 29103  1  0  0  0
 29104  1  0  0  0
 33 34  1  0  0  0
 33 66  1  0  0  0
 33 70  2  0  0  0
 34 36  1  0  0  0
 34 59  1  0  0  0
 34105  1  0  0  0
 35 44  2  0  0  0
 35 45  1  0  0  0
 35 68  1  0  0  0
 36 56  1  0  0  0
 36106  1  0  0  0
 37 39  1  0  0  0
 37 47  1  0  0  0
 37 66  1  0  0  0
 37107  1  0  0  0
 38 43  2  0  0  0
 38 46  1  0  0  0
 38 47  1  0  0  0
 39 64  1  0  0  0
 39 67  2  0  0  0
 40 52  1  0  0  0
 40 53  2  0  0  0
 40 58  1  0  0  0
 41108  1  0  0  0
 41109  1  0  0  0
 41110  1  0  0  0
 41 48  1  0  0  0
 42 43  1  0  0  0
 42 66  1  0  0  0
 42111  1  0  0  0
 42112  1  0  0  0
 43 44  1  0  0  0
 44113  1  0  0  0
 45 46  2  0  0  0
 45114  1  0  0  0
 46115  1  0  0  0
 47116  1  0  0  0
 47117  1  0  0  0
 48 56  1  0  0  0
 48 65  1  0  0  0
 48118  1  0  0  0
 49 50  1  0  0  0
 49 53  1  0  0  0
 49 64  1  0  0  0
 49119  1  0  0  0
 50 51  1  0  0  0
 50120  1  0  0  0
 50121  1  0  0  0
 51 52  1  0  0  0
 51122  1  0  0  0
 51123  1  0  0  0
 52124  1  0  0  0
 52125  1  0  0  0
 53 54  1  0  0  0
 54 55  2  0  0  0
 54126  1  0  0  0
 55 57  1  0  0  0
 55127  1  0  0  0
 56 69  2  0  0  0
 57 58  2  0  0  0
 57128  1  0  0  0
 58129  1  0  0  0
 59 60  1  0  0  0
 59 61  1  0  0  0
 59 62  1  0  0  0
 60130  1  0  0  0
 60131  1  0  0  0
 60132  1  0  0  0
 61133  1  0  0  0
 61134  1  0  0  0
 61135  1  0  0  0
 62136  1  0  0  0
 62137  1  0  0  0
 62138  1  0  0  0
 63 65  1  0  0  0
 63139  1  0  0  0
 63140  1  0  0  0
 63141  1  0  0  0
 64142  1  0  0  0
 65143  1  0  0  0
 68 80  1  0  0  0
 71 72  2  0  0  0
 71 74  1  0  0  0
 71144  1  0  0  0
 72 75  1  0  0  0
 72145  1  0  0  0
 73 74  2  0  0  0
 73 76  1  0  0  0
 73146  1  0  0  0
 74 81  1  0  0  0
 75 76  2  0  0  0
 75 82  1  0  0  0
 76 84  1  0  0  0
 77 80  1  0  0  0
 77 81  1  0  0  0
 77 83  2  0  0  0
 78 79  1  0  0  0
 78 80  1  0  0  0
 78147  1  0  0  0
 78148  1  0  0  0
 79 81  1  0  0  0
 79149  1  0  0  0
 79150  1  0  0  0
 80151  1  0  0  0
 82152  1  0  0  0
M  ISO  4   1 100  68 101  80 101  82 100
M  END
> <chiral flag>
0

> <version>
0

> <s_m_source_file>
/data/baiqing/PycharmProjects/Reinvent-master-3.2/result/LINK_invent/BTK/process_docking_weight1_custom_product_contain_oxygen_bond_distance_aromatic_linkinvent_7_9_3/rearranged_h_0010.sdf

> <i_m_source_file_index>
68

> <r_mmod_Potential_Energy-OPLS-2005>
574.619201660156

> <r_mmod_Stretch_Energy-OPLS-2005>
231.013931274414

> <r_mmod_Bend_Energy-OPLS-2005>
330.788848876953

> <r_mmod_Torsional_Energy-OPLS-2005>
261.898803710938

> <r_mmod_Improper_Torsional_Energy-OPLS-2005>
3.91501140594482

> <r_mmod_Van_der_Waal_Energy-OPLS-2005>
136.084503173828

> <r_mmod_Electrostatic_Energy-OPLS-2005>
-360.377471923828

> <r_mmod_Solvation_Energy-OPLS-2005>
-221.532684326172

> <b_mmod_Minimization_Converged-OPLS-2005>
0

> <r_mmod_RMS_Derivative-OPLS-2005>
1.26940262317657

$$$$
68
                    3D
 Structure written by MMmdl.
157166  0  0  1  0            999 V2000
  -30.6095  -14.7492   20.4686 C   0  0  0  0  0  0
  -30.4350  -12.4623   19.4643 C   0  0  0  0  0  0
  -29.5077  -12.5049   18.2299 C   0  0  0  0  0  0
  -28.0348  -12.3258   18.6483 C   0  0  0  0  0  0
  -27.6396  -13.2294   19.8467 C   0  0  2  0  0  0
  -28.6869  -13.1687   20.9791 C   0  0  0  0  0  0
  -25.2505  -13.8191   20.5691 C   0  0  0  0  0  0
  -24.1801  -13.0437   20.9210 C   0  0  0  0  0  0
  -24.6393  -11.6914   20.8755 C   0  0  0  0  0  0
  -23.9070  -10.4293   21.0413 C   0  0  0  0  0  0
  -24.3620   -9.4205   21.9188 C   0  0  0  0  0  0
  -23.6295   -8.2241   22.0756 C   0  0  0  0  0  0
  -22.4277   -8.0283   21.3546 C   0  0  0  0  0  0
  -21.9914   -9.0255   20.4647 C   0  0  0  0  0  0
  -22.7244  -10.2134   20.3059 C   0  0  0  0  0  0
  -21.6852   -6.0737   22.5278 C   0  0  0  0  0  0
  -21.4016   -6.5641   23.8212 C   0  0  0  0  0  0
  -21.3658   -5.6794   24.9175 C   0  0  0  0  0  0
  -21.6044   -4.3056   24.7226 C   0  0  0  0  0  0
  -21.8819   -3.8147   23.4346 C   0  0  0  0  0  0
  -21.9194   -4.6964   22.3402 C   0  0  0  0  0  0
  -22.7822  -13.5217   21.1871 C   0  0  0  0  0  0
  -22.1661   -4.2150   21.0980 F   0  0  0  0  0  0
  -21.5628   -3.4540   25.7738 F   0  0  0  0  0  0
  -29.9826  -13.5258   20.3890 N   0  0  0  0  0  0
  -26.2927  -12.9391   20.3267 N   0  0  0  0  0  0
  -25.9321  -11.6537   20.5751 N   0  0  0  0  0  0
  -22.0470  -12.8206   22.0426 N   0  0  0  0  0  0
  -25.4176  -15.1919   20.4097 N   0  0  0  0  0  0
  -31.8094  -14.8364   20.1922 O   0  0  0  0  0  0
  -21.6641   -6.8880   21.4241 O   0  0  0  0  0  0
  -22.3507  -14.5525   20.6719 O   0  0  0  0  0  0
  -24.6322  -31.8551   23.1991 C   0  0  0  0  0  0
  -25.9151  -32.4751   23.8332 C   0  0  1  0  0  0
  -27.2121  -27.2442   20.1403 C   0  0  0  0  0  0
  -25.5943  -33.8553   24.2252 N   0  0  0  0  0  0
  -23.4287  -30.4777   21.5439 C   0  0  2  0  0  0
  -24.8751  -28.9203   20.1182 C   0  0  0  0  0  0
  -22.7508  -29.4597   22.4926 C   0  0  0  0  0  0
  -18.0287  -28.1381   22.8481 C   0  0  0  0  0  0
  -24.1494  -36.7282   23.2641 C   0  0  0  0  0  0
  -25.9764  -30.7608   21.3846 C   0  0  0  0  0  0
  -26.0470  -29.3794   20.7331 C   0  0  0  0  0  0
  -27.2198  -28.5543   20.7331 C   0  0  0  0  0  0
  -26.0259  -26.8707   19.4748 C   0  0  0  0  0  0
  -24.8701  -27.6734   19.4775 C   0  0  0  0  0  0
  -23.6485  -29.8115   20.1609 C   0  0  0  0  0  0
  -25.4120  -36.3067   24.0324 C   0  0  1  0  0  0
  -20.5890  -28.3693   23.1268 C   0  0  2  0  0  0
  -20.6778  -26.9411   22.5405 C   0  0  0  0  0  0
  -19.5755  -26.6377   21.5208 C   0  0  0  0  0  0
  -18.1933  -26.7921   22.1618 C   0  0  0  0  0  0
  -19.1541  -28.8856   23.2866 C   0  0  0  0  0  0
  -18.9465  -30.1455   23.8885 C   0  0  0  0  0  0
  -17.6466  -30.6585   24.0559 C   0  0  0  0  0  0
  -25.9064  -34.9437   23.5092 C   0  0  0  0  0  0
  -16.5356  -29.9079   23.6335 C   0  0  0  0  0  0
  -16.7275  -28.6496   23.0353 C   0  0  0  0  0  0
  -26.4507  -31.6582   25.0728 C   0  0  0  0  0  0
  -25.3719  -31.3736   26.1441 C   0  0  0  0  0  0
  -27.0361  -30.2997   24.6234 C   0  0  0  0  0  0
  -27.6055  -32.4331   25.7503 C   0  0  0  0  0  0
  -27.5580  -37.1798   24.8465 C   0  0  0  0  0  0
  -21.4215  -29.3041   22.3668 N   0  0  0  0  0  0
  -26.4293  -37.3766   23.9406 N   0  0  0  0  0  0
  -24.6980  -31.0500   22.0982 N   0  0  0  0  0  0
  -23.4205  -28.8131   23.3024 O   0  0  0  0  0  0
  -28.3169  -26.3600   20.1048 O   0  0  0  0  0  0
  -26.5635  -34.8912   22.4661 O   0  0  0  0  0  0
  -23.5471  -32.1384   23.7281 O   0  0  0  0  0  0
  -31.6851  -18.9717   21.8133 C   0  0  0  0  0  0
  -30.9298  -20.0550   21.3174 C   0  0  0  0  0  0
  -31.3243  -17.6338   21.5502 C   0  0  0  0  0  0
  -29.7646  -19.8466   20.5494 C   0  0  0  0  0  0
  -30.1776  -17.3163   20.7887 C   0  0  0  0  0  0
  -29.3959  -18.4522   20.3089 C   0  0  0  0  0  0
  -26.9698  -24.1049   20.5876 C   0  0  0  0  0  0
  -27.3671  -22.6632   21.0275 C   0  0  0  0  0  0
  -29.2253  -23.7927   20.0987 C   0  0  0  0  0  0
  -28.2585  -24.9421   20.6466 C   0  0  1  0  0  0
  -29.0790  -21.1275   19.8781 C   0  0  0  0  0  0
  -29.8185  -15.8861   20.5914 N   0  0  0  0  0  0
  -28.7925  -22.4343   20.6609 N   0  3  2  0  0  0
  -28.2893  -18.1931   19.5718 F   0  0  0  0  0  0
  -31.4738  -12.5959   19.1577 H   0  0  0  0  0  0
  -30.3885  -11.4874   19.9521 H   0  0  0  0  0  0
  -29.7906  -11.7291   17.5171 H   0  0  0  0  0  0
  -29.6285  -13.4569   17.7105 H   0  0  0  0  0  0
  -27.8961  -11.2779   18.9162 H   0  0  0  0  0  0
  -27.3748  -12.5113   17.8000 H   0  0  0  0  0  0
  -27.6303  -14.2484   19.4602 H   0  0  0  0  0  0
  -28.7274  -12.1719   21.4209 H   0  0  0  0  0  0
  -28.4233  -13.8523   21.7879 H   0  0  0  0  0  0
  -25.2765   -9.5681   22.4763 H   0  0  0  0  0  0
  -24.0002   -7.4633   22.7476 H   0  0  0  0  0  0
  -21.0846   -8.8777   19.8951 H   0  0  0  0  0  0
  -22.3704  -10.9676   19.6169 H   0  0  0  0  0  0
  -21.2008   -7.6150   23.9716 H   0  0  0  0  0  0
  -21.1479   -6.0524   25.9078 H   0  0  0  0  0  0
  -22.0599   -2.7610   23.2847 H   0  0  0  0  0  0
  -22.4090  -11.9866   22.4805 H   0  0  0  0  0  0
  -21.1087  -13.1226   22.2637 H   0  0  0  0  0  0
  -24.6442  -15.8389   20.5181 H   0  0  0  0  0  0
  -26.2545  -15.6370   20.0565 H   0  0  0  0  0  0
  -26.7220  -32.5393   23.1074 H   0  0  0  0  0  0
  -25.0067  -33.9681   25.0383 H   0  0  0  0  0  0
  -22.7255  -31.3001   21.3977 H   0  0  0  0  0  0
  -23.3753  -35.9618   23.3301 H   0  0  0  0  0  0
  -24.3579  -36.8907   22.2056 H   0  0  0  0  0  0
  -23.7252  -37.6483   23.6670 H   0  0  0  0  0  0
  -26.1173  -31.5189   20.6131 H   0  0  0  0  0  0
  -26.8531  -30.8104   22.0184 H   0  0  0  0  0  0
  -28.1214  -28.9063   21.2144 H   0  0  0  0  0  0
  -25.9778  -25.9460   18.9244 H   0  0  0  0  0  0
  -23.9808  -27.3258   18.9699 H   0  0  0  0  0  0
  -23.7780  -30.5874   19.4055 H   0  0  0  0  0  0
  -22.7656  -29.2474   19.8546 H   0  0  0  0  0  0
  -25.1305  -36.1915   25.0816 H   0  0  0  0  0  0
  -20.9971  -28.3271   24.1391 H   0  0  0  0  0  0
  -20.5679  -26.2303   23.3608 H   0  0  0  0  0  0
  -21.6645  -26.7437   22.1199 H   0  0  0  0  0  0
  -19.6923  -25.6286   21.1241 H   0  0  0  0  0  0
  -19.6693  -27.3186   20.6735 H   0  0  0  0  0  0
  -17.4202  -26.6663   21.4021 H   0  0  0  0  0  0
  -18.0335  -26.0065   22.9015 H   0  0  0  0  0  0
  -19.7945  -30.7268   24.2247 H   0  0  0  0  0  0
  -17.5023  -31.6266   24.5157 H   0  0  0  0  0  0
  -15.5355  -30.2977   23.7668 H   0  0  0  0  0  0
  -15.8671  -28.0815   22.7072 H   0  0  0  0  0  0
  -24.5906  -30.7072   25.7767 H   0  0  0  0  0  0
  -24.8892  -32.2904   26.4837 H   0  0  0  0  0  0
  -25.8026  -30.8936   27.0238 H   0  0  0  0  0  0
  -26.2952  -29.6734   24.1253 H   0  0  0  0  0  0
  -27.4021  -29.7274   25.4767 H   0  0  0  0  0  0
  -27.8842  -30.4254   23.9498 H   0  0  0  0  0  0
  -27.2664  -33.3650   26.2040 H   0  0  0  0  0  0
  -28.3885  -32.6861   25.0338 H   0  0  0  0  0  0
  -28.0704  -31.8482   26.5447 H   0  0  0  0  0  0
  -28.2593  -38.0099   24.7508 H   0  0  0  0  0  0
  -28.1077  -36.2626   24.6298 H   0  0  0  0  0  0
  -27.2291  -37.1451   25.8866 H   0  0  0  0  0  0
  -20.9405  -29.8766   21.6873 H   0  0  0  0  0  0
  -26.0171  -38.2838   24.1407 H   0  0  0  0  0  0
  -32.5740  -19.1705   22.3964 H   0  0  0  0  0  0
  -31.2809  -21.0596   21.5077 H   0  0  0  0  0  0
  -31.9425  -16.8467   21.9582 H   0  0  0  0  0  0
  -26.1693  -24.5157   21.2024 H   0  0  0  0  0  0
  -26.6104  -24.0438   19.5617 H   0  0  0  0  0  0
  -26.6904  -21.9266   20.5924 H   0  0  0  0  0  0
  -27.2807  -22.5670   22.1099 H   0  0  0  0  0  0
  -30.2680  -23.9959   20.3429 H   0  0  0  0  0  0
  -29.1523  -23.7649   19.0107 H   0  0  0  0  0  0
  -28.4926  -25.0653   21.7052 H   0  0  0  0  0  0
  -28.1713  -20.7999   19.3712 H   0  0  0  0  0  0
  -29.7492  -21.3998   19.0623 H   0  0  0  0  0  0
  -28.8283  -15.7082   20.5407 H   0  0  0  0  0  0
  -29.2755  -22.3304   21.5410 H   0  0  0  0  0  0
  1 25  1  0  0  0
  1 30  2  0  0  0
  1 82  1  0  0  0
  2  3  1  0  0  0
  2 25  1  0  0  0
  2 85  1  0  0  0
  2 86  1  0  0  0
  3  4  1  0  0  0
  3 87  1  0  0  0
  3 88  1  0  0  0
  4  5  1  0  0  0
  4 89  1  0  0  0
  4 90  1  0  0  0
  5  6  1  0  0  0
  5 26  1  0  0  0
  5 91  1  0  0  0
  6 25  1  0  0  0
  6 92  1  0  0  0
  6 93  1  0  0  0
  7  8  2  0  0  0
  7 26  1  0  0  0
  7 29  1  0  0  0
  8  9  1  0  0  0
  8 22  1  0  0  0
  9 10  1  0  0  0
  9 27  2  0  0  0
 10 11  2  0  0  0
 10 15  1  0  0  0
 11 12  1  0  0  0
 11 94  1  0  0  0
 12 13  2  0  0  0
 12 95  1  0  0  0
 13 14  1  0  0  0
 13 31  1  0  0  0
 14 15  2  0  0  0
 14 96  1  0  0  0
 15 97  1  0  0  0
 16 17  2  0  0  0
 16 21  1  0  0  0
 16 31  1  0  0  0
 17 18  1  0  0  0
 17 98  1  0  0  0
 18 19  2  0  0  0
 18 99  1  0  0  0
 19 20  1  0  0  0
 19 24  1  0  0  0
 20 21  2  0  0  0
 20100  1  0  0  0
 21 23  1  0  0  0
 22 28  1  0  0  0
 22 32  2  0  0  0
 26 27  1  0  0  0
 28101  1  0  0  0
 28102  1  0  0  0
 29103  1  0  0  0
 29104  1  0  0  0
 33 34  1  0  0  0
 33 66  1  0  0  0
 33 70  2  0  0  0
 34 36  1  0  0  0
 34 59  1  0  0  0
 34105  1  0  0  0
 35 44  2  0  0  0
 35 45  1  0  0  0
 35 68  1  0  0  0
 36 56  1  0  0  0
 36106  1  0  0  0
 37 39  1  0  0  0
 37 47  1  0  0  0
 37 66  1  0  0  0
 37107  1  0  0  0
 38 43  2  0  0  0
 38 46  1  0  0  0
 38 47  1  0  0  0
 39 64  1  0  0  0
 39 67  2  0  0  0
 40 52  1  0  0  0
 40 53  2  0  0  0
 40 58  1  0  0  0
 41108  1  0  0  0
 41109  1  0  0  0
 41110  1  0  0  0
 41 48  1  0  0  0
 42 43  1  0  0  0
 42 66  1  0  0  0
 42111  1  0  0  0
 42112  1  0  0  0
 43 44  1  0  0  0
 44113  1  0  0  0
 45 46  2  0  0  0
 45114  1  0  0  0
 46115  1  0  0  0
 47116  1  0  0  0
 47117  1  0  0  0
 48 56  1  0  0  0
 48 65  1  0  0  0
 48118  1  0  0  0
 49 50  1  0  0  0
 49 53  1  0  0  0
 49 64  1  0  0  0
 49119  1  0  0  0
 50 51  1  0  0  0
 50120  1  0  0  0
 50121  1  0  0  0
 51 52  1  0  0  0
 51122  1  0  0  0
 51123  1  0  0  0
 52124  1  0  0  0
 52125  1  0  0  0
 53 54  1  0  0  0
 54 55  2  0  0  0
 54126  1  0  0  0
 55 57  1  0  0  0
 55127  1  0  0  0
 56 69  2  0  0  0
 57 58  2  0  0  0
 57128  1  0  0  0
 58129  1  0  0  0
 59 60  1  0  0  0
 59 61  1  0  0  0
 59 62  1  0  0  0
 60130  1  0  0  0
 60131  1  0  0  0
 60132  1  0  0  0
 61133  1  0  0  0
 61134  1  0  0  0
 61135  1  0  0  0
 62136  1  0  0  0
 62137  1  0  0  0
 62138  1  0  0  0
 63 65  1  0  0  0
 63139  1  0  0  0
 63140  1  0  0  0
 63141  1  0  0  0
 64142  1  0  0  0
 65143  1  0  0  0
 68 80  1  0  0  0
 71 72  2  0  0  0
 71 73  1  0  0  0
 71144  1  0  0  0
 72 74  1  0  0  0
 72145  1  0  0  0
 73 75  2  0  0  0
 73146  1  0  0  0
 74 76  2  0  0  0
 74 81  1  0  0  0
 75 76  1  0  0  0
 75 82  1  0  0  0
 76 84  1  0  0  0
 77 78  1  0  0  0
 77 80  1  0  0  0
 77147  1  0  0  0
 77148  1  0  0  0
 78 83  1  0  0  0
 78149  1  0  0  0
 78150  1  0  0  0
 79 80  1  0  0  0
 79 83  1  0  0  0
 79151  1  0  0  0
 79152  1  0  0  0
 80153  1  0  0  0
 81154  1  0  0  0
 81155  1  0  0  0
 81 83  1  0  0  0
 82156  1  0  0  0
 83157  1  0  0  0
M  CHG  1  83   1
M  ISO  4   1 100  68 101  80 101  82 100
M  END
> <chiral flag>
0

> <version>
0

> <s_m_source_file>
/data/baiqing/PycharmProjects/Reinvent-master-3.2/result/LINK_invent/BTK/process_docking_weight1_custom_product_contain_oxygen_bond_distance_aromatic_linkinvent_7_9_3/rearranged_h_0010.sdf

> <i_m_source_file_index>
69

> <r_mmod_Potential_Energy-OPLS-2005>
101.822601318359

> <r_mmod_Stretch_Energy-OPLS-2005>
124.606750488281

> <r_mmod_Bend_Energy-OPLS-2005>
206.412811279297

> <r_mmod_Torsional_Energy-OPLS-2005>
294.556427001953

> <r_mmod_Improper_Torsional_Energy-OPLS-2005>
7.19424152374268

> <r_mmod_Van_der_Waal_Energy-OPLS-2005>
133.958969116211

> <r_mmod_Electrostatic_Energy-OPLS-2005>
-312.417846679688

> <r_mmod_Solvation_Energy-OPLS-2005>
-440.539672851562

> <b_mmod_Minimization_Converged-OPLS-2005>
0

> <r_mmod_RMS_Derivative-OPLS-2005>
0.647149980068207

$$$$
69
                    3D
 Structure written by MMmdl.
154162  0  0  1  0            999 V2000
  -30.6063  -14.7267   20.3567 C   0  0  0  0  0  0
  -30.4398  -12.4061   19.4749 C   0  0  0  0  0  0
  -29.5114  -12.3780   18.2406 C   0  0  0  0  0  0
  -28.0243  -12.2940   18.6539 C   0  0  0  0  0  0
  -27.6357  -13.2102   19.8498 C   0  0  2  0  0  0
  -28.6939  -13.1773   20.9707 C   0  0  0  0  0  0
  -25.2531  -13.8140   20.5773 C   0  0  0  0  0  0
  -24.1788  -13.0411   20.9249 C   0  0  0  0  0  0
  -24.6352  -11.6883   20.8795 C   0  0  0  0  0  0
  -23.9032  -10.4279   21.0431 C   0  0  0  0  0  0
  -24.3593   -9.4189   21.9189 C   0  0  0  0  0  0
  -23.6274   -8.2223   22.0748 C   0  0  0  0  0  0
  -22.4256   -8.0272   21.3537 C   0  0  0  0  0  0
  -21.9893   -9.0249   20.4637 C   0  0  0  0  0  0
  -22.7218  -10.2130   20.3064 C   0  0  0  0  0  0
  -21.6847   -6.0727   22.5274 C   0  0  0  0  0  0
  -21.4001   -6.5627   23.8207 C   0  0  0  0  0  0
  -21.3664   -5.6780   24.9169 C   0  0  0  0  0  0
  -21.6053   -4.3044   24.7218 C   0  0  0  0  0  0
  -21.8821   -3.8139   23.4339 C   0  0  0  0  0  0
  -21.9187   -4.6956   22.3394 C   0  0  0  0  0  0
  -22.7819  -13.5221   21.1891 C   0  0  0  0  0  0
  -22.1654   -4.2141   21.0974 F   0  0  0  0  0  0
  -21.5644   -3.4527   25.7733 F   0  0  0  0  0  0
  -29.9848  -13.5008   20.3535 N   0  0  0  0  0  0
  -26.2925  -12.9286   20.3384 N   0  0  0  0  0  0
  -25.9279  -11.6457   20.5855 N   0  0  0  0  0  0
  -22.0449  -12.8216   22.0439 N   0  0  0  0  0  0
  -25.4269  -15.1862   20.4218 N   0  0  0  0  0  0
  -31.8352  -14.7939   20.2597 O   0  0  0  0  0  0
  -21.6619   -6.8871   21.4237 O   0  0  0  0  0  0
  -22.3521  -14.5526   20.6733 O   0  0  0  0  0  0
  -24.6255  -31.8590   23.2003 C   0  0  0  0  0  0
  -25.9104  -32.4773   23.8335 C   0  0  1  0  0  0
  -27.2296  -27.3151   20.1209 C   0  0  0  0  0  0
  -25.5925  -33.8573   24.2269 N   0  0  0  0  0  0
  -23.4183  -30.4801   21.5439 C   0  0  2  0  0  0
  -24.8643  -28.9292   20.1112 C   0  0  0  0  0  0
  -22.7468  -29.4614   22.4946 C   0  0  0  0  0  0
  -18.0285  -28.1377   22.8489 C   0  0  0  0  0  0
  -24.1488  -36.7286   23.2640 C   0  0  0  0  0  0
  -25.9576  -30.7896   21.3685 C   0  0  0  0  0  0
  -26.0306  -29.4149   20.7133 C   0  0  0  0  0  0
  -27.2117  -28.6185   20.7074 C   0  0  0  0  0  0
  -26.0352  -26.8710   19.5090 C   0  0  0  0  0  0
  -24.8683  -27.6631   19.5020 C   0  0  0  0  0  0
  -23.6319  -29.8095   20.1598 C   0  0  0  0  0  0
  -25.4115  -36.3079   24.0330 C   0  0  1  0  0  0
  -20.5881  -28.3679   23.1293 C   0  0  2  0  0  0
  -20.6774  -26.9402   22.5416 C   0  0  0  0  0  0
  -19.5754  -26.6380   21.5214 C   0  0  0  0  0  0
  -18.1931  -26.7921   22.1621 C   0  0  0  0  0  0
  -19.1535  -28.8845   23.2886 C   0  0  0  0  0  0
  -18.9457  -30.1449   23.8898 C   0  0  0  0  0  0
  -17.6456  -30.6582   24.0559 C   0  0  0  0  0  0
  -25.9050  -34.9450   23.5100 C   0  0  0  0  0  0
  -16.5349  -29.9078   23.6328 C   0  0  0  0  0  0
  -16.7271  -28.6494   23.0353 C   0  0  0  0  0  0
  -26.4498  -31.6585   25.0703 C   0  0  0  0  0  0
  -25.3744  -31.3718   26.1439 C   0  0  0  0  0  0
  -27.0343  -30.3015   24.6145 C   0  0  0  0  0  0
  -27.6055  -32.4326   25.7475 C   0  0  0  0  0  0
  -27.5579  -37.1801   24.8468 C   0  0  0  0  0  0
  -21.4183  -29.3030   22.3691 N   0  0  0  0  0  0
  -26.4292  -37.3776   23.9409 N   0  0  0  0  0  0
  -24.6861  -31.0599   22.0951 N   0  0  0  0  0  0
  -23.4196  -28.8169   23.3033 O   0  0  0  0  0  0
  -28.3842  -26.5203   20.1893 O   0  0  0  0  0  0
  -26.5618  -34.8919   22.4666 O   0  0  0  0  0  0
  -23.5420  -32.1384   23.7338 O   0  0  0  0  0  0
  -28.7077  -17.5589   21.2588 C   0  0  0  0  0  0
  -28.3906  -18.9352   21.4772 C   0  0  0  0  0  0
  -30.1618  -19.6103   20.0090 C   0  0  0  0  0  0
  -29.7555  -17.1630   20.3886 C   0  0  0  0  0  0
  -29.0730  -20.0032   20.8306 C   0  0  0  0  0  0
  -30.5010  -18.2362   19.8049 C   0  0  0  0  0  0
  -29.6936  -15.7643   18.4006 C   0  0  0  0  0  0
  -28.4170  -23.8918   20.6762 C   0  0  0  0  0  0
  -28.4834  -25.1331   19.6757 C   0  0  0  0  0  0
  -28.9206  -22.4568   20.1665 C   0  0  0  0  0  0
  -29.8464  -15.7858   19.8718 N   0  0  0  0  0  0
  -28.6487  -21.3317   21.0710 O   0  0  0  0  0  0
  -31.5251  -17.9523   18.9639 F   0  0  0  0  0  0
  -31.4779  -12.5345   19.1615 H   0  0  0  0  0  0
  -30.4003  -11.4564   20.0097 H   0  0  0  0  0  0
  -29.7595  -11.5130   17.6239 H   0  0  0  0  0  0
  -29.6931  -13.2328   17.5962 H   0  0  0  0  0  0
  -27.8412  -11.2542   18.9270 H   0  0  0  0  0  0
  -27.3783  -12.4948   17.7988 H   0  0  0  0  0  0
  -27.5978  -14.2250   19.4703 H   0  0  0  0  0  0
  -28.7291  -12.1996   21.4536 H   0  0  0  0  0  0
  -28.4507  -13.9045   21.7475 H   0  0  0  0  0  0
  -25.2740   -9.5661   22.4759 H   0  0  0  0  0  0
  -23.9987   -7.4605   22.7453 H   0  0  0  0  0  0
  -21.0834   -8.8765   19.8933 H   0  0  0  0  0  0
  -22.3681  -10.9666   19.6170 H   0  0  0  0  0  0
  -21.1989   -7.6129   23.9703 H   0  0  0  0  0  0
  -21.1488   -6.0511   25.9070 H   0  0  0  0  0  0
  -22.0603   -2.7604   23.2837 H   0  0  0  0  0  0
  -22.4035  -11.9863   22.4825 H   0  0  0  0  0  0
  -21.1059  -13.1238   22.2623 H   0  0  0  0  0  0
  -24.6684  -15.8471   20.5492 H   0  0  0  0  0  0
  -26.2890  -15.6233   20.1221 H   0  0  0  0  0  0
  -26.7171  -32.5443   23.1082 H   0  0  0  0  0  0
  -25.0089  -33.9720   25.0424 H   0  0  0  0  0  0
  -22.7114  -31.2997   21.3992 H   0  0  0  0  0  0
  -23.3751  -35.9619   23.3309 H   0  0  0  0  0  0
  -24.3572  -36.8898   22.2052 H   0  0  0  0  0  0
  -23.7242  -37.6491   23.6656 H   0  0  0  0  0  0
  -26.0851  -31.5518   20.5987 H   0  0  0  0  0  0
  -26.8396  -30.8407   21.9955 H   0  0  0  0  0  0
  -28.1087  -28.9902   21.1825 H   0  0  0  0  0  0
  -25.9654  -25.8972   19.0514 H   0  0  0  0  0  0
  -23.9706  -27.2812   19.0354 H   0  0  0  0  0  0
  -23.7490  -30.5832   19.4003 H   0  0  0  0  0  0
  -22.7522  -29.2369   19.8609 H   0  0  0  0  0  0
  -25.1298  -36.1928   25.0824 H   0  0  0  0  0  0
  -20.9971  -28.3248   24.1415 H   0  0  0  0  0  0
  -20.5670  -26.2286   23.3614 H   0  0  0  0  0  0
  -21.6645  -26.7432   22.1214 H   0  0  0  0  0  0
  -19.6912  -25.6292   21.1242 H   0  0  0  0  0  0
  -19.6692  -27.3192   20.6747 H   0  0  0  0  0  0
  -17.4205  -26.6677   21.4018 H   0  0  0  0  0  0
  -18.0320  -26.0058   22.9011 H   0  0  0  0  0  0
  -19.7935  -30.7269   24.2263 H   0  0  0  0  0  0
  -17.5011  -31.6261   24.5163 H   0  0  0  0  0  0
  -15.5348  -30.2980   23.7651 H   0  0  0  0  0  0
  -15.8672  -28.0814   22.7064 H   0  0  0  0  0  0
  -24.5902  -30.7087   25.7769 H   0  0  0  0  0  0
  -24.8959  -32.2885   26.4894 H   0  0  0  0  0  0
  -25.8077  -30.8870   27.0196 H   0  0  0  0  0  0
  -26.2909  -29.6761   24.1187 H   0  0  0  0  0  0
  -27.4074  -29.7272   25.4636 H   0  0  0  0  0  0
  -27.8763  -30.4310   23.9340 H   0  0  0  0  0  0
  -27.2653  -33.3616   26.2065 H   0  0  0  0  0  0
  -28.3856  -32.6908   25.0301 H   0  0  0  0  0  0
  -28.0738  -31.8451   26.5384 H   0  0  0  0  0  0
  -28.2608  -38.0087   24.7501 H   0  0  0  0  0  0
  -28.1063  -36.2617   24.6311 H   0  0  0  0  0  0
  -27.2294  -37.1470   25.8871 H   0  0  0  0  0  0
  -20.9360  -29.8746   21.6897 H   0  0  0  0  0  0
  -26.0171  -38.2853   24.1404 H   0  0  0  0  0  0
  -28.0816  -16.8050   21.7138 H   0  0  0  0  0  0
  -27.5587  -19.1723   22.1253 H   0  0  0  0  0  0
  -30.7500  -20.3602   19.5026 H   0  0  0  0  0  0
  -29.4771  -16.7435   17.9740 H   0  0  0  0  0  0
  -28.8564  -15.1529   18.0832 H   0  0  0  0  0  0
  -30.5921  -15.4017   17.8964 H   0  0  0  0  0  0
  -27.3875  -23.7963   21.0206 H   0  0  0  0  0  0
  -28.9972  -24.1443   21.5636 H   0  0  0  0  0  0
  -27.8188  -24.9626   18.8316 H   0  0  0  0  0  0
  -29.4747  -25.0958   19.2240 H   0  0  0  0  0  0
  -29.9920  -22.5113   19.9706 H   0  0  0  0  0  0
  -28.4434  -22.2346   19.2110 H   0  0  0  0  0  0
  1 25  1  0  0  0
  1 30  2  0  0  0
  1 81  1  0  0  0
  2  3  1  0  0  0
  2 25  1  0  0  0
  2 84  1  0  0  0
  2 85  1  0  0  0
  3  4  1  0  0  0
  3 86  1  0  0  0
  3 87  1  0  0  0
  4  5  1  0  0  0
  4 88  1  0  0  0
  4 89  1  0  0  0
  5  6  1  0  0  0
  5 26  1  0  0  0
  5 90  1  0  0  0
  6 25  1  0  0  0
  6 91  1  0  0  0
  6 92  1  0  0  0
  7  8  2  0  0  0
  7 26  1  0  0  0
  7 29  1  0  0  0
  8  9  1  0  0  0
  8 22  1  0  0  0
  9 10  1  0  0  0
  9 27  2  0  0  0
 10 11  2  0  0  0
 10 15  1  0  0  0
 11 12  1  0  0  0
 11 93  1  0  0  0
 12 13  2  0  0  0
 12 94  1  0  0  0
 13 14  1  0  0  0
 13 31  1  0  0  0
 14 15  2  0  0  0
 14 95  1  0  0  0
 15 96  1  0  0  0
 16 17  2  0  0  0
 16 21  1  0  0  0
 16 31  1  0  0  0
 17 18  1  0  0  0
 17 97  1  0  0  0
 18 19  2  0  0  0
 18 98  1  0  0  0
 19 20  1  0  0  0
 19 24  1  0  0  0
 20 21  2  0  0  0
 20 99  1  0  0  0
 21 23  1  0  0  0
 22 28  1  0  0  0
 22 32  2  0  0  0
 26 27  1  0  0  0
 28100  1  0  0  0
 28101  1  0  0  0
 29102  1  0  0  0
 29103  1  0  0  0
 33 34  1  0  0  0
 33 66  1  0  0  0
 33 70  2  0  0  0
 34 36  1  0  0  0
 34 59  1  0  0  0
 34104  1  0  0  0
 35 44  2  0  0  0
 35 45  1  0  0  0
 35 68  1  0  0  0
 36 56  1  0  0  0
 36105  1  0  0  0
 37 39  1  0  0  0
 37 47  1  0  0  0
 37 66  1  0  0  0
 37106  1  0  0  0
 38 43  2  0  0  0
 38 46  1  0  0  0
 38 47  1  0  0  0
 39 64  1  0  0  0
 39 67  2  0  0  0
 40 52  1  0  0  0
 40 53  2  0  0  0
 40 58  1  0  0  0
 41107  1  0  0  0
 41108  1  0  0  0
 41109  1  0  0  0
 41 48  1  0  0  0
 42 43  1  0  0  0
 42 66  1  0  0  0
 42110  1  0  0  0
 42111  1  0  0  0
 43 44  1  0  0  0
 44112  1  0  0  0
 45 46  2  0  0  0
 45113  1  0  0  0
 46114  1  0  0  0
 47115  1  0  0  0
 47116  1  0  0  0
 48 56  1  0  0  0
 48 65  1  0  0  0
 48117  1  0  0  0
 49 50  1  0  0  0
 49 53  1  0  0  0
 49 64  1  0  0  0
 49118  1  0  0  0
 50 51  1  0  0  0
 50119  1  0  0  0
 50120  1  0  0  0
 51 52  1  0  0  0
 51121  1  0  0  0
 51122  1  0  0  0
 52123  1  0  0  0
 52124  1  0  0  0
 53 54  1  0  0  0
 54 55  2  0  0  0
 54125  1  0  0  0
 55 57  1  0  0  0
 55126  1  0  0  0
 56 69  2  0  0  0
 57 58  2  0  0  0
 57127  1  0  0  0
 58128  1  0  0  0
 59 60  1  0  0  0
 59 61  1  0  0  0
 59 62  1  0  0  0
 60129  1  0  0  0
 60130  1  0  0  0
 60131  1  0  0  0
 61132  1  0  0  0
 61133  1  0  0  0
 61134  1  0  0  0
 62135  1  0  0  0
 62136  1  0  0  0
 62137  1  0  0  0
 63 65  1  0  0  0
 63138  1  0  0  0
 63139  1  0  0  0
 63140  1  0  0  0
 64141  1  0  0  0
 65142  1  0  0  0
 68 79  1  0  0  0
 71 72  2  0  0  0
 71 74  1  0  0  0
 71143  1  0  0  0
 72 75  1  0  0  0
 72144  1  0  0  0
 73 75  2  0  0  0
 73 76  1  0  0  0
 73145  1  0  0  0
 74 76  2  0  0  0
 74 81  1  0  0  0
 75 82  1  0  0  0
 76 83  1  0  0  0
 77 81  1  0  0  0
 77146  1  0  0  0
 77147  1  0  0  0
 77148  1  0  0  0
 78 79  1  0  0  0
 78 80  1  0  0  0
 78149  1  0  0  0
 78150  1  0  0  0
 79151  1  0  0  0
 79152  1  0  0  0
 80 82  1  0  0  0
 80153  1  0  0  0
 80154  1  0  0  0
M  ISO  4   1 100  68 101  79 101  81 100
M  END
> <chiral flag>
0

> <version>
0

> <s_m_source_file>
/data/baiqing/PycharmProjects/Reinvent-master-3.2/result/LINK_invent/BTK/process_docking_weight1_custom_product_contain_oxygen_bond_distance_aromatic_linkinvent_7_9_3/rearranged_h_0010.sdf

> <i_m_source_file_index>
70

> <r_mmod_Potential_Energy-OPLS-2005>
309.552795410156

> <r_mmod_Stretch_Energy-OPLS-2005>
88.2453536987305

> <r_mmod_Bend_Energy-OPLS-2005>
167.276290893555

> <r_mmod_Torsional_Energy-OPLS-2005>
327.139190673828

> <r_mmod_Improper_Torsional_Energy-OPLS-2005>
25.6013622283936

> <r_mmod_Van_der_Waal_Energy-OPLS-2005>
144.744674682617

> <r_mmod_Electrostatic_Energy-OPLS-2005>
-321.322082519531

> <r_mmod_Solvation_Energy-OPLS-2005>
-199.737258911133

> <b_mmod_Minimization_Converged-OPLS-2005>
0

> <r_mmod_RMS_Derivative-OPLS-2005>
0.991896033287048

$$$$
70
                    3D
 Structure written by MMmdl.
154162  0  0  1  0            999 V2000
  -30.4613  -15.1038   20.3677 C   0  0  0  0  0  0
  -30.4439  -12.6795   19.5302 C   0  0  0  0  0  0
  -29.5343  -12.5530   18.2828 C   0  0  0  0  0  0
  -28.0704  -12.3121   18.6945 C   0  0  0  0  0  0
  -27.6277  -13.2394   19.8530 C   0  0  2  0  0  0
  -28.6684  -13.3320   20.9912 C   0  0  0  0  0  0
  -25.2451  -13.8165   20.5787 C   0  0  0  0  0  0
  -24.1757  -13.0412   20.9281 C   0  0  0  0  0  0
  -24.6362  -11.6895   20.8787 C   0  0  0  0  0  0
  -23.9044  -10.4278   21.0438 C   0  0  0  0  0  0
  -24.3599   -9.4192   21.9210 C   0  0  0  0  0  0
  -23.6274   -8.2232   22.0766 C   0  0  0  0  0  0
  -22.4256   -8.0278   21.3569 C   0  0  0  0  0  0
  -21.9882   -9.0250   20.4675 C   0  0  0  0  0  0
  -22.7212  -10.2131   20.3090 C   0  0  0  0  0  0
  -21.6845   -6.0729   22.5286 C   0  0  0  0  0  0
  -21.4008   -6.5642   23.8221 C   0  0  0  0  0  0
  -21.3659   -5.6797   24.9180 C   0  0  0  0  0  0
  -21.6044   -4.3059   24.7232 C   0  0  0  0  0  0
  -21.8814   -3.8146   23.4355 C   0  0  0  0  0  0
  -21.9192   -4.6955   22.3412 C   0  0  0  0  0  0
  -22.7774  -13.5228   21.1896 C   0  0  0  0  0  0
  -22.1663   -4.2152   21.0984 F   0  0  0  0  0  0
  -21.5612   -3.4543   25.7738 F   0  0  0  0  0  0
  -29.9267  -13.7983   20.3889 N   0  0  0  0  0  0
  -26.2877  -12.9389   20.3354 N   0  0  0  0  0  0
  -25.9300  -11.6528   20.5794 N   0  0  0  0  0  0
  -22.0403  -12.8237   22.0451 N   0  0  0  0  0  0
  -25.4061  -15.1880   20.4204 N   0  0  0  0  0  0
  -31.6414  -15.1753   19.9975 O   0  0  0  0  0  0
  -21.6645   -6.8862   21.4246 O   0  0  0  0  0  0
  -22.3479  -14.5527   20.6708 O   0  0  0  0  0  0
  -24.6481  -31.8353   23.1809 C   0  0  0  0  0  0
  -25.9222  -32.4643   23.8240 C   0  0  1  0  0  0
  -27.2308  -27.0699   20.1499 C   0  0  0  0  0  0
  -25.5945  -33.8455   24.2139 N   0  0  0  0  0  0
  -23.4575  -30.4493   21.5263 C   0  0  2  0  0  0
  -24.9111  -28.8620   20.1006 C   0  0  0  0  0  0
  -22.7611  -29.4489   22.4824 C   0  0  0  0  0  0
  -18.0318  -28.1413   22.8468 C   0  0  0  0  0  0
  -24.1477  -36.7235   23.2649 C   0  0  0  0  0  0
  -26.0172  -30.6807   21.3981 C   0  0  0  0  0  0
  -26.0850  -29.2886   20.7318 C   0  0  0  0  0  0
  -27.2355  -28.4059   20.7435 C   0  0  0  0  0  0
  -26.0341  -26.7589   19.4673 C   0  0  0  0  0  0
  -24.9023  -27.6145   19.4530 C   0  0  0  0  0  0
  -23.6888  -29.7714   20.1472 C   0  0  0  0  0  0
  -25.4119  -36.3006   24.0309 C   0  0  1  0  0  0
  -20.5931  -28.3738   23.1216 C   0  0  2  0  0  0
  -20.6799  -26.9427   22.5414 C   0  0  0  0  0  0
  -19.5778  -26.6372   21.5221 C   0  0  0  0  0  0
  -18.1955  -26.7951   22.1618 C   0  0  0  0  0  0
  -19.1578  -28.8902   23.2827 C   0  0  0  0  0  0
  -18.9488  -30.1497   23.8853 C   0  0  0  0  0  0
  -17.6479  -30.6592   24.0565 C   0  0  0  0  0  0
  -25.9083  -34.9384   23.5045 C   0  0  0  0  0  0
  -16.5371  -29.9079   23.6339 C   0  0  0  0  0  0
  -16.7303  -28.6505   23.0352 C   0  0  0  0  0  0
  -26.4493  -31.6577   25.0752 C   0  0  0  0  0  0
  -25.3628  -31.3840   26.1423 C   0  0  0  0  0  0
  -27.0389  -30.2947   24.6473 C   0  0  0  0  0  0
  -27.6006  -32.4386   25.7542 C   0  0  0  0  0  0
  -27.5568  -37.1774   24.8446 C   0  0  0  0  0  0
  -21.4304  -29.3028   22.3567 N   0  0  0  0  0  0
  -26.4270  -37.3726   23.9399 N   0  0  0  0  0  0
  -24.7269  -31.0133   22.0883 N   0  0  0  0  0  0
  -23.4219  -28.8068   23.3038 O   0  0  0  0  0  0
  -28.2738  -26.0641   20.3114 O   0  0  0  0  0  0
  -26.5683  -34.8885   22.4637 O   0  0  0  0  0  0
  -23.5575  -32.1272   23.6971 O   0  0  0  0  0  0
  -27.6085  -20.0676   19.4792 C   0  0  0  0  0  0
  -27.2375  -18.7419   19.1739 C   0  0  0  0  0  0
  -29.6450  -19.1398   20.4448 C   0  0  0  0  0  0
  -28.8437  -20.3851   20.0795 C   0  0  0  0  0  0
  -29.2556  -17.6908   20.1925 C   0  0  0  0  0  0
  -28.0282  -17.6169   19.4951 C   0  0  0  0  0  0
  -28.3102  -23.0968   20.2763 C   0  0  0  0  0  0
  -31.3519  -22.7586   20.9932 C   0  0  0  0  0  0
  -28.4779  -24.6536   19.6128 C   0  0  0  0  0  0
  -30.5754  -22.2152   19.7843 C   0  0  0  0  0  0
  -29.7088  -16.2824   20.7496 N   0  0  0  0  0  0
  -29.1725  -21.9266   20.1030 N   0  0  0  0  0  0
  -27.2882  -22.9518   20.9541 O   0  0  0  0  0  0
  -27.5417  -16.4072   19.1514 F   0  0  0  0  0  0
  -31.4747  -12.8493   19.2195 H   0  0  0  0  0  0
  -30.4621  -11.7418   20.0871 H   0  0  0  0  0  0
  -29.8742  -11.7396   17.6406 H   0  0  0  0  0  0
  -29.6109  -13.4640   17.6883 H   0  0  0  0  0  0
  -27.9751  -11.2698   18.9986 H   0  0  0  0  0  0
  -27.4094  -12.4445   17.8364 H   0  0  0  0  0  0
  -27.5712  -14.2156   19.3947 H   0  0  0  0  0  0
  -28.7956  -12.3666   21.4837 H   0  0  0  0  0  0
  -28.3350  -14.0270   21.7616 H   0  0  0  0  0  0
  -25.2737   -9.5675   22.4792 H   0  0  0  0  0  0
  -23.9996   -7.4616   22.7466 H   0  0  0  0  0  0
  -21.0807   -8.8771   19.8984 H   0  0  0  0  0  0
  -22.3664  -10.9676   19.6215 H   0  0  0  0  0  0
  -21.2013   -7.6144   23.9713 H   0  0  0  0  0  0
  -21.1482   -6.0535   25.9085 H   0  0  0  0  0  0
  -22.0589   -2.7602   23.2859 H   0  0  0  0  0  0
  -22.3984  -11.9928   22.4926 H   0  0  0  0  0  0
  -21.1023  -13.1273   22.2622 H   0  0  0  0  0  0
  -24.6196  -15.8220   20.4925 H   0  0  0  0  0  0
  -26.2192  -15.6122   19.9803 H   0  0  0  0  0  0
  -26.7316  -32.5190   23.0985 H   0  0  0  0  0  0
  -25.0023  -33.9561   25.0237 H   0  0  0  0  0  0
  -22.7625  -31.2764   21.3651 H   0  0  0  0  0  0
  -23.3755  -35.9549   23.3285 H   0  0  0  0  0  0
  -24.3557  -36.8908   22.2072 H   0  0  0  0  0  0
  -23.7205  -37.6408   23.6718 H   0  0  0  0  0  0
  -26.2000  -31.4376   20.6347 H   0  0  0  0  0  0
  -26.8765  -30.7189   22.0560 H   0  0  0  0  0  0
  -28.1220  -28.7233   21.2738 H   0  0  0  0  0  0
  -25.9334  -25.7980   18.9864 H   0  0  0  0  0  0
  -24.0048  -27.2849   18.9483 H   0  0  0  0  0  0
  -23.8317  -30.5444   19.3920 H   0  0  0  0  0  0
  -22.8015  -29.2196   19.8329 H   0  0  0  0  0  0
  -25.1300  -36.1845   25.0795 H   0  0  0  0  0  0
  -21.0011  -28.3358   24.1345 H   0  0  0  0  0  0
  -20.5686  -26.2358   23.3650 H   0  0  0  0  0  0
  -21.6668  -26.7414   22.1227 H   0  0  0  0  0  0
  -19.6936  -25.6265   21.1296 H   0  0  0  0  0  0
  -19.6729  -27.3145   20.6726 H   0  0  0  0  0  0
  -17.4225  -26.6708   21.4017 H   0  0  0  0  0  0
  -18.0334  -26.0100   22.9016 H   0  0  0  0  0  0
  -19.7960  -30.7338   24.2191 H   0  0  0  0  0  0
  -17.5020  -31.6263   24.5185 H   0  0  0  0  0  0
  -15.5368  -30.2961   23.7678 H   0  0  0  0  0  0
  -15.8715  -28.0802   22.7081 H   0  0  0  0  0  0
  -24.5795  -30.7203   25.7732 H   0  0  0  0  0  0
  -24.8828  -32.3055   26.4738 H   0  0  0  0  0  0
  -25.7846  -30.9071   27.0282 H   0  0  0  0  0  0
  -26.3056  -29.6652   24.1421 H   0  0  0  0  0  0
  -27.3854  -29.7292   25.5137 H   0  0  0  0  0  0
  -27.9023  -30.4132   23.9924 H   0  0  0  0  0  0
  -27.2570  -33.3702   26.2052 H   0  0  0  0  0  0
  -28.3843  -32.6940   25.0398 H   0  0  0  0  0  0
  -28.0655  -31.8586   26.5525 H   0  0  0  0  0  0
  -28.2556  -38.0095   24.7510 H   0  0  0  0  0  0
  -28.1100  -36.2635   24.6245 H   0  0  0  0  0  0
  -27.2306  -37.1375   25.8851 H   0  0  0  0  0  0
  -20.9550  -29.8682   21.6677 H   0  0  0  0  0  0
  -26.0148  -38.2793   24.1407 H   0  0  0  0  0  0
  -26.9307  -20.8576   19.1853 H   0  0  0  0  0  0
  -26.2900  -18.5803   18.6798 H   0  0  0  0  0  0
  -30.5796  -19.3044   20.9619 H   0  0  0  0  0  0
  -32.3905  -22.9549   20.7256 H   0  0  0  0  0  0
  -31.3508  -22.0370   21.8108 H   0  0  0  0  0  0
  -30.9245  -23.6906   21.3645 H   0  0  0  0  0  0
  -27.8692  -24.6527   18.7102 H   0  0  0  0  0  0
  -29.4954  -24.7115   19.2344 H   0  0  0  0  0  0
  -31.0680  -21.3087   19.4349 H   0  0  0  0  0  0
  -30.6484  -22.8975   18.9381 H   0  0  0  0  0  0
  -28.9202  -15.9002   21.2495 H   0  0  0  0  0  0
  1 25  1  0  0  0
  1 30  2  0  0  0
  1 81  1  0  0  0
  2  3  1  0  0  0
  2 25  1  0  0  0
  2 85  1  0  0  0
  2 86  1  0  0  0
  3  4  1  0  0  0
  3 87  1  0  0  0
  3 88  1  0  0  0
  4  5  1  0  0  0
  4 89  1  0  0  0
  4 90  1  0  0  0
  5  6  1  0  0  0
  5 26  1  0  0  0
  5 91  1  0  0  0
  6 25  1  0  0  0
  6 92  1  0  0  0
  6 93  1  0  0  0
  7  8  2  0  0  0
  7 26  1  0  0  0
  7 29  1  0  0  0
  8  9  1  0  0  0
  8 22  1  0  0  0
  9 10  1  0  0  0
  9 27  2  0  0  0
 10 11  2  0  0  0
 10 15  1  0  0  0
 11 12  1  0  0  0
 11 94  1  0  0  0
 12 13  2  0  0  0
 12 95  1  0  0  0
 13 14  1  0  0  0
 13 31  1  0  0  0
 14 15  2  0  0  0
 14 96  1  0  0  0
 15 97  1  0  0  0
 16 17  2  0  0  0
 16 21  1  0  0  0
 16 31  1  0  0  0
 17 18  1  0  0  0
 17 98  1  0  0  0
 18 19  2  0  0  0
 18 99  1  0  0  0
 19 20  1  0  0  0
 19 24  1  0  0  0
 20 21  2  0  0  0
 20100  1  0  0  0
 21 23  1  0  0  0
 22 28  1  0  0  0
 22 32  2  0  0  0
 26 27  1  0  0  0
 28101  1  0  0  0
 28102  1  0  0  0
 29103  1  0  0  0
 29104  1  0  0  0
 33 34  1  0  0  0
 33 66  1  0  0  0
 33 70  2  0  0  0
 34 36  1  0  0  0
 34 59  1  0  0  0
 34105  1  0  0  0
 35 44  2  0  0  0
 35 45  1  0  0  0
 35 68  1  0  0  0
 36 56  1  0  0  0
 36106  1  0  0  0
 37 39  1  0  0  0
 37 47  1  0  0  0
 37 66  1  0  0  0
 37107  1  0  0  0
 38 43  2  0  0  0
 38 46  1  0  0  0
 38 47  1  0  0  0
 39 64  1  0  0  0
 39 67  2  0  0  0
 40 52  1  0  0  0
 40 53  2  0  0  0
 40 58  1  0  0  0
 41108  1  0  0  0
 41109  1  0  0  0
 41110  1  0  0  0
 41 48  1  0  0  0
 42 43  1  0  0  0
 42 66  1  0  0  0
 42111  1  0  0  0
 42112  1  0  0  0
 43 44  1  0  0  0
 44113  1  0  0  0
 45 46  2  0  0  0
 45114  1  0  0  0
 46115  1  0  0  0
 47116  1  0  0  0
 47117  1  0  0  0
 48 56  1  0  0  0
 48 65  1  0  0  0
 48118  1  0  0  0
 49 50  1  0  0  0
 49 53  1  0  0  0
 49 64  1  0  0  0
 49119  1  0  0  0
 50 51  1  0  0  0
 50120  1  0  0  0
 50121  1  0  0  0
 51 52  1  0  0  0
 51122  1  0  0  0
 51123  1  0  0  0
 52124  1  0  0  0
 52125  1  0  0  0
 53 54  1  0  0  0
 54 55  2  0  0  0
 54126  1  0  0  0
 55 57  1  0  0  0
 55127  1  0  0  0
 56 69  2  0  0  0
 57 58  2  0  0  0
 57128  1  0  0  0
 58129  1  0  0  0
 59 60  1  0  0  0
 59 61  1  0  0  0
 59 62  1  0  0  0
 60130  1  0  0  0
 60131  1  0  0  0
 60132  1  0  0  0
 61133  1  0  0  0
 61134  1  0  0  0
 61135  1  0  0  0
 62136  1  0  0  0
 62137  1  0  0  0
 62138  1  0  0  0
 63 65  1  0  0  0
 63139  1  0  0  0
 63140  1  0  0  0
 63141  1  0  0  0
 64142  1  0  0  0
 65143  1  0  0  0
 68 79  1  0  0  0
 71 72  2  0  0  0
 71 74  1  0  0  0
 71144  1  0  0  0
 72 76  1  0  0  0
 72145  1  0  0  0
 73 74  2  0  0  0
 73 75  1  0  0  0
 73146  1  0  0  0
 74 82  1  0  0  0
 75 76  2  0  0  0
 75 81  1  0  0  0
 76 84  1  0  0  0
 77 79  1  0  0  0
 77 82  1  0  0  0
 77 83  2  0  0  0
 78 80  1  0  0  0
 78147  1  0  0  0
 78148  1  0  0  0
 78149  1  0  0  0
 79150  1  0  0  0
 79151  1  0  0  0
 80 82  1  0  0  0
 80152  1  0  0  0
 80153  1  0  0  0
 81154  1  0  0  0
M  ISO  4   1 100  68 101  79 101  81 100
M  END
> <chiral flag>
0

> <version>
0

> <s_m_source_file>
/data/baiqing/PycharmProjects/Reinvent-master-3.2/result/LINK_invent/BTK/process_docking_weight1_custom_product_contain_oxygen_bond_distance_aromatic_linkinvent_7_9_3/rearranged_h_0010.sdf

> <i_m_source_file_index>
71

> <r_mmod_Potential_Energy-OPLS-2005>
921.280334472656

> <r_mmod_Stretch_Energy-OPLS-2005>
376.103759765625

> <r_mmod_Bend_Energy-OPLS-2005>
365.923187255859

> <r_mmod_Torsional_Energy-OPLS-2005>
313.512634277344

> <r_mmod_Improper_Torsional_Energy-OPLS-2005>
9.48841381072998

> <r_mmod_Van_der_Waal_Energy-OPLS-2005>
129.795913696289

> <r_mmod_Electrostatic_Energy-OPLS-2005>
-347.259338378906

> <r_mmod_Solvation_Energy-OPLS-2005>
-219.736907958984

> <b_mmod_Minimization_Converged-OPLS-2005>
0

> <r_mmod_RMS_Derivative-OPLS-2005>
3.22079014778137

$$$$
71
                    3D
 Structure written by MMmdl.
151159  0  0  1  0            999 V2000
  -30.6292  -14.6552   20.5120 C   0  0  0  0  0  0
  -30.4424  -12.4079   19.4595 C   0  0  0  0  0  0
  -29.5110  -12.5155   18.2297 C   0  0  0  0  0  0
  -28.0326  -12.3590   18.6379 C   0  0  0  0  0  0
  -27.6558  -13.2250   19.8683 C   0  0  2  0  0  0
  -28.7011  -13.0841   20.9993 C   0  0  0  0  0  0
  -25.2574  -13.8198   20.5729 C   0  0  0  0  0  0
  -24.1842  -13.0435   20.9193 C   0  0  0  0  0  0
  -24.6426  -11.6917   20.8739 C   0  0  0  0  0  0
  -23.9102  -10.4292   21.0414 C   0  0  0  0  0  0
  -24.3650   -9.4198   21.9186 C   0  0  0  0  0  0
  -23.6316   -8.2244   22.0759 C   0  0  0  0  0  0
  -22.4294   -8.0302   21.3552 C   0  0  0  0  0  0
  -21.9948   -9.0270   20.4638 C   0  0  0  0  0  0
  -22.7289  -10.2142   20.3046 C   0  0  0  0  0  0
  -21.6853   -6.0759   22.5286 C   0  0  0  0  0  0
  -21.4019   -6.5657   23.8225 C   0  0  0  0  0  0
  -21.3659   -5.6799   24.9182 C   0  0  0  0  0  0
  -21.6047   -4.3062   24.7222 C   0  0  0  0  0  0
  -21.8821   -3.8160   23.4342 C   0  0  0  0  0  0
  -21.9192   -4.6986   22.3404 C   0  0  0  0  0  0
  -22.7859  -13.5222   21.1858 C   0  0  0  0  0  0
  -22.1662   -4.2179   21.0980 F   0  0  0  0  0  0
  -21.5625   -3.4532   25.7725 F   0  0  0  0  0  0
  -30.0164  -13.4300   20.4359 N   0  0  0  0  0  0
  -26.3009  -12.9401   20.3348 N   0  0  0  0  0  0
  -25.9358  -11.6536   20.5751 N   0  0  0  0  0  0
  -22.0504  -12.8170   22.0389 N   0  0  0  0  0  0
  -25.4246  -15.1942   20.4267 N   0  0  0  0  0  0
  -31.7894  -14.8107   20.1233 O   0  0  0  0  0  0
  -21.6647   -6.8913   21.4253 O   0  0  0  0  0  0
  -22.3532  -14.5533   20.6735 O   0  0  0  0  0  0
  -24.6275  -31.8582   23.2023 C   0  0  0  0  0  0
  -25.9107  -32.4767   23.8348 C   0  0  1  0  0  0
  -27.2247  -27.3139   20.1010 C   0  0  0  0  0  0
  -25.5920  -33.8573   24.2279 N   0  0  0  0  0  0
  -23.4199  -30.4844   21.5461 C   0  0  2  0  0  0
  -24.8654  -28.9402   20.1094 C   0  0  0  0  0  0
  -22.7449  -29.4630   22.4926 C   0  0  0  0  0  0
  -18.0273  -28.1406   22.8517 C   0  0  0  0  0  0
  -24.1486  -36.7298   23.2631 C   0  0  0  0  0  0
  -25.9612  -30.7865   21.3724 C   0  0  0  0  0  0
  -26.0362  -29.4146   20.7125 C   0  0  0  0  0  0
  -27.2185  -28.6129   20.6991 C   0  0  0  0  0  0
  -26.0258  -26.8954   19.4758 C   0  0  0  0  0  0
  -24.8621  -27.6861   19.4834 C   0  0  0  0  0  0
  -23.6322  -29.8198   20.1629 C   0  0  0  0  0  0
  -25.4105  -36.3086   24.0332 C   0  0  1  0  0  0
  -20.5874  -28.3719   23.1296 C   0  0  2  0  0  0
  -20.6769  -26.9440   22.5422 C   0  0  0  0  0  0
  -19.5737  -26.6415   21.5232 C   0  0  0  0  0  0
  -18.1915  -26.7954   22.1645 C   0  0  0  0  0  0
  -19.1522  -28.8877   23.2907 C   0  0  0  0  0  0
  -18.9450  -30.1484   23.8920 C   0  0  0  0  0  0
  -17.6447  -30.6615   24.0579 C   0  0  0  0  0  0
  -25.9050  -34.9453   23.5114 C   0  0  0  0  0  0
  -16.5339  -29.9108   23.6340 C   0  0  0  0  0  0
  -16.7260  -28.6518   23.0376 C   0  0  0  0  0  0
  -26.4491  -31.6576   25.0717 C   0  0  0  0  0  0
  -25.3730  -31.3691   26.1449 C   0  0  0  0  0  0
  -27.0324  -30.2995   24.6174 C   0  0  0  0  0  0
  -27.6068  -32.4296   25.7479 C   0  0  0  0  0  0
  -27.5605  -37.1757   24.8424 C   0  0  0  0  0  0
  -21.4157  -29.3074   22.3676 N   0  0  0  0  0  0
  -26.4262  -37.3810   23.9461 N   0  0  0  0  0  0
  -24.6887  -31.0580   22.0980 N   0  0  0  0  0  0
  -23.4161  -28.8161   23.3005 O   0  0  0  0  0  0
  -28.3464  -26.4620   20.1408 O   0  0  0  0  0  0
  -26.5625  -34.8933   22.4681 O   0  0  0  0  0  0
  -23.5438  -32.1397   23.7347 O   0  0  0  0  0  0
  -31.1198  -19.3296   20.8724 C   0  0  0  0  0  0
  -28.8346  -19.3208   20.1356 C   0  0  0  0  0  0
  -29.9551  -17.1489   20.6752 C   0  0  0  0  0  0
  -29.9886  -20.0861   20.4548 C   0  0  0  0  0  0
  -31.1138  -17.9069   20.9920 C   0  0  0  0  0  0
  -28.8182  -17.8957   20.2584 C   0  0  0  0  0  0
  -29.2922  -23.9609   20.2512 C   0  0  0  0  0  0
  -28.1399  -25.0083   19.9087 C   0  0  0  0  0  0
  -28.9887  -22.3974   20.0684 C   0  0  0  0  0  0
  -29.8193  -15.7021   20.8563 N   0  0  0  0  0  0
  -30.0959  -21.4964   20.4092 O   0  0  0  0  0  0
  -32.2177  -17.2863   21.4750 F   0  0  0  0  0  0
  -27.6714  -17.2242   19.9812 F   0  0  0  0  0  0
  -31.4810  -12.5409   19.1529 H   0  0  0  0  0  0
  -30.3857  -11.4141   19.9061 H   0  0  0  0  0  0
  -29.7741  -11.7607   17.4872 H   0  0  0  0  0  0
  -29.6566  -13.4824   17.7451 H   0  0  0  0  0  0
  -27.8583  -11.3061   18.8600 H   0  0  0  0  0  0
  -27.3864  -12.6055   17.7956 H   0  0  0  0  0  0
  -27.6689  -14.2606   19.5282 H   0  0  0  0  0  0
  -28.7143  -12.0635   21.3879 H   0  0  0  0  0  0
  -28.4440  -13.7181   21.8495 H   0  0  0  0  0  0
  -25.2802   -9.5662   22.4756 H   0  0  0  0  0  0
  -24.0026   -7.4631   22.7475 H   0  0  0  0  0  0
  -21.0897   -8.8801   19.8925 H   0  0  0  0  0  0
  -22.3776  -10.9690   19.6150 H   0  0  0  0  0  0
  -21.2018   -7.6169   23.9740 H   0  0  0  0  0  0
  -21.1477   -6.0524   25.9087 H   0  0  0  0  0  0
  -22.0598   -2.7618   23.2827 H   0  0  0  0  0  0
  -22.4134  -11.9823   22.4747 H   0  0  0  0  0  0
  -21.1110  -13.1156   22.2595 H   0  0  0  0  0  0
  -24.6597  -15.8409   20.5837 H   0  0  0  0  0  0
  -26.2801  -15.6621   20.1471 H   0  0  0  0  0  0
  -26.7156  -32.5449   23.1087 H   0  0  0  0  0  0
  -25.0008  -33.9717   25.0382 H   0  0  0  0  0  0
  -22.7172  -31.3084   21.4042 H   0  0  0  0  0  0
  -23.3803  -35.9564   23.3152 H   0  0  0  0  0  0
  -24.3600  -36.9083   22.2074 H   0  0  0  0  0  0
  -23.7150  -37.6416   23.6749 H   0  0  0  0  0  0
  -26.0838  -31.5490   20.6016 H   0  0  0  0  0  0
  -26.8459  -30.8421   21.9953 H   0  0  0  0  0  0
  -28.1183  -28.9730   21.1780 H   0  0  0  0  0  0
  -25.9526  -25.9414   18.9745 H   0  0  0  0  0  0
  -23.9647  -27.3185   19.0050 H   0  0  0  0  0  0
  -23.7424  -30.5966   19.4052 H   0  0  0  0  0  0
  -22.7506  -29.2476   19.8668 H   0  0  0  0  0  0
  -25.1252  -36.1923   25.0813 H   0  0  0  0  0  0
  -20.9986  -28.3327   24.1409 H   0  0  0  0  0  0
  -20.5714  -26.2318   23.3625 H   0  0  0  0  0  0
  -21.6633  -26.7491   22.1197 H   0  0  0  0  0  0
  -19.6898  -25.6331   21.1251 H   0  0  0  0  0  0
  -19.6676  -27.3238   20.6775 H   0  0  0  0  0  0
  -17.4188  -26.6747   21.4036 H   0  0  0  0  0  0
  -18.0287  -26.0091   22.9029 H   0  0  0  0  0  0
  -19.7917  -30.7305   24.2304 H   0  0  0  0  0  0
  -17.4993  -31.6295   24.5186 H   0  0  0  0  0  0
  -15.5338  -30.3015   23.7653 H   0  0  0  0  0  0
  -15.8664  -28.0840   22.7091 H   0  0  0  0  0  0
  -24.5897  -30.7055   25.7756 H   0  0  0  0  0  0
  -24.8921  -32.2844   26.4896 H   0  0  0  0  0  0
  -25.8059  -30.8830   27.0203 H   0  0  0  0  0  0
  -26.2889  -29.6727   24.1233 H   0  0  0  0  0  0
  -27.4045  -29.7259   25.4668 H   0  0  0  0  0  0
  -27.8749  -30.4252   23.9380 H   0  0  0  0  0  0
  -27.2722  -33.3648   26.1988 H   0  0  0  0  0  0
  -28.3913  -32.6764   25.0309 H   0  0  0  0  0  0
  -28.0686  -31.8440   26.5448 H   0  0  0  0  0  0
  -28.2458  -38.0213   24.7724 H   0  0  0  0  0  0
  -28.1278  -36.2766   24.5936 H   0  0  0  0  0  0
  -27.2365  -37.1021   25.8822 H   0  0  0  0  0  0
  -20.9315  -29.8793   21.6894 H   0  0  0  0  0  0
  -26.0136  -38.2843   24.1641 H   0  0  0  0  0  0
  -32.0256  -19.8545   21.1378 H   0  0  0  0  0  0
  -27.9350  -19.8158   19.8012 H   0  0  0  0  0  0
  -29.6030  -24.1224   21.2822 H   0  0  0  0  0  0
  -30.1603  -24.2099   19.6402 H   0  0  0  0  0  0
  -27.2560  -24.6960   20.4671 H   0  0  0  0  0  0
  -27.8974  -24.8771   18.8535 H   0  0  0  0  0  0
  -28.7046  -22.2122   19.0315 H   0  0  0  0  0  0
  -28.1248  -22.1315   20.6777 H   0  0  0  0  0  0
  -28.8773  -15.4162   21.0715 H   0  0  0  0  0  0
  1 25  1  0  0  0
  1 30  2  0  0  0
  1 80  1  0  0  0
  2  3  1  0  0  0
  2 25  1  0  0  0
  2 84  1  0  0  0
  2 85  1  0  0  0
  3  4  1  0  0  0
  3 86  1  0  0  0
  3 87  1  0  0  0
  4  5  1  0  0  0
  4 88  1  0  0  0
  4 89  1  0  0  0
  5  6  1  0  0  0
  5 26  1  0  0  0
  5 90  1  0  0  0
  6 25  1  0  0  0
  6 91  1  0  0  0
  6 92  1  0  0  0
  7  8  2  0  0  0
  7 26  1  0  0  0
  7 29  1  0  0  0
  8  9  1  0  0  0
  8 22  1  0  0  0
  9 10  1  0  0  0
  9 27  2  0  0  0
 10 11  2  0  0  0
 10 15  1  0  0  0
 11 12  1  0  0  0
 11 93  1  0  0  0
 12 13  2  0  0  0
 12 94  1  0  0  0
 13 14  1  0  0  0
 13 31  1  0  0  0
 14 15  2  0  0  0
 14 95  1  0  0  0
 15 96  1  0  0  0
 16 17  2  0  0  0
 16 21  1  0  0  0
 16 31  1  0  0  0
 17 18  1  0  0  0
 17 97  1  0  0  0
 18 19  2  0  0  0
 18 98  1  0  0  0
 19 20  1  0  0  0
 19 24  1  0  0  0
 20 21  2  0  0  0
 20 99  1  0  0  0
 21 23  1  0  0  0
 22 28  1  0  0  0
 22 32  2  0  0  0
 26 27  1  0  0  0
 28100  1  0  0  0
 28101  1  0  0  0
 29102  1  0  0  0
 29103  1  0  0  0
 33 34  1  0  0  0
 33 66  1  0  0  0
 33 70  2  0  0  0
 34 36  1  0  0  0
 34 59  1  0  0  0
 34104  1  0  0  0
 35 44  2  0  0  0
 35 45  1  0  0  0
 35 68  1  0  0  0
 36 56  1  0  0  0
 36105  1  0  0  0
 37 39  1  0  0  0
 37 47  1  0  0  0
 37 66  1  0  0  0
 37106  1  0  0  0
 38 43  2  0  0  0
 38 46  1  0  0  0
 38 47  1  0  0  0
 39 64  1  0  0  0
 39 67  2  0  0  0
 40 52  1  0  0  0
 40 53  2  0  0  0
 40 58  1  0  0  0
 41107  1  0  0  0
 41108  1  0  0  0
 41109  1  0  0  0
 41 48  1  0  0  0
 42 43  1  0  0  0
 42 66  1  0  0  0
 42110  1  0  0  0
 42111  1  0  0  0
 43 44  1  0  0  0
 44112  1  0  0  0
 45 46  2  0  0  0
 45113  1  0  0  0
 46114  1  0  0  0
 47115  1  0  0  0
 47116  1  0  0  0
 48 56  1  0  0  0
 48 65  1  0  0  0
 48117  1  0  0  0
 49 50  1  0  0  0
 49 53  1  0  0  0
 49 64  1  0  0  0
 49118  1  0  0  0
 50 51  1  0  0  0
 50119  1  0  0  0
 50120  1  0  0  0
 51 52  1  0  0  0
 51121  1  0  0  0
 51122  1  0  0  0
 52123  1  0  0  0
 52124  1  0  0  0
 53 54  1  0  0  0
 54 55  2  0  0  0
 54125  1  0  0  0
 55 57  1  0  0  0
 55126  1  0  0  0
 56 69  2  0  0  0
 57 58  2  0  0  0
 57127  1  0  0  0
 58128  1  0  0  0
 59 60  1  0  0  0
 59 61  1  0  0  0
 59 62  1  0  0  0
 60129  1  0  0  0
 60130  1  0  0  0
 60131  1  0  0  0
 61132  1  0  0  0
 61133  1  0  0  0
 61134  1  0  0  0
 62135  1  0  0  0
 62136  1  0  0  0
 62137  1  0  0  0
 63 65  1  0  0  0
 63138  1  0  0  0
 63139  1  0  0  0
 63140  1  0  0  0
 64141  1  0  0  0
 65142  1  0  0  0
 68 78  1  0  0  0
 71 74  2  0  0  0
 71 75  1  0  0  0
 71143  1  0  0  0
 72 74  1  0  0  0
 72 76  2  0  0  0
 72144  1  0  0  0
 73 75  2  0  0  0
 73 76  1  0  0  0
 73 80  1  0  0  0
 74 81  1  0  0  0
 75 82  1  0  0  0
 76 83  1  0  0  0
 77 78  1  0  0  0
 77 79  1  0  0  0
 77145  1  0  0  0
 77146  1  0  0  0
 78147  1  0  0  0
 78148  1  0  0  0
 79 81  1  0  0  0
 79149  1  0  0  0
 79150  1  0  0  0
 80151  1  0  0  0
M  ISO  4   1 100  68 101  78 101  80 100
M  END
> <chiral flag>
0

> <version>
0

> <s_m_source_file>
/data/baiqing/PycharmProjects/Reinvent-master-3.2/result/LINK_invent/BTK/process_docking_weight1_custom_product_contain_oxygen_bond_distance_aromatic_linkinvent_7_9_3/rearranged_h_0010.sdf

> <i_m_source_file_index>
72

> <r_mmod_Potential_Energy-OPLS-2005>
-16.6563148498535

> <r_mmod_Stretch_Energy-OPLS-2005>
81.7568588256836

> <r_mmod_Bend_Energy-OPLS-2005>
143.89533996582

> <r_mmod_Torsional_Energy-OPLS-2005>
215.221588134766

> <r_mmod_Improper_Torsional_Energy-OPLS-2005>
5.15204191207886

> <r_mmod_Van_der_Waal_Energy-OPLS-2005>
142.528305053711

> <r_mmod_Electrostatic_Energy-OPLS-2005>
-447.480224609375

> <r_mmod_Solvation_Energy-OPLS-2005>
-208.983581542969

> <b_mmod_Minimization_Converged-OPLS-2005>
0

> <r_mmod_RMS_Derivative-OPLS-2005>
2.50745630264282

$$$$
72
                    3D
 Structure written by MMmdl.
157165  0  0  1  0            999 V2000
  -30.5283  -14.9912   20.3946 C   0  0  0  0  0  0
  -30.4364  -12.6112   19.5104 C   0  0  0  0  0  0
  -29.5265  -12.5402   18.2608 C   0  0  0  0  0  0
  -28.0578  -12.3175   18.6623 C   0  0  0  0  0  0
  -27.6281  -13.2505   19.8282 C   0  0  2  0  0  0
  -28.6665  -13.2945   20.9716 C   0  0  0  0  0  0
  -25.2389  -13.8120   20.5653 C   0  0  0  0  0  0
  -24.1726  -13.0386   20.9232 C   0  0  0  0  0  0
  -24.6423  -11.6882   20.8766 C   0  0  0  0  0  0
  -23.9090  -10.4285   21.0399 C   0  0  0  0  0  0
  -24.3639   -9.4207   21.9171 C   0  0  0  0  0  0
  -23.6311   -8.2230   22.0788 C   0  0  0  0  0  0
  -22.4294   -8.0271   21.3571 C   0  0  0  0  0  0
  -21.9917   -9.0250   20.4675 C   0  0  0  0  0  0
  -22.7266  -10.2117   20.3051 C   0  0  0  0  0  0
  -21.6821   -6.0713   22.5300 C   0  0  0  0  0  0
  -21.3989   -6.5640   23.8227 C   0  0  0  0  0  0
  -21.3671   -5.6803   24.9200 C   0  0  0  0  0  0
  -21.6053   -4.3044   24.7221 C   0  0  0  0  0  0
  -21.8805   -3.8143   23.4344 C   0  0  0  0  0  0
  -21.9194   -4.6968   22.3423 C   0  0  0  0  0  0
  -22.7770  -13.5171   21.1882 C   0  0  0  0  0  0
  -22.1658   -4.2164   21.0990 F   0  0  0  0  0  0
  -21.5647   -3.4543   25.7732 F   0  0  0  0  0  0
  -29.9502  -13.7155   20.3892 N   0  0  0  0  0  0
  -26.2859  -12.9425   20.3134 N   0  0  0  0  0  0
  -25.9335  -11.6560   20.5704 N   0  0  0  0  0  0
  -22.0388  -12.8212   22.0425 N   0  0  0  0  0  0
  -25.3907  -15.1834   20.3988 N   0  0  0  0  0  0
  -31.7106  -15.0718   20.0448 O   0  0  0  0  0  0
  -21.6616   -6.8893   21.4289 O   0  0  0  0  0  0
  -22.3483  -14.5465   20.6700 O   0  0  0  0  0  0
  -24.6452  -31.8421   23.1885 C   0  0  0  0  0  0
  -25.9199  -32.4696   23.8300 C   0  0  1  0  0  0
  -27.2226  -27.1290   20.1502 C   0  0  0  0  0  0
  -25.5923  -33.8506   24.2213 N   0  0  0  0  0  0
  -23.4515  -30.4594   21.5370 C   0  0  2  0  0  0
  -24.8989  -28.8805   20.1183 C   0  0  0  0  0  0
  -22.7573  -29.4551   22.4919 C   0  0  0  0  0  0
  -18.0303  -28.1391   22.8490 C   0  0  0  0  0  0
  -24.1482  -36.7273   23.2665 C   0  0  0  0  0  0
  -26.0074  -30.7093   21.3920 C   0  0  0  0  0  0
  -26.0767  -29.3176   20.7353 C   0  0  0  0  0  0
  -27.2387  -28.4600   20.7319 C   0  0  0  0  0  0
  -26.0209  -26.7925   19.4904 C   0  0  0  0  0  0
  -24.8813  -27.6297   19.4807 C   0  0  0  0  0  0
  -23.6773  -29.7858   20.1568 C   0  0  0  0  0  0
  -25.4106  -36.3051   24.0339 C   0  0  1  0  0  0
  -20.5901  -28.3713   23.1261 C   0  0  2  0  0  0
  -20.6801  -26.9422   22.5423 C   0  0  0  0  0  0
  -19.5770  -26.6371   21.5240 C   0  0  0  0  0  0
  -18.1940  -26.7935   22.1638 C   0  0  0  0  0  0
  -19.1554  -28.8876   23.2864 C   0  0  0  0  0  0
  -18.9485  -30.1479   23.8860 C   0  0  0  0  0  0
  -17.6481  -30.6592   24.0571 C   0  0  0  0  0  0
  -25.9046  -34.9414   23.5085 C   0  0  0  0  0  0
  -16.5369  -29.9081   23.6341 C   0  0  0  0  0  0
  -16.7293  -28.6514   23.0339 C   0  0  0  0  0  0
  -26.4471  -31.6594   25.0764 C   0  0  0  0  0  0
  -25.3663  -31.3805   26.1470 C   0  0  0  0  0  0
  -27.0346  -30.2991   24.6361 C   0  0  0  0  0  0
  -27.5996  -32.4368   25.7520 C   0  0  0  0  0  0
  -27.5556  -37.1811   24.8471 C   0  0  0  0  0  0
  -21.4270  -29.3028   22.3636 N   0  0  0  0  0  0
  -26.4285  -37.3754   23.9398 N   0  0  0  0  0  0
  -24.7208  -31.0237   22.0965 N   0  0  0  0  0  0
  -23.4209  -28.8054   23.3050 O   0  0  0  0  0  0
  -28.2969  -26.1630   20.1635 O   0  0  0  0  0  0
  -26.5649  -34.8910   22.4667 O   0  0  0  0  0  0
  -23.5544  -32.1291   23.7095 O   0  0  0  0  0  0
  -29.4794  -20.6214   19.9601 C   0  0  0  0  0  0
  -28.0588  -17.6865   19.6062 C   0  0  0  0  0  0
  -27.1196  -18.2054   20.7427 C   0  0  0  0  0  0
  -28.9574  -19.1753   22.1112 C   0  0  0  0  0  0
  -29.7349  -19.1683   20.7636 C   0  0  1  0  0  0
  -29.5568  -17.6396   20.0127 C   0  0  1  0  0  0
  -29.0962  -23.3570   19.9294 C   0  0  0  0  0  0
  -28.0809  -24.6300   20.3930 C   0  0  0  0  0  0
  -29.0933  -21.8766   20.5110 N   0  0  0  0  0  0
  -29.7241  -16.1536   20.6170 N   0  0  0  0  0  0
  -27.7803  -18.2811   22.0704 N   0  3  0  0  0  0
  -29.7073  -20.6012   18.7502 O   0  0  0  0  0  0
  -31.4744  -12.7570   19.2094 H   0  0  0  0  0  0
  -30.4175  -11.6690   20.0596 H   0  0  0  0  0  0
  -29.8626  -11.7442   17.5980 H   0  0  0  0  0  0
  -29.6132  -13.4669   17.6934 H   0  0  0  0  0  0
  -27.9523  -11.2745   18.9630 H   0  0  0  0  0  0
  -27.4006  -12.4483   17.8026 H   0  0  0  0  0  0
  -27.5828  -14.2518   19.3980 H   0  0  0  0  0  0
  -28.7552  -12.3193   21.4513 H   0  0  0  0  0  0
  -28.3518  -13.9955   21.7468 H   0  0  0  0  0  0
  -25.2765   -9.5655   22.4747 H   0  0  0  0  0  0
  -24.0047   -7.4580   22.7473 H   0  0  0  0  0  0
  -21.0843   -8.8722   19.8934 H   0  0  0  0  0  0
  -22.3704  -10.9641   19.6148 H   0  0  0  0  0  0
  -21.1935   -7.6137   23.9738 H   0  0  0  0  0  0
  -21.1524   -6.0523   25.9110 H   0  0  0  0  0  0
  -22.0571   -2.7600   23.2836 H   0  0  0  0  0  0
  -22.4018  -11.9979   22.4930 H   0  0  0  0  0  0
  -21.0979  -13.1176   22.2523 H   0  0  0  0  0  0
  -24.5723  -15.7827   20.4429 H   0  0  0  0  0  0
  -26.1465  -15.5849   19.8655 H   0  0  0  0  0  0
  -26.7262  -32.5279   23.1040 H   0  0  0  0  0  0
  -25.0055  -33.9626   25.0336 H   0  0  0  0  0  0
  -22.7583  -31.2881   21.3840 H   0  0  0  0  0  0
  -23.3732  -35.9624   23.3353 H   0  0  0  0  0  0
  -24.3573  -36.8856   22.2073 H   0  0  0  0  0  0
  -23.7231  -37.6488   23.6656 H   0  0  0  0  0  0
  -26.1592  -31.4569   20.6116 H   0  0  0  0  0  0
  -26.8831  -30.7649   22.0278 H   0  0  0  0  0  0
  -28.1365  -28.7932   21.2308 H   0  0  0  0  0  0
  -25.9366  -25.8485   18.9702 H   0  0  0  0  0  0
  -23.9837  -27.2902   18.9803 H   0  0  0  0  0  0
  -23.8170  -30.5641   19.4053 H   0  0  0  0  0  0
  -22.7928  -29.2301   19.8449 H   0  0  0  0  0  0
  -25.1293  -36.1920   25.0836 H   0  0  0  0  0  0
  -20.9991  -28.3274   24.1380 H   0  0  0  0  0  0
  -20.5699  -26.2316   23.3626 H   0  0  0  0  0  0
  -21.6660  -26.7425   22.1191 H   0  0  0  0  0  0
  -19.6918  -25.6267   21.1278 H   0  0  0  0  0  0
  -19.6701  -27.3178   20.6760 H   0  0  0  0  0  0
  -17.4213  -26.6695   21.4025 H   0  0  0  0  0  0
  -18.0322  -26.0080   22.9025 H   0  0  0  0  0  0
  -19.7952  -30.7337   24.2165 H   0  0  0  0  0  0
  -17.5020  -31.6254   24.5199 H   0  0  0  0  0  0
  -15.5349  -30.2976   23.7691 H   0  0  0  0  0  0
  -15.8692  -28.0844   22.7021 H   0  0  0  0  0  0
  -24.5807  -30.7172   25.7823 H   0  0  0  0  0  0
  -24.8876  -32.3001   26.4846 H   0  0  0  0  0  0
  -25.7934  -30.9011   27.0288 H   0  0  0  0  0  0
  -26.2985  -29.6721   24.1302 H   0  0  0  0  0  0
  -27.3894  -29.7263   25.4947 H   0  0  0  0  0  0
  -27.8912  -30.4242   23.9731 H   0  0  0  0  0  0
  -27.2575  -33.3691   26.2022 H   0  0  0  0  0  0
  -28.3813  -32.6898   25.0347 H   0  0  0  0  0  0
  -28.0658  -31.8559   26.5489 H   0  0  0  0  0  0
  -28.2623  -38.0070   24.7446 H   0  0  0  0  0  0
  -28.1005  -36.2580   24.6375 H   0  0  0  0  0  0
  -27.2287  -37.1566   25.8895 H   0  0  0  0  0  0
  -20.9474  -29.8778   21.6839 H   0  0  0  0  0  0
  -26.0162  -38.2846   24.1339 H   0  0  0  0  0  0
  -27.9333  -18.3461   18.7440 H   0  0  0  0  0  0
  -27.7251  -16.7110   19.2515 H   0  0  0  0  0  0
  -26.2344  -17.5818   20.8342 H   0  0  0  0  0  0
  -26.7376  -19.1937   20.4889 H   0  0  0  0  0  0
  -28.6022  -20.1729   22.3689 H   0  0  0  0  0  0
  -29.6013  -18.9025   22.9475 H   0  0  0  0  0  0
  -30.7957  -19.2472   21.0094 H   0  0  0  0  0  0
  -30.1578  -17.6551   19.0960 H   0  0  0  0  0  0
  -30.1182  -23.7095   20.0827 H   0  0  0  0  0  0
  -29.0037  -23.2704   18.8441 H   0  0  0  0  0  0
  -27.9381  -24.5480   21.4722 H   0  0  0  0  0  0
  -27.1095  -24.3582   19.9810 H   0  0  0  0  0  0
  -28.9355  -21.8502   21.5106 H   0  0  0  0  0  0
  -28.8454  -15.8063   20.9687 H   0  0  0  0  0  0
  -28.0787  -17.3550   22.3435 H   0  0  0  0  0  0
  -27.1149  -18.5888   22.7667 H   0  0  0  0  0  0
  1 25  1  0  0  0
  1 30  2  0  0  0
  1 80  1  0  0  0
  2  3  1  0  0  0
  2 25  1  0  0  0
  2 83  1  0  0  0
  2 84  1  0  0  0
  3  4  1  0  0  0
  3 85  1  0  0  0
  3 86  1  0  0  0
  4  5  1  0  0  0
  4 87  1  0  0  0
  4 88  1  0  0  0
  5  6  1  0  0  0
  5 26  1  0  0  0
  5 89  1  0  0  0
  6 25  1  0  0  0
  6 90  1  0  0  0
  6 91  1  0  0  0
  7  8  2  0  0  0
  7 26  1  0  0  0
  7 29  1  0  0  0
  8  9  1  0  0  0
  8 22  1  0  0  0
  9 10  1  0  0  0
  9 27  2  0  0  0
 10 11  2  0  0  0
 10 15  1  0  0  0
 11 12  1  0  0  0
 11 92  1  0  0  0
 12 13  2  0  0  0
 12 93  1  0  0  0
 13 14  1  0  0  0
 13 31  1  0  0  0
 14 15  2  0  0  0
 14 94  1  0  0  0
 15 95  1  0  0  0
 16 17  2  0  0  0
 16 21  1  0  0  0
 16 31  1  0  0  0
 17 18  1  0  0  0
 17 96  1  0  0  0
 18 19  2  0  0  0
 18 97  1  0  0  0
 19 20  1  0  0  0
 19 24  1  0  0  0
 20 21  2  0  0  0
 20 98  1  0  0  0
 21 23  1  0  0  0
 22 28  1  0  0  0
 22 32  2  0  0  0
 26 27  1  0  0  0
 28 99  1  0  0  0
 28100  1  0  0  0
 29101  1  0  0  0
 29102  1  0  0  0
 33 34  1  0  0  0
 33 66  1  0  0  0
 33 70  2  0  0  0
 34 36  1  0  0  0
 34 59  1  0  0  0
 34103  1  0  0  0
 35 44  2  0  0  0
 35 45  1  0  0  0
 35 68  1  0  0  0
 36 56  1  0  0  0
 36104  1  0  0  0
 37 39  1  0  0  0
 37 47  1  0  0  0
 37 66  1  0  0  0
 37105  1  0  0  0
 38 43  2  0  0  0
 38 46  1  0  0  0
 38 47  1  0  0  0
 39 64  1  0  0  0
 39 67  2  0  0  0
 40 52  1  0  0  0
 40 53  2  0  0  0
 40 58  1  0  0  0
 41106  1  0  0  0
 41107  1  0  0  0
 41108  1  0  0  0
 41 48  1  0  0  0
 42 43  1  0  0  0
 42 66  1  0  0  0
 42109  1  0  0  0
 42110  1  0  0  0
 43 44  1  0  0  0
 44111  1  0  0  0
 45 46  2  0  0  0
 45112  1  0  0  0
 46113  1  0  0  0
 47114  1  0  0  0
 47115  1  0  0  0
 48 56  1  0  0  0
 48 65  1  0  0  0
 48116  1  0  0  0
 49 50  1  0  0  0
 49 53  1  0  0  0
 49 64  1  0  0  0
 49117  1  0  0  0
 50 51  1  0  0  0
 50118  1  0  0  0
 50119  1  0  0  0
 51 52  1  0  0  0
 51120  1  0  0  0
 51121  1  0  0  0
 52122  1  0  0  0
 52123  1  0  0  0
 53 54  1  0  0  0
 54 55  2  0  0  0
 54124  1  0  0  0
 55 57  1  0  0  0
 55125  1  0  0  0
 56 69  2  0  0  0
 57 58  2  0  0  0
 57126  1  0  0  0
 58127  1  0  0  0
 59 60  1  0  0  0
 59 61  1  0  0  0
 59 62  1  0  0  0
 60128  1  0  0  0
 60129  1  0  0  0
 60130  1  0  0  0
 61131  1  0  0  0
 61132  1  0  0  0
 61133  1  0  0  0
 62134  1  0  0  0
 62135  1  0  0  0
 62136  1  0  0  0
 63 65  1  0  0  0
 63137  1  0  0  0
 63138  1  0  0  0
 63139  1  0  0  0
 64140  1  0  0  0
 65141  1  0  0  0
 68 78  1  0  0  0
 71 79  1  0  0  0
 71 82  2  0  0  0
 71 75  1  0  0  0
 72 73  1  0  0  0
 72 76  1  0  0  0
 72142  1  0  0  0
 72143  1  0  0  0
 73 81  1  0  0  0
 73144  1  0  0  0
 73145  1  0  0  0
 74 75  1  0  0  0
 74 81  1  0  0  0
 74146  1  0  0  0
 74147  1  0  0  0
 75 76  1  0  0  0
 75148  1  0  0  0
 76 80  1  0  0  0
 76149  1  0  0  0
 77 78  1  0  0  0
 77 79  1  0  0  0
 77150  1  0  0  0
 77151  1  0  0  0
 78152  1  0  0  0
 78153  1  0  0  0
 79154  1  0  0  0
 80155  1  0  0  0
 81156  1  0  0  0
 81157  1  0  0  0
M  CHG  1  81   1
M  ISO  4   1 100  68 101  78 101  80 100
M  END
> <chiral flag>
0

> <version>
0

> <s_m_source_file>
/data/baiqing/PycharmProjects/Reinvent-master-3.2/result/LINK_invent/BTK/process_docking_weight1_custom_product_contain_oxygen_bond_distance_aromatic_linkinvent_7_9_3/rearranged_h_0010.sdf

> <i_m_source_file_index>
73

> <r_mmod_Potential_Energy-OPLS-2005>
434.628448486328

> <r_mmod_Stretch_Energy-OPLS-2005>
301.868499755859

> <r_mmod_Bend_Energy-OPLS-2005>
302.205108642578

> <r_mmod_Torsional_Energy-OPLS-2005>
272.725280761719

> <r_mmod_Improper_Torsional_Energy-OPLS-2005>
8.13857364654541

> <r_mmod_Van_der_Waal_Energy-OPLS-2005>
120.626533508301

> <r_mmod_Electrostatic_Energy-OPLS-2005>
-232.303085327148

> <r_mmod_Solvation_Energy-OPLS-2005>
-546.895568847656

> <b_mmod_Minimization_Converged-OPLS-2005>
0

> <r_mmod_RMS_Derivative-OPLS-2005>
7.46160411834717

$$$$
73
                    3D
 Structure written by MMmdl.
151159  0  0  1  0            999 V2000
  -30.5635  -14.9193   20.4437 C   0  0  0  0  0  0
  -30.4530  -12.5497   19.4983 C   0  0  0  0  0  0
  -29.5294  -12.5480   18.2533 C   0  0  0  0  0  0
  -28.0554  -12.3421   18.6508 C   0  0  0  0  0  0
  -27.6354  -13.2501   19.8355 C   0  0  2  0  0  0
  -28.6669  -13.2490   20.9847 C   0  0  0  0  0  0
  -25.2523  -13.8217   20.5713 C   0  0  0  0  0  0
  -24.1833  -13.0436   20.9187 C   0  0  0  0  0  0
  -24.6413  -11.6913   20.8651 C   0  0  0  0  0  0
  -23.9066  -10.4286   21.0337 C   0  0  0  0  0  0
  -24.3612   -9.4241   21.9165 C   0  0  0  0  0  0
  -23.6303   -8.2257   22.0729 C   0  0  0  0  0  0
  -22.4296   -8.0260   21.3510 C   0  0  0  0  0  0
  -21.9910   -9.0211   20.4601 C   0  0  0  0  0  0
  -22.7194  -10.2116   20.3019 C   0  0  0  0  0  0
  -21.6901   -6.0715   22.5288 C   0  0  0  0  0  0
  -21.4009   -6.5629   23.8191 C   0  0  0  0  0  0
  -21.3672   -5.6792   24.9155 C   0  0  0  0  0  0
  -21.6052   -4.3058   24.7204 C   0  0  0  0  0  0
  -21.8836   -3.8122   23.4334 C   0  0  0  0  0  0
  -21.9214   -4.6935   22.3386 C   0  0  0  0  0  0
  -22.7878  -13.5200   21.1877 C   0  0  0  0  0  0
  -22.1718   -4.2105   21.0980 F   0  0  0  0  0  0
  -21.5623   -3.4555   25.7726 F   0  0  0  0  0  0
  -29.9723  -13.6069   20.4205 N   0  0  0  0  0  0
  -26.2907  -12.9434   20.3164 N   0  0  0  0  0  0
  -25.9336  -11.6552   20.5619 N   0  0  0  0  0  0
  -22.0576  -12.8128   22.0394 N   0  0  0  0  0  0
  -25.4330  -15.1945   20.4230 N   0  0  0  0  0  0
  -31.7460  -15.0793   20.1220 O   0  0  0  0  0  0
  -21.6675   -6.8853   21.4239 O   0  0  0  0  0  0
  -22.3525  -14.5507   20.6734 O   0  0  0  0  0  0
  -24.6391  -31.8495   23.1869 C   0  0  0  0  0  0
  -25.9152  -32.4737   23.8283 C   0  0  1  0  0  0
  -27.2341  -27.1502   20.2022 C   0  0  0  0  0  0
  -25.5945  -33.8538   24.2232 N   0  0  0  0  0  0
  -23.4490  -30.4609   21.5307 C   0  0  2  0  0  0
  -24.9093  -28.8845   20.1194 C   0  0  0  0  0  0
  -22.7550  -29.4552   22.4848 C   0  0  0  0  0  0
  -18.0317  -28.1429   22.8484 C   0  0  0  0  0  0
  -24.1511  -36.7254   23.2640 C   0  0  0  0  0  0
  -25.9990  -30.7367   21.3779 C   0  0  0  0  0  0
  -26.0802  -29.3409   20.7364 C   0  0  0  0  0  0
  -27.2492  -28.4921   20.7524 C   0  0  0  0  0  0
  -26.0407  -26.7925   19.5387 C   0  0  0  0  0  0
  -24.8996  -27.6234   19.5009 C   0  0  0  0  0  0
  -23.6821  -29.7821   20.1532 C   0  0  0  0  0  0
  -25.4121  -36.3031   24.0323 C   0  0  1  0  0  0
  -20.5923  -28.3754   23.1246 C   0  0  2  0  0  0
  -20.6788  -26.9460   22.5409 C   0  0  0  0  0  0
  -19.5759  -26.6403   21.5229 C   0  0  0  0  0  0
  -18.1940  -26.7971   22.1631 C   0  0  0  0  0  0
  -19.1577  -28.8887   23.2880 C   0  0  0  0  0  0
  -18.9463  -30.1463   23.8938 C   0  0  0  0  0  0
  -17.6458  -30.6639   24.0539 C   0  0  0  0  0  0
  -25.9065  -34.9419   23.5085 C   0  0  0  0  0  0
  -16.5353  -29.9113   23.6342 C   0  0  0  0  0  0
  -16.7288  -28.6520   23.0390 C   0  0  0  0  0  0
  -26.4502  -31.6579   25.0691 C   0  0  0  0  0  0
  -25.3688  -31.3689   26.1376 C   0  0  0  0  0  0
  -27.0331  -30.2995   24.6178 C   0  0  0  0  0  0
  -27.6103  -32.4250   25.7468 C   0  0  0  0  0  0
  -27.5578  -37.1760   24.8443 C   0  0  0  0  0  0
  -21.4244  -29.3071   22.3602 N   0  0  0  0  0  0
  -26.4283  -37.3747   23.9421 N   0  0  0  0  0  0
  -24.7163  -31.0329   22.0902 N   0  0  0  0  0  0
  -23.4152  -28.8107   23.3045 O   0  0  0  0  0  0
  -28.3001  -26.1831   20.2502 O   0  0  0  0  0  0
  -26.5613  -34.8899   22.4646 O   0  0  0  0  0  0
  -23.5500  -32.1349   23.7074 O   0  0  0  0  0  0
  -29.8669  -19.9340   19.9053 C   0  0  0  0  0  0
  -30.0653  -18.4809   19.7902 C   0  0  0  0  0  0
  -28.9449  -19.6116   22.0329 C   0  0  0  0  0  0
  -29.2776  -20.6061   21.0425 C   0  0  0  0  0  0
  -29.7002  -17.5125   20.8021 C   0  0  0  0  0  0
  -29.1364  -18.1823   21.9298 C   0  0  0  0  0  0
  -29.3506  -22.4204   22.6848 C   0  0  0  0  0  0
  -29.0095  -23.3496   20.3778 C   0  0  0  0  0  0
  -28.0708  -24.7198   20.7252 C   0  0  0  0  0  0
  -29.0381  -22.0723   21.2848 N   0  0  0  0  0  0
  -29.6059  -16.0507   20.7342 O   0  0  0  0  0  0
  -28.7180  -17.4129   22.9662 F   0  0  0  0  0  0
  -31.4816  -12.7354   19.1849 H   0  0  0  0  0  0
  -30.4500  -11.5750   19.9913 H   0  0  0  0  0  0
  -29.8354  -11.7760   17.5427 H   0  0  0  0  0  0
  -29.6394  -13.4967   17.7243 H   0  0  0  0  0  0
  -27.9132  -11.2922   18.9050 H   0  0  0  0  0  0
  -27.4086  -12.5263   17.7916 H   0  0  0  0  0  0
  -27.6089  -14.2643   19.4341 H   0  0  0  0  0  0
  -28.7166  -12.2723   21.4669 H   0  0  0  0  0  0
  -28.3702  -13.9570   21.7585 H   0  0  0  0  0  0
  -25.2769   -9.5757   22.4716 H   0  0  0  0  0  0
  -24.0040   -7.4654   22.7434 H   0  0  0  0  0  0
  -21.0860   -8.8648   19.8891 H   0  0  0  0  0  0
  -22.3607  -10.9612   19.6110 H   0  0  0  0  0  0
  -21.2015   -7.6142   23.9656 H   0  0  0  0  0  0
  -21.1516   -6.0547   25.9047 H   0  0  0  0  0  0
  -22.0615   -2.7582   23.2845 H   0  0  0  0  0  0
  -22.4302  -11.9831   22.4782 H   0  0  0  0  0  0
  -21.1166  -13.1030   22.2561 H   0  0  0  0  0  0
  -24.6851  -15.8646   20.5490 H   0  0  0  0  0  0
  -26.3061  -15.6195   20.1392 H   0  0  0  0  0  0
  -26.7209  -32.5386   23.1026 H   0  0  0  0  0  0
  -25.0044  -33.9696   25.0343 H   0  0  0  0  0  0
  -22.7520  -31.2852   21.3668 H   0  0  0  0  0  0
  -23.3802  -35.9555   23.3228 H   0  0  0  0  0  0
  -24.3621  -36.8937   22.2083 H   0  0  0  0  0  0
  -23.7217  -37.6404   23.6714 H   0  0  0  0  0  0
  -26.1229  -31.4819   20.5912 H   0  0  0  0  0  0
  -26.8808  -30.8102   22.0033 H   0  0  0  0  0  0
  -28.1486  -28.8453   21.2395 H   0  0  0  0  0  0
  -25.9783  -25.8257   19.0598 H   0  0  0  0  0  0
  -24.0083  -27.2639   19.0077 H   0  0  0  0  0  0
  -23.8225  -30.5557   19.3961 H   0  0  0  0  0  0
  -22.8002  -29.2155   19.8465 H   0  0  0  0  0  0
  -25.1307  -36.1865   25.0811 H   0  0  0  0  0  0
  -21.0035  -28.3355   24.1365 H   0  0  0  0  0  0
  -20.5718  -26.2371   23.3622 H   0  0  0  0  0  0
  -21.6648  -26.7487   22.1191 H   0  0  0  0  0  0
  -19.6936  -25.6307   21.1292 H   0  0  0  0  0  0
  -19.6738  -27.3187   20.6728 H   0  0  0  0  0  0
  -17.4227  -26.6750   21.4026 H   0  0  0  0  0  0
  -18.0326  -26.0161   22.9062 H   0  0  0  0  0  0
  -19.7908  -30.7262   24.2406 H   0  0  0  0  0  0
  -17.5001  -31.6348   24.5083 H   0  0  0  0  0  0
  -15.5347  -30.3006   23.7658 H   0  0  0  0  0  0
  -15.8695  -28.0801   22.7146 H   0  0  0  0  0  0
  -24.5914  -30.7041   25.7599 H   0  0  0  0  0  0
  -24.8845  -32.2839   26.4767 H   0  0  0  0  0  0
  -25.7984  -30.8827   27.0139 H   0  0  0  0  0  0
  -26.2907  -29.6756   24.1221 H   0  0  0  0  0  0
  -27.4002  -29.7252   25.4668 H   0  0  0  0  0  0
  -27.8771  -30.4235   23.9414 H   0  0  0  0  0  0
  -27.2788  -33.3535   26.2091 H   0  0  0  0  0  0
  -28.3914  -32.6795   25.0307 H   0  0  0  0  0  0
  -28.0774  -31.8321   26.5324 H   0  0  0  0  0  0
  -28.2516  -38.0133   24.7550 H   0  0  0  0  0  0
  -28.1166  -36.2660   24.6208 H   0  0  0  0  0  0
  -27.2309  -37.1284   25.8843 H   0  0  0  0  0  0
  -20.9461  -29.8728   21.6739 H   0  0  0  0  0  0
  -26.0156  -38.2798   24.1474 H   0  0  0  0  0  0
  -30.1868  -20.5418   19.0693 H   0  0  0  0  0  0
  -30.4838  -18.1022   18.8679 H   0  0  0  0  0  0
  -28.4719  -19.9259   22.9480 H   0  0  0  0  0  0
  -30.3728  -22.1270   22.9467 H   0  0  0  0  0  0
  -28.6800  -21.9580   23.4135 H   0  0  0  0  0  0
  -29.2897  -23.4915   22.8763 H   0  0  0  0  0  0
  -30.0447  -23.6949   20.3362 H   0  0  0  0  0  0
  -28.7856  -23.0386   19.3559 H   0  0  0  0  0  0
  -28.0573  -24.8302   21.8087 H   0  0  0  0  0  0
  -27.0433  -24.4421   20.5037 H   0  0  0  0  0  0
  1 25  1  0  0  0
  1 30  2  0  0  0
  1 81  1  0  0  0
  2  3  1  0  0  0
  2 25  1  0  0  0
  2 83  1  0  0  0
  2 84  1  0  0  0
  3  4  1  0  0  0
  3 85  1  0  0  0
  3 86  1  0  0  0
  4  5  1  0  0  0
  4 87  1  0  0  0
  4 88  1  0  0  0
  5  6  1  0  0  0
  5 26  1  0  0  0
  5 89  1  0  0  0
  6 25  1  0  0  0
  6 90  1  0  0  0
  6 91  1  0  0  0
  7  8  2  0  0  0
  7 26  1  0  0  0
  7 29  1  0  0  0
  8  9  1  0  0  0
  8 22  1  0  0  0
  9 10  1  0  0  0
  9 27  2  0  0  0
 10 11  2  0  0  0
 10 15  1  0  0  0
 11 12  1  0  0  0
 11 92  1  0  0  0
 12 13  2  0  0  0
 12 93  1  0  0  0
 13 14  1  0  0  0
 13 31  1  0  0  0
 14 15  2  0  0  0
 14 94  1  0  0  0
 15 95  1  0  0  0
 16 17  2  0  0  0
 16 21  1  0  0  0
 16 31  1  0  0  0
 17 18  1  0  0  0
 17 96  1  0  0  0
 18 19  2  0  0  0
 18 97  1  0  0  0
 19 20  1  0  0  0
 19 24  1  0  0  0
 20 21  2  0  0  0
 20 98  1  0  0  0
 21 23  1  0  0  0
 22 28  1  0  0  0
 22 32  2  0  0  0
 26 27  1  0  0  0
 28 99  1  0  0  0
 28100  1  0  0  0
 29101  1  0  0  0
 29102  1  0  0  0
 33 34  1  0  0  0
 33 66  1  0  0  0
 33 70  2  0  0  0
 34 36  1  0  0  0
 34 59  1  0  0  0
 34103  1  0  0  0
 35 44  2  0  0  0
 35 45  1  0  0  0
 35 68  1  0  0  0
 36 56  1  0  0  0
 36104  1  0  0  0
 37 39  1  0  0  0
 37 47  1  0  0  0
 37 66  1  0  0  0
 37105  1  0  0  0
 38 43  2  0  0  0
 38 46  1  0  0  0
 38 47  1  0  0  0
 39 64  1  0  0  0
 39 67  2  0  0  0
 40 52  1  0  0  0
 40 53  2  0  0  0
 40 58  1  0  0  0
 41106  1  0  0  0
 41107  1  0  0  0
 41108  1  0  0  0
 41 48  1  0  0  0
 42 43  1  0  0  0
 42 66  1  0  0  0
 42109  1  0  0  0
 42110  1  0  0  0
 43 44  1  0  0  0
 44111  1  0  0  0
 45 46  2  0  0  0
 45112  1  0  0  0
 46113  1  0  0  0
 47114  1  0  0  0
 47115  1  0  0  0
 48 56  1  0  0  0
 48 65  1  0  0  0
 48116  1  0  0  0
 49 50  1  0  0  0
 49 53  1  0  0  0
 49 64  1  0  0  0
 49117  1  0  0  0
 50 51  1  0  0  0
 50118  1  0  0  0
 50119  1  0  0  0
 51 52  1  0  0  0
 51120  1  0  0  0
 51121  1  0  0  0
 52122  1  0  0  0
 52123  1  0  0  0
 53 54  1  0  0  0
 54 55  2  0  0  0
 54124  1  0  0  0
 55 57  1  0  0  0
 55125  1  0  0  0
 56 69  2  0  0  0
 57 58  2  0  0  0
 57126  1  0  0  0
 58127  1  0  0  0
 59 60  1  0  0  0
 59 61  1  0  0  0
 59 62  1  0  0  0
 60128  1  0  0  0
 60129  1  0  0  0
 60130  1  0  0  0
 61131  1  0  0  0
 61132  1  0  0  0
 61133  1  0  0  0
 62134  1  0  0  0
 62135  1  0  0  0
 62136  1  0  0  0
 63 65  1  0  0  0
 63137  1  0  0  0
 63138  1  0  0  0
 63139  1  0  0  0
 64140  1  0  0  0
 65141  1  0  0  0
 68 79  1  0  0  0
 71 72  2  0  0  0
 71 74  1  0  0  0
 71142  1  0  0  0
 72 75  1  0  0  0
 72143  1  0  0  0
 73 74  2  0  0  0
 73 76  1  0  0  0
 73144  1  0  0  0
 74 80  1  0  0  0
 75 76  2  0  0  0
 75 81  1  0  0  0
 76 82  1  0  0  0
 77 80  1  0  0  0
 77145  1  0  0  0
 77146  1  0  0  0
 77147  1  0  0  0
 78 79  1  0  0  0
 78 80  1  0  0  0
 78148  1  0  0  0
 78149  1  0  0  0
 79150  1  0  0  0
 79151  1  0  0  0
M  ISO  4   1 100  68 101  79 101  81 100
M  END
> <chiral flag>
0

> <version>
0

> <s_m_source_file>
/data/baiqing/PycharmProjects/Reinvent-master-3.2/result/LINK_invent/BTK/process_docking_weight1_custom_product_contain_oxygen_bond_distance_aromatic_linkinvent_7_9_3/rearranged_h_0010.sdf

> <i_m_source_file_index>
74

> <r_mmod_Potential_Energy-OPLS-2005>
514.746459960938

> <r_mmod_Stretch_Energy-OPLS-2005>
245.114868164062

> <r_mmod_Bend_Energy-OPLS-2005>
287.166534423828

> <r_mmod_Torsional_Energy-OPLS-2005>
192.395965576172

> <r_mmod_Improper_Torsional_Energy-OPLS-2005>
6.20491886138916

> <r_mmod_Van_der_Waal_Energy-OPLS-2005>
133.897369384766

> <r_mmod_Electrostatic_Energy-OPLS-2005>
-312.785583496094

> <r_mmod_Solvation_Energy-OPLS-2005>
-210.479125976562

> <b_mmod_Minimization_Converged-OPLS-2005>
0

> <r_mmod_RMS_Derivative-OPLS-2005>
6.89438724517822

$$$$
74
                    3D
 Structure written by MMmdl.
163172  0  0  1  0            999 V2000
  -30.7730  -14.5518   20.4686 C   0  0  0  0  0  0
  -30.3994  -12.3359   19.4593 C   0  0  0  0  0  0
  -29.5041  -12.4069   18.1970 C   0  0  0  0  0  0
  -28.0264  -12.7732   18.4949 C   0  0  0  0  0  0
  -27.7077  -12.7530   19.9927 C   0  0  2  0  0  0
  -28.7162  -13.2562   21.0215 C   0  0  0  0  0  0
  -25.3091  -13.7525   20.5562 C   0  0  0  0  0  0
  -24.1850  -13.0386   20.9124 C   0  0  0  0  0  0
  -24.5719  -11.6685   20.8915 C   0  0  0  0  0  0
  -23.8411  -10.4220   21.0641 C   0  0  0  0  0  0
  -24.3171   -9.4164   21.9335 C   0  0  0  0  0  0
  -23.6045   -8.2105   22.0782 C   0  0  0  0  0  0
  -22.4066   -8.0112   21.3537 C   0  0  0  0  0  0
  -21.9596   -9.0050   20.4660 C   0  0  0  0  0  0
  -22.6723  -10.2033   20.3172 C   0  0  0  0  0  0
  -21.6768   -6.0621   22.5292 C   0  0  0  0  0  0
  -21.3931   -6.5572   23.8208 C   0  0  0  0  0  0
  -21.3652   -5.6752   24.9192 C   0  0  0  0  0  0
  -21.6044   -4.3017   24.7256 C   0  0  0  0  0  0
  -21.8819   -3.8076   23.4391 C   0  0  0  0  0  0
  -21.9172   -4.6867   22.3437 C   0  0  0  0  0  0
  -22.7998  -13.5554   21.1757 C   0  0  0  0  0  0
  -22.1684   -4.2066   21.1016 F   0  0  0  0  0  0
  -21.5656   -3.4528   25.7790 F   0  0  0  0  0  0
  -30.0225  -13.4278   20.3738 N   0  0  0  0  0  0
  -26.3041  -12.7858   20.3754 N   0  0  0  0  0  0
  -25.8359  -11.5523   20.6054 N   0  0  0  0  0  0
  -22.0449  -12.8691   22.0296 N   0  0  0  0  0  0
  -25.5458  -15.1099   20.3687 N   0  0  0  0  0  0
  -31.9650  -14.5906   20.1792 O   0  0  0  0  0  0
  -21.6511   -6.8685   21.4217 O   0  0  0  0  0  0
  -22.3849  -14.5887   20.6568 O   0  0  0  0  0  0
  -24.6140  -31.8691   23.2103 C   0  0  0  0  0  0
  -25.9049  -32.4823   23.8389 C   0  0  1  0  0  0
  -27.2342  -27.4394   20.1065 C   0  0  0  0  0  0
  -25.5923  -33.8621   24.2331 N   0  0  0  0  0  0
  -23.4007  -30.4933   21.5504 C   0  0  2  0  0  0
  -24.8455  -28.9498   20.1252 C   0  0  0  0  0  0
  -22.7398  -29.4686   22.4994 C   0  0  0  0  0  0
  -18.0278  -28.1371   22.8501 C   0  0  0  0  0  0
  -24.1486  -36.7316   23.2630 C   0  0  0  0  0  0
  -25.9275  -30.8348   21.3610 C   0  0  0  0  0  0
  -26.0039  -29.4648   20.7199 C   0  0  0  0  0  0
  -27.2031  -28.7175   20.7073 C   0  0  0  0  0  0
  -26.0615  -26.9396   19.5016 C   0  0  0  0  0  0
  -24.8673  -27.6837   19.5157 C   0  0  0  0  0  0
  -23.6096  -29.8210   20.1666 C   0  0  0  0  0  0
  -25.4102  -36.3113   24.0343 C   0  0  1  0  0  0
  -20.5869  -28.3670   23.1314 C   0  0  2  0  0  0
  -20.6764  -26.9411   22.5410 C   0  0  0  0  0  0
  -19.5743  -26.6388   21.5211 C   0  0  0  0  0  0
  -18.1925  -26.7918   22.1629 C   0  0  0  0  0  0
  -19.1528  -28.8834   23.2906 C   0  0  0  0  0  0
  -18.9456  -30.1441   23.8915 C   0  0  0  0  0  0
  -17.6455  -30.6577   24.0569 C   0  0  0  0  0  0
  -25.9035  -34.9478   23.5129 C   0  0  0  0  0  0
  -16.5349  -29.9082   23.6317 C   0  0  0  0  0  0
  -16.7268  -28.6499   23.0342 C   0  0  0  0  0  0
  -26.4482  -31.6586   25.0707 C   0  0  0  0  0  0
  -25.3769  -31.3693   26.1472 C   0  0  0  0  0  0
  -27.0292  -30.3024   24.6065 C   0  0  0  0  0  0
  -27.6065  -32.4284   25.7483 C   0  0  0  0  0  0
  -27.5579  -37.1816   24.8467 C   0  0  0  0  0  0
  -21.4131  -29.3045   22.3727 N   0  0  0  0  0  0
  -26.4282  -37.3799   23.9418 N   0  0  0  0  0  0
  -24.6658  -31.0798   22.0999 N   0  0  0  0  0  0
  -23.4177  -28.8227   23.3028 O   0  0  0  0  0  0
  -28.4162  -26.7387   20.0291 O   0  0  0  0  0  0
  -26.5583  -34.8931   22.4682 O   0  0  0  0  0  0
  -23.5341  -32.1454   23.7510 O   0  0  0  0  0  0
  -28.0585  -20.0464   19.2990 C   0  0  0  0  0  0
  -28.4084  -19.6676   21.6658 C   0  0  0  0  0  0
  -28.4741  -18.7290   19.0151 C   0  0  0  0  0  0
  -28.8576  -17.8446   20.0665 C   0  0  0  0  0  0
  -28.0057  -20.5263   20.6210 C   0  0  0  0  0  0
  -28.8251  -18.3447   21.3963 C   0  0  0  0  0  0
  -28.4927  -18.3182   17.5473 C   0  0  0  0  0  0
  -28.7028  -16.8234   17.3102 C   0  0  0  0  0  0
  -29.7297  -16.2555   18.2844 C   0  0  0  0  0  0
  -29.2278  -16.3753   19.7433 C   0  0  1  0  0  0
  -27.4358  -21.9174   20.8999 C   0  0  0  0  0  0
  -27.7857  -24.3208   20.3021 C   0  0  0  0  0  0
  -28.5462  -25.5596   20.8381 C   0  0  0  0  0  0
  -30.1325  -15.7113   20.7042 N   0  0  0  0  0  0
  -28.4030  -23.0194   20.6888 N   0  3  0  0  0  0
  -29.1753  -17.5575   22.4413 F   0  0  0  0  0  0
  -31.4538  -12.3648   19.1777 H   0  0  0  0  0  0
  -30.2635  -11.3845   19.9748 H   0  0  0  0  0  0
  -29.5410  -11.4385   17.6953 H   0  0  0  0  0  0
  -29.9193  -13.1093   17.4739 H   0  0  0  0  0  0
  -27.3589  -12.0919   17.9630 H   0  0  0  0  0  0
  -27.8084  -13.7688   18.1075 H   0  0  0  0  0  0
  -27.9713  -11.6980   20.1160 H   0  0  0  0  0  0
  -28.8132  -12.5463   21.8462 H   0  0  0  0  0  0
  -28.3396  -14.1716   21.4767 H   0  0  0  0  0  0
  -25.2274   -9.5741   22.4944 H   0  0  0  0  0  0
  -23.9811   -7.4490   22.7464 H   0  0  0  0  0  0
  -21.0564   -8.8464   19.8930 H   0  0  0  0  0  0
  -22.3137  -10.9595   19.6331 H   0  0  0  0  0  0
  -21.1882   -7.6069   23.9687 H   0  0  0  0  0  0
  -21.1512   -6.0499   25.9100 H   0  0  0  0  0  0
  -22.0616   -2.7546   23.2926 H   0  0  0  0  0  0
  -22.3844  -12.0300   22.4754 H   0  0  0  0  0  0
  -21.1148  -13.1996   22.2451 H   0  0  0  0  0  0
  -26.4233  -15.4886   20.0398 H   0  0  0  0  0  0
  -24.8054  -15.8016   20.4124 H   0  0  0  0  0  0
  -26.7129  -32.5540   23.1166 H   0  0  0  0  0  0
  -25.0144  -33.9788   25.0523 H   0  0  0  0  0  0
  -22.6890  -31.3099   21.4097 H   0  0  0  0  0  0
  -23.3747  -35.9651   23.3303 H   0  0  0  0  0  0
  -24.3579  -36.8912   22.2040 H   0  0  0  0  0  0
  -23.7243  -37.6531   23.6626 H   0  0  0  0  0  0
  -26.0353  -31.5929   20.5842 H   0  0  0  0  0  0
  -26.8164  -30.8941   21.9760 H   0  0  0  0  0  0
  -28.1023  -29.1210   21.1526 H   0  0  0  0  0  0
  -26.0682  -25.9871   18.9951 H   0  0  0  0  0  0
  -23.9806  -27.2827   19.0440 H   0  0  0  0  0  0
  -23.7234  -30.5927   19.4049 H   0  0  0  0  0  0
  -22.7317  -29.2444   19.8694 H   0  0  0  0  0  0
  -25.1280  -36.1977   25.0837 H   0  0  0  0  0  0
  -20.9982  -28.3239   24.1426 H   0  0  0  0  0  0
  -20.5663  -26.2297   23.3601 H   0  0  0  0  0  0
  -21.6635  -26.7437   22.1215 H   0  0  0  0  0  0
  -19.6896  -25.6306   21.1216 H   0  0  0  0  0  0
  -19.6660  -27.3216   20.6757 H   0  0  0  0  0  0
  -17.4194  -26.6693   21.4020 H   0  0  0  0  0  0
  -18.0315  -26.0030   22.9002 H   0  0  0  0  0  0
  -19.7934  -30.7260   24.2284 H   0  0  0  0  0  0
  -17.5012  -31.6254   24.5183 H   0  0  0  0  0  0
  -15.5356  -30.2995   23.7616 H   0  0  0  0  0  0
  -15.8673  -28.0828   22.7034 H   0  0  0  0  0  0
  -24.5972  -30.6989   25.7842 H   0  0  0  0  0  0
  -24.8931  -32.2844   26.4892 H   0  0  0  0  0  0
  -25.8158  -30.8912   27.0242 H   0  0  0  0  0  0
  -26.2825  -29.6824   24.1088 H   0  0  0  0  0  0
  -27.4032  -29.7220   25.4512 H   0  0  0  0  0  0
  -27.8683  -30.4341   23.9230 H   0  0  0  0  0  0
  -27.2702  -33.3587   26.2073 H   0  0  0  0  0  0
  -28.3890  -32.6826   25.0322 H   0  0  0  0  0  0
  -28.0718  -31.8388   26.5396 H   0  0  0  0  0  0
  -28.2610  -38.0100   24.7508 H   0  0  0  0  0  0
  -28.1063  -36.2637   24.6299 H   0  0  0  0  0  0
  -27.2304  -37.1484   25.8871 H   0  0  0  0  0  0
  -20.9278  -29.8781   21.6970 H   0  0  0  0  0  0
  -26.0181  -38.2885   24.1397 H   0  0  0  0  0  0
  -27.7513  -20.6903   18.4852 H   0  0  0  0  0  0
  -28.3733  -20.0041   22.6920 H   0  0  0  0  0  0
  -29.2971  -18.8729   17.0615 H   0  0  0  0  0  0
  -27.5662  -18.6341   17.0646 H   0  0  0  0  0  0
  -29.0064  -16.6419   16.2782 H   0  0  0  0  0  0
  -27.7570  -16.2971   17.4484 H   0  0  0  0  0  0
  -30.6813  -16.7765   18.1664 H   0  0  0  0  0  0
  -29.9073  -15.2219   18.0081 H   0  0  0  0  0  0
  -28.2861  -15.8294   19.8027 H   0  0  0  0  0  0
  -27.0581  -21.9739   21.9213 H   0  0  0  0  0  0
  -26.5709  -22.0518   20.2494 H   0  0  0  0  0  0
  -27.7478  -24.3482   19.2127 H   0  0  0  0  0  0
  -26.7563  -24.3692   20.6586 H   0  0  0  0  0  0
  -29.6142  -25.3436   20.8723 H   0  0  0  0  0  0
  -28.2555  -25.7724   21.8681 H   0  0  0  0  0  0
  -30.7313  -16.3884   21.1519 H   0  0  0  0  0  0
  -29.0411  -22.7405   19.9609 H   0  0  0  0  0  0
  -28.9411  -23.1180   21.5354 H   0  0  0  0  0  0
  1 25  1  0  0  0
  1 30  2  0  0  0
  1 84  1  0  0  0
  2  3  1  0  0  0
  2 25  1  0  0  0
  2 87  1  0  0  0
  2 88  1  0  0  0
  3  4  1  0  0  0
  3 89  1  0  0  0
  3 90  1  0  0  0
  4  5  1  0  0  0
  4 91  1  0  0  0
  4 92  1  0  0  0
  5  6  1  0  0  0
  5 26  1  0  0  0
  5 93  1  0  0  0
  6 25  1  0  0  0
  6 94  1  0  0  0
  6 95  1  0  0  0
  7  8  2  0  0  0
  7 26  1  0  0  0
  7 29  1  0  0  0
  8  9  1  0  0  0
  8 22  1  0  0  0
  9 10  1  0  0  0
  9 27  2  0  0  0
 10 11  2  0  0  0
 10 15  1  0  0  0
 11 12  1  0  0  0
 11 96  1  0  0  0
 12 13  2  0  0  0
 12 97  1  0  0  0
 13 14  1  0  0  0
 13 31  1  0  0  0
 14 15  2  0  0  0
 14 98  1  0  0  0
 15 99  1  0  0  0
 16 17  2  0  0  0
 16 21  1  0  0  0
 16 31  1  0  0  0
 17 18  1  0  0  0
 17100  1  0  0  0
 18 19  2  0  0  0
 18101  1  0  0  0
 19 20  1  0  0  0
 19 24  1  0  0  0
 20 21  2  0  0  0
 20102  1  0  0  0
 21 23  1  0  0  0
 22 28  1  0  0  0
 22 32  2  0  0  0
 26 27  1  0  0  0
 28103  1  0  0  0
 28104  1  0  0  0
 29105  1  0  0  0
 29106  1  0  0  0
 33 34  1  0  0  0
 33 66  1  0  0  0
 33 70  2  0  0  0
 34 36  1  0  0  0
 34 59  1  0  0  0
 34107  1  0  0  0
 35 44  2  0  0  0
 35 45  1  0  0  0
 35 68  1  0  0  0
 36 56  1  0  0  0
 36108  1  0  0  0
 37 39  1  0  0  0
 37 47  1  0  0  0
 37 66  1  0  0  0
 37109  1  0  0  0
 38 43  2  0  0  0
 38 46  1  0  0  0
 38 47  1  0  0  0
 39 64  1  0  0  0
 39 67  2  0  0  0
 40 52  1  0  0  0
 40 53  2  0  0  0
 40 58  1  0  0  0
 41110  1  0  0  0
 41111  1  0  0  0
 41112  1  0  0  0
 41 48  1  0  0  0
 42 43  1  0  0  0
 42 66  1  0  0  0
 42113  1  0  0  0
 42114  1  0  0  0
 43 44  1  0  0  0
 44115  1  0  0  0
 45 46  2  0  0  0
 45116  1  0  0  0
 46117  1  0  0  0
 47118  1  0  0  0
 47119  1  0  0  0
 48 56  1  0  0  0
 48 65  1  0  0  0
 48120  1  0  0  0
 49 50  1  0  0  0
 49 53  1  0  0  0
 49 64  1  0  0  0
 49121  1  0  0  0
 50 51  1  0  0  0
 50122  1  0  0  0
 50123  1  0  0  0
 51 52  1  0  0  0
 51124  1  0  0  0
 51125  1  0  0  0
 52126  1  0  0  0
 52127  1  0  0  0
 53 54  1  0  0  0
 54 55  2  0  0  0
 54128  1  0  0  0
 55 57  1  0  0  0
 55129  1  0  0  0
 56 69  2  0  0  0
 57 58  2  0  0  0
 57130  1  0  0  0
 58131  1  0  0  0
 59 60  1  0  0  0
 59 61  1  0  0  0
 59 62  1  0  0  0
 60132  1  0  0  0
 60133  1  0  0  0
 60134  1  0  0  0
 61135  1  0  0  0
 61136  1  0  0  0
 61137  1  0  0  0
 62138  1  0  0  0
 62139  1  0  0  0
 62140  1  0  0  0
 63 65  1  0  0  0
 63141  1  0  0  0
 63142  1  0  0  0
 63143  1  0  0  0
 64144  1  0  0  0
 65145  1  0  0  0
 68 83  1  0  0  0
 71 73  2  0  0  0
 71 75  1  0  0  0
 71146  1  0  0  0
 72 75  2  0  0  0
 72 76  1  0  0  0
 72147  1  0  0  0
 73 74  1  0  0  0
 73 77  1  0  0  0
 74 76  2  0  0  0
 74 80  1  0  0  0
 75 81  1  0  0  0
 76 86  1  0  0  0
 77 78  1  0  0  0
 77148  1  0  0  0
 77149  1  0  0  0
 78 79  1  0  0  0
 78150  1  0  0  0
 78151  1  0  0  0
 79 80  1  0  0  0
 79152  1  0  0  0
 79153  1  0  0  0
 80 84  1  0  0  0
 80154  1  0  0  0
 81 85  1  0  0  0
 81155  1  0  0  0
 81156  1  0  0  0
 82 83  1  0  0  0
 82 85  1  0  0  0
 82157  1  0  0  0
 82158  1  0  0  0
 83159  1  0  0  0
 83160  1  0  0  0
 84161  1  0  0  0
 85162  1  0  0  0
 85163  1  0  0  0
M  CHG  1  85   1
M  ISO  4   1 100  68 101  83 101  84 100
M  END
> <chiral flag>
0

> <version>
0

> <s_m_source_file>
/data/baiqing/PycharmProjects/Reinvent-master-3.2/result/LINK_invent/BTK/process_docking_weight1_custom_product_contain_oxygen_bond_distance_aromatic_linkinvent_7_9_3/rearranged_h_0010.sdf

> <i_m_source_file_index>
75

> <r_mmod_Potential_Energy-OPLS-2005>
18.9748706817627

> <r_mmod_Stretch_Energy-OPLS-2005>
38.1684112548828

> <r_mmod_Bend_Energy-OPLS-2005>
158.82958984375

> <r_mmod_Torsional_Energy-OPLS-2005>
316.420837402344

> <r_mmod_Improper_Torsional_Energy-OPLS-2005>
8.06533432006836

> <r_mmod_Van_der_Waal_Energy-OPLS-2005>
160.281707763672

> <r_mmod_Electrostatic_Energy-OPLS-2005>
-295.89404296875

> <r_mmod_Solvation_Energy-OPLS-2005>
-452.910247802734

> <b_mmod_Minimization_Converged-OPLS-2005>
0

> <r_mmod_RMS_Derivative-OPLS-2005>
2.68950271606445

$$$$
75
                    3D
 Structure written by MMmdl.
147155  0  0  1  0            999 V2000
  -30.3587  -15.4419   20.3426 C   0  0  0  0  0  0
  -30.4435  -12.9222   19.5710 C   0  0  0  0  0  0
  -29.5588  -12.6209   18.3265 C   0  0  0  0  0  0
  -28.1083  -12.3135   18.7358 C   0  0  0  0  0  0
  -27.6085  -13.2926   19.8234 C   0  0  2  0  0  0
  -28.6305  -13.4957   20.9620 C   0  0  0  0  0  0
  -25.2328  -13.8245   20.5710 C   0  0  0  0  0  0
  -24.1725  -13.0414   20.9266 C   0  0  0  0  0  0
  -24.6416  -11.6927   20.8755 C   0  0  0  0  0  0
  -23.9117  -10.4283   21.0398 C   0  0  0  0  0  0
  -24.3654   -9.4199   21.9181 C   0  0  0  0  0  0
  -23.6313   -8.2241   22.0756 C   0  0  0  0  0  0
  -22.4290   -8.0284   21.3548 C   0  0  0  0  0  0
  -21.9939   -9.0259   20.4646 C   0  0  0  0  0  0
  -22.7284  -10.2129   20.3053 C   0  0  0  0  0  0
  -21.6856   -6.0741   22.5283 C   0  0  0  0  0  0
  -21.4014   -6.5644   23.8213 C   0  0  0  0  0  0
  -21.3660   -5.6796   24.9176 C   0  0  0  0  0  0
  -21.6046   -4.3059   24.7228 C   0  0  0  0  0  0
  -21.8817   -3.8152   23.4346 C   0  0  0  0  0  0
  -21.9193   -4.6968   22.3404 C   0  0  0  0  0  0
  -22.7742  -13.5157   21.1912 C   0  0  0  0  0  0
  -22.1661   -4.2152   21.0981 F   0  0  0  0  0  0
  -21.5629   -3.4542   25.7740 F   0  0  0  0  0  0
  -29.8534  -14.0817   20.3678 N   0  0  0  0  0  0
  -26.2792  -12.9572   20.3175 N   0  0  0  0  0  0
  -25.9359  -11.6661   20.5693 N   0  0  0  0  0  0
  -22.0407  -12.8139   22.0469 N   0  0  0  0  0  0
  -25.3837  -15.1978   20.4089 N   0  0  0  0  0  0
  -31.5725  -15.4080   20.0715 O   0  0  0  0  0  0
  -21.6646   -6.8887   21.4245 O   0  0  0  0  0  0
  -22.3410  -14.5456   20.6749 O   0  0  0  0  0  0
  -24.6706  -31.8135   23.1607 C   0  0  0  0  0  0
  -25.9352  -32.4537   23.8101 C   0  0  1  0  0  0
  -27.2279  -26.8266   20.2106 C   0  0  0  0  0  0
  -25.5989  -33.8353   24.2011 N   0  0  0  0  0  0
  -23.4902  -30.4185   21.5112 C   0  0  2  0  0  0
  -24.9457  -28.7766   20.1195 C   0  0  0  0  0  0
  -22.7700  -29.4385   22.4748 C   0  0  0  0  0  0
  -18.0326  -28.1421   22.8466 C   0  0  0  0  0  0
  -24.1488  -36.7176   23.2644 C   0  0  0  0  0  0
  -26.0621  -30.5867   21.4055 C   0  0  0  0  0  0
  -26.1284  -29.1612   20.7618 C   0  0  0  0  0  0
  -27.2567  -28.2090   20.7795 C   0  0  0  0  0  0
  -26.0150  -26.6155   19.5130 C   0  0  0  0  0  0
  -24.9184  -27.5260   19.4756 C   0  0  0  0  0  0
  -23.7374  -29.7192   20.1437 C   0  0  0  0  0  0
  -25.4132  -36.2932   24.0290 C   0  0  1  0  0  0
  -20.5952  -28.3768   23.1173 C   0  0  2  0  0  0
  -20.6799  -26.9442   22.5402 C   0  0  0  0  0  0
  -19.5770  -26.6381   21.5218 C   0  0  0  0  0  0
  -18.1954  -26.7950   22.1628 C   0  0  0  0  0  0
  -19.1589  -28.8917   23.2804 C   0  0  0  0  0  0
  -18.9500  -30.1505   23.8842 C   0  0  0  0  0  0
  -17.6494  -30.6611   24.0554 C   0  0  0  0  0  0
  -25.9107  -34.9323   23.4977 C   0  0  0  0  0  0
  -16.5382  -29.9098   23.6347 C   0  0  0  0  0  0
  -16.7307  -28.6518   23.0366 C   0  0  0  0  0  0
  -26.4577  -31.6517   25.0669 C   0  0  0  0  0  0
  -25.3678  -31.3802   26.1310 C   0  0  0  0  0  0
  -27.0485  -30.2872   24.6463 C   0  0  0  0  0  0
  -27.6049  -32.4342   25.7488 C   0  0  0  0  0  0
  -27.5570  -37.1731   24.8455 C   0  0  0  0  0  0
  -21.4359  -29.3037   22.3506 N   0  0  0  0  0  0
  -26.4258  -37.3692   23.9429 N   0  0  0  0  0  0
  -24.7630  -30.9700   22.0793 N   0  0  0  0  0  0
  -23.4202  -28.7981   23.3044 O   0  0  0  0  0  0
  -28.2720  -25.7252   20.2384 O   0  0  0  0  0  0
  -26.5730  -34.8882   22.4580 O   0  0  0  0  0  0
  -23.5756  -32.1153   23.6645 O   0  0  0  0  0  0
  -28.8597  -23.3016   21.3784 C   0  0  0  0  0  0
  -29.2020  -21.8306   21.3992 C   0  0  0  0  0  0
  -28.2327  -23.1261   19.2252 C   0  0  0  0  0  0
  -28.3337  -24.1476   20.2909 C   0  0  0  0  0  0
  -28.5748  -21.6464   19.2294 C   0  0  0  0  0  0
  -29.1029  -20.8143   20.3354 C   0  0  0  0  0  0
  -28.5361  -16.7958   21.5365 C   0  0  0  0  0  0
  -29.6167  -16.8751   20.5530 N   0  0  0  0  0  0
  -31.0879  -19.0431   21.4036 O   0  0  0  0  0  0
  -30.7443  -18.8489   18.9405 O   0  0  0  0  0  0
  -28.4289  -21.0238   18.0337 F   0  0  0  0  0  0
  -30.1431  -18.8672   20.2855 S   0  0  0  0  0  0
  -31.4569  -13.1430   19.2349 H   0  0  0  0  0  0
  -30.5462  -12.0317   20.1937 H   0  0  0  0  0  0
  -29.9734  -11.7865   17.7588 H   0  0  0  0  0  0
  -29.5724  -13.4831   17.6585 H   0  0  0  0  0  0
  -28.0833  -11.2946   19.1239 H   0  0  0  0  0  0
  -27.4495  -12.3287   17.8667 H   0  0  0  0  0  0
  -27.5123  -14.2520   19.3139 H   0  0  0  0  0  0
  -28.8345  -12.5541   21.4741 H   0  0  0  0  0  0
  -28.2278  -14.1496   21.7318 H   0  0  0  0  0  0
  -25.2796   -9.5669   22.4758 H   0  0  0  0  0  0
  -24.0016   -7.4632   22.7476 H   0  0  0  0  0  0
  -21.0870   -8.8789   19.8948 H   0  0  0  0  0  0
  -22.3748  -10.9671   19.6162 H   0  0  0  0  0  0
  -21.2004   -7.6151   23.9716 H   0  0  0  0  0  0
  -21.1484   -6.0528   25.9077 H   0  0  0  0  0  0
  -22.0592   -2.7614   23.2848 H   0  0  0  0  0  0
  -22.4059  -11.9827   22.4882 H   0  0  0  0  0  0
  -21.1010  -13.1125   22.2658 H   0  0  0  0  0  0
  -24.5998  -15.8316   20.5190 H   0  0  0  0  0  0
  -26.1938  -15.6389   19.9956 H   0  0  0  0  0  0
  -26.7424  -32.5054   23.0809 H   0  0  0  0  0  0
  -25.0087  -33.9409   25.0130 H   0  0  0  0  0  0
  -22.8084  -31.2518   21.3294 H   0  0  0  0  0  0
  -23.3774  -35.9480   23.3252 H   0  0  0  0  0  0
  -24.3566  -36.8881   22.2069 H   0  0  0  0  0  0
  -23.7216  -37.6335   23.6737 H   0  0  0  0  0  0
  -26.2469  -31.3159   20.6155 H   0  0  0  0  0  0
  -26.9210  -30.6559   22.0610 H   0  0  0  0  0  0
  -28.1558  -28.5103   21.2988 H   0  0  0  0  0  0
  -25.8877  -25.6657   19.0130 H   0  0  0  0  0  0
  -24.0223  -27.2258   18.9497 H   0  0  0  0  0  0
  -23.9044  -30.4804   19.3809 H   0  0  0  0  0  0
  -22.8448  -29.1789   19.8238 H   0  0  0  0  0  0
  -25.1330  -36.1700   25.0778 H   0  0  0  0  0  0
  -21.0036  -28.3388   24.1299 H   0  0  0  0  0  0
  -20.5668  -26.2396   23.3652 H   0  0  0  0  0  0
  -21.6664  -26.7403   22.1217 H   0  0  0  0  0  0
  -19.6924  -25.6276   21.1291 H   0  0  0  0  0  0
  -19.6715  -27.3155   20.6718 H   0  0  0  0  0  0
  -17.4221  -26.6688   21.4035 H   0  0  0  0  0  0
  -18.0352  -26.0113   22.9045 H   0  0  0  0  0  0
  -19.7976  -30.7338   24.2188 H   0  0  0  0  0  0
  -17.5047  -31.6285   24.5167 H   0  0  0  0  0  0
  -15.5380  -30.2985   23.7706 H   0  0  0  0  0  0
  -15.8705  -28.0821   22.7112 H   0  0  0  0  0  0
  -24.5871  -30.7143   25.7619 H   0  0  0  0  0  0
  -24.8863  -32.3022   26.4581 H   0  0  0  0  0  0
  -25.7891  -30.9068   27.0188 H   0  0  0  0  0  0
  -26.3171  -29.6530   24.1441 H   0  0  0  0  0  0
  -27.3958  -29.7266   25.5154 H   0  0  0  0  0  0
  -27.9137  -30.4041   23.9932 H   0  0  0  0  0  0
  -27.2600  -33.3688   26.1927 H   0  0  0  0  0  0
  -28.3940  -32.6832   25.0377 H   0  0  0  0  0  0
  -28.0630  -31.8560   26.5524 H   0  0  0  0  0  0
  -28.2517  -38.0095   24.7579 H   0  0  0  0  0  0
  -28.1134  -36.2625   24.6179 H   0  0  0  0  0  0
  -27.2301  -37.1247   25.8858 H   0  0  0  0  0  0
  -20.9635  -29.8705   21.6604 H   0  0  0  0  0  0
  -26.0089  -38.2728   24.1503 H   0  0  0  0  0  0
  -29.0951  -23.8352   22.2887 H   0  0  0  0  0  0
  -29.6607  -21.4747   22.3094 H   0  0  0  0  0  0
  -27.9194  -23.5090   18.2658 H   0  0  0  0  0  0
  -28.1599  -17.7912   21.7708 H   0  0  0  0  0  0
  -28.8902  -16.3490   22.4663 H   0  0  0  0  0  0
  -27.7038  -16.2212   21.1437 H   0  0  0  0  0  0
  1 25  1  0  0  0
  1 30  2  0  0  0
  1 78  1  0  0  0
  2  3  1  0  0  0
  2 25  1  0  0  0
  2 83  1  0  0  0
  2 84  1  0  0  0
  3  4  1  0  0  0
  3 85  1  0  0  0
  3 86  1  0  0  0
  4  5  1  0  0  0
  4 87  1  0  0  0
  4 88  1  0  0  0
  5  6  1  0  0  0
  5 26  1  0  0  0
  5 89  1  0  0  0
  6 25  1  0  0  0
  6 90  1  0  0  0
  6 91  1  0  0  0
  7  8  2  0  0  0
  7 26  1  0  0  0
  7 29  1  0  0  0
  8  9  1  0  0  0
  8 22  1  0  0  0
  9 10  1  0  0  0
  9 27  2  0  0  0
 10 11  2  0  0  0
 10 15  1  0  0  0
 11 12  1  0  0  0
 11 92  1  0  0  0
 12 13  2  0  0  0
 12 93  1  0  0  0
 13 14  1  0  0  0
 13 31  1  0  0  0
 14 15  2  0  0  0
 14 94  1  0  0  0
 15 95  1  0  0  0
 16 17  2  0  0  0
 16 21  1  0  0  0
 16 31  1  0  0  0
 17 18  1  0  0  0
 17 96  1  0  0  0
 18 19  2  0  0  0
 18 97  1  0  0  0
 19 20  1  0  0  0
 19 24  1  0  0  0
 20 21  2  0  0  0
 20 98  1  0  0  0
 21 23  1  0  0  0
 22 28  1  0  0  0
 22 32  2  0  0  0
 26 27  1  0  0  0
 28 99  1  0  0  0
 28100  1  0  0  0
 29101  1  0  0  0
 29102  1  0  0  0
 33 34  1  0  0  0
 33 66  1  0  0  0
 33 70  2  0  0  0
 34 36  1  0  0  0
 34 59  1  0  0  0
 34103  1  0  0  0
 35 44  2  0  0  0
 35 45  1  0  0  0
 35 68  1  0  0  0
 36 56  1  0  0  0
 36104  1  0  0  0
 37 39  1  0  0  0
 37 47  1  0  0  0
 37 66  1  0  0  0
 37105  1  0  0  0
 38 43  2  0  0  0
 38 46  1  0  0  0
 38 47  1  0  0  0
 39 64  1  0  0  0
 39 67  2  0  0  0
 40 52  1  0  0  0
 40 53  2  0  0  0
 40 58  1  0  0  0
 41106  1  0  0  0
 41107  1  0  0  0
 41108  1  0  0  0
 41 48  1  0  0  0
 42 43  1  0  0  0
 42 66  1  0  0  0
 42109  1  0  0  0
 42110  1  0  0  0
 43 44  1  0  0  0
 44111  1  0  0  0
 45 46  2  0  0  0
 45112  1  0  0  0
 46113  1  0  0  0
 47114  1  0  0  0
 47115  1  0  0  0
 48 56  1  0  0  0
 48 65  1  0  0  0
 48116  1  0  0  0
 49 50  1  0  0  0
 49 53  1  0  0  0
 49 64  1  0  0  0
 49117  1  0  0  0
 50 51  1  0  0  0
 50118  1  0  0  0
 50119  1  0  0  0
 51 52  1  0  0  0
 51120  1  0  0  0
 51121  1  0  0  0
 52122  1  0  0  0
 52123  1  0  0  0
 53 54  1  0  0  0
 54 55  2  0  0  0
 54124  1  0  0  0
 55 57  1  0  0  0
 55125  1  0  0  0
 56 69  2  0  0  0
 57 58  2  0  0  0
 57126  1  0  0  0
 58127  1  0  0  0
 59 60  1  0  0  0
 59 61  1  0  0  0
 59 62  1  0  0  0
 60128  1  0  0  0
 60129  1  0  0  0
 60130  1  0  0  0
 61131  1  0  0  0
 61132  1  0  0  0
 61133  1  0  0  0
 62134  1  0  0  0
 62135  1  0  0  0
 62136  1  0  0  0
 63 65  1  0  0  0
 63137  1  0  0  0
 63138  1  0  0  0
 63139  1  0  0  0
 64140  1  0  0  0
 65141  1  0  0  0
 68 74  1  0  0  0
 71 72  2  0  0  0
 71 74  1  0  0  0
 71142  1  0  0  0
 72 76  1  0  0  0
 72143  1  0  0  0
 73 74  2  0  0  0
 73 75  1  0  0  0
 73144  1  0  0  0
 75 76  2  0  0  0
 75 81  1  0  0  0
 76 82  1  0  0  0
 77 78  1  0  0  0
 77145  1  0  0  0
 77146  1  0  0  0
 77147  1  0  0  0
 78 82  1  0  0  0
 79 82  2  0  0  0
 80 82  2  0  0  0
M  ISO  4   1 100  68 101  74 101  78 100
M  END
> <chiral flag>
0

> <version>
0

> <s_m_source_file>
/data/baiqing/PycharmProjects/Reinvent-master-3.2/result/LINK_invent/BTK/process_docking_weight1_custom_product_contain_oxygen_bond_distance_aromatic_linkinvent_7_9_3/rearranged_h_0010.sdf

> <i_m_source_file_index>
76

> <r_mmod_Potential_Energy-OPLS-2005>
1718.66101074219

> <r_mmod_Stretch_Energy-OPLS-2005>
736.020751953125

> <r_mmod_Bend_Energy-OPLS-2005>
589.840087890625

> <r_mmod_Torsional_Energy-OPLS-2005>
205.197708129883

> <r_mmod_Improper_Torsional_Energy-OPLS-2005>
11.4521331787109

> <r_mmod_Van_der_Waal_Energy-OPLS-2005>
126.763328552246

> <r_mmod_Electrostatic_Energy-OPLS-2005>
-318.532379150391

> <r_mmod_Solvation_Energy-OPLS-2005>
-253.078506469727

> <b_mmod_Minimization_Converged-OPLS-2005>
0

> <r_mmod_RMS_Derivative-OPLS-2005>
0.78210973739624

$$$$
76
                    3D
 Structure written by MMmdl.
166175  0  0  1  0            999 V2000
  -30.7190  -14.5002   20.4528 C   0  0  0  0  0  0
  -30.4161  -12.2977   19.4199 C   0  0  0  0  0  0
  -29.4860  -12.4584   18.2009 C   0  0  0  0  0  0
  -28.0085  -12.3299   18.6230 C   0  0  0  0  0  0
  -27.6495  -13.1944   19.8628 C   0  0  2  0  0  0
  -28.7100  -13.0649   20.9811 C   0  0  0  0  0  0
  -25.2583  -13.8115   20.5735 C   0  0  0  0  0  0
  -24.1823  -13.0422   20.9222 C   0  0  0  0  0  0
  -24.6346  -11.6877   20.8770 C   0  0  0  0  0  0
  -23.9008  -10.4277   21.0413 C   0  0  0  0  0  0
  -24.3569   -9.4195   21.9189 C   0  0  0  0  0  0
  -23.6248   -8.2231   22.0756 C   0  0  0  0  0  0
  -22.4234   -8.0264   21.3548 C   0  0  0  0  0  0
  -21.9868   -9.0241   20.4650 C   0  0  0  0  0  0
  -22.7188  -10.2124   20.3054 C   0  0  0  0  0  0
  -21.6827   -6.0710   22.5270 C   0  0  0  0  0  0
  -21.4000   -6.5609   23.8208 C   0  0  0  0  0  0
  -21.3659   -5.6763   24.9176 C   0  0  0  0  0  0
  -21.6042   -4.3026   24.7219 C   0  0  0  0  0  0
  -21.8812   -3.8122   23.4334 C   0  0  0  0  0  0
  -21.9177   -4.6941   22.3388 C   0  0  0  0  0  0
  -22.7856  -13.5251   21.1860 C   0  0  0  0  0  0
  -22.1644   -4.2131   21.0964 F   0  0  0  0  0  0
  -21.5655   -3.4516   25.7741 F   0  0  0  0  0  0
  -30.0283  -13.3300   20.3888 N   0  0  0  0  0  0
  -26.2986  -12.9244   20.3407 N   0  0  0  0  0  0
  -25.9273  -11.6426   20.5821 N   0  0  0  0  0  0
  -22.0456  -12.8261   22.0385 N   0  0  0  0  0  0
  -25.4346  -15.1833   20.4156 N   0  0  0  0  0  0
  -31.9267  -14.5718   20.2178 O   0  0  0  0  0  0
  -21.6608   -6.8858   21.4235 O   0  0  0  0  0  0
  -22.3575  -14.5580   20.6711 O   0  0  0  0  0  0
  -24.6128  -31.8681   23.2102 C   0  0  0  0  0  0
  -25.9019  -32.4828   23.8405 C   0  0  1  0  0  0
  -27.2455  -27.4637   20.0793 C   0  0  0  0  0  0
  -25.5888  -33.8624   24.2340 N   0  0  0  0  0  0
  -23.4032  -30.4886   21.5494 C   0  0  2  0  0  0
  -24.8569  -28.9646   20.1081 C   0  0  0  0  0  0
  -22.7414  -29.4645   22.4995 C   0  0  0  0  0  0
  -18.0277  -28.1361   22.8493 C   0  0  0  0  0  0
  -24.1487  -36.7316   23.2638 C   0  0  0  0  0  0
  -25.9311  -30.8444   21.3597 C   0  0  0  0  0  0
  -26.0185  -29.4844   20.6976 C   0  0  0  0  0  0
  -27.2227  -28.7419   20.6799 C   0  0  0  0  0  0
  -26.0701  -26.9501   19.4993 C   0  0  0  0  0  0
  -24.8770  -27.6956   19.5032 C   0  0  0  0  0  0
  -23.6117  -29.8205   20.1645 C   0  0  0  0  0  0
  -25.4108  -36.3119   24.0341 C   0  0  1  0  0  0
  -20.5866  -28.3653   23.1314 C   0  0  2  0  0  0
  -20.6761  -26.9392   22.5407 C   0  0  0  0  0  0
  -19.5740  -26.6370   21.5204 C   0  0  0  0  0  0
  -18.1923  -26.7906   22.1621 C   0  0  0  0  0  0
  -19.1526  -28.8828   23.2897 C   0  0  0  0  0  0
  -18.9455  -30.1443   23.8892 C   0  0  0  0  0  0
  -17.6455  -30.6570   24.0558 C   0  0  0  0  0  0
  -25.9037  -34.9477   23.5139 C   0  0  0  0  0  0
  -16.5349  -29.9067   23.6323 C   0  0  0  0  0  0
  -16.7267  -28.6482   23.0351 C   0  0  0  0  0  0
  -26.4462  -31.6598   25.0716 C   0  0  0  0  0  0
  -25.3742  -31.3640   26.1458 C   0  0  0  0  0  0
  -27.0311  -30.3061   24.6047 C   0  0  0  0  0  0
  -27.6016  -32.4321   25.7504 C   0  0  0  0  0  0
  -27.5583  -37.1810   24.8466 C   0  0  0  0  0  0
  -21.4145  -29.3016   22.3718 N   0  0  0  0  0  0
  -26.4298  -37.3797   23.9410 N   0  0  0  0  0  0
  -24.6673  -31.0782   22.0997 N   0  0  0  0  0  0
  -23.4178  -28.8191   23.3047 O   0  0  0  0  0  0
  -28.3199  -26.6167   20.1574 O   0  0  0  0  0  0
  -26.5600  -34.8922   22.4698 O   0  0  0  0  0  0
  -23.5315  -32.1422   23.7495 O   0  0  0  0  0  0
  -31.1686  -21.8261   21.5241 C   0  0  0  0  0  0
  -31.1194  -23.0819   20.8763 C   0  0  0  0  0  0
  -29.0703  -22.4106   19.7741 C   0  0  0  0  0  0
  -30.1669  -20.8438   21.3208 C   0  0  0  0  0  0
  -30.0597  -23.3899   19.9917 C   0  0  0  0  0  0
  -29.1043  -21.1648   20.4332 C   0  0  0  0  0  0
  -31.3842  -17.6472   20.9980 C   0  0  0  0  0  0
  -28.8724  -17.5848   21.5202 C   0  0  0  0  0  0
  -31.5137  -18.8477   21.9522 C   0  0  0  0  0  0
  -29.0839  -18.8320   22.4095 C   0  0  0  0  0  0
  -30.1641  -16.7400   21.3383 C   0  0  0  0  0  0
  -29.6887  -16.0979   18.9919 C   0  0  0  0  0  0
  -29.5428  -26.9539   19.5284 C   0  0  0  0  0  0
  -30.4933  -25.7788   19.8531 C   0  0  0  0  0  0
  -30.2612  -19.6002   21.9984 N   0  0  0  0  0  0
  -29.9684  -15.6300   20.3695 N   0  0  0  0  0  0
  -29.9364  -24.5799   19.3002 O   0  0  0  0  0  0
  -28.1073  -20.2829   20.1783 F   0  0  0  0  0  0
  -31.4594  -12.3817   19.1082 H   0  0  0  0  0  0
  -30.3112  -11.3058   19.8612 H   0  0  0  0  0  0
  -29.7262  -11.7045   17.4494 H   0  0  0  0  0  0
  -29.6503  -13.4234   17.7210 H   0  0  0  0  0  0
  -27.8228  -11.2784   18.8437 H   0  0  0  0  0  0
  -27.3557  -12.5824   17.7872 H   0  0  0  0  0  0
  -27.6464  -14.2228   19.5260 H   0  0  0  0  0  0
  -28.6952  -12.0649   21.4157 H   0  0  0  0  0  0
  -28.5005  -13.7641   21.7922 H   0  0  0  0  0  0
  -25.2709   -9.5678   22.4779 H   0  0  0  0  0  0
  -23.9945   -7.4618   22.7471 H   0  0  0  0  0  0
  -21.0796   -8.8749   19.8961 H   0  0  0  0  0  0
  -22.3631  -10.9661   19.6164 H   0  0  0  0  0  0
  -21.1984   -7.6114   23.9708 H   0  0  0  0  0  0
  -21.1499   -6.0495   25.9079 H   0  0  0  0  0  0
  -22.0598   -2.7579   23.2836 H   0  0  0  0  0  0
  -22.4030  -11.9899   22.4764 H   0  0  0  0  0  0
  -21.1074  -13.1318   22.2559 H   0  0  0  0  0  0
  -24.6755  -15.8465   20.5272 H   0  0  0  0  0  0
  -26.3036  -15.6190   20.1334 H   0  0  0  0  0  0
  -26.7097  -32.5561   23.1187 H   0  0  0  0  0  0
  -25.0082  -33.9800   25.0516 H   0  0  0  0  0  0
  -22.6901  -31.3035   21.4087 H   0  0  0  0  0  0
  -23.3758  -35.9638   23.3286 H   0  0  0  0  0  0
  -24.3583  -36.8947   22.2056 H   0  0  0  0  0  0
  -23.7229  -37.6506   23.6667 H   0  0  0  0  0  0
  -26.0367  -31.6165   20.5964 H   0  0  0  0  0  0
  -26.8190  -30.8974   21.9778 H   0  0  0  0  0  0
  -28.1114  -29.1281   21.1581 H   0  0  0  0  0  0
  -26.0774  -25.9613   19.0621 H   0  0  0  0  0  0
  -23.9834  -27.2833   19.0546 H   0  0  0  0  0  0
  -23.7058  -30.5945   19.4026 H   0  0  0  0  0  0
  -22.7413  -29.2290   19.8765 H   0  0  0  0  0  0
  -25.1281  -36.1989   25.0833 H   0  0  0  0  0  0
  -20.9956  -28.3214   24.1435 H   0  0  0  0  0  0
  -20.5680  -26.2260   23.3587 H   0  0  0  0  0  0
  -21.6626  -26.7420   22.1199 H   0  0  0  0  0  0
  -19.6902  -25.6285   21.1221 H   0  0  0  0  0  0
  -19.6677  -27.3185   20.6735 H   0  0  0  0  0  0
  -17.4192  -26.6674   21.4020 H   0  0  0  0  0  0
  -18.0321  -26.0035   22.9004 H   0  0  0  0  0  0
  -19.7931  -30.7265   24.2255 H   0  0  0  0  0  0
  -17.5007  -31.6247   24.5164 H   0  0  0  0  0  0
  -15.5351  -30.2968   23.7636 H   0  0  0  0  0  0
  -15.8674  -28.0796   22.7062 H   0  0  0  0  0  0
  -24.5939  -30.6969   25.7778 H   0  0  0  0  0  0
  -24.8912  -32.2767   26.4950 H   0  0  0  0  0  0
  -25.8128  -30.8780   27.0184 H   0  0  0  0  0  0
  -26.2849  -29.6814   24.1122 H   0  0  0  0  0  0
  -27.4144  -29.7284   25.4469 H   0  0  0  0  0  0
  -27.8647  -30.4412   23.9151 H   0  0  0  0  0  0
  -27.2613  -33.3613   26.2079 H   0  0  0  0  0  0
  -28.3839  -32.6883   25.0355 H   0  0  0  0  0  0
  -28.0659  -31.8445   26.5431 H   0  0  0  0  0  0
  -28.2570  -38.0136   24.7552 H   0  0  0  0  0  0
  -28.1110  -36.2663   24.6256 H   0  0  0  0  0  0
  -27.2291  -37.1421   25.8865 H   0  0  0  0  0  0
  -20.9319  -29.8758   21.6947 H   0  0  0  0  0  0
  -26.0185  -38.2865   24.1431 H   0  0  0  0  0  0
  -31.9879  -21.6283   22.2006 H   0  0  0  0  0  0
  -31.9126  -23.7918   21.0618 H   0  0  0  0  0  0
  -28.2586  -22.6175   19.0923 H   0  0  0  0  0  0
  -32.3073  -17.0685   21.0337 H   0  0  0  0  0  0
  -31.3219  -18.0354   19.9822 H   0  0  0  0  0  0
  -28.4845  -17.9163   20.5593 H   0  0  0  0  0  0
  -28.0865  -16.9636   21.9511 H   0  0  0  0  0  0
  -32.3519  -19.4696   21.6360 H   0  0  0  0  0  0
  -31.7545  -18.4943   22.9559 H   0  0  0  0  0  0
  -29.2409  -18.5125   23.4411 H   0  0  0  0  0  0
  -28.1880  -19.4546   22.4283 H   0  0  0  0  0  0
  -30.3727  -16.2884   22.3110 H   0  0  0  0  0  0
  -29.6804  -17.1806   18.8839 H   0  0  0  0  0  0
  -28.7164  -15.7657   18.6410 H   0  0  0  0  0  0
  -30.4265  -15.7346   18.2723 H   0  0  0  0  0  0
  -29.4027  -27.0529   18.4508 H   0  0  0  0  0  0
  -29.9401  -27.8956   19.9097 H   0  0  0  0  0  0
  -30.6151  -25.7165   20.9356 H   0  0  0  0  0  0
  -31.4800  -25.9541   19.4226 H   0  0  0  0  0  0
  1 25  1  0  0  0
  1 30  2  0  0  0
  1 86  1  0  0  0
  2  3  1  0  0  0
  2 25  1  0  0  0
  2 89  1  0  0  0
  2 90  1  0  0  0
  3  4  1  0  0  0
  3 91  1  0  0  0
  3 92  1  0  0  0
  4  5  1  0  0  0
  4 93  1  0  0  0
  4 94  1  0  0  0
  5  6  1  0  0  0
  5 26  1  0  0  0
  5 95  1  0  0  0
  6 25  1  0  0  0
  6 96  1  0  0  0
  6 97  1  0  0  0
  7  8  2  0  0  0
  7 26  1  0  0  0
  7 29  1  0  0  0
  8  9  1  0  0  0
  8 22  1  0  0  0
  9 10  1  0  0  0
  9 27  2  0  0  0
 10 11  2  0  0  0
 10 15  1  0  0  0
 11 12  1  0  0  0
 11 98  1  0  0  0
 12 13  2  0  0  0
 12 99  1  0  0  0
 13 14  1  0  0  0
 13 31  1  0  0  0
 14 15  2  0  0  0
 14100  1  0  0  0
 15101  1  0  0  0
 16 17  2  0  0  0
 16 21  1  0  0  0
 16 31  1  0  0  0
 17 18  1  0  0  0
 17102  1  0  0  0
 18 19  2  0  0  0
 18103  1  0  0  0
 19 20  1  0  0  0
 19 24  1  0  0  0
 20 21  2  0  0  0
 20104  1  0  0  0
 21 23  1  0  0  0
 22 28  1  0  0  0
 22 32  2  0  0  0
 26 27  1  0  0  0
 28105  1  0  0  0
 28106  1  0  0  0
 29107  1  0  0  0
 29108  1  0  0  0
 33 34  1  0  0  0
 33 66  1  0  0  0
 33 70  2  0  0  0
 34 36  1  0  0  0
 34 59  1  0  0  0
 34109  1  0  0  0
 35 44  2  0  0  0
 35 45  1  0  0  0
 35 68  1  0  0  0
 36 56  1  0  0  0
 36110  1  0  0  0
 37 39  1  0  0  0
 37 47  1  0  0  0
 37 66  1  0  0  0
 37111  1  0  0  0
 38 43  2  0  0  0
 38 46  1  0  0  0
 38 47  1  0  0  0
 39 64  1  0  0  0
 39 67  2  0  0  0
 40 52  1  0  0  0
 40 53  2  0  0  0
 40 58  1  0  0  0
 41112  1  0  0  0
 41113  1  0  0  0
 41114  1  0  0  0
 41 48  1  0  0  0
 42 43  1  0  0  0
 42 66  1  0  0  0
 42115  1  0  0  0
 42116  1  0  0  0
 43 44  1  0  0  0
 44117  1  0  0  0
 45 46  2  0  0  0
 45118  1  0  0  0
 46119  1  0  0  0
 47120  1  0  0  0
 47121  1  0  0  0
 48 56  1  0  0  0
 48 65  1  0  0  0
 48122  1  0  0  0
 49 50  1  0  0  0
 49 53  1  0  0  0
 49 64  1  0  0  0
 49123  1  0  0  0
 50 51  1  0  0  0
 50124  1  0  0  0
 50125  1  0  0  0
 51 52  1  0  0  0
 51126  1  0  0  0
 51127  1  0  0  0
 52128  1  0  0  0
 52129  1  0  0  0
 53 54  1  0  0  0
 54 55  2  0  0  0
 54130  1  0  0  0
 55 57  1  0  0  0
 55131  1  0  0  0
 56 69  2  0  0  0
 57 58  2  0  0  0
 57132  1  0  0  0
 58133  1  0  0  0
 59 60  1  0  0  0
 59 61  1  0  0  0
 59 62  1  0  0  0
 60134  1  0  0  0
 60135  1  0  0  0
 60136  1  0  0  0
 61137  1  0  0  0
 61138  1  0  0  0
 61139  1  0  0  0
 62140  1  0  0  0
 62141  1  0  0  0
 62142  1  0  0  0
 63 65  1  0  0  0
 63143  1  0  0  0
 63144  1  0  0  0
 63145  1  0  0  0
 64146  1  0  0  0
 65147  1  0  0  0
 68 83  1  0  0  0
 71 72  2  0  0  0
 71 74  1  0  0  0
 71148  1  0  0  0
 72 75  1  0  0  0
 72149  1  0  0  0
 73 75  2  0  0  0
 73 76  1  0  0  0
 73150  1  0  0  0
 74 76  2  0  0  0
 74 85  1  0  0  0
 75 87  1  0  0  0
 76 88  1  0  0  0
 77 79  1  0  0  0
 77 81  1  0  0  0
 77151  1  0  0  0
 77152  1  0  0  0
 78 80  1  0  0  0
 78 81  1  0  0  0
 78153  1  0  0  0
 78154  1  0  0  0
 79 85  1  0  0  0
 79155  1  0  0  0
 79156  1  0  0  0
 80 85  1  0  0  0
 80157  1  0  0  0
 80158  1  0  0  0
 81 86  1  0  0  0
 81159  1  0  0  0
 82 86  1  0  0  0
 82160  1  0  0  0
 82161  1  0  0  0
 82162  1  0  0  0
 83 84  1  0  0  0
 83163  1  0  0  0
 83164  1  0  0  0
 84 87  1  0  0  0
 84165  1  0  0  0
 84166  1  0  0  0
M  ISO  4   1 100  68 101  83 101  86 100
M  END
> <chiral flag>
0

> <version>
0

> <s_m_source_file>
/data/baiqing/PycharmProjects/Reinvent-master-3.2/result/LINK_invent/BTK/process_docking_weight1_custom_product_contain_oxygen_bond_distance_aromatic_linkinvent_7_9_3/rearranged_h_0010.sdf

> <i_m_source_file_index>
77

> <r_mmod_Potential_Energy-OPLS-2005>
271.928833007812

> <r_mmod_Stretch_Energy-OPLS-2005>
41.770435333252

> <r_mmod_Bend_Energy-OPLS-2005>
130.698867797852

> <r_mmod_Torsional_Energy-OPLS-2005>
371.968627929688

> <r_mmod_Improper_Torsional_Energy-OPLS-2005>
15.9760999679565

> <r_mmod_Van_der_Waal_Energy-OPLS-2005>
158.719329833984

> <r_mmod_Electrostatic_Energy-OPLS-2005>
-265.693450927734

> <r_mmod_Solvation_Energy-OPLS-2005>
-209.096008300781

> <b_mmod_Minimization_Converged-OPLS-2005>
0

> <r_mmod_RMS_Derivative-OPLS-2005>
1.8337926864624

$$$$
77
                    3D
 Structure written by MMmdl.
154162  0  0  1  0            999 V2000
  -30.7153  -14.4620   20.6169 C   0  0  0  0  0  0
  -30.4167  -12.3156   19.4145 C   0  0  0  0  0  0
  -29.4898  -12.5582   18.2052 C   0  0  0  0  0  0
  -28.0095  -12.4170   18.6095 C   0  0  0  0  0  0
  -27.6645  -13.2203   19.8894 C   0  0  2  0  0  0
  -28.7079  -12.9679   21.0015 C   0  0  0  0  0  0
  -25.2588  -13.8200   20.5755 C   0  0  0  0  0  0
  -24.1820  -13.0438   20.9169 C   0  0  0  0  0  0
  -24.6399  -11.6922   20.8721 C   0  0  0  0  0  0
  -23.9063  -10.4305   21.0382 C   0  0  0  0  0  0
  -24.3611   -9.4226   21.9160 C   0  0  0  0  0  0
  -23.6299   -8.2255   22.0744 C   0  0  0  0  0  0
  -22.4281   -8.0287   21.3531 C   0  0  0  0  0  0
  -21.9910   -9.0258   20.4636 C   0  0  0  0  0  0
  -22.7235  -10.2142   20.3037 C   0  0  0  0  0  0
  -21.6855   -6.0744   22.5272 C   0  0  0  0  0  0
  -21.4027   -6.5644   23.8212 C   0  0  0  0  0  0
  -21.3668   -5.6794   24.9176 C   0  0  0  0  0  0
  -21.6035   -4.3053   24.7218 C   0  0  0  0  0  0
  -21.8819   -3.8148   23.4342 C   0  0  0  0  0  0
  -21.9196   -4.6970   22.3399 C   0  0  0  0  0  0
  -22.7839  -13.5228   21.1828 C   0  0  0  0  0  0
  -22.1651   -4.2163   21.0974 F   0  0  0  0  0  0
  -21.5631   -3.4529   25.7724 F   0  0  0  0  0  0
  -30.0500  -13.2777   20.4674 N   0  0  0  0  0  0
  -26.3039  -12.9391   20.3444 N   0  0  0  0  0  0
  -25.9329  -11.6528   20.5735 N   0  0  0  0  0  0
  -22.0475  -12.8222   22.0399 N   0  0  0  0  0  0
  -25.4310  -15.1937   20.4301 N   0  0  0  0  0  0
  -31.7822  -14.7089   20.0458 O   0  0  0  0  0  0
  -21.6637   -6.8887   21.4234 O   0  0  0  0  0  0
  -22.3501  -14.5518   20.6682 O   0  0  0  0  0  0
  -24.6213  -31.8643   23.2053 C   0  0  0  0  0  0
  -25.9096  -32.4790   23.8386 C   0  0  1  0  0  0
  -27.2503  -27.4085   20.1058 C   0  0  0  0  0  0
  -25.5932  -33.8597   24.2324 N   0  0  0  0  0  0
  -23.4138  -30.4868   21.5437 C   0  0  2  0  0  0
  -24.8622  -28.9498   20.1143 C   0  0  0  0  0  0
  -22.7463  -29.4651   22.4941 C   0  0  0  0  0  0
  -18.0303  -28.1357   22.8497 C   0  0  0  0  0  0
  -24.1491  -36.7305   23.2635 C   0  0  0  0  0  0
  -25.9460  -30.8231   21.3651 C   0  0  0  0  0  0
  -26.0230  -29.4573   20.7107 C   0  0  0  0  0  0
  -27.2190  -28.6973   20.6957 C   0  0  0  0  0  0
  -26.0631  -26.9221   19.5079 C   0  0  0  0  0  0
  -24.8787  -27.6829   19.5070 C   0  0  0  0  0  0
  -23.6272  -29.8207   20.1585 C   0  0  0  0  0  0
  -25.4100  -36.3087   24.0344 C   0  0  1  0  0  0
  -20.5906  -28.3691   23.1278 C   0  0  2  0  0  0
  -20.6809  -26.9414   22.5409 C   0  0  0  0  0  0
  -19.5771  -26.6372   21.5226 C   0  0  0  0  0  0
  -18.1959  -26.7894   22.1666 C   0  0  0  0  0  0
  -19.1546  -28.8844   23.2887 C   0  0  0  0  0  0
  -18.9460  -30.1435   23.8911 C   0  0  0  0  0  0
  -17.6458  -30.6577   24.0577 C   0  0  0  0  0  0
  -25.9026  -34.9458   23.5125 C   0  0  0  0  0  0
  -16.5353  -29.9076   23.6304 C   0  0  0  0  0  0
  -16.7287  -28.6481   23.0351 C   0  0  0  0  0  0
  -26.4517  -31.6571   25.0727 C   0  0  0  0  0  0
  -25.3778  -31.3720   26.1473 C   0  0  0  0  0  0
  -27.0373  -30.2996   24.6153 C   0  0  0  0  0  0
  -27.6079  -32.4300   25.7502 C   0  0  0  0  0  0
  -27.5572  -37.1804   24.8460 C   0  0  0  0  0  0
  -21.4179  -29.3055   22.3693 N   0  0  0  0  0  0
  -26.4282  -37.3769   23.9409 N   0  0  0  0  0  0
  -24.6781  -31.0742   22.0953 N   0  0  0  0  0  0
  -23.4188  -28.8196   23.3014 O   0  0  0  0  0  0
  -28.4246  -26.6664   20.1232 O   0  0  0  0  0  0
  -26.5576  -34.8925   22.4677 O   0  0  0  0  0  0
  -23.5385  -32.1431   23.7395 O   0  0  0  0  0  0
  -30.7451  -19.0579   20.7874 C   0  0  0  0  0  0
  -30.8376  -17.6459   20.6244 C   0  0  0  0  0  0
  -29.3189  -18.7331   22.7204 C   0  0  0  0  0  0
  -29.9810  -19.6191   21.8411 C   0  0  0  0  0  0
  -30.1586  -16.7707   21.5146 C   0  0  0  0  0  0
  -29.4007  -17.3378   22.5580 C   0  0  0  0  0  0
  -29.9618  -21.1002   22.1610 C   0  0  0  0  0  0
  -29.6555  -24.4631   20.3000 C   0  0  0  0  0  0
  -29.7662  -23.4713   21.5008 C   0  0  0  0  0  0
  -28.3035  -25.2238   20.1473 C   0  0  0  0  0  0
  -30.1216  -15.3397   21.4437 N   0  0  0  0  0  0
  -29.7924  -22.0225   21.1876 N   0  0  0  0  0  0
  -30.0524  -21.4363   23.3444 O   0  0  0  0  0  0
  -28.7470  -16.5259   23.4250 F   0  0  0  0  0  0
  -31.4631  -12.4013   19.1168 H   0  0  0  0  0  0
  -30.2957  -11.2955   19.7811 H   0  0  0  0  0  0
  -29.7251  -11.8678   17.3953 H   0  0  0  0  0  0
  -29.6618  -13.5614   17.8117 H   0  0  0  0  0  0
  -27.7997  -11.3585   18.7604 H   0  0  0  0  0  0
  -27.3661  -12.7420   17.7913 H   0  0  0  0  0  0
  -27.7136  -14.2780   19.6275 H   0  0  0  0  0  0
  -28.6744  -11.9258   21.3225 H   0  0  0  0  0  0
  -28.4561  -13.5442   21.8905 H   0  0  0  0  0  0
  -25.2762   -9.5707   22.4722 H   0  0  0  0  0  0
  -24.0020   -7.4651   22.7459 H   0  0  0  0  0  0
  -21.0841   -8.8777   19.8941 H   0  0  0  0  0  0
  -22.3693  -10.9675   19.6143 H   0  0  0  0  0  0
  -21.2022   -7.6151   23.9724 H   0  0  0  0  0  0
  -21.1485   -6.0518   25.9081 H   0  0  0  0  0  0
  -22.0591   -2.7611   23.2826 H   0  0  0  0  0  0
  -22.4109  -11.9925   22.4841 H   0  0  0  0  0  0
  -21.1085  -13.1258   22.2572 H   0  0  0  0  0  0
  -24.6749  -15.8535   20.5773 H   0  0  0  0  0  0
  -26.3177  -15.6452   20.2379 H   0  0  0  0  0  0
  -26.7195  -32.5507   23.1177 H   0  0  0  0  0  0
  -25.0185  -33.9765   25.0536 H   0  0  0  0  0  0
  -22.7054  -31.3049   21.4012 H   0  0  0  0  0  0
  -23.3736  -35.9656   23.3301 H   0  0  0  0  0  0
  -24.3578  -36.8890   22.2042 H   0  0  0  0  0  0
  -23.7273  -37.6528   23.6638 H   0  0  0  0  0  0
  -26.0754  -31.5855   20.5960 H   0  0  0  0  0  0
  -26.8257  -30.8659   21.9943 H   0  0  0  0  0  0
  -28.1137  -29.0885   21.1598 H   0  0  0  0  0  0
  -26.0298  -25.9561   19.0288 H   0  0  0  0  0  0
  -23.9891  -27.2835   19.0389 H   0  0  0  0  0  0
  -23.7496  -30.5969   19.4017 H   0  0  0  0  0  0
  -22.7510  -29.2442   19.8551 H   0  0  0  0  0  0
  -25.1273  -36.1945   25.0835 H   0  0  0  0  0  0
  -21.0004  -28.3270   24.1392 H   0  0  0  0  0  0
  -20.5699  -26.2309   23.3609 H   0  0  0  0  0  0
  -21.6681  -26.7442   22.1215 H   0  0  0  0  0  0
  -19.6939  -25.6296   21.1235 H   0  0  0  0  0  0
  -19.6666  -27.3217   20.6786 H   0  0  0  0  0  0
  -17.4206  -26.6575   21.4099 H   0  0  0  0  0  0
  -18.0425  -26.0060   22.9105 H   0  0  0  0  0  0
  -19.7943  -30.7252   24.2294 H   0  0  0  0  0  0
  -17.5015  -31.6235   24.5198 H   0  0  0  0  0  0
  -15.5359  -30.2984   23.7606 H   0  0  0  0  0  0
  -15.8692  -28.0785   22.7072 H   0  0  0  0  0  0
  -24.5909  -30.7120   25.7812 H   0  0  0  0  0  0
  -24.9056  -32.2919   26.4935 H   0  0  0  0  0  0
  -25.8107  -30.8859   27.0227 H   0  0  0  0  0  0
  -26.2962  -29.6713   24.1195 H   0  0  0  0  0  0
  -27.4124  -29.7258   25.4643 H   0  0  0  0  0  0
  -27.8803  -30.4299   23.9358 H   0  0  0  0  0  0
  -27.2678  -33.3570   26.2141 H   0  0  0  0  0  0
  -28.3868  -32.6896   25.0317 H   0  0  0  0  0  0
  -28.0800  -31.8401   26.5369 H   0  0  0  0  0  0
  -28.2585  -38.0099   24.7478 H   0  0  0  0  0  0
  -28.1070  -36.2626   24.6318 H   0  0  0  0  0  0
  -27.2302  -37.1493   25.8865 H   0  0  0  0  0  0
  -20.9338  -29.8793   21.6928 H   0  0  0  0  0  0
  -26.0160  -38.2848   24.1375 H   0  0  0  0  0  0
  -31.2945  -19.7102   20.1234 H   0  0  0  0  0  0
  -31.4353  -17.2534   19.8140 H   0  0  0  0  0  0
  -28.7490  -19.1221   23.5501 H   0  0  0  0  0  0
  -29.8944  -23.9542   19.3656 H   0  0  0  0  0  0
  -30.4471  -25.2038   20.4214 H   0  0  0  0  0  0
  -28.9873  -23.6764   22.2388 H   0  0  0  0  0  0
  -30.7073  -23.6878   22.0110 H   0  0  0  0  0  0
  -27.6237  -24.9457   20.9540 H   0  0  0  0  0  0
  -27.8505  -24.8727   19.2202 H   0  0  0  0  0  0
  -29.4087  -14.9301   22.0276 H   0  0  0  0  0  0
  -29.6455  -21.7213   20.2339 H   0  0  0  0  0  0
  1 25  1  0  0  0
  1 30  2  0  0  0
  1 81  1  0  0  0
  2  3  1  0  0  0
  2 25  1  0  0  0
  2 85  1  0  0  0
  2 86  1  0  0  0
  3  4  1  0  0  0
  3 87  1  0  0  0
  3 88  1  0  0  0
  4  5  1  0  0  0
  4 89  1  0  0  0
  4 90  1  0  0  0
  5  6  1  0  0  0
  5 26  1  0  0  0
  5 91  1  0  0  0
  6 25  1  0  0  0
  6 92  1  0  0  0
  6 93  1  0  0  0
  7  8  2  0  0  0
  7 26  1  0  0  0
  7 29  1  0  0  0
  8  9  1  0  0  0
  8 22  1  0  0  0
  9 10  1  0  0  0
  9 27  2  0  0  0
 10 11  2  0  0  0
 10 15  1  0  0  0
 11 12  1  0  0  0
 11 94  1  0  0  0
 12 13  2  0  0  0
 12 95  1  0  0  0
 13 14  1  0  0  0
 13 31  1  0  0  0
 14 15  2  0  0  0
 14 96  1  0  0  0
 15 97  1  0  0  0
 16 17  2  0  0  0
 16 21  1  0  0  0
 16 31  1  0  0  0
 17 18  1  0  0  0
 17 98  1  0  0  0
 18 19  2  0  0  0
 18 99  1  0  0  0
 19 20  1  0  0  0
 19 24  1  0  0  0
 20 21  2  0  0  0
 20100  1  0  0  0
 21 23  1  0  0  0
 22 28  1  0  0  0
 22 32  2  0  0  0
 26 27  1  0  0  0
 28101  1  0  0  0
 28102  1  0  0  0
 29103  1  0  0  0
 29104  1  0  0  0
 33 34  1  0  0  0
 33 66  1  0  0  0
 33 70  2  0  0  0
 34 36  1  0  0  0
 34 59  1  0  0  0
 34105  1  0  0  0
 35 44  2  0  0  0
 35 45  1  0  0  0
 35 68  1  0  0  0
 36 56  1  0  0  0
 36106  1  0  0  0
 37 39  1  0  0  0
 37 47  1  0  0  0
 37 66  1  0  0  0
 37107  1  0  0  0
 38 43  2  0  0  0
 38 46  1  0  0  0
 38 47  1  0  0  0
 39 64  1  0  0  0
 39 67  2  0  0  0
 40 52  1  0  0  0
 40 53  2  0  0  0
 40 58  1  0  0  0
 41108  1  0  0  0
 41109  1  0  0  0
 41110  1  0  0  0
 41 48  1  0  0  0
 42 43  1  0  0  0
 42 66  1  0  0  0
 42111  1  0  0  0
 42112  1  0  0  0
 43 44  1  0  0  0
 44113  1  0  0  0
 45 46  2  0  0  0
 45114  1  0  0  0
 46115  1  0  0  0
 47116  1  0  0  0
 47117  1  0  0  0
 48 56  1  0  0  0
 48 65  1  0  0  0
 48118  1  0  0  0
 49 50  1  0  0  0
 49 53  1  0  0  0
 49 64  1  0  0  0
 49119  1  0  0  0
 50 51  1  0  0  0
 50120  1  0  0  0
 50121  1  0  0  0
 51 52  1  0  0  0
 51122  1  0  0  0
 51123  1  0  0  0
 52124  1  0  0  0
 52125  1  0  0  0
 53 54  1  0  0  0
 54 55  2  0  0  0
 54126  1  0  0  0
 55 57  1  0  0  0
 55127  1  0  0  0
 56 69  2  0  0  0
 57 58  2  0  0  0
 57128  1  0  0  0
 58129  1  0  0  0
 59 60  1  0  0  0
 59 61  1  0  0  0
 59 62  1  0  0  0
 60130  1  0  0  0
 60131  1  0  0  0
 60132  1  0  0  0
 61133  1  0  0  0
 61134  1  0  0  0
 61135  1  0  0  0
 62136  1  0  0  0
 62137  1  0  0  0
 62138  1  0  0  0
 63 65  1  0  0  0
 63139  1  0  0  0
 63140  1  0  0  0
 63141  1  0  0  0
 64142  1  0  0  0
 65143  1  0  0  0
 68 80  1  0  0  0
 71 72  2  0  0  0
 71 74  1  0  0  0
 71144  1  0  0  0
 72 75  1  0  0  0
 72145  1  0  0  0
 73 74  2  0  0  0
 73 76  1  0  0  0
 73146  1  0  0  0
 74 77  1  0  0  0
 75 76  2  0  0  0
 75 81  1  0  0  0
 76 84  1  0  0  0
 77 82  1  0  0  0
 77 83  2  0  0  0
 78 79  1  0  0  0
 78 80  1  0  0  0
 78147  1  0  0  0
 78148  1  0  0  0
 79 82  1  0  0  0
 79149  1  0  0  0
 79150  1  0  0  0
 80151  1  0  0  0
 80152  1  0  0  0
 81153  1  0  0  0
 82154  1  0  0  0
M  ISO  4   1 100  68 101  80 101  81 100
M  END
> <chiral flag>
0

> <version>
0

> <s_m_source_file>
/data/baiqing/PycharmProjects/Reinvent-master-3.2/result/LINK_invent/BTK/process_docking_weight1_custom_product_contain_oxygen_bond_distance_aromatic_linkinvent_7_9_3/rearranged_h_0010.sdf

> <i_m_source_file_index>
78

> <r_mmod_Potential_Energy-OPLS-2005>
-110.166244506836

> <r_mmod_Stretch_Energy-OPLS-2005>
44.7094879150391

> <r_mmod_Bend_Energy-OPLS-2005>
118.384742736816

> <r_mmod_Torsional_Energy-OPLS-2005>
249.83251953125

> <r_mmod_Improper_Torsional_Energy-OPLS-2005>
3.07107734680176

> <r_mmod_Van_der_Waal_Energy-OPLS-2005>
157.310302734375

> <r_mmod_Electrostatic_Energy-OPLS-2005>
-470.711975097656

> <r_mmod_Solvation_Energy-OPLS-2005>
-225.940124511719

> <b_mmod_Minimization_Converged-OPLS-2005>
0

> <r_mmod_RMS_Derivative-OPLS-2005>
3.48530030250549

$$$$
78
                    3D
 Structure written by MMmdl.
143150  0  0  1  0            999 V2000
  -30.1636  -16.0165   20.2837 C   0  0  0  0  0  0
  -30.4021  -13.3807   19.5097 C   0  0  0  0  0  0
  -29.5672  -12.7447   18.3499 C   0  0  0  0  0  0
  -28.1808  -12.2975   18.8321 C   0  0  0  0  0  0
  -27.5888  -13.3376   19.8001 C   0  0  2  0  0  0
  -28.5861  -13.8471   20.8777 C   0  0  0  0  0  0
  -25.2337  -13.8308   20.5832 C   0  0  0  0  0  0
  -24.1745  -13.0427   20.9297 C   0  0  0  0  0  0
  -24.6485  -11.6955   20.8763 C   0  0  0  0  0  0
  -23.9183  -10.4297   21.0405 C   0  0  0  0  0  0
  -24.3690   -9.4205   21.9200 C   0  0  0  0  0  0
  -23.6323   -8.2263   22.0773 C   0  0  0  0  0  0
  -22.4301   -8.0322   21.3557 C   0  0  0  0  0  0
  -21.9971   -9.0311   20.4658 C   0  0  0  0  0  0
  -22.7347  -10.2160   20.3056 C   0  0  0  0  0  0
  -21.6865   -6.0767   22.5277 C   0  0  0  0  0  0
  -21.4023   -6.5660   23.8211 C   0  0  0  0  0  0
  -21.3650   -5.6801   24.9170 C   0  0  0  0  0  0
  -21.6034   -4.3069   24.7210 C   0  0  0  0  0  0
  -21.8818   -3.8167   23.4328 C   0  0  0  0  0  0
  -21.9194   -4.6989   22.3390 C   0  0  0  0  0  0
  -22.7748  -13.5156   21.1899 C   0  0  0  0  0  0
  -22.1667   -4.2180   21.0968 F   0  0  0  0  0  0
  -21.5617   -3.4544   25.7721 F   0  0  0  0  0  0
  -29.6793  -14.5908   20.1704 N   0  0  0  0  0  0
  -26.2827  -12.9698   20.3296 N   0  0  0  0  0  0
  -25.9450  -11.6736   20.5678 N   0  0  0  0  0  0
  -22.0376  -12.8144   22.0431 N   0  0  0  0  0  0
  -25.3914  -15.2038   20.4227 N   0  0  0  0  0  0
  -31.4110  -15.8730   20.3150 O   0  0  0  0  0  0
  -21.6650   -6.8922   21.4243 O   0  0  0  0  0  0
  -22.3446  -14.5464   20.6738 O   0  0  0  0  0  0
  -24.7056  -31.7721   23.1279 C   0  0  0  0  0  0
  -25.9532  -32.4316   23.7901 C   0  0  1  0  0  0
  -27.2397  -26.4470   20.2423 C   0  0  0  0  0  0
  -25.6018  -33.8158   24.1777 N   0  0  0  0  0  0
  -23.5424  -30.3631   21.4905 C   0  0  2  0  0  0
  -25.0002  -28.6446   20.1351 C   0  0  0  0  0  0
  -22.7854  -29.4187   22.4644 C   0  0  0  0  0  0
  -18.0371  -28.1416   22.8423 C   0  0  0  0  0  0
  -24.1517  -36.7085   23.2660 C   0  0  0  0  0  0
  -26.1337  -30.4200   21.4327 C   0  0  0  0  0  0
  -26.1981  -28.9547   20.7902 C   0  0  0  0  0  0
  -27.2916  -27.8963   20.7967 C   0  0  0  0  0  0
  -26.0015  -26.4115   19.5305 C   0  0  0  0  0  0
  -24.9557  -27.3989   19.4822 C   0  0  0  0  0  0
  -23.8105  -29.6337   20.1397 C   0  0  0  0  0  0
  -25.4171  -36.2793   24.0256 C   0  0  1  0  0  0
  -20.6014  -28.3800   23.1070 C   0  0  2  0  0  0
  -20.6839  -26.9442   22.5381 C   0  0  0  0  0  0
  -19.5827  -26.6358   21.5191 C   0  0  0  0  0  0
  -18.2003  -26.7940   22.1583 C   0  0  0  0  0  0
  -19.1638  -28.8931   23.2716 C   0  0  0  0  0  0
  -18.9548  -30.1508   23.8772 C   0  0  0  0  0  0
  -17.6539  -30.6592   24.0541 C   0  0  0  0  0  0
  -25.9163  -34.9196   23.4875 C   0  0  0  0  0  0
  -16.5425  -29.9075   23.6350 C   0  0  0  0  0  0
  -16.7348  -28.6498   23.0359 C   0  0  0  0  0  0
  -26.4636  -31.6450   25.0620 C   0  0  0  0  0  0
  -25.3610  -31.3840   26.1159 C   0  0  0  0  0  0
  -27.0610  -30.2754   24.6715 C   0  0  0  0  0  0
  -27.6057  -32.4362   25.7419 C   0  0  0  0  0  0
  -27.5566  -37.1691   24.8469 C   0  0  0  0  0  0
  -21.4482  -29.3015   22.3371 N   0  0  0  0  0  0
  -26.4271  -37.3581   23.9410 N   0  0  0  0  0  0
  -24.8204  -30.8911   22.0685 N   0  0  0  0  0  0
  -23.4189  -28.7845   23.3110 O   0  0  0  0  0  0
  -28.2103  -25.1382   20.2091 O   0  0  0  0  0  0
  -26.5834  -34.8827   22.4520 O   0  0  0  0  0  0
  -23.6030  -32.0923   23.6086 O   0  0  0  0  0  0
  -28.1464  -17.3478   19.4672 C   0  0  0  0  0  0
  -28.8124  -21.3013   19.9737 C   0  0  0  0  0  0
  -29.3809  -19.3622   20.5689 C   0  0  0  0  0  0
  -28.2518  -23.2636   20.5080 C   0  0  0  0  0  0
  -29.4090  -17.4905   20.1879 N   0  0  0  0  0  0
  -31.3491  -13.7206   19.0871 H   0  0  0  0  0  0
  -30.6891  -12.6298   20.2484 H   0  0  0  0  0  0
  -30.1007  -11.9032   17.9056 H   0  0  0  0  0  0
  -29.4507  -13.4882   17.5599 H   0  0  0  0  0  0
  -28.2969  -11.3475   19.3561 H   0  0  0  0  0  0
  -27.5119  -12.1116   17.9905 H   0  0  0  0  0  0
  -27.3888  -14.1854   19.1460 H   0  0  0  0  0  0
  -28.9521  -13.0395   21.5131 H   0  0  0  0  0  0
  -28.0824  -14.5461   21.5462 H   0  0  0  0  0  0
  -25.2818   -9.5670   22.4811 H   0  0  0  0  0  0
  -24.0006   -7.4646   22.7503 H   0  0  0  0  0  0
  -21.0901   -8.8859   19.8964 H   0  0  0  0  0  0
  -22.3825  -10.9720   19.6176 H   0  0  0  0  0  0
  -21.2033   -7.6171   23.9723 H   0  0  0  0  0  0
  -21.1463   -6.0535   25.9069 H   0  0  0  0  0  0
  -22.0599   -2.7631   23.2819 H   0  0  0  0  0  0
  -22.3953  -11.9803   22.4832 H   0  0  0  0  0  0
  -21.0994  -13.1198   22.2586 H   0  0  0  0  0  0
  -24.6180  -15.8537   20.5135 H   0  0  0  0  0  0
  -26.2365  -15.6377   20.0778 H   0  0  0  0  0  0
  -26.7628  -32.4715   23.0604 H   0  0  0  0  0  0
  -25.0022  -33.9142   24.9835 H   0  0  0  0  0  0
  -22.8827  -31.2078   21.2796 H   0  0  0  0  0  0
  -23.3793  -35.9400   23.3237 H   0  0  0  0  0  0
  -24.3589  -36.8852   22.2098 H   0  0  0  0  0  0
  -23.7284  -37.6231   23.6819 H   0  0  0  0  0  0
  -26.3696  -31.1317   20.6405 H   0  0  0  0  0  0
  -26.9701  -30.4928   22.1139 H   0  0  0  0  0  0
  -28.1969  -28.1645   21.3228 H   0  0  0  0  0  0
  -25.7942  -25.4939   18.9988 H   0  0  0  0  0  0
  -24.0597  -27.1443   18.9321 H   0  0  0  0  0  0
  -24.0068  -30.3831   19.3723 H   0  0  0  0  0  0
  -22.9079  -29.1151   19.8100 H   0  0  0  0  0  0
  -25.1403  -36.1503   25.0741 H   0  0  0  0  0  0
  -21.0074  -28.3462   24.1202 H   0  0  0  0  0  0
  -20.5710  -26.2429   23.3662 H   0  0  0  0  0  0
  -21.6702  -26.7377   22.1213 H   0  0  0  0  0  0
  -19.7002  -25.6243   21.1297 H   0  0  0  0  0  0
  -19.6788  -27.3096   20.6667 H   0  0  0  0  0  0
  -17.4282  -26.6659   21.3976 H   0  0  0  0  0  0
  -18.0400  -26.0087   22.8982 H   0  0  0  0  0  0
  -19.8041  -30.7337   24.2090 H   0  0  0  0  0  0
  -17.5110  -31.6270   24.5154 H   0  0  0  0  0  0
  -15.5426  -30.2945   23.7749 H   0  0  0  0  0  0
  -15.8745  -28.0788   22.7127 H   0  0  0  0  0  0
  -24.5835  -30.7168   25.7404 H   0  0  0  0  0  0
  -24.8745  -32.3083   26.4274 H   0  0  0  0  0  0
  -25.7670  -30.9167   27.0138 H   0  0  0  0  0  0
  -26.3378  -29.6279   24.1734 H   0  0  0  0  0  0
  -27.3964  -29.7306   25.5554 H   0  0  0  0  0  0
  -27.9394  -30.3809   24.0341 H   0  0  0  0  0  0
  -27.2609  -33.3796   26.1651 H   0  0  0  0  0  0
  -28.4001  -32.6704   25.0320 H   0  0  0  0  0  0
  -28.0563  -31.8717   26.5586 H   0  0  0  0  0  0
  -28.2518  -38.0043   24.7519 H   0  0  0  0  0  0
  -28.1127  -36.2561   24.6293 H   0  0  0  0  0  0
  -27.2274  -37.1305   25.8866 H   0  0  0  0  0  0
  -20.9828  -29.8607   21.6350 H   0  0  0  0  0  0
  -26.0066  -38.2612   24.1440 H   0  0  0  0  0  0
  -28.1011  -18.0711   18.6522 H   0  0  0  0  0  0
  -27.3084  -17.5390   20.1372 H   0  0  0  0  0  0
  -28.0019  -16.3666   19.0140 H   0  0  0  0  0  0
  -28.0363  -21.0683   19.2450 H   0  0  0  0  0  0
  -29.6673  -21.5348   19.3396 H   0  0  0  0  0  0
  -28.8748  -19.3113   21.5346 H   0  0  0  0  0  0
  -30.4241  -19.5134   20.8524 H   0  0  0  0  0  0
  -27.2187  -23.1099   20.8199 H   0  0  0  0  0  0
  -28.7962  -23.3194   21.4512 H   0  0  0  0  0  0
  1 25  1  0  0  0
  1 30  2  0  0  0
  1 75  1  0  0  0
  2  3  1  0  0  0
  2 25  1  0  0  0
  2 76  1  0  0  0
  2 77  1  0  0  0
  3  4  1  0  0  0
  3 78  1  0  0  0
  3 79  1  0  0  0
  4  5  1  0  0  0
  4 80  1  0  0  0
  4 81  1  0  0  0
  5  6  1  0  0  0
  5 26  1  0  0  0
  5 82  1  0  0  0
  6 25  1  0  0  0
  6 83  1  0  0  0
  6 84  1  0  0  0
  7  8  2  0  0  0
  7 26  1  0  0  0
  7 29  1  0  0  0
  8  9  1  0  0  0
  8 22  1  0  0  0
  9 10  1  0  0  0
  9 27  2  0  0  0
 10 11  2  0  0  0
 10 15  1  0  0  0
 11 12  1  0  0  0
 11 85  1  0  0  0
 12 13  2  0  0  0
 12 86  1  0  0  0
 13 14  1  0  0  0
 13 31  1  0  0  0
 14 15  2  0  0  0
 14 87  1  0  0  0
 15 88  1  0  0  0
 16 17  2  0  0  0
 16 21  1  0  0  0
 16 31  1  0  0  0
 17 18  1  0  0  0
 17 89  1  0  0  0
 18 19  2  0  0  0
 18 90  1  0  0  0
 19 20  1  0  0  0
 19 24  1  0  0  0
 20 21  2  0  0  0
 20 91  1  0  0  0
 21 23  1  0  0  0
 22 28  1  0  0  0
 22 32  2  0  0  0
 26 27  1  0  0  0
 28 92  1  0  0  0
 28 93  1  0  0  0
 29 94  1  0  0  0
 29 95  1  0  0  0
 33 34  1  0  0  0
 33 66  1  0  0  0
 33 70  2  0  0  0
 34 36  1  0  0  0
 34 59  1  0  0  0
 34 96  1  0  0  0
 35 44  2  0  0  0
 35 45  1  0  0  0
 35 68  1  0  0  0
 36 56  1  0  0  0
 36 97  1  0  0  0
 37 39  1  0  0  0
 37 47  1  0  0  0
 37 66  1  0  0  0
 37 98  1  0  0  0
 38 43  2  0  0  0
 38 46  1  0  0  0
 38 47  1  0  0  0
 39 64  1  0  0  0
 39 67  2  0  0  0
 40 52  1  0  0  0
 40 53  2  0  0  0
 40 58  1  0  0  0
 41 99  1  0  0  0
 41100  1  0  0  0
 41101  1  0  0  0
 41 48  1  0  0  0
 42 43  1  0  0  0
 42 66  1  0  0  0
 42102  1  0  0  0
 42103  1  0  0  0
 43 44  1  0  0  0
 44104  1  0  0  0
 45 46  2  0  0  0
 45105  1  0  0  0
 46106  1  0  0  0
 47107  1  0  0  0
 47108  1  0  0  0
 48 56  1  0  0  0
 48 65  1  0  0  0
 48109  1  0  0  0
 49 50  1  0  0  0
 49 53  1  0  0  0
 49 64  1  0  0  0
 49110  1  0  0  0
 50 51  1  0  0  0
 50111  1  0  0  0
 50112  1  0  0  0
 51 52  1  0  0  0
 51113  1  0  0  0
 51114  1  0  0  0
 52115  1  0  0  0
 52116  1  0  0  0
 53 54  1  0  0  0
 54 55  2  0  0  0
 54117  1  0  0  0
 55 57  1  0  0  0
 55118  1  0  0  0
 56 69  2  0  0  0
 57 58  2  0  0  0
 57119  1  0  0  0
 58120  1  0  0  0
 59 60  1  0  0  0
 59 61  1  0  0  0
 59 62  1  0  0  0
 60121  1  0  0  0
 60122  1  0  0  0
 60123  1  0  0  0
 61124  1  0  0  0
 61125  1  0  0  0
 61126  1  0  0  0
 62127  1  0  0  0
 62128  1  0  0  0
 62129  1  0  0  0
 63 65  1  0  0  0
 63130  1  0  0  0
 63131  1  0  0  0
 63132  1  0  0  0
 64133  1  0  0  0
 65134  1  0  0  0
 68 74  1  0  0  0
 71 75  1  0  0  0
 71135  1  0  0  0
 71136  1  0  0  0
 71137  1  0  0  0
 72 73  1  0  0  0
 72 74  1  0  0  0
 72138  1  0  0  0
 72139  1  0  0  0
 73 75  1  0  0  0
 73140  1  0  0  0
 73141  1  0  0  0
 74142  1  0  0  0
 74143  1  0  0  0
M  ISO  4   1 100  68 101  74 101  75 100
M  END
> <chiral flag>
0

> <version>
0

> <s_m_source_file>
/data/baiqing/PycharmProjects/Reinvent-master-3.2/result/LINK_invent/BTK/process_docking_weight1_custom_product_contain_oxygen_bond_distance_aromatic_linkinvent_7_9_3/rearranged_h_0010.sdf

> <i_m_source_file_index>
79

> <r_mmod_Potential_Energy-OPLS-2005>
4303.49072265625

> <r_mmod_Stretch_Energy-OPLS-2005>
1937.3203125

> <r_mmod_Bend_Energy-OPLS-2005>
891.069641113281

> <r_mmod_Torsional_Energy-OPLS-2005>
308.0107421875

> <r_mmod_Improper_Torsional_Energy-OPLS-2005>
4.89766931533813

> <r_mmod_Van_der_Waal_Energy-OPLS-2005>
112.25927734375

> <r_mmod_Electrostatic_Energy-OPLS-2005>
-274.442291259766

> <r_mmod_Solvation_Energy-OPLS-2005>
-215.008483886719

> <b_mmod_Minimization_Converged-OPLS-2005>
0

> <r_mmod_RMS_Derivative-OPLS-2005>
2.3036835193634

$$$$
79
                    3D
 Structure written by MMmdl.
184194  0  0  1  0            999 V2000
  -30.7278  -14.4417   20.6865 C   0  0  0  0  0  0
  -30.4186  -12.3173   19.4401 C   0  0  0  0  0  0
  -29.5092  -12.5476   18.2151 C   0  0  0  0  0  0
  -28.0252  -12.3947   18.5965 C   0  0  0  0  0  0
  -27.6601  -13.2093   19.8625 C   0  0  2  0  0  0
  -28.6800  -12.9501   20.9869 C   0  0  0  0  0  0
  -25.2582  -13.8178   20.5684 C   0  0  0  0  0  0
  -24.1826  -13.0442   20.9144 C   0  0  0  0  0  0
  -24.6359  -11.6916   20.8643 C   0  0  0  0  0  0
  -23.9018  -10.4286   21.0370 C   0  0  0  0  0  0
  -24.3578   -9.4222   21.9179 C   0  0  0  0  0  0
  -23.6268   -8.2259   22.0780 C   0  0  0  0  0  0
  -22.4228   -8.0276   21.3592 C   0  0  0  0  0  0
  -21.9842   -9.0239   20.4676 C   0  0  0  0  0  0
  -22.7177  -10.2114   20.3057 C   0  0  0  0  0  0
  -21.6854   -6.0706   22.5277 C   0  0  0  0  0  0
  -21.4037   -6.5606   23.8195 C   0  0  0  0  0  0
  -21.3686   -5.6758   24.9168 C   0  0  0  0  0  0
  -21.6028   -4.3025   24.7209 C   0  0  0  0  0  0
  -21.8828   -3.8123   23.4335 C   0  0  0  0  0  0
  -21.9210   -4.6949   22.3385 C   0  0  0  0  0  0
  -22.7846  -13.5245   21.1803 C   0  0  0  0  0  0
  -22.1672   -4.2147   21.0968 F   0  0  0  0  0  0
  -21.5632   -3.4499   25.7724 F   0  0  0  0  0  0
  -30.0324  -13.2758   20.4962 N   0  0  0  0  0  0
  -26.2969  -12.9354   20.3171 N   0  0  0  0  0  0
  -25.9251  -11.6505   20.5521 N   0  0  0  0  0  0
  -22.0446  -12.8265   22.0344 N   0  0  0  0  0  0
  -25.4344  -15.1916   20.4353 N   0  0  0  0  0  0
  -31.7713  -14.6662   20.0612 O   0  0  0  0  0  0
  -21.6623   -6.8872   21.4247 O   0  0  0  0  0  0
  -22.3570  -14.5563   20.6647 O   0  0  0  0  0  0
  -24.6090  -31.8713   23.2117 C   0  0  0  0  0  0
  -25.9003  -32.4845   23.8404 C   0  0  1  0  0  0
  -27.2503  -27.4822   20.0793 C   0  0  0  0  0  0
  -25.5832  -33.8631   24.2328 N   0  0  0  0  0  0
  -23.3939  -30.4954   21.5522 C   0  0  2  0  0  0
  -24.8405  -28.9585   20.1219 C   0  0  0  0  0  0
  -22.7382  -29.4677   22.5013 C   0  0  0  0  0  0
  -18.0269  -28.1391   22.8488 C   0  0  0  0  0  0
  -24.1464  -36.7362   23.2637 C   0  0  0  0  0  0
  -25.9160  -30.8509   21.3553 C   0  0  0  0  0  0
  -25.9970  -29.4835   20.7131 C   0  0  0  0  0  0
  -27.1992  -28.7530   20.7007 C   0  0  0  0  0  0
  -26.0724  -26.9514   19.5166 C   0  0  0  0  0  0
  -24.8703  -27.6848   19.5271 C   0  0  0  0  0  0
  -23.6033  -29.8256   20.1667 C   0  0  0  0  0  0
  -25.4076  -36.3131   24.0349 C   0  0  1  0  0  0
  -20.5841  -28.3672   23.1341 C   0  0  2  0  0  0
  -20.6750  -26.9403   22.5458 C   0  0  0  0  0  0
  -19.5755  -26.6405   21.5215 C   0  0  0  0  0  0
  -18.1909  -26.7948   22.1594 C   0  0  0  0  0  0
  -19.1510  -28.8847   23.2918 C   0  0  0  0  0  0
  -18.9445  -30.1442   23.8950 C   0  0  0  0  0  0
  -17.6449  -30.6591   24.0580 C   0  0  0  0  0  0
  -25.9007  -34.9489   23.5161 C   0  0  0  0  0  0
  -16.5348  -29.9109   23.6308 C   0  0  0  0  0  0
  -16.7259  -28.6527   23.0329 C   0  0  0  0  0  0
  -26.4421  -31.6619   25.0725 C   0  0  0  0  0  0
  -25.3700  -31.3741   26.1492 C   0  0  0  0  0  0
  -27.0195  -30.3053   24.6082 C   0  0  0  0  0  0
  -27.6034  -32.4296   25.7476 C   0  0  0  0  0  0
  -27.5580  -37.1817   24.8438 C   0  0  0  0  0  0
  -21.4110  -29.3047   22.3755 N   0  0  0  0  0  0
  -26.4259  -37.3822   23.9423 N   0  0  0  0  0  0
  -24.6583  -31.0857   22.0999 N   0  0  0  0  0  0
  -23.4177  -28.8208   23.3022 O   0  0  0  0  0  0
  -28.3946  -26.7247   19.9741 O   0  0  0  0  0  0
  -26.5614  -34.8945   22.4739 O   0  0  0  0  0  0
  -23.5307  -32.1399   23.7560 O   0  0  0  0  0  0
  -30.7507  -21.6300   16.1802 C   0  0  0  0  0  0
  -28.3951  -15.3925   24.8388 C   0  0  0  0  0  0
  -30.9127  -23.0274   16.1859 C   0  0  0  0  0  0
  -30.7759  -20.9050   17.3853 C   0  0  0  0  0  0
  -28.7054  -15.6112   23.4832 C   0  0  0  0  0  0
  -29.2548  -14.6214   25.6397 C   0  0  0  0  0  0
  -31.0914  -22.9797   18.6192 C   0  0  0  0  0  0
  -30.7409  -14.2939   23.7291 C   0  0  0  0  0  0
  -31.1075  -23.7096   17.4054 C   0  0  0  0  0  0
  -30.9192  -21.5750   18.6223 C   0  0  0  0  0  0
  -29.8938  -15.0822   22.9154 C   0  0  0  0  0  0
  -30.4188  -14.0603   25.0830 C   0  0  0  0  0  0
  -29.6237  -18.7522   19.7089 C   0  0  0  0  0  0
  -31.5632  -19.0180   21.3153 C   0  0  0  0  0  0
  -29.7222  -17.2191   19.8362 C   0  0  0  0  0  0
  -31.6529  -17.4845   21.4614 C   0  0  0  0  0  0
  -30.9921  -19.4365   19.9453 C   0  0  2  0  0  0
  -30.2695  -16.8358   21.2263 C   0  0  2  0  0  0
  -29.8320  -27.0618   17.0191 C   0  0  0  0  0  0
  -31.4123  -25.2041   17.3822 C   0  0  0  0  0  0
  -30.7171  -26.5825   19.3072 C   0  0  0  0  0  0
  -29.6319  -27.4291   19.9930 C   0  0  0  0  0  0
  -30.9067  -20.8954   19.8530 N   0  0  0  0  0  0
  -30.2142  -15.3789   21.5458 N   0  0  0  0  0  0
  -30.3299  -26.0344   17.9720 N   0  3  1  0  0  0
  -31.2346  -13.3061   25.8553 F   0  0  0  0  0  0
  -31.4675  -12.4056   19.1517 H   0  0  0  0  0  0
  -30.3045  -11.2979   19.8085 H   0  0  0  0  0  0
  -29.7655  -11.8480   17.4200 H   0  0  0  0  0  0
  -29.6831  -13.5481   17.8144 H   0  0  0  0  0  0
  -27.8266  -11.3362   18.7632 H   0  0  0  0  0  0
  -27.3946  -12.7006   17.7605 H   0  0  0  0  0  0
  -27.7184  -14.2648   19.6004 H   0  0  0  0  0  0
  -28.6464  -11.9023   21.2900 H   0  0  0  0  0  0
  -28.3656  -13.4982   21.8655 H   0  0  0  0  0  0
  -25.2747   -9.5673   22.4732 H   0  0  0  0  0  0
  -24.0000   -7.4617   22.7461 H   0  0  0  0  0  0
  -21.0793   -8.8718   19.8949 H   0  0  0  0  0  0
  -22.3648  -10.9631   19.6131 H   0  0  0  0  0  0
  -21.2044   -7.6113   23.9699 H   0  0  0  0  0  0
  -21.1502   -6.0500   25.9066 H   0  0  0  0  0  0
  -22.0588   -2.7592   23.2819 H   0  0  0  0  0  0
  -22.3986  -11.9938   22.4827 H   0  0  0  0  0  0
  -21.1062  -13.1369   22.2449 H   0  0  0  0  0  0
  -24.6855  -15.8483   20.6282 H   0  0  0  0  0  0
  -26.2978  -15.6374   20.1516 H   0  0  0  0  0  0
  -26.7098  -32.5578   23.1199 H   0  0  0  0  0  0
  -24.9776  -33.9762   25.0340 H   0  0  0  0  0  0
  -22.6797  -31.3089   21.4152 H   0  0  0  0  0  0
  -23.3693  -35.9725   23.3278 H   0  0  0  0  0  0
  -24.3572  -36.8999   22.2056 H   0  0  0  0  0  0
  -23.7239  -37.6578   23.6668 H   0  0  0  0  0  0
  -26.0092  -31.6068   20.5748 H   0  0  0  0  0  0
  -26.8122  -30.9210   21.9596 H   0  0  0  0  0  0
  -28.0764  -29.1764   21.1712 H   0  0  0  0  0  0
  -26.0951  -25.9744   19.0563 H   0  0  0  0  0  0
  -23.9784  -27.2664   19.0792 H   0  0  0  0  0  0
  -23.7103  -30.5974   19.4026 H   0  0  0  0  0  0
  -22.7265  -29.2462   19.8714 H   0  0  0  0  0  0
  -25.1229  -36.1997   25.0842 H   0  0  0  0  0  0
  -20.9939  -28.3262   24.1459 H   0  0  0  0  0  0
  -20.5629  -26.2267   23.3644 H   0  0  0  0  0  0
  -21.6640  -26.7430   22.1292 H   0  0  0  0  0  0
  -19.6912  -25.6322   21.1235 H   0  0  0  0  0  0
  -19.6713  -27.3232   20.6758 H   0  0  0  0  0  0
  -17.4195  -26.6720   21.3976 H   0  0  0  0  0  0
  -18.0295  -26.0081   22.8977 H   0  0  0  0  0  0
  -19.7914  -30.7235   24.2364 H   0  0  0  0  0  0
  -17.5008  -31.6271   24.5179 H   0  0  0  0  0  0
  -15.5355  -30.3050   23.7568 H   0  0  0  0  0  0
  -15.8650  -28.0874   22.7019 H   0  0  0  0  0  0
  -24.5906  -30.7022   25.7880 H   0  0  0  0  0  0
  -24.8813  -32.2878   26.4889 H   0  0  0  0  0  0
  -25.8062  -30.8987   27.0287 H   0  0  0  0  0  0
  -26.2717  -29.6911   24.1047 H   0  0  0  0  0  0
  -27.3834  -29.7208   25.4546 H   0  0  0  0  0  0
  -27.8624  -30.4338   23.9285 H   0  0  0  0  0  0
  -27.2700  -33.3591   26.2105 H   0  0  0  0  0  0
  -28.3817  -32.6860   25.0279 H   0  0  0  0  0  0
  -28.0734  -31.8374   26.5343 H   0  0  0  0  0  0
  -28.2576  -38.0132   24.7493 H   0  0  0  0  0  0
  -28.1074  -36.2666   24.6183 H   0  0  0  0  0  0
  -27.2323  -37.1401   25.8845 H   0  0  0  0  0  0
  -20.9265  -29.8772   21.6984 H   0  0  0  0  0  0
  -26.0146  -38.2895   24.1454 H   0  0  0  0  0  0
  -30.6275  -21.1057   15.2446 H   0  0  0  0  0  0
  -27.4967  -15.8134   25.2655 H   0  0  0  0  0  0
  -30.9251  -23.5611   15.2437 H   0  0  0  0  0  0
  -30.6792  -19.8310   17.3259 H   0  0  0  0  0  0
  -28.0131  -16.1869   22.8819 H   0  0  0  0  0  0
  -29.0167  -14.4538   26.6806 H   0  0  0  0  0  0
  -31.2425  -23.5021   19.5537 H   0  0  0  0  0  0
  -31.6567  -13.8749   23.3377 H   0  0  0  0  0  0
  -28.8890  -19.1278   20.4252 H   0  0  0  0  0  0
  -29.2255  -18.9992   18.7262 H   0  0  0  0  0  0
  -32.5522  -19.4546   21.4566 H   0  0  0  0  0  0
  -30.9434  -19.4195   22.1196 H   0  0  0  0  0  0
  -30.3628  -16.8271   19.0453 H   0  0  0  0  0  0
  -28.7375  -16.7753   19.6892 H   0  0  0  0  0  0
  -32.0176  -17.2379   22.4594 H   0  0  0  0  0  0
  -32.3929  -17.0940   20.7612 H   0  0  0  0  0  0
  -31.7019  -19.0886   19.1904 H   0  0  0  0  0  0
  -29.6049  -17.3510   21.9200 H   0  0  0  0  0  0
  -29.5713  -26.6139   16.0584 H   0  0  0  0  0  0
  -30.5808  -27.8332   16.8382 H   0  0  0  0  0  0
  -28.9268  -27.5451   17.3841 H   0  0  0  0  0  0
  -31.5935  -25.5049   16.3482 H   0  0  0  0  0  0
  -32.3642  -25.3758   17.8888 H   0  0  0  0  0  0
  -30.9782  -25.7575   19.9686 H   0  0  0  0  0  0
  -31.6178  -27.1918   19.2033 H   0  0  0  0  0  0
  -29.5495  -28.3926   19.4862 H   0  0  0  0  0  0
  -29.9193  -27.6356   21.0253 H   0  0  0  0  0  0
  -31.0588  -21.4339   20.7016 H   0  0  0  0  0  0
  -29.5533  -25.4069   18.1222 H   0  0  0  0  0  0
  1 25  1  0  0  0
  1 30  2  0  0  0
  1 94  1  0  0  0
  2  3  1  0  0  0
  2 25  1  0  0  0
  2 97  1  0  0  0
  2 98  1  0  0  0
  3  4  1  0  0  0
  3 99  1  0  0  0
  3100  1  0  0  0
  4  5  1  0  0  0
  4101  1  0  0  0
  4102  1  0  0  0
  5  6  1  0  0  0
  5 26  1  0  0  0
  5103  1  0  0  0
  6 25  1  0  0  0
  6104  1  0  0  0
  6105  1  0  0  0
  7  8  2  0  0  0
  7 26  1  0  0  0
  7 29  1  0  0  0
  8  9  1  0  0  0
  8 22  1  0  0  0
  9 10  1  0  0  0
  9 27  2  0  0  0
 10 11  2  0  0  0
 10 15  1  0  0  0
 11 12  1  0  0  0
 11106  1  0  0  0
 12 13  2  0  0  0
 12107  1  0  0  0
 13 14  1  0  0  0
 13 31  1  0  0  0
 14 15  2  0  0  0
 14108  1  0  0  0
 15109  1  0  0  0
 16 17  2  0  0  0
 16 21  1  0  0  0
 16 31  1  0  0  0
 17 18  1  0  0  0
 17110  1  0  0  0
 18 19  2  0  0  0
 18111  1  0  0  0
 19 20  1  0  0  0
 19 24  1  0  0  0
 20 21  2  0  0  0
 20112  1  0  0  0
 21 23  1  0  0  0
 22 28  1  0  0  0
 22 32  2  0  0  0
 26 27  1  0  0  0
 28113  1  0  0  0
 28114  1  0  0  0
 29115  1  0  0  0
 29116  1  0  0  0
 33 34  1  0  0  0
 33 66  1  0  0  0
 33 70  2  0  0  0
 34 36  1  0  0  0
 34 59  1  0  0  0
 34117  1  0  0  0
 35 44  2  0  0  0
 35 45  1  0  0  0
 35 68  1  0  0  0
 36 56  1  0  0  0
 36118  1  0  0  0
 37 39  1  0  0  0
 37 47  1  0  0  0
 37 66  1  0  0  0
 37119  1  0  0  0
 38 43  2  0  0  0
 38 46  1  0  0  0
 38 47  1  0  0  0
 39 64  1  0  0  0
 39 67  2  0  0  0
 40 52  1  0  0  0
 40 53  2  0  0  0
 40 58  1  0  0  0
 41120  1  0  0  0
 41121  1  0  0  0
 41122  1  0  0  0
 41 48  1  0  0  0
 42 43  1  0  0  0
 42 66  1  0  0  0
 42123  1  0  0  0
 42124  1  0  0  0
 43 44  1  0  0  0
 44125  1  0  0  0
 45 46  2  0  0  0
 45126  1  0  0  0
 46127  1  0  0  0
 47128  1  0  0  0
 47129  1  0  0  0
 48 56  1  0  0  0
 48 65  1  0  0  0
 48130  1  0  0  0
 49 50  1  0  0  0
 49 53  1  0  0  0
 49 64  1  0  0  0
 49131  1  0  0  0
 50 51  1  0  0  0
 50132  1  0  0  0
 50133  1  0  0  0
 51 52  1  0  0  0
 51134  1  0  0  0
 51135  1  0  0  0
 52136  1  0  0  0
 52137  1  0  0  0
 53 54  1  0  0  0
 54 55  2  0  0  0
 54138  1  0  0  0
 55 57  1  0  0  0
 55139  1  0  0  0
 56 69  2  0  0  0
 57 58  2  0  0  0
 57140  1  0  0  0
 58141  1  0  0  0
 59 60  1  0  0  0
 59 61  1  0  0  0
 59 62  1  0  0  0
 60142  1  0  0  0
 60143  1  0  0  0
 60144  1  0  0  0
 61145  1  0  0  0
 61146  1  0  0  0
 61147  1  0  0  0
 62148  1  0  0  0
 62149  1  0  0  0
 62150  1  0  0  0
 63 65  1  0  0  0
 63151  1  0  0  0
 63152  1  0  0  0
 63153  1  0  0  0
 64154  1  0  0  0
 65155  1  0  0  0
 68 92  1  0  0  0
 71 73  2  0  0  0
 71 74  1  0  0  0
 71156  1  0  0  0
 72 75  2  0  0  0
 72 76  1  0  0  0
 72157  1  0  0  0
 73 79  1  0  0  0
 73158  1  0  0  0
 74 80  2  0  0  0
 74159  1  0  0  0
 75 81  1  0  0  0
 75160  1  0  0  0
 76 82  2  0  0  0
 76161  1  0  0  0
 77 79  2  0  0  0
 77 80  1  0  0  0
 77162  1  0  0  0
 78 81  2  0  0  0
 78 82  1  0  0  0
 78163  1  0  0  0
 79 90  1  0  0  0
 80 93  1  0  0  0
 81 94  1  0  0  0
 82 96  1  0  0  0
 83 85  1  0  0  0
 83 87  1  0  0  0
 83164  1  0  0  0
 83165  1  0  0  0
 84 86  1  0  0  0
 84 87  1  0  0  0
 84166  1  0  0  0
 84167  1  0  0  0
 85 88  1  0  0  0
 85168  1  0  0  0
 85169  1  0  0  0
 86 88  1  0  0  0
 86170  1  0  0  0
 86171  1  0  0  0
 87 93  1  0  0  0
 87172  1  0  0  0
 88 94  1  0  0  0
 88173  1  0  0  0
 89174  1  0  0  0
 89175  1  0  0  0
 89176  1  0  0  0
 89 95  1  0  0  0
 90 95  1  0  0  0
 90177  1  0  0  0
 90178  1  0  0  0
 91 92  1  0  0  0
 91 95  1  0  0  0
 91179  1  0  0  0
 91180  1  0  0  0
 92181  1  0  0  0
 92182  1  0  0  0
 93183  1  0  0  0
 95184  1  0  0  0
M  CHG  1  95   1
M  ISO  4   1 100  68 101  92 101  94 100
M  END
> <chiral flag>
0

> <version>
0

> <s_m_source_file>
/data/baiqing/PycharmProjects/Reinvent-master-3.2/result/LINK_invent/BTK/process_docking_weight1_custom_product_contain_oxygen_bond_distance_aromatic_linkinvent_7_9_3/rearranged_h_0010.sdf

> <i_m_source_file_index>
80

> <r_mmod_Potential_Energy-OPLS-2005>
17.2502288818359

> <r_mmod_Stretch_Energy-OPLS-2005>
45.6280364990234

> <r_mmod_Bend_Energy-OPLS-2005>
125.567848205566

> <r_mmod_Torsional_Energy-OPLS-2005>
286.530303955078

> <r_mmod_Improper_Torsional_Energy-OPLS-2005>
3.37542390823364

> <r_mmod_Van_der_Waal_Energy-OPLS-2005>
184.810653686523

> <r_mmod_Electrostatic_Energy-OPLS-2005>
-230.687561035156

> <r_mmod_Solvation_Energy-OPLS-2005>
-406.668579101562

> <b_mmod_Minimization_Converged-OPLS-2005>
0

> <r_mmod_RMS_Derivative-OPLS-2005>
4.47857046127319

$$$$
80
                    3D
 Structure written by MMmdl.
154162  0  0  1  0            999 V2000
  -30.6516  -14.6495   20.4767 C   0  0  0  0  0  0
  -30.4148  -12.3930   19.4559 C   0  0  0  0  0  0
  -29.4985  -12.5148   18.2201 C   0  0  0  0  0  0
  -28.0225  -12.3493   18.6327 C   0  0  0  0  0  0
  -27.6425  -13.2260   19.8581 C   0  0  2  0  0  0
  -28.6899  -13.1158   20.9872 C   0  0  0  0  0  0
  -25.2496  -13.8186   20.5732 C   0  0  0  0  0  0
  -24.1774  -13.0432   20.9236 C   0  0  0  0  0  0
  -24.6356  -11.6905   20.8743 C   0  0  0  0  0  0
  -23.9047  -10.4283   21.0395 C   0  0  0  0  0  0
  -24.3604   -9.4207   21.9176 C   0  0  0  0  0  0
  -23.6298   -8.2228   22.0739 C   0  0  0  0  0  0
  -22.4273   -8.0257   21.3545 C   0  0  0  0  0  0
  -21.9908   -9.0228   20.4642 C   0  0  0  0  0  0
  -22.7216  -10.2120   20.3053 C   0  0  0  0  0  0
  -21.6852   -6.0729   22.5302 C   0  0  0  0  0  0
  -21.4001   -6.5634   23.8231 C   0  0  0  0  0  0
  -21.3668   -5.6787   24.9198 C   0  0  0  0  0  0
  -21.6060   -4.3050   24.7242 C   0  0  0  0  0  0
  -21.8807   -3.8149   23.4363 C   0  0  0  0  0  0
  -21.9181   -4.6969   22.3414 C   0  0  0  0  0  0
  -22.7796  -13.5217   21.1911 C   0  0  0  0  0  0
  -22.1639   -4.2152   21.0991 F   0  0  0  0  0  0
  -21.5664   -3.4524   25.7752 F   0  0  0  0  0  0
  -30.0000  -13.4415   20.4101 N   0  0  0  0  0  0
  -26.2927  -12.9386   20.3335 N   0  0  0  0  0  0
  -25.9299  -11.6534   20.5778 N   0  0  0  0  0  0
  -22.0431  -12.8205   22.0462 N   0  0  0  0  0  0
  -25.4202  -15.1912   20.4161 N   0  0  0  0  0  0
  -31.8118  -14.7584   20.0675 O   0  0  0  0  0  0
  -21.6650   -6.8861   21.4245 O   0  0  0  0  0  0
  -22.3482  -14.5525   20.6761 O   0  0  0  0  0  0
  -24.6223  -31.8584   23.1984 C   0  0  0  0  0  0
  -25.9071  -32.4775   23.8317 C   0  0  1  0  0  0
  -27.2431  -27.3165   20.1208 C   0  0  0  0  0  0
  -25.5877  -33.8577   24.2231 N   0  0  0  0  0  0
  -23.4189  -30.4744   21.5402 C   0  0  2  0  0  0
  -24.8739  -28.9270   20.1076 C   0  0  0  0  0  0
  -22.7457  -29.4598   22.4931 C   0  0  0  0  0  0
  -18.0272  -28.1365   22.8501 C   0  0  0  0  0  0
  -24.1493  -36.7288   23.2637 C   0  0  0  0  0  0
  -25.9571  -30.7894   21.3700 C   0  0  0  0  0  0
  -26.0358  -29.4132   20.7176 C   0  0  0  0  0  0
  -27.2181  -28.6160   20.7199 C   0  0  0  0  0  0
  -26.0561  -26.8749   19.4972 C   0  0  0  0  0  0
  -24.8875  -27.6650   19.4875 C   0  0  0  0  0  0
  -23.6337  -29.7976   20.1585 C   0  0  0  0  0  0
  -25.4121  -36.3085   24.0314 C   0  0  1  0  0  0
  -20.5866  -28.3684   23.1284 C   0  0  2  0  0  0
  -20.6765  -26.9403   22.5424 C   0  0  0  0  0  0
  -19.5743  -26.6364   21.5226 C   0  0  0  0  0  0
  -18.1920  -26.7905   22.1630 C   0  0  0  0  0  0
  -19.1523  -28.8839   23.2891 C   0  0  0  0  0  0
  -18.9451  -30.1438   23.8917 C   0  0  0  0  0  0
  -17.6455  -30.6586   24.0554 C   0  0  0  0  0  0
  -25.9063  -34.9458   23.5093 C   0  0  0  0  0  0
  -16.5351  -29.9087   23.6322 C   0  0  0  0  0  0
  -16.7259  -28.6483   23.0390 C   0  0  0  0  0  0
  -26.4453  -31.6595   25.0695 C   0  0  0  0  0  0
  -25.3638  -31.3762   26.1384 C   0  0  0  0  0  0
  -27.0277  -30.3005   24.6183 C   0  0  0  0  0  0
  -27.6039  -32.4318   25.7449 C   0  0  0  0  0  0
  -27.5597  -37.1767   24.8427 C   0  0  0  0  0  0
  -21.4164  -29.3029   22.3675 N   0  0  0  0  0  0
  -26.4277  -37.3798   23.9430 N   0  0  0  0  0  0
  -24.6844  -31.0580   22.0935 N   0  0  0  0  0  0
  -23.4165  -28.8150   23.3040 O   0  0  0  0  0  0
  -28.3867  -26.5059   20.1971 O   0  0  0  0  0  0
  -26.5678  -34.8924   22.4689 O   0  0  0  0  0  0
  -23.5385  -32.1380   23.7302 O   0  0  0  0  0  0
  -30.3168  -19.2092   18.9697 C   0  0  0  0  0  0
  -30.1937  -20.6251   18.9069 C   0  0  0  0  0  0
  -28.7230  -19.1521   20.7552 C   0  0  0  0  0  0
  -29.5840  -18.4122   19.8857 C   0  0  0  0  0  0
  -29.3317  -21.3701   19.7510 C   0  0  0  0  0  0
  -28.6019  -20.5899   20.6991 C   0  0  0  0  0  0
  -29.9030  -16.2475   22.1420 C   0  0  0  0  0  0
  -29.6167  -16.8306   19.7010 C   0  0  0  0  0  0
  -28.5503  -25.2197   19.4777 C   0  0  0  0  0  0
  -28.4322  -23.7703   20.1660 C   0  0  0  0  0  0
  -29.9082  -15.7821   20.7572 N   0  0  0  0  0  0
  -29.3142  -22.7735   19.5372 O   0  0  0  0  0  0
  -27.7611  -21.2109   21.5613 F   0  0  0  0  0  0
  -31.4622  -12.4790   19.1645 H   0  0  0  0  0  0
  -30.3149  -11.4058   19.9105 H   0  0  0  0  0  0
  -29.7662  -11.7712   17.4690 H   0  0  0  0  0  0
  -29.6420  -13.4876   17.7471 H   0  0  0  0  0  0
  -27.8625  -11.2969   18.8664 H   0  0  0  0  0  0
  -27.3668  -12.5703   17.7896 H   0  0  0  0  0  0
  -27.6501  -14.2574   19.5091 H   0  0  0  0  0  0
  -28.6998  -12.1063   21.4011 H   0  0  0  0  0  0
  -28.4398  -13.7818   21.8138 H   0  0  0  0  0  0
  -25.2726   -9.5708   22.4776 H   0  0  0  0  0  0
  -24.0028   -7.4616   22.7430 H   0  0  0  0  0  0
  -21.0863   -8.8726   19.8935 H   0  0  0  0  0  0
  -22.3648  -10.9664   19.6183 H   0  0  0  0  0  0
  -21.1957   -7.6133   23.9742 H   0  0  0  0  0  0
  -21.1527   -6.0516   25.9108 H   0  0  0  0  0  0
  -22.0578   -2.7613   23.2873 H   0  0  0  0  0  0
  -22.4015  -11.9862   22.4872 H   0  0  0  0  0  0
  -21.1045  -13.1249   22.2646 H   0  0  0  0  0  0
  -24.6591  -15.8493   20.5400 H   0  0  0  0  0  0
  -26.2869  -15.6338   20.1385 H   0  0  0  0  0  0
  -26.7145  -32.5449   23.1072 H   0  0  0  0  0  0
  -24.9907  -33.9736   25.0292 H   0  0  0  0  0  0
  -22.7125  -31.2940   21.3906 H   0  0  0  0  0  0
  -23.3790  -35.9575   23.3214 H   0  0  0  0  0  0
  -24.3603  -36.9012   22.2069 H   0  0  0  0  0  0
  -23.7189  -37.6431   23.6733 H   0  0  0  0  0  0
  -26.0825  -31.5526   20.6003 H   0  0  0  0  0  0
  -26.8365  -30.8454   21.9999 H   0  0  0  0  0  0
  -28.1092  -28.9864   21.2075 H   0  0  0  0  0  0
  -26.0046  -25.9004   19.0373 H   0  0  0  0  0  0
  -23.9980  -27.2877   19.0046 H   0  0  0  0  0  0
  -23.7247  -30.5634   19.3873 H   0  0  0  0  0  0
  -22.7619  -29.2040   19.8781 H   0  0  0  0  0  0
  -25.1302  -36.1911   25.0800 H   0  0  0  0  0  0
  -20.9962  -28.3271   24.1404 H   0  0  0  0  0  0
  -20.5669  -26.2303   23.3632 H   0  0  0  0  0  0
  -21.6637  -26.7437   22.1219 H   0  0  0  0  0  0
  -19.6920  -25.6272   21.1272 H   0  0  0  0  0  0
  -19.6681  -27.3173   20.6757 H   0  0  0  0  0  0
  -17.4193  -26.6652   21.4030 H   0  0  0  0  0  0
  -18.0324  -26.0033   22.9017 H   0  0  0  0  0  0
  -19.7932  -30.7237   24.2309 H   0  0  0  0  0  0
  -17.5019  -31.6283   24.5145 H   0  0  0  0  0  0
  -15.5355  -30.3016   23.7629 H   0  0  0  0  0  0
  -15.8645  -28.0794   22.7149 H   0  0  0  0  0  0
  -24.5820  -30.7134   25.7646 H   0  0  0  0  0  0
  -24.8817  -32.2940   26.4761 H   0  0  0  0  0  0
  -25.7873  -30.8912   27.0185 H   0  0  0  0  0  0
  -26.2848  -29.6765   24.1191 H   0  0  0  0  0  0
  -27.3918  -29.7263   25.4718 H   0  0  0  0  0  0
  -27.8750  -30.4256   23.9431 H   0  0  0  0  0  0
  -27.2694  -33.3633   26.2021 H   0  0  0  0  0  0
  -28.3837  -32.6842   25.0249 H   0  0  0  0  0  0
  -28.0717  -31.8425   26.5346 H   0  0  0  0  0  0
  -28.2520  -38.0162   24.7657 H   0  0  0  0  0  0
  -28.1188  -36.2711   24.6023 H   0  0  0  0  0  0
  -27.2340  -37.1138   25.8825 H   0  0  0  0  0  0
  -20.9348  -29.8708   21.6838 H   0  0  0  0  0  0
  -26.0135  -38.2832   24.1560 H   0  0  0  0  0  0
  -30.9638  -18.7282   18.2495 H   0  0  0  0  0  0
  -30.7644  -21.1548   18.1557 H   0  0  0  0  0  0
  -28.1020  -18.6140   21.4552 H   0  0  0  0  0  0
  -28.9044  -16.5734   22.4330 H   0  0  0  0  0  0
  -30.5964  -17.0796   22.2699 H   0  0  0  0  0  0
  -30.2028  -15.4597   22.8376 H   0  0  0  0  0  0
  -30.3004  -16.6336   18.8721 H   0  0  0  0  0  0
  -28.6389  -16.5665   19.2950 H   0  0  0  0  0  0
  -28.0190  -25.2257   18.5263 H   0  0  0  0  0  0
  -29.5952  -25.2829   19.1757 H   0  0  0  0  0  0
  -27.4000  -23.4279   20.1055 H   0  0  0  0  0  0
  -28.6905  -23.8448   21.2220 H   0  0  0  0  0  0
  1 25  1  0  0  0
  1 30  2  0  0  0
  1 81  1  0  0  0
  2  3  1  0  0  0
  2 25  1  0  0  0
  2 84  1  0  0  0
  2 85  1  0  0  0
  3  4  1  0  0  0
  3 86  1  0  0  0
  3 87  1  0  0  0
  4  5  1  0  0  0
  4 88  1  0  0  0
  4 89  1  0  0  0
  5  6  1  0  0  0
  5 26  1  0  0  0
  5 90  1  0  0  0
  6 25  1  0  0  0
  6 91  1  0  0  0
  6 92  1  0  0  0
  7  8  2  0  0  0
  7 26  1  0  0  0
  7 29  1  0  0  0
  8  9  1  0  0  0
  8 22  1  0  0  0
  9 10  1  0  0  0
  9 27  2  0  0  0
 10 11  2  0  0  0
 10 15  1  0  0  0
 11 12  1  0  0  0
 11 93  1  0  0  0
 12 13  2  0  0  0
 12 94  1  0  0  0
 13 14  1  0  0  0
 13 31  1  0  0  0
 14 15  2  0  0  0
 14 95  1  0  0  0
 15 96  1  0  0  0
 16 17  2  0  0  0
 16 21  1  0  0  0
 16 31  1  0  0  0
 17 18  1  0  0  0
 17 97  1  0  0  0
 18 19  2  0  0  0
 18 98  1  0  0  0
 19 20  1  0  0  0
 19 24  1  0  0  0
 20 21  2  0  0  0
 20 99  1  0  0  0
 21 23  1  0  0  0
 22 28  1  0  0  0
 22 32  2  0  0  0
 26 27  1  0  0  0
 28100  1  0  0  0
 28101  1  0  0  0
 29102  1  0  0  0
 29103  1  0  0  0
 33 34  1  0  0  0
 33 66  1  0  0  0
 33 70  2  0  0  0
 34 36  1  0  0  0
 34 59  1  0  0  0
 34104  1  0  0  0
 35 44  2  0  0  0
 35 45  1  0  0  0
 35 68  1  0  0  0
 36 56  1  0  0  0
 36105  1  0  0  0
 37 39  1  0  0  0
 37 47  1  0  0  0
 37 66  1  0  0  0
 37106  1  0  0  0
 38 43  2  0  0  0
 38 46  1  0  0  0
 38 47  1  0  0  0
 39 64  1  0  0  0
 39 67  2  0  0  0
 40 52  1  0  0  0
 40 53  2  0  0  0
 40 58  1  0  0  0
 41107  1  0  0  0
 41108  1  0  0  0
 41109  1  0  0  0
 41 48  1  0  0  0
 42 43  1  0  0  0
 42 66  1  0  0  0
 42110  1  0  0  0
 42111  1  0  0  0
 43 44  1  0  0  0
 44112  1  0  0  0
 45 46  2  0  0  0
 45113  1  0  0  0
 46114  1  0  0  0
 47115  1  0  0  0
 47116  1  0  0  0
 48 56  1  0  0  0
 48 65  1  0  0  0
 48117  1  0  0  0
 49 50  1  0  0  0
 49 53  1  0  0  0
 49 64  1  0  0  0
 49118  1  0  0  0
 50 51  1  0  0  0
 50119  1  0  0  0
 50120  1  0  0  0
 51 52  1  0  0  0
 51121  1  0  0  0
 51122  1  0  0  0
 52123  1  0  0  0
 52124  1  0  0  0
 53 54  1  0  0  0
 54 55  2  0  0  0
 54125  1  0  0  0
 55 57  1  0  0  0
 55126  1  0  0  0
 56 69  2  0  0  0
 57 58  2  0  0  0
 57127  1  0  0  0
 58128  1  0  0  0
 59 60  1  0  0  0
 59 61  1  0  0  0
 59 62  1  0  0  0
 60129  1  0  0  0
 60130  1  0  0  0
 60131  1  0  0  0
 61132  1  0  0  0
 61133  1  0  0  0
 61134  1  0  0  0
 62135  1  0  0  0
 62136  1  0  0  0
 62137  1  0  0  0
 63 65  1  0  0  0
 63138  1  0  0  0
 63139  1  0  0  0
 63140  1  0  0  0
 64141  1  0  0  0
 65142  1  0  0  0
 68 79  1  0  0  0
 71 72  2  0  0  0
 71 74  1  0  0  0
 71143  1  0  0  0
 72 75  1  0  0  0
 72144  1  0  0  0
 73 74  2  0  0  0
 73 76  1  0  0  0
 73145  1  0  0  0
 74 78  1  0  0  0
 75 76  2  0  0  0
 75 82  1  0  0  0
 76 83  1  0  0  0
 77 81  1  0  0  0
 77146  1  0  0  0
 77147  1  0  0  0
 77148  1  0  0  0
 78 81  1  0  0  0
 78149  1  0  0  0
 78150  1  0  0  0
 79 80  1  0  0  0
 79151  1  0  0  0
 79152  1  0  0  0
 80 82  1  0  0  0
 80153  1  0  0  0
 80154  1  0  0  0
M  ISO  4   1 100  68 101  79 101  81 100
M  END
> <chiral flag>
0

> <version>
0

> <s_m_source_file>
/data/baiqing/PycharmProjects/Reinvent-master-3.2/result/LINK_invent/BTK/process_docking_weight1_custom_product_contain_oxygen_bond_distance_aromatic_linkinvent_7_9_3/rearranged_h_0010.sdf

> <i_m_source_file_index>
81

> <r_mmod_Potential_Energy-OPLS-2005>
275.653442382812

> <r_mmod_Stretch_Energy-OPLS-2005>
93.2071838378906

> <r_mmod_Bend_Energy-OPLS-2005>
199.804351806641

> <r_mmod_Torsional_Energy-OPLS-2005>
274.511840820312

> <r_mmod_Improper_Torsional_Energy-OPLS-2005>
8.70483016967773

> <r_mmod_Van_der_Waal_Energy-OPLS-2005>
135.312942504883

> <r_mmod_Electrostatic_Energy-OPLS-2005>
-290.010192871094

> <r_mmod_Solvation_Energy-OPLS-2005>
-196.106307983398

> <b_mmod_Minimization_Converged-OPLS-2005>
0

> <r_mmod_RMS_Derivative-OPLS-2005>
2.98276853561401

$$$$
81
                    3D
 Structure written by MMmdl.
153161  0  0  1  0            999 V2000
  -30.6230  -14.7093   20.4538 C   0  0  0  0  0  0
  -30.4295  -12.4264   19.4820 C   0  0  0  0  0  0
  -29.5136  -12.5061   18.2404 C   0  0  0  0  0  0
  -28.0368  -12.3397   18.6473 C   0  0  0  0  0  0
  -27.6463  -13.2317   19.8565 C   0  0  2  0  0  0
  -28.6877  -13.1482   20.9955 C   0  0  0  0  0  0
  -25.2522  -13.8203   20.5694 C   0  0  0  0  0  0
  -24.1808  -13.0447   20.9199 C   0  0  0  0  0  0
  -24.6400  -11.6925   20.8744 C   0  0  0  0  0  0
  -23.9076  -10.4299   21.0406 C   0  0  0  0  0  0
  -24.3627   -9.4213   21.9180 C   0  0  0  0  0  0
  -23.6300   -8.2246   22.0753 C   0  0  0  0  0  0
  -22.4279   -8.0286   21.3547 C   0  0  0  0  0  0
  -21.9917   -9.0259   20.4649 C   0  0  0  0  0  0
  -22.7250  -10.2137   20.3057 C   0  0  0  0  0  0
  -21.6852   -6.0742   22.5280 C   0  0  0  0  0  0
  -21.4014   -6.5645   23.8216 C   0  0  0  0  0  0
  -21.3661   -5.6794   24.9176 C   0  0  0  0  0  0
  -21.6042   -4.3057   24.7225 C   0  0  0  0  0  0
  -21.8818   -3.8150   23.4344 C   0  0  0  0  0  0
  -21.9192   -4.6969   22.3402 C   0  0  0  0  0  0
  -22.7827  -13.5227   21.1857 C   0  0  0  0  0  0
  -22.1659   -4.2158   21.0978 F   0  0  0  0  0  0
  -21.5633   -3.4539   25.7737 F   0  0  0  0  0  0
  -29.9978  -13.4844   20.4244 N   0  0  0  0  0  0
  -26.2957  -12.9412   20.3296 N   0  0  0  0  0  0
  -25.9334  -11.6550   20.5751 N   0  0  0  0  0  0
  -22.0471  -12.8224   22.0416 N   0  0  0  0  0  0
  -25.4220  -15.1925   20.4121 N   0  0  0  0  0  0
  -31.8025  -14.8032   20.1005 O   0  0  0  0  0  0
  -21.6643   -6.8882   21.4241 O   0  0  0  0  0  0
  -22.3512  -14.5532   20.6702 O   0  0  0  0  0  0
  -24.6296  -31.8572   23.2004 C   0  0  0  0  0  0
  -25.9128  -32.4764   23.8349 C   0  0  1  0  0  0
  -27.2168  -27.2748   20.1254 C   0  0  0  0  0  0
  -25.5927  -33.8566   24.2270 N   0  0  0  0  0  0
  -23.4253  -30.4813   21.5433 C   0  0  2  0  0  0
  -24.8725  -28.9342   20.1080 C   0  0  0  0  0  0
  -22.7499  -29.4606   22.4909 C   0  0  0  0  0  0
  -18.0293  -28.1383   22.8480 C   0  0  0  0  0  0
  -24.1490  -36.7290   23.2638 C   0  0  0  0  0  0
  -25.9709  -30.7731   21.3805 C   0  0  0  0  0  0
  -26.0425  -29.3972   20.7226 C   0  0  0  0  0  0
  -27.2157  -28.5783   20.7251 C   0  0  0  0  0  0
  -26.0286  -26.8901   19.4605 C   0  0  0  0  0  0
  -24.8703  -27.6881   19.4665 C   0  0  0  0  0  0
  -23.6430  -29.8190   20.1579 C   0  0  0  0  0  0
  -25.4114  -36.3074   24.0327 C   0  0  1  0  0  0
  -20.5896  -28.3694   23.1264 C   0  0  2  0  0  0
  -20.6777  -26.9409   22.5403 C   0  0  0  0  0  0
  -19.5751  -26.6379   21.5207 C   0  0  0  0  0  0
  -18.1933  -26.7923   22.1623 C   0  0  0  0  0  0
  -19.1546  -28.8856   23.2868 C   0  0  0  0  0  0
  -18.9467  -30.1457   23.8886 C   0  0  0  0  0  0
  -17.6465  -30.6582   24.0561 C   0  0  0  0  0  0
  -25.9054  -34.9444   23.5100 C   0  0  0  0  0  0
  -16.5357  -29.9080   23.6327 C   0  0  0  0  0  0
  -16.7279  -28.6499   23.0346 C   0  0  0  0  0  0
  -26.4502  -31.6580   25.0730 C   0  0  0  0  0  0
  -25.3727  -31.3728   26.1452 C   0  0  0  0  0  0
  -27.0351  -30.2997   24.6211 C   0  0  0  0  0  0
  -27.6056  -32.4321   25.7503 C   0  0  0  0  0  0
  -27.5578  -37.1799   24.8464 C   0  0  0  0  0  0
  -21.4207  -29.3045   22.3658 N   0  0  0  0  0  0
  -26.4290  -37.3769   23.9407 N   0  0  0  0  0  0
  -24.6941  -31.0553   22.0973 N   0  0  0  0  0  0
  -23.4208  -28.8135   23.2991 O   0  0  0  0  0  0
  -28.3083  -26.3795   20.2115 O   0  0  0  0  0  0
  -26.5627  -34.8913   22.4671 O   0  0  0  0  0  0
  -23.5448  -32.1388   23.7302 O   0  0  0  0  0  0
  -30.6261  -18.6052   18.2261 C   0  0  0  0  0  0
  -30.2299  -19.7864   18.8820 C   0  0  0  0  0  0
  -30.5183  -17.3463   18.8492 C   0  0  0  0  0  0
  -29.5692  -18.4390   20.8022 C   0  0  0  0  0  0
  -29.6894  -19.7538   20.1847 C   0  0  0  0  0  0
  -30.0014  -17.2070   20.1580 C   0  0  0  0  0  0
  -29.3864  -21.1440   20.8984 C   0  0  0  0  0  0
  -29.0084  -23.7628   20.5921 C   0  0  0  0  0  0
  -28.0897  -24.9168   19.9405 C   0  0  0  0  0  0
  -29.8715  -15.8427   20.7257 N   0  0  0  0  0  0
  -28.8066  -22.3154   20.0979 N   0  3  0  0  0  0
  -31.4748  -12.5329   19.1863 H   0  0  0  0  0  0
  -30.3548  -11.4459   19.9548 H   0  0  0  0  0  0
  -29.7915  -11.7397   17.5161 H   0  0  0  0  0  0
  -29.6527  -13.4654   17.7391 H   0  0  0  0  0  0
  -27.8820  -11.2896   18.8981 H   0  0  0  0  0  0
  -27.3853  -12.5473   17.7977 H   0  0  0  0  0  0
  -27.6485  -14.2575   19.4864 H   0  0  0  0  0  0
  -28.7091  -12.1482   21.4308 H   0  0  0  0  0  0
  -28.4274  -13.8273   21.8084 H   0  0  0  0  0  0
  -25.2774   -9.5691   22.4753 H   0  0  0  0  0  0
  -24.0018   -7.4637   22.7468 H   0  0  0  0  0  0
  -21.0851   -8.8776   19.8953 H   0  0  0  0  0  0
  -22.3707  -10.9673   19.6166 H   0  0  0  0  0  0
  -21.2004   -7.6150   23.9722 H   0  0  0  0  0  0
  -21.1486   -6.0523   25.9080 H   0  0  0  0  0  0
  -22.0595   -2.7614   23.2838 H   0  0  0  0  0  0
  -22.4088  -11.9896   22.4827 H   0  0  0  0  0  0
  -21.1081  -13.1241   22.2602 H   0  0  0  0  0  0
  -24.6553  -15.8469   20.5236 H   0  0  0  0  0  0
  -26.2723  -15.6322   20.0829 H   0  0  0  0  0  0
  -26.7193  -32.5421   23.1092 H   0  0  0  0  0  0
  -25.0068  -33.9712   25.0411 H   0  0  0  0  0  0
  -22.7200  -31.3023   21.3995 H   0  0  0  0  0  0
  -23.3749  -35.9626   23.3299 H   0  0  0  0  0  0
  -24.3579  -36.8917   22.2053 H   0  0  0  0  0  0
  -23.7254  -37.6493   23.6667 H   0  0  0  0  0  0
  -26.1113  -31.5324   20.6099 H   0  0  0  0  0  0
  -26.8484  -30.8207   22.0137 H   0  0  0  0  0  0
  -28.1073  -28.9240   21.2295 H   0  0  0  0  0  0
  -25.9565  -25.9505   18.9342 H   0  0  0  0  0  0
  -23.9781  -27.3336   18.9688 H   0  0  0  0  0  0
  -23.7671  -30.5971   19.4039 H   0  0  0  0  0  0
  -22.7617  -29.2523   19.8521 H   0  0  0  0  0  0
  -25.1295  -36.1922   25.0818 H   0  0  0  0  0  0
  -20.9992  -28.3274   24.1385 H   0  0  0  0  0  0
  -20.5667  -26.2308   23.3612 H   0  0  0  0  0  0
  -21.6646  -26.7425   22.1204 H   0  0  0  0  0  0
  -19.6910  -25.6290   21.1240 H   0  0  0  0  0  0
  -19.6684  -27.3189   20.6736 H   0  0  0  0  0  0
  -17.4199  -26.6666   21.4030 H   0  0  0  0  0  0
  -18.0334  -26.0071   22.9027 H   0  0  0  0  0  0
  -19.7944  -30.7275   24.2249 H   0  0  0  0  0  0
  -17.5019  -31.6259   24.5167 H   0  0  0  0  0  0
  -15.5355  -30.2977   23.7654 H   0  0  0  0  0  0
  -15.8681  -28.0816   22.7060 H   0  0  0  0  0  0
  -24.5902  -30.7077   25.7781 H   0  0  0  0  0  0
  -24.8920  -32.2898   26.4869 H   0  0  0  0  0  0
  -25.8044  -30.8910   27.0235 H   0  0  0  0  0  0
  -26.2937  -29.6739   24.1229 H   0  0  0  0  0  0
  -27.4032  -29.7262   25.4728 H   0  0  0  0  0  0
  -27.8816  -30.4275   23.9459 H   0  0  0  0  0  0
  -27.2663  -33.3624   26.2072 H   0  0  0  0  0  0
  -28.3871  -32.6874   25.0334 H   0  0  0  0  0  0
  -28.0721  -31.8454   26.5429 H   0  0  0  0  0  0
  -28.2590  -38.0098   24.7503 H   0  0  0  0  0  0
  -28.1077  -36.2628   24.6296 H   0  0  0  0  0  0
  -27.2293  -37.1457   25.8866 H   0  0  0  0  0  0
  -20.9383  -29.8794   21.6891 H   0  0  0  0  0  0
  -26.0167  -38.2844   24.1400 H   0  0  0  0  0  0
  -31.0326  -18.6655   17.2258 H   0  0  0  0  0  0
  -30.3700  -20.7284   18.3703 H   0  0  0  0  0  0
  -30.8343  -16.4789   18.2871 H   0  0  0  0  0  0
  -29.1690  -18.3820   21.8051 H   0  0  0  0  0  0
  -30.3351  -21.4785   21.3194 H   0  0  0  0  0  0
  -28.7356  -20.9626   21.7546 H   0  0  0  0  0  0
  -28.8490  -23.7787   21.6703 H   0  0  0  0  0  0
  -30.0570  -24.0215   20.4411 H   0  0  0  0  0  0
  -27.0775  -24.6537   20.2475 H   0  0  0  0  0  0
  -28.1175  -24.8000   18.8566 H   0  0  0  0  0  0
  -29.0115  -15.6658   21.2230 H   0  0  0  0  0  0
  -27.8192  -22.1326   20.0145 H   0  0  0  0  0  0
  -29.1856  -22.2601   19.1672 H   0  0  0  0  0  0
  1 25  1  0  0  0
  1 30  2  0  0  0
  1 80  1  0  0  0
  2  3  1  0  0  0
  2 25  1  0  0  0
  2 82  1  0  0  0
  2 83  1  0  0  0
  3  4  1  0  0  0
  3 84  1  0  0  0
  3 85  1  0  0  0
  4  5  1  0  0  0
  4 86  1  0  0  0
  4 87  1  0  0  0
  5  6  1  0  0  0
  5 26  1  0  0  0
  5 88  1  0  0  0
  6 25  1  0  0  0
  6 89  1  0  0  0
  6 90  1  0  0  0
  7  8  2  0  0  0
  7 26  1  0  0  0
  7 29  1  0  0  0
  8  9  1  0  0  0
  8 22  1  0  0  0
  9 10  1  0  0  0
  9 27  2  0  0  0
 10 11  2  0  0  0
 10 15  1  0  0  0
 11 12  1  0  0  0
 11 91  1  0  0  0
 12 13  2  0  0  0
 12 92  1  0  0  0
 13 14  1  0  0  0
 13 31  1  0  0  0
 14 15  2  0  0  0
 14 93  1  0  0  0
 15 94  1  0  0  0
 16 17  2  0  0  0
 16 21  1  0  0  0
 16 31  1  0  0  0
 17 18  1  0  0  0
 17 95  1  0  0  0
 18 19  2  0  0  0
 18 96  1  0  0  0
 19 20  1  0  0  0
 19 24  1  0  0  0
 20 21  2  0  0  0
 20 97  1  0  0  0
 21 23  1  0  0  0
 22 28  1  0  0  0
 22 32  2  0  0  0
 26 27  1  0  0  0
 28 98  1  0  0  0
 28 99  1  0  0  0
 29100  1  0  0  0
 29101  1  0  0  0
 33 34  1  0  0  0
 33 66  1  0  0  0
 33 70  2  0  0  0
 34 36  1  0  0  0
 34 59  1  0  0  0
 34102  1  0  0  0
 35 44  2  0  0  0
 35 45  1  0  0  0
 35 68  1  0  0  0
 36 56  1  0  0  0
 36103  1  0  0  0
 37 39  1  0  0  0
 37 47  1  0  0  0
 37 66  1  0  0  0
 37104  1  0  0  0
 38 43  2  0  0  0
 38 46  1  0  0  0
 38 47  1  0  0  0
 39 64  1  0  0  0
 39 67  2  0  0  0
 40 52  1  0  0  0
 40 53  2  0  0  0
 40 58  1  0  0  0
 41105  1  0  0  0
 41106  1  0  0  0
 41107  1  0  0  0
 41 48  1  0  0  0
 42 43  1  0  0  0
 42 66  1  0  0  0
 42108  1  0  0  0
 42109  1  0  0  0
 43 44  1  0  0  0
 44110  1  0  0  0
 45 46  2  0  0  0
 45111  1  0  0  0
 46112  1  0  0  0
 47113  1  0  0  0
 47114  1  0  0  0
 48 56  1  0  0  0
 48 65  1  0  0  0
 48115  1  0  0  0
 49 50  1  0  0  0
 49 53  1  0  0  0
 49 64  1  0  0  0
 49116  1  0  0  0
 50 51  1  0  0  0
 50117  1  0  0  0
 50118  1  0  0  0
 51 52  1  0  0  0
 51119  1  0  0  0
 51120  1  0  0  0
 52121  1  0  0  0
 52122  1  0  0  0
 53 54  1  0  0  0
 54 55  2  0  0  0
 54123  1  0  0  0
 55 57  1  0  0  0
 55124  1  0  0  0
 56 69  2  0  0  0
 57 58  2  0  0  0
 57125  1  0  0  0
 58126  1  0  0  0
 59 60  1  0  0  0
 59 61  1  0  0  0
 59 62  1  0  0  0
 60127  1  0  0  0
 60128  1  0  0  0
 60129  1  0  0  0
 61130  1  0  0  0
 61131  1  0  0  0
 61132  1  0  0  0
 62133  1  0  0  0
 62134  1  0  0  0
 62135  1  0  0  0
 63 65  1  0  0  0
 63136  1  0  0  0
 63137  1  0  0  0
 63138  1  0  0  0
 64139  1  0  0  0
 65140  1  0  0  0
 68 79  1  0  0  0
 71 72  2  0  0  0
 71 73  1  0  0  0
 71141  1  0  0  0
 72 75  1  0  0  0
 72142  1  0  0  0
 73 76  2  0  0  0
 73143  1  0  0  0
 74 75  2  0  0  0
 74 76  1  0  0  0
 74144  1  0  0  0
 75 77  1  0  0  0
 76 80  1  0  0  0
 77 81  1  0  0  0
 77145  1  0  0  0
 77146  1  0  0  0
 78 79  1  0  0  0
 78 81  1  0  0  0
 78147  1  0  0  0
 78148  1  0  0  0
 79149  1  0  0  0
 79150  1  0  0  0
 80151  1  0  0  0
 81152  1  0  0  0
 81153  1  0  0  0
M  CHG  1  81   1
M  ISO  4   1 100  68 101  79 101  80 100
M  END
> <chiral flag>
0

> <version>
0

> <s_m_source_file>
/data/baiqing/PycharmProjects/Reinvent-master-3.2/result/LINK_invent/BTK/process_docking_weight1_custom_product_contain_oxygen_bond_distance_aromatic_linkinvent_7_9_3/rearranged_h_0010.sdf

> <i_m_source_file_index>
82

> <r_mmod_Potential_Energy-OPLS-2005>
-34.7456741333008

> <r_mmod_Stretch_Energy-OPLS-2005>
112.539047241211

> <r_mmod_Bend_Energy-OPLS-2005>
147.294815063477

> <r_mmod_Torsional_Energy-OPLS-2005>
227.704132080078

> <r_mmod_Improper_Torsional_Energy-OPLS-2005>
4.58505725860596

> <r_mmod_Van_der_Waal_Energy-OPLS-2005>
142.705841064453

> <r_mmod_Electrostatic_Energy-OPLS-2005>
-269.937713623047

> <r_mmod_Solvation_Energy-OPLS-2005>
-475.085266113281

> <b_mmod_Minimization_Converged-OPLS-2005>
0

> <r_mmod_RMS_Derivative-OPLS-2005>
0.710408389568329

$$$$
82
                    3D
 Structure written by MMmdl.
156164  0  0  1  0            999 V2000
  -30.6096  -14.6386   20.5221 C   0  0  0  0  0  0
  -30.4490  -12.4003   19.4486 C   0  0  0  0  0  0
  -29.5079  -12.4977   18.2256 C   0  0  0  0  0  0
  -28.0302  -12.3386   18.6394 C   0  0  0  0  0  0
  -27.6584  -13.2090   19.8687 C   0  0  2  0  0  0
  -28.7020  -13.0441   20.9970 C   0  0  0  0  0  0
  -25.2604  -13.8156   20.5688 C   0  0  0  0  0  0
  -24.1847  -13.0442   20.9195 C   0  0  0  0  0  0
  -24.6397  -11.6908   20.8752 C   0  0  0  0  0  0
  -23.9043  -10.4301   21.0425 C   0  0  0  0  0  0
  -24.3615   -9.4210   21.9183 C   0  0  0  0  0  0
  -23.6304   -8.2238   22.0736 C   0  0  0  0  0  0
  -22.4262   -8.0294   21.3551 C   0  0  0  0  0  0
  -21.9917   -9.0255   20.4629 C   0  0  0  0  0  0
  -22.7239  -10.2139   20.3047 C   0  0  0  0  0  0
  -21.6854   -6.0740   22.5282 C   0  0  0  0  0  0
  -21.4007   -6.5647   23.8222 C   0  0  0  0  0  0
  -21.3654   -5.6796   24.9190 C   0  0  0  0  0  0
  -21.6037   -4.3055   24.7234 C   0  0  0  0  0  0
  -21.8833   -3.8152   23.4356 C   0  0  0  0  0  0
  -21.9209   -4.6967   22.3412 C   0  0  0  0  0  0
  -22.7882  -13.5262   21.1886 C   0  0  0  0  0  0
  -22.1677   -4.2161   21.0984 F   0  0  0  0  0  0
  -21.5631   -3.4534   25.7748 F   0  0  0  0  0  0
  -30.0176  -13.4047   20.4422 N   0  0  0  0  0  0
  -26.3020  -12.9320   20.3351 N   0  0  0  0  0  0
  -25.9329  -11.6474   20.5777 N   0  0  0  0  0  0
  -22.0515  -12.8239   22.0409 N   0  0  0  0  0  0
  -25.4385  -15.1862   20.4025 N   0  0  0  0  0  0
  -31.7556  -14.8300   20.1022 O   0  0  0  0  0  0
  -21.6648   -6.8881   21.4232 O   0  0  0  0  0  0
  -22.3597  -14.5588   20.6767 O   0  0  0  0  0  0
  -24.6184  -31.8605   23.2018 C   0  0  0  0  0  0
  -25.9023  -32.4816   23.8328 C   0  0  1  0  0  0
  -27.2398  -27.3587   20.1260 C   0  0  0  0  0  0
  -25.5816  -33.8610   24.2244 N   0  0  0  0  0  0
  -23.4111  -30.4850   21.5410 C   0  0  2  0  0  0
  -24.8649  -28.9343   20.1179 C   0  0  0  0  0  0
  -22.7432  -29.4638   22.4913 C   0  0  0  0  0  0
  -18.0291  -28.1427   22.8524 C   0  0  0  0  0  0
  -24.1446  -36.7283   23.2656 C   0  0  0  0  0  0
  -25.9471  -30.8080   21.3608 C   0  0  0  0  0  0
  -26.0272  -29.4331   20.7155 C   0  0  0  0  0  0
  -27.2194  -28.6580   20.7075 C   0  0  0  0  0  0
  -26.0527  -26.8870   19.5245 C   0  0  0  0  0  0
  -24.8742  -27.6643   19.5146 C   0  0  0  0  0  0
  -23.6299  -29.8135   20.1577 C   0  0  0  0  0  0
  -25.4079  -36.3107   24.0340 C   0  0  1  0  0  0
  -20.5889  -28.3673   23.1326 C   0  0  2  0  0  0
  -20.6762  -26.9394   22.5444 C   0  0  0  0  0  0
  -19.5721  -26.6394   21.5263 C   0  0  0  0  0  0
  -18.1906  -26.7980   22.1654 C   0  0  0  0  0  0
  -19.1555  -28.8854   23.2949 C   0  0  0  0  0  0
  -18.9486  -30.1469   23.8918 C   0  0  0  0  0  0
  -17.6489  -30.6623   24.0581 C   0  0  0  0  0  0
  -25.9028  -34.9488   23.5106 C   0  0  0  0  0  0
  -16.5372  -29.9146   23.6340 C   0  0  0  0  0  0
  -16.7279  -28.6567   23.0374 C   0  0  0  0  0  0
  -26.4445  -31.6626   25.0699 C   0  0  0  0  0  0
  -25.3710  -31.3754   26.1451 C   0  0  0  0  0  0
  -27.0259  -30.3060   24.6089 C   0  0  0  0  0  0
  -27.5983  -32.4380   25.7488 C   0  0  0  0  0  0
  -27.5549  -37.1789   24.8485 C   0  0  0  0  0  0
  -21.4157  -29.3033   22.3703 N   0  0  0  0  0  0
  -26.4244  -37.3800   23.9474 N   0  0  0  0  0  0
  -24.6775  -31.0664   22.0925 N   0  0  0  0  0  0
  -23.4231  -28.8182   23.2929 O   0  0  0  0  0  0
  -28.3873  -26.5683   20.1035 O   0  0  0  0  0  0
  -26.5654  -34.8961   22.4716 O   0  0  0  0  0  0
  -23.5353  -32.1336   23.7376 O   0  0  0  0  0  0
  -28.4387  -19.1905   21.0336 C   0  0  0  0  0  0
  -30.4784  -19.2481   19.7668 C   0  0  0  0  0  0
  -28.6527  -17.8059   21.2986 C   0  0  0  0  0  0
  -30.6806  -17.8526   20.0078 C   0  0  0  0  0  0
  -29.3402  -19.9593   20.2508 C   0  0  0  0  0  0
  -29.7567  -17.0871   20.7676 C   0  0  0  0  0  0
  -27.8941  -22.4217   21.7272 C   0  0  0  0  0  0
  -29.0007  -21.4158   19.7288 C   0  0  0  0  0  0
  -28.6632  -23.9531   19.8977 C   0  0  0  0  0  0
  -28.3417  -25.2531   20.7589 C   0  0  0  0  0  0
  -29.8084  -15.6415   20.9958 N   0  0  0  0  0  0
  -28.8830  -22.6296   20.6417 N   0  3  1  0  0  0
  -31.4840  -12.5502   19.1358 H   0  0  0  0  0  0
  -30.4136  -11.4007   19.8864 H   0  0  0  0  0  0
  -29.7654  -11.7315   17.4923 H   0  0  0  0  0  0
  -29.6490  -13.4584   17.7307 H   0  0  0  0  0  0
  -27.8664  -11.2846   18.8722 H   0  0  0  0  0  0
  -27.3740  -12.5695   17.7962 H   0  0  0  0  0  0
  -27.6809  -14.2474   19.5319 H   0  0  0  0  0  0
  -28.7220  -12.0142   21.3551 H   0  0  0  0  0  0
  -28.4431  -13.6508   21.8650 H   0  0  0  0  0  0
  -25.2754   -9.5725   22.4761 H   0  0  0  0  0  0
  -24.0040   -7.4638   22.7451 H   0  0  0  0  0  0
  -21.0859   -8.8761   19.8932 H   0  0  0  0  0  0
  -22.3687  -10.9678   19.6163 H   0  0  0  0  0  0
  -21.1966   -7.6159   23.9736 H   0  0  0  0  0  0
  -21.1456   -6.0519   25.9102 H   0  0  0  0  0  0
  -22.0606   -2.7609   23.2854 H   0  0  0  0  0  0
  -22.4120  -11.9881   22.4771 H   0  0  0  0  0  0
  -21.1126  -13.1237   22.2590 H   0  0  0  0  0  0
  -24.6722  -15.8455   20.4867 H   0  0  0  0  0  0
  -26.2883  -15.6075   20.0489 H   0  0  0  0  0  0
  -26.7096  -32.5498   23.1090 H   0  0  0  0  0  0
  -24.9874  -33.9743   25.0317 H   0  0  0  0  0  0
  -22.7016  -31.3020   21.3946 H   0  0  0  0  0  0
  -23.3728  -35.9595   23.3349 H   0  0  0  0  0  0
  -24.3504  -36.8867   22.2069 H   0  0  0  0  0  0
  -23.7198  -37.6485   23.6658 H   0  0  0  0  0  0
  -26.0604  -31.5662   20.5828 H   0  0  0  0  0  0
  -26.8344  -30.8720   21.9768 H   0  0  0  0  0  0
  -28.1144  -29.0445   21.1734 H   0  0  0  0  0  0
  -26.0322  -25.9135   19.0596 H   0  0  0  0  0  0
  -23.9778  -27.2749   19.0504 H   0  0  0  0  0  0
  -23.7476  -30.5860   19.3961 H   0  0  0  0  0  0
  -22.7512  -29.2450   19.8517 H   0  0  0  0  0  0
  -25.1270  -36.1928   25.0824 H   0  0  0  0  0  0
  -21.0008  -28.3227   24.1428 H   0  0  0  0  0  0
  -20.5670  -26.2246   23.3610 H   0  0  0  0  0  0
  -21.6620  -26.7424   22.1197 H   0  0  0  0  0  0
  -19.6841  -25.6318   21.1248 H   0  0  0  0  0  0
  -19.6671  -27.3248   20.6839 H   0  0  0  0  0  0
  -17.4160  -26.6774   21.4064 H   0  0  0  0  0  0
  -18.0255  -26.0149   22.9058 H   0  0  0  0  0  0
  -19.7968  -30.7305   24.2269 H   0  0  0  0  0  0
  -17.5063  -31.6316   24.5183 H   0  0  0  0  0  0
  -15.5383  -30.3075   23.7660 H   0  0  0  0  0  0
  -15.8677  -28.0914   22.7062 H   0  0  0  0  0  0
  -24.5865  -30.7105   25.7813 H   0  0  0  0  0  0
  -24.8921  -32.2926   26.4890 H   0  0  0  0  0  0
  -25.8057  -30.8950   27.0213 H   0  0  0  0  0  0
  -26.2783  -29.6846   24.1144 H   0  0  0  0  0  0
  -27.4051  -29.7283   25.4516 H   0  0  0  0  0  0
  -27.8603  -30.4396   23.9204 H   0  0  0  0  0  0
  -27.2540  -33.3680   26.2037 H   0  0  0  0  0  0
  -28.3811  -32.6955   25.0340 H   0  0  0  0  0  0
  -28.0621  -31.8537   26.5446 H   0  0  0  0  0  0
  -28.2594  -38.0065   24.7515 H   0  0  0  0  0  0
  -28.1001  -36.2590   24.6300 H   0  0  0  0  0  0
  -27.2257  -37.1442   25.8882 H   0  0  0  0  0  0
  -20.9286  -29.8744   21.6934 H   0  0  0  0  0  0
  -26.0113  -38.2842   24.1536 H   0  0  0  0  0  0
  -27.5244  -19.6367   21.3956 H   0  0  0  0  0  0
  -31.1887  -19.7608   19.1301 H   0  0  0  0  0  0
  -27.9058  -17.2896   21.8855 H   0  0  0  0  0  0
  -31.5433  -17.3755   19.5598 H   0  0  0  0  0  0
  -28.1332  -21.5431   22.3225 H   0  0  0  0  0  0
  -26.8888  -22.3109   21.3164 H   0  0  0  0  0  0
  -27.8799  -23.2441   22.4386 H   0  0  0  0  0  0
  -28.0596  -21.3344   19.1827 H   0  0  0  0  0  0
  -29.7423  -21.6674   18.9689 H   0  0  0  0  0  0
  -29.5555  -24.1510   19.3011 H   0  0  0  0  0  0
  -27.8563  -23.8224   19.1737 H   0  0  0  0  0  0
  -29.0734  -25.3128   21.5657 H   0  0  0  0  0  0
  -27.3765  -25.1348   21.2569 H   0  0  0  0  0  0
  -28.9776  -15.2753   21.4325 H   0  0  0  0  0  0
  -29.7814  -22.7114   21.0949 H   0  0  0  0  0  0
  1 25  1  0  0  0
  1 30  2  0  0  0
  1 81  1  0  0  0
  2  3  1  0  0  0
  2 25  1  0  0  0
  2 83  1  0  0  0
  2 84  1  0  0  0
  3  4  1  0  0  0
  3 85  1  0  0  0
  3 86  1  0  0  0
  4  5  1  0  0  0
  4 87  1  0  0  0
  4 88  1  0  0  0
  5  6  1  0  0  0
  5 26  1  0  0  0
  5 89  1  0  0  0
  6 25  1  0  0  0
  6 90  1  0  0  0
  6 91  1  0  0  0
  7  8  2  0  0  0
  7 26  1  0  0  0
  7 29  1  0  0  0
  8  9  1  0  0  0
  8 22  1  0  0  0
  9 10  1  0  0  0
  9 27  2  0  0  0
 10 11  2  0  0  0
 10 15  1  0  0  0
 11 12  1  0  0  0
 11 92  1  0  0  0
 12 13  2  0  0  0
 12 93  1  0  0  0
 13 14  1  0  0  0
 13 31  1  0  0  0
 14 15  2  0  0  0
 14 94  1  0  0  0
 15 95  1  0  0  0
 16 17  2  0  0  0
 16 21  1  0  0  0
 16 31  1  0  0  0
 17 18  1  0  0  0
 17 96  1  0  0  0
 18 19  2  0  0  0
 18 97  1  0  0  0
 19 20  1  0  0  0
 19 24  1  0  0  0
 20 21  2  0  0  0
 20 98  1  0  0  0
 21 23  1  0  0  0
 22 28  1  0  0  0
 22 32  2  0  0  0
 26 27  1  0  0  0
 28 99  1  0  0  0
 28100  1  0  0  0
 29101  1  0  0  0
 29102  1  0  0  0
 33 34  1  0  0  0
 33 66  1  0  0  0
 33 70  2  0  0  0
 34 36  1  0  0  0
 34 59  1  0  0  0
 34103  1  0  0  0
 35 44  2  0  0  0
 35 45  1  0  0  0
 35 68  1  0  0  0
 36 56  1  0  0  0
 36104  1  0  0  0
 37 39  1  0  0  0
 37 47  1  0  0  0
 37 66  1  0  0  0
 37105  1  0  0  0
 38 43  2  0  0  0
 38 46  1  0  0  0
 38 47  1  0  0  0
 39 64  1  0  0  0
 39 67  2  0  0  0
 40 52  1  0  0  0
 40 53  2  0  0  0
 40 58  1  0  0  0
 41106  1  0  0  0
 41107  1  0  0  0
 41108  1  0  0  0
 41 48  1  0  0  0
 42 43  1  0  0  0
 42 66  1  0  0  0
 42109  1  0  0  0
 42110  1  0  0  0
 43 44  1  0  0  0
 44111  1  0  0  0
 45 46  2  0  0  0
 45112  1  0  0  0
 46113  1  0  0  0
 47114  1  0  0  0
 47115  1  0  0  0
 48 56  1  0  0  0
 48 65  1  0  0  0
 48116  1  0  0  0
 49 50  1  0  0  0
 49 53  1  0  0  0
 49 64  1  0  0  0
 49117  1  0  0  0
 50 51  1  0  0  0
 50118  1  0  0  0
 50119  1  0  0  0
 51 52  1  0  0  0
 51120  1  0  0  0
 51121  1  0  0  0
 52122  1  0  0  0
 52123  1  0  0  0
 53 54  1  0  0  0
 54 55  2  0  0  0
 54124  1  0  0  0
 55 57  1  0  0  0
 55125  1  0  0  0
 56 69  2  0  0  0
 57 58  2  0  0  0
 57126  1  0  0  0
 58127  1  0  0  0
 59 60  1  0  0  0
 59 61  1  0  0  0
 59 62  1  0  0  0
 60128  1  0  0  0
 60129  1  0  0  0
 60130  1  0  0  0
 61131  1  0  0  0
 61132  1  0  0  0
 61133  1  0  0  0
 62134  1  0  0  0
 62135  1  0  0  0
 62136  1  0  0  0
 63 65  1  0  0  0
 63137  1  0  0  0
 63138  1  0  0  0
 63139  1  0  0  0
 64140  1  0  0  0
 65141  1  0  0  0
 68 80  1  0  0  0
 71 73  2  0  0  0
 71 75  1  0  0  0
 71142  1  0  0  0
 72 74  1  0  0  0
 72 75  2  0  0  0
 72143  1  0  0  0
 73 76  1  0  0  0
 73144  1  0  0  0
 74 76  2  0  0  0
 74145  1  0  0  0
 75 78  1  0  0  0
 76 81  1  0  0  0
 77146  1  0  0  0
 77147  1  0  0  0
 77148  1  0  0  0
 77 82  1  0  0  0
 78 82  1  0  0  0
 78149  1  0  0  0
 78150  1  0  0  0
 79 80  1  0  0  0
 79 82  1  0  0  0
 79151  1  0  0  0
 79152  1  0  0  0
 80153  1  0  0  0
 80154  1  0  0  0
 81155  1  0  0  0
 82156  1  0  0  0
M  CHG  1  82   1
M  ISO  4   1 100  68 101  80 101  81 100
M  END
> <chiral flag>
0

> <version>
0

> <s_m_source_file>
/data/baiqing/PycharmProjects/Reinvent-master-3.2/result/LINK_invent/BTK/process_docking_weight1_custom_product_contain_oxygen_bond_distance_aromatic_linkinvent_7_9_3/rearranged_h_0010.sdf

> <i_m_source_file_index>
83

> <r_mmod_Potential_Energy-OPLS-2005>
-46.2242965698242

> <r_mmod_Stretch_Energy-OPLS-2005>
77.0525512695312

> <r_mmod_Bend_Energy-OPLS-2005>
142.855529785156

> <r_mmod_Torsional_Energy-OPLS-2005>
232.801986694336

> <r_mmod_Improper_Torsional_Energy-OPLS-2005>
4.9382848739624

> <r_mmod_Van_der_Waal_Energy-OPLS-2005>
141.620910644531

> <r_mmod_Electrostatic_Energy-OPLS-2005>
-244.637939453125

> <r_mmod_Solvation_Energy-OPLS-2005>
-439.630676269531

> <b_mmod_Minimization_Converged-OPLS-2005>
0

> <r_mmod_RMS_Derivative-OPLS-2005>
4.94676208496094

$$$$
83
                    3D
 Structure written by MMmdl.
148156  0  0  1  0            999 V2000
  -30.5089  -14.9122   20.4351 C   0  0  0  0  0  0
  -30.4555  -12.5616   19.4901 C   0  0  0  0  0  0
  -29.5264  -12.5317   18.2520 C   0  0  0  0  0  0
  -28.0565  -12.3206   18.6662 C   0  0  0  0  0  0
  -27.6389  -13.2354   19.8464 C   0  0  2  0  0  0
  -28.6835  -13.2119   20.9840 C   0  0  0  0  0  0
  -25.2500  -13.8182   20.5681 C   0  0  0  0  0  0
  -24.1806  -13.0431   20.9230 C   0  0  0  0  0  0
  -24.6402  -11.6911   20.8760 C   0  0  0  0  0  0
  -23.9076  -10.4289   21.0416 C   0  0  0  0  0  0
  -24.3624   -9.4201   21.9190 C   0  0  0  0  0  0
  -23.6294   -8.2240   22.0758 C   0  0  0  0  0  0
  -22.4276   -8.0282   21.3547 C   0  0  0  0  0  0
  -21.9915   -9.0259   20.4652 C   0  0  0  0  0  0
  -22.7249  -10.2135   20.3063 C   0  0  0  0  0  0
  -21.6853   -6.0736   22.5279 C   0  0  0  0  0  0
  -21.4015   -6.5640   23.8212 C   0  0  0  0  0  0
  -21.3659   -5.6793   24.9175 C   0  0  0  0  0  0
  -21.6044   -4.3056   24.7225 C   0  0  0  0  0  0
  -21.8818   -3.8147   23.4347 C   0  0  0  0  0  0
  -21.9192   -4.6963   22.3402 C   0  0  0  0  0  0
  -22.7826  -13.5218   21.1880 C   0  0  0  0  0  0
  -22.1661   -4.2149   21.0979 F   0  0  0  0  0  0
  -21.5626   -3.4539   25.7738 F   0  0  0  0  0  0
  -29.9682  -13.6307   20.4025 N   0  0  0  0  0  0
  -26.2925  -12.9392   20.3247 N   0  0  0  0  0  0
  -25.9332  -11.6537   20.5742 N   0  0  0  0  0  0
  -22.0465  -12.8213   22.0434 N   0  0  0  0  0  0
  -25.4162  -15.1901   20.4026 N   0  0  0  0  0  0
  -31.6970  -15.0562   20.1234 O   0  0  0  0  0  0
  -21.6639   -6.8881   21.4242 O   0  0  0  0  0  0
  -22.3518  -14.5520   20.6717 O   0  0  0  0  0  0
  -24.6422  -31.8456   23.1895 C   0  0  0  0  0  0
  -25.9199  -32.4704   23.8282 C   0  0  1  0  0  0
  -27.2214  -27.1519   20.1469 C   0  0  0  0  0  0
  -25.5952  -33.8509   24.2201 N   0  0  0  0  0  0
  -23.4453  -30.4654   21.5351 C   0  0  2  0  0  0
  -24.8953  -28.8959   20.1105 C   0  0  0  0  0  0
  -22.7562  -29.4552   22.4864 C   0  0  0  0  0  0
  -18.0305  -28.1392   22.8480 C   0  0  0  0  0  0
  -24.1492  -36.7261   23.2642 C   0  0  0  0  0  0
  -26.0006  -30.7245   21.3860 C   0  0  0  0  0  0
  -26.0728  -29.3373   20.7273 C   0  0  0  0  0  0
  -27.2369  -28.4820   20.7280 C   0  0  0  0  0  0
  -26.0152  -26.8096   19.4937 C   0  0  0  0  0  0
  -24.8787  -27.6448   19.4786 C   0  0  0  0  0  0
  -23.6712  -29.7962   20.1539 C   0  0  0  0  0  0
  -25.4122  -36.3038   24.0318 C   0  0  1  0  0  0
  -20.5917  -28.3717   23.1239 C   0  0  2  0  0  0
  -20.6789  -26.9422   22.5403 C   0  0  0  0  0  0
  -19.5760  -26.6380   21.5213 C   0  0  0  0  0  0
  -18.1944  -26.7931   22.1628 C   0  0  0  0  0  0
  -19.1562  -28.8873   23.2853 C   0  0  0  0  0  0
  -18.9477  -30.1469   23.8878 C   0  0  0  0  0  0
  -17.6473  -30.6589   24.0558 C   0  0  0  0  0  0
  -25.9071  -34.9412   23.5068 C   0  0  0  0  0  0
  -16.5365  -29.9082   23.6333 C   0  0  0  0  0  0
  -16.7289  -28.6500   23.0357 C   0  0  0  0  0  0
  -26.4522  -31.6564   25.0716 C   0  0  0  0  0  0
  -25.3712  -31.3749   26.1414 C   0  0  0  0  0  0
  -27.0385  -30.2963   24.6283 C   0  0  0  0  0  0
  -27.6053  -32.4328   25.7502 C   0  0  0  0  0  0
  -27.5575  -37.1788   24.8465 C   0  0  0  0  0  0
  -21.4255  -29.3048   22.3615 N   0  0  0  0  0  0
  -26.4286  -37.3749   23.9408 N   0  0  0  0  0  0
  -24.7158  -31.0325   22.0923 N   0  0  0  0  0  0
  -23.4210  -28.8096   23.3008 O   0  0  0  0  0  0
  -28.2796  -26.1752   20.2158 O   0  0  0  0  0  0
  -26.5655  -34.8906   22.4645 O   0  0  0  0  0  0
  -23.5543  -32.1325   23.7122 O   0  0  0  0  0  0
  -30.4979  -18.5502   20.3681 C   0  0  0  0  0  0
  -30.1918  -19.9876   20.3030 C   0  0  0  0  0  0
  -28.2013  -18.0915   20.6159 C   0  0  0  0  0  0
  -29.5058  -17.5125   20.5303 C   0  0  0  0  0  0
  -28.8604  -20.5427   20.3787 C   0  0  0  0  0  0
  -27.8953  -19.4982   20.5370 C   0  0  0  0  0  0
  -27.9814  -24.6559   20.0800 C   0  0  0  0  0  0
  -28.9666  -23.3090   20.3181 C   0  0  0  0  0  0
  -29.6181  -15.9877   20.6567 N   0  0  0  0  0  0
  -28.3436  -21.9122   20.2867 O   0  0  0  0  0  0
  -26.5907  -19.8568   20.6201 F   0  0  0  0  0  0
  -31.4867  -12.7370   19.1791 H   0  0  0  0  0  0
  -30.4561  -11.5962   19.9987 H   0  0  0  0  0  0
  -29.8377  -11.7454   17.5632 H   0  0  0  0  0  0
  -29.6191  -13.4710   17.7045 H   0  0  0  0  0  0
  -27.9424  -11.2750   18.9545 H   0  0  0  0  0  0
  -27.3955  -12.4747   17.8124 H   0  0  0  0  0  0
  -27.6160  -14.2467   19.4405 H   0  0  0  0  0  0
  -28.7608  -12.2155   21.4218 H   0  0  0  0  0  0
  -28.3869  -13.8773   21.7964 H   0  0  0  0  0  0
  -25.2769   -9.5672   22.4767 H   0  0  0  0  0  0
  -24.0000   -7.4629   22.7477 H   0  0  0  0  0  0
  -21.0844   -8.8784   19.8957 H   0  0  0  0  0  0
  -22.3712  -10.9678   19.6174 H   0  0  0  0  0  0
  -21.2010   -7.6149   23.9716 H   0  0  0  0  0  0
  -21.1480   -6.0523   25.9077 H   0  0  0  0  0  0
  -22.0597   -2.7608   23.2848 H   0  0  0  0  0  0
  -22.4083  -11.9878   22.4830 H   0  0  0  0  0  0
  -21.1084  -13.1242   22.2641 H   0  0  0  0  0  0
  -24.6295  -15.8261   20.4770 H   0  0  0  0  0  0
  -26.2182  -15.6066   19.9499 H   0  0  0  0  0  0
  -26.7265  -32.5316   23.1014 H   0  0  0  0  0  0
  -25.0077  -33.9626   25.0333 H   0  0  0  0  0  0
  -22.7472  -31.2910   21.3818 H   0  0  0  0  0  0
  -23.3757  -35.9590   23.3292 H   0  0  0  0  0  0
  -24.3578  -36.8903   22.2059 H   0  0  0  0  0  0
  -23.7245  -37.6454   23.6684 H   0  0  0  0  0  0
  -26.1536  -31.4794   20.6136 H   0  0  0  0  0  0
  -26.8721  -30.7754   22.0269 H   0  0  0  0  0  0
  -28.1335  -28.8156   21.2313 H   0  0  0  0  0  0
  -25.9102  -25.8553   19.0018 H   0  0  0  0  0  0
  -23.9801  -27.3016   18.9846 H   0  0  0  0  0  0
  -23.8070  -30.5716   19.3992 H   0  0  0  0  0  0
  -22.7864  -29.2380   19.8427 H   0  0  0  0  0  0
  -25.1309  -36.1869   25.0810 H   0  0  0  0  0  0
  -21.0010  -28.3306   24.1360 H   0  0  0  0  0  0
  -20.5685  -26.2330   23.3621 H   0  0  0  0  0  0
  -21.6654  -26.7429   22.1199 H   0  0  0  0  0  0
  -19.6921  -25.6286   21.1255 H   0  0  0  0  0  0
  -19.6694  -27.3179   20.6734 H   0  0  0  0  0  0
  -17.4210  -26.6673   21.4035 H   0  0  0  0  0  0
  -18.0346  -26.0078   22.9030 H   0  0  0  0  0  0
  -19.7952  -30.7291   24.2241 H   0  0  0  0  0  0
  -17.5025  -31.6268   24.5163 H   0  0  0  0  0  0
  -15.5364  -30.2977   23.7663 H   0  0  0  0  0  0
  -15.8691  -28.0808   22.7085 H   0  0  0  0  0  0
  -24.5894  -30.7094   25.7734 H   0  0  0  0  0  0
  -24.8898  -32.2930   26.4792 H   0  0  0  0  0  0
  -25.7998  -30.8952   27.0222 H   0  0  0  0  0  0
  -26.2998  -29.6690   24.1281 H   0  0  0  0  0  0
  -27.3997  -29.7256   25.4848 H   0  0  0  0  0  0
  -27.8906  -30.4204   23.9597 H   0  0  0  0  0  0
  -27.2645  -33.3646   26.2028 H   0  0  0  0  0  0
  -28.3892  -32.6860   25.0352 H   0  0  0  0  0  0
  -28.0689  -31.8488   26.5463 H   0  0  0  0  0  0
  -28.2585  -38.0091   24.7510 H   0  0  0  0  0  0
  -28.1079  -36.2622   24.6295 H   0  0  0  0  0  0
  -27.2293  -37.1437   25.8868 H   0  0  0  0  0  0
  -20.9461  -29.8768   21.6802 H   0  0  0  0  0  0
  -26.0155  -38.2818   24.1409 H   0  0  0  0  0  0
  -31.5349  -18.2525   20.2974 H   0  0  0  0  0  0
  -31.0171  -20.6732   20.1773 H   0  0  0  0  0  0
  -27.3590  -17.4297   20.7477 H   0  0  0  0  0  0
  -27.1214  -24.4889   20.7294 H   0  0  0  0  0  0
  -27.6025  -24.5258   19.0670 H   0  0  0  0  0  0
  -29.4518  -23.4117   21.2888 H   0  0  0  0  0  0
  -29.7707  -23.3307   19.5826 H   0  0  0  0  0  0
  -28.7268  -15.5824   20.8973 H   0  0  0  0  0  0
  1 25  1  0  0  0
  1 30  2  0  0  0
  1 79  1  0  0  0
  2  3  1  0  0  0
  2 25  1  0  0  0
  2 82  1  0  0  0
  2 83  1  0  0  0
  3  4  1  0  0  0
  3 84  1  0  0  0
  3 85  1  0  0  0
  4  5  1  0  0  0
  4 86  1  0  0  0
  4 87  1  0  0  0
  5  6  1  0  0  0
  5 26  1  0  0  0
  5 88  1  0  0  0
  6 25  1  0  0  0
  6 89  1  0  0  0
  6 90  1  0  0  0
  7  8  2  0  0  0
  7 26  1  0  0  0
  7 29  1  0  0  0
  8  9  1  0  0  0
  8 22  1  0  0  0
  9 10  1  0  0  0
  9 27  2  0  0  0
 10 11  2  0  0  0
 10 15  1  0  0  0
 11 12  1  0  0  0
 11 91  1  0  0  0
 12 13  2  0  0  0
 12 92  1  0  0  0
 13 14  1  0  0  0
 13 31  1  0  0  0
 14 15  2  0  0  0
 14 93  1  0  0  0
 15 94  1  0  0  0
 16 17  2  0  0  0
 16 21  1  0  0  0
 16 31  1  0  0  0
 17 18  1  0  0  0
 17 95  1  0  0  0
 18 19  2  0  0  0
 18 96  1  0  0  0
 19 20  1  0  0  0
 19 24  1  0  0  0
 20 21  2  0  0  0
 20 97  1  0  0  0
 21 23  1  0  0  0
 22 28  1  0  0  0
 22 32  2  0  0  0
 26 27  1  0  0  0
 28 98  1  0  0  0
 28 99  1  0  0  0
 29100  1  0  0  0
 29101  1  0  0  0
 33 34  1  0  0  0
 33 66  1  0  0  0
 33 70  2  0  0  0
 34 36  1  0  0  0
 34 59  1  0  0  0
 34102  1  0  0  0
 35 44  2  0  0  0
 35 45  1  0  0  0
 35 68  1  0  0  0
 36 56  1  0  0  0
 36103  1  0  0  0
 37 39  1  0  0  0
 37 47  1  0  0  0
 37 66  1  0  0  0
 37104  1  0  0  0
 38 43  2  0  0  0
 38 46  1  0  0  0
 38 47  1  0  0  0
 39 64  1  0  0  0
 39 67  2  0  0  0
 40 52  1  0  0  0
 40 53  2  0  0  0
 40 58  1  0  0  0
 41105  1  0  0  0
 41106  1  0  0  0
 41107  1  0  0  0
 41 48  1  0  0  0
 42 43  1  0  0  0
 42 66  1  0  0  0
 42108  1  0  0  0
 42109  1  0  0  0
 43 44  1  0  0  0
 44110  1  0  0  0
 45 46  2  0  0  0
 45111  1  0  0  0
 46112  1  0  0  0
 47113  1  0  0  0
 47114  1  0  0  0
 48 56  1  0  0  0
 48 65  1  0  0  0
 48115  1  0  0  0
 49 50  1  0  0  0
 49 53  1  0  0  0
 49 64  1  0  0  0
 49116  1  0  0  0
 50 51  1  0  0  0
 50117  1  0  0  0
 50118  1  0  0  0
 51 52  1  0  0  0
 51119  1  0  0  0
 51120  1  0  0  0
 52121  1  0  0  0
 52122  1  0  0  0
 53 54  1  0  0  0
 54 55  2  0  0  0
 54123  1  0  0  0
 55 57  1  0  0  0
 55124  1  0  0  0
 56 69  2  0  0  0
 57 58  2  0  0  0
 57125  1  0  0  0
 58126  1  0  0  0
 59 60  1  0  0  0
 59 61  1  0  0  0
 59 62  1  0  0  0
 60127  1  0  0  0
 60128  1  0  0  0
 60129  1  0  0  0
 61130  1  0  0  0
 61131  1  0  0  0
 61132  1  0  0  0
 62133  1  0  0  0
 62134  1  0  0  0
 62135  1  0  0  0
 63 65  1  0  0  0
 63136  1  0  0  0
 63137  1  0  0  0
 63138  1  0  0  0
 64139  1  0  0  0
 65140  1  0  0  0
 68 77  1  0  0  0
 71 72  2  0  0  0
 71 74  1  0  0  0
 71141  1  0  0  0
 72 75  1  0  0  0
 72142  1  0  0  0
 73 74  2  0  0  0
 73 76  1  0  0  0
 73143  1  0  0  0
 74 79  1  0  0  0
 75 76  2  0  0  0
 75 80  1  0  0  0
 76 81  1  0  0  0
 77 78  1  0  0  0
 77144  1  0  0  0
 77145  1  0  0  0
 78 80  1  0  0  0
 78146  1  0  0  0
 78147  1  0  0  0
 79148  1  0  0  0
M  ISO  4   1 100  68 101  77 101  79 100
M  END
> <chiral flag>
0

> <version>
0

> <s_m_source_file>
/data/baiqing/PycharmProjects/Reinvent-master-3.2/result/LINK_invent/BTK/process_docking_weight1_custom_product_contain_oxygen_bond_distance_aromatic_linkinvent_7_9_3/rearranged_h_0010.sdf

> <i_m_source_file_index>
84

> <r_mmod_Potential_Energy-OPLS-2005>
491.091247558594

> <r_mmod_Stretch_Energy-OPLS-2005>
216.953765869141

> <r_mmod_Bend_Energy-OPLS-2005>
302.484619140625

> <r_mmod_Torsional_Energy-OPLS-2005>
212.021713256836

> <r_mmod_Improper_Torsional_Energy-OPLS-2005>
4.76716709136963

> <r_mmod_Van_der_Waal_Energy-OPLS-2005>
130.573699951172

> <r_mmod_Electrostatic_Energy-OPLS-2005>
-337.487060546875

> <r_mmod_Solvation_Energy-OPLS-2005>
-212.451721191406

> <b_mmod_Minimization_Converged-OPLS-2005>
0

> <r_mmod_RMS_Derivative-OPLS-2005>
0.366873770952225

$$$$
84
                    3D
 Structure written by MMmdl.
151159  0  0  1  0            999 V2000
  -30.5629  -14.9226   20.4887 C   0  0  0  0  0  0
  -30.4318  -12.5805   19.5101 C   0  0  0  0  0  0
  -29.5187  -12.5274   18.2645 C   0  0  0  0  0  0
  -28.0560  -12.2992   18.6790 C   0  0  0  0  0  0
  -27.6258  -13.2418   19.8308 C   0  0  2  0  0  0
  -28.6526  -13.2593   20.9798 C   0  0  0  0  0  0
  -25.2440  -13.8226   20.5662 C   0  0  0  0  0  0
  -24.1757  -13.0448   20.9204 C   0  0  0  0  0  0
  -24.6370  -11.6933   20.8721 C   0  0  0  0  0  0
  -23.9070  -10.4293   21.0386 C   0  0  0  0  0  0
  -24.3619   -9.4218   21.9170 C   0  0  0  0  0  0
  -23.6301   -8.2245   22.0751 C   0  0  0  0  0  0
  -22.4284   -8.0267   21.3539 C   0  0  0  0  0  0
  -21.9912   -9.0243   20.4643 C   0  0  0  0  0  0
  -22.7239  -10.2127   20.3046 C   0  0  0  0  0  0
  -21.6851   -6.0735   22.5287 C   0  0  0  0  0  0
  -21.4015   -6.5639   23.8224 C   0  0  0  0  0  0
  -21.3663   -5.6789   24.9189 C   0  0  0  0  0  0
  -21.6038   -4.3050   24.7231 C   0  0  0  0  0  0
  -21.8824   -3.8146   23.4352 C   0  0  0  0  0  0
  -21.9200   -4.6966   22.3413 C   0  0  0  0  0  0
  -22.7788  -13.5233   21.1889 C   0  0  0  0  0  0
  -22.1663   -4.2155   21.0988 F   0  0  0  0  0  0
  -21.5627   -3.4531   25.7739 F   0  0  0  0  0  0
  -29.9497  -13.6676   20.4135 N   0  0  0  0  0  0
  -26.2828  -12.9430   20.3129 N   0  0  0  0  0  0
  -25.9283  -11.6573   20.5670 N   0  0  0  0  0  0
  -22.0441  -12.8187   22.0422 N   0  0  0  0  0  0
  -25.4083  -15.1955   20.4149 N   0  0  0  0  0  0
  -31.7043  -15.0167   20.0186 O   0  0  0  0  0  0
  -21.6636   -6.8872   21.4248 O   0  0  0  0  0  0
  -22.3468  -14.5542   20.6761 O   0  0  0  0  0  0
  -24.6426  -31.8460   23.1909 C   0  0  0  0  0  0
  -25.9199  -32.4711   23.8300 C   0  0  1  0  0  0
  -27.2017  -27.1283   20.1259 C   0  0  0  0  0  0
  -25.5954  -33.8512   24.2223 N   0  0  0  0  0  0
  -23.4469  -30.4682   21.5386 C   0  0  2  0  0  0
  -24.8912  -28.9006   20.1029 C   0  0  0  0  0  0
  -22.7572  -29.4553   22.4858 C   0  0  0  0  0  0
  -18.0321  -28.1385   22.8493 C   0  0  0  0  0  0
  -24.1471  -36.7254   23.2639 C   0  0  0  0  0  0
  -26.0040  -30.7091   21.3950 C   0  0  0  0  0  0
  -26.0684  -29.3216   20.7326 C   0  0  0  0  0  0
  -27.2226  -28.4489   20.7334 C   0  0  0  0  0  0
  -26.0026  -26.8199   19.4470 C   0  0  0  0  0  0
  -24.8716  -27.6636   19.4461 C   0  0  0  0  0  0
  -23.6699  -29.8077   20.1535 C   0  0  0  0  0  0
  -25.4102  -36.3036   24.0317 C   0  0  1  0  0  0
  -20.5937  -28.3706   23.1232 C   0  0  2  0  0  0
  -20.6805  -26.9411   22.5401 C   0  0  0  0  0  0
  -19.5754  -26.6375   21.5226 C   0  0  0  0  0  0
  -18.1940  -26.7936   22.1633 C   0  0  0  0  0  0
  -19.1582  -28.8861   23.2856 C   0  0  0  0  0  0
  -18.9499  -30.1471   23.8852 C   0  0  0  0  0  0
  -17.6490  -30.6581   24.0558 C   0  0  0  0  0  0
  -25.9065  -34.9409   23.5079 C   0  0  0  0  0  0
  -16.5377  -29.9081   23.6339 C   0  0  0  0  0  0
  -16.7311  -28.6507   23.0351 C   0  0  0  0  0  0
  -26.4528  -31.6562   25.0736 C   0  0  0  0  0  0
  -25.3710  -31.3735   26.1432 C   0  0  0  0  0  0
  -27.0408  -30.2955   24.6310 C   0  0  0  0  0  0
  -27.6059  -32.4351   25.7485 C   0  0  0  0  0  0
  -27.5581  -37.1754   24.8458 C   0  0  0  0  0  0
  -21.4267  -29.3039   22.3599 N   0  0  0  0  0  0
  -26.4264  -37.3747   23.9432 N   0  0  0  0  0  0
  -24.7184  -31.0286   22.0966 N   0  0  0  0  0  0
  -23.4219  -28.8086   23.2999 O   0  0  0  0  0  0
  -28.2396  -26.1249   20.1949 O   0  0  0  0  0  0
  -26.5647  -34.8916   22.4658 O   0  0  0  0  0  0
  -23.5548  -32.1365   23.7117 O   0  0  0  0  0  0
  -29.9175  -18.6294   21.6204 C   0  0  0  0  0  0
  -29.6026  -20.0258   21.3456 C   0  0  0  0  0  0
  -28.8403  -19.3718   19.2208 C   0  0  0  0  0  0
  -29.7256  -17.5086   20.7209 C   0  0  0  0  0  0
  -29.0219  -20.4875   20.1199 C   0  0  0  0  0  0
  -29.1705  -17.9744   19.4840 C   0  0  0  0  0  0
  -30.0518  -15.8625   22.5949 C   0  0  0  0  0  0
  -27.9577  -24.6142   19.9107 C   0  0  0  0  0  0
  -28.8429  -23.2389   20.3466 C   0  0  0  0  0  0
  -29.9532  -16.0355   21.1364 N   0  0  0  0  0  0
  -28.5721  -21.8391   19.7523 O   0  0  0  0  0  0
  -28.8915  -17.0534   18.5282 F   0  0  0  0  0  0
  -31.4653  -12.7317   19.1975 H   0  0  0  0  0  0
  -30.4233  -11.6237   20.0332 H   0  0  0  0  0  0
  -29.8448  -11.7330   17.5937 H   0  0  0  0  0  0
  -29.5991  -13.4588   17.7019 H   0  0  0  0  0  0
  -27.9704  -11.2619   19.0054 H   0  0  0  0  0  0
  -27.3921  -12.4019   17.8205 H   0  0  0  0  0  0
  -27.5969  -14.2448   19.4031 H   0  0  0  0  0  0
  -28.7196  -12.2851   21.4645 H   0  0  0  0  0  0
  -28.3075  -13.9540   21.7431 H   0  0  0  0  0  0
  -25.2771   -9.5708   22.4739 H   0  0  0  0  0  0
  -24.0022   -7.4650   22.7479 H   0  0  0  0  0  0
  -21.0842   -8.8769   19.8953 H   0  0  0  0  0  0
  -22.3694  -10.9662   19.6148 H   0  0  0  0  0  0
  -21.1996   -7.6145   23.9734 H   0  0  0  0  0  0
  -21.1475   -6.0509   25.9089 H   0  0  0  0  0  0
  -22.0593   -2.7604   23.2850 H   0  0  0  0  0  0
  -22.4073  -11.9854   22.4798 H   0  0  0  0  0  0
  -21.1042  -13.1165   22.2612 H   0  0  0  0  0  0
  -24.6418  -15.8436   20.5596 H   0  0  0  0  0  0
  -26.2579  -15.6482   20.1004 H   0  0  0  0  0  0
  -26.7247  -32.5283   23.1016 H   0  0  0  0  0  0
  -25.0060  -33.9639   25.0340 H   0  0  0  0  0  0
  -22.7492  -31.2945   21.3915 H   0  0  0  0  0  0
  -23.3763  -35.9555   23.3260 H   0  0  0  0  0  0
  -24.3565  -36.8948   22.2067 H   0  0  0  0  0  0
  -23.7221  -37.6429   23.6720 H   0  0  0  0  0  0
  -26.1615  -31.4623   20.6233 H   0  0  0  0  0  0
  -26.8731  -30.7581   22.0388 H   0  0  0  0  0  0
  -28.1159  -28.7589   21.2565 H   0  0  0  0  0  0
  -25.9027  -25.8851   18.9154 H   0  0  0  0  0  0
  -23.9767  -27.3454   18.9288 H   0  0  0  0  0  0
  -23.8105  -30.5921   19.4081 H   0  0  0  0  0  0
  -22.7804  -29.2590   19.8384 H   0  0  0  0  0  0
  -25.1284  -36.1855   25.0810 H   0  0  0  0  0  0
  -21.0039  -28.3309   24.1353 H   0  0  0  0  0  0
  -20.5740  -26.2314   23.3619 H   0  0  0  0  0  0
  -21.6661  -26.7433   22.1159 H   0  0  0  0  0  0
  -19.6907  -25.6296   21.1244 H   0  0  0  0  0  0
  -19.6683  -27.3190   20.6755 H   0  0  0  0  0  0
  -17.4219  -26.6713   21.4019 H   0  0  0  0  0  0
  -18.0304  -26.0062   22.9008 H   0  0  0  0  0  0
  -19.7978  -30.7309   24.2180 H   0  0  0  0  0  0
  -17.5053  -31.6261   24.5183 H   0  0  0  0  0  0
  -15.5390  -30.2956   23.7699 H   0  0  0  0  0  0
  -15.8713  -28.0834   22.7029 H   0  0  0  0  0  0
  -24.5896  -30.7085   25.7758 H   0  0  0  0  0  0
  -24.8879  -32.2897   26.4810 H   0  0  0  0  0  0
  -25.7987  -30.8945   27.0245 H   0  0  0  0  0  0
  -26.3033  -29.6634   24.1359 H   0  0  0  0  0  0
  -27.4089  -29.7289   25.4872 H   0  0  0  0  0  0
  -27.8907  -30.4208   23.9603 H   0  0  0  0  0  0
  -27.2679  -33.3703   26.1947 H   0  0  0  0  0  0
  -28.3891  -32.6829   25.0317 H   0  0  0  0  0  0
  -28.0694  -31.8560   26.5479 H   0  0  0  0  0  0
  -28.2528  -38.0114   24.7604 H   0  0  0  0  0  0
  -28.1159  -36.2659   24.6167 H   0  0  0  0  0  0
  -27.2319  -37.1262   25.8860 H   0  0  0  0  0  0
  -20.9466  -29.8800   21.6821 H   0  0  0  0  0  0
  -26.0133  -38.2800   24.1527 H   0  0  0  0  0  0
  -30.3106  -18.4252   22.6051 H   0  0  0  0  0  0
  -29.7880  -20.7497   22.1274 H   0  0  0  0  0  0
  -28.3949  -19.5887   18.2612 H   0  0  0  0  0  0
  -29.2589  -16.4073   23.1090 H   0  0  0  0  0  0
  -31.0133  -16.2393   22.9485 H   0  0  0  0  0  0
  -29.9836  -14.8265   22.9321 H   0  0  0  0  0  0
  -26.9541  -24.4188   20.2873 H   0  0  0  0  0  0
  -27.8553  -24.5616   18.8261 H   0  0  0  0  0  0
  -28.8174  -23.1458   21.4329 H   0  0  0  0  0  0
  -29.8815  -23.4579   20.0970 H   0  0  0  0  0  0
  1 25  1  0  0  0
  1 30  2  0  0  0
  1 80  1  0  0  0
  2  3  1  0  0  0
  2 25  1  0  0  0
  2 83  1  0  0  0
  2 84  1  0  0  0
  3  4  1  0  0  0
  3 85  1  0  0  0
  3 86  1  0  0  0
  4  5  1  0  0  0
  4 87  1  0  0  0
  4 88  1  0  0  0
  5  6  1  0  0  0
  5 26  1  0  0  0
  5 89  1  0  0  0
  6 25  1  0  0  0
  6 90  1  0  0  0
  6 91  1  0  0  0
  7  8  2  0  0  0
  7 26  1  0  0  0
  7 29  1  0  0  0
  8  9  1  0  0  0
  8 22  1  0  0  0
  9 10  1  0  0  0
  9 27  2  0  0  0
 10 11  2  0  0  0
 10 15  1  0  0  0
 11 12  1  0  0  0
 11 92  1  0  0  0
 12 13  2  0  0  0
 12 93  1  0  0  0
 13 14  1  0  0  0
 13 31  1  0  0  0
 14 15  2  0  0  0
 14 94  1  0  0  0
 15 95  1  0  0  0
 16 17  2  0  0  0
 16 21  1  0  0  0
 16 31  1  0  0  0
 17 18  1  0  0  0
 17 96  1  0  0  0
 18 19  2  0  0  0
 18 97  1  0  0  0
 19 20  1  0  0  0
 19 24  1  0  0  0
 20 21  2  0  0  0
 20 98  1  0  0  0
 21 23  1  0  0  0
 22 28  1  0  0  0
 22 32  2  0  0  0
 26 27  1  0  0  0
 28 99  1  0  0  0
 28100  1  0  0  0
 29101  1  0  0  0
 29102  1  0  0  0
 33 34  1  0  0  0
 33 66  1  0  0  0
 33 70  2  0  0  0
 34 36  1  0  0  0
 34 59  1  0  0  0
 34103  1  0  0  0
 35 44  2  0  0  0
 35 45  1  0  0  0
 35 68  1  0  0  0
 36 56  1  0  0  0
 36104  1  0  0  0
 37 39  1  0  0  0
 37 47  1  0  0  0
 37 66  1  0  0  0
 37105  1  0  0  0
 38 43  2  0  0  0
 38 46  1  0  0  0
 38 47  1  0  0  0
 39 64  1  0  0  0
 39 67  2  0  0  0
 40 52  1  0  0  0
 40 53  2  0  0  0
 40 58  1  0  0  0
 41106  1  0  0  0
 41107  1  0  0  0
 41108  1  0  0  0
 41 48  1  0  0  0
 42 43  1  0  0  0
 42 66  1  0  0  0
 42109  1  0  0  0
 42110  1  0  0  0
 43 44  1  0  0  0
 44111  1  0  0  0
 45 46  2  0  0  0
 45112  1  0  0  0
 46113  1  0  0  0
 47114  1  0  0  0
 47115  1  0  0  0
 48 56  1  0  0  0
 48 65  1  0  0  0
 48116  1  0  0  0
 49 50  1  0  0  0
 49 53  1  0  0  0
 49 64  1  0  0  0
 49117  1  0  0  0
 50 51  1  0  0  0
 50118  1  0  0  0
 50119  1  0  0  0
 51 52  1  0  0  0
 51120  1  0  0  0
 51121  1  0  0  0
 52122  1  0  0  0
 52123  1  0  0  0
 53 54  1  0  0  0
 54 55  2  0  0  0
 54124  1  0  0  0
 55 57  1  0  0  0
 55125  1  0  0  0
 56 69  2  0  0  0
 57 58  2  0  0  0
 57126  1  0  0  0
 58127  1  0  0  0
 59 60  1  0  0  0
 59 61  1  0  0  0
 59 62  1  0  0  0
 60128  1  0  0  0
 60129  1  0  0  0
 60130  1  0  0  0
 61131  1  0  0  0
 61132  1  0  0  0
 61133  1  0  0  0
 62134  1  0  0  0
 62135  1  0  0  0
 62136  1  0  0  0
 63 65  1  0  0  0
 63137  1  0  0  0
 63138  1  0  0  0
 63139  1  0  0  0
 64140  1  0  0  0
 65141  1  0  0  0
 68 78  1  0  0  0
 71 72  2  0  0  0
 71 74  1  0  0  0
 71142  1  0  0  0
 72 75  1  0  0  0
 72143  1  0  0  0
 73 75  2  0  0  0
 73 76  1  0  0  0
 73144  1  0  0  0
 74 76  2  0  0  0
 74 80  1  0  0  0
 75 81  1  0  0  0
 76 82  1  0  0  0
 77 80  1  0  0  0
 77145  1  0  0  0
 77146  1  0  0  0
 77147  1  0  0  0
 78 79  1  0  0  0
 78148  1  0  0  0
 78149  1  0  0  0
 79 81  1  0  0  0
 79150  1  0  0  0
 79151  1  0  0  0
M  ISO  4   1 100  68 101  78 101  80 100
M  END
> <chiral flag>
0

> <version>
0

> <s_m_source_file>
/data/baiqing/PycharmProjects/Reinvent-master-3.2/result/LINK_invent/BTK/process_docking_weight1_custom_product_contain_oxygen_bond_distance_aromatic_linkinvent_7_9_3/rearranged_h_0010.sdf

> <i_m_source_file_index>
85

> <r_mmod_Potential_Energy-OPLS-2005>
628.907043457031

> <r_mmod_Stretch_Energy-OPLS-2005>
245.900985717773

> <r_mmod_Bend_Energy-OPLS-2005>
286.098541259766

> <r_mmod_Torsional_Energy-OPLS-2005>
279.547088623047

> <r_mmod_Improper_Torsional_Energy-OPLS-2005>
4.31507015228271

> <r_mmod_Van_der_Waal_Energy-OPLS-2005>
140.764587402344

> <r_mmod_Electrostatic_Energy-OPLS-2005>
-320.791687011719

> <r_mmod_Solvation_Energy-OPLS-2005>
-194.976348876953

> <b_mmod_Minimization_Converged-OPLS-2005>
0

> <r_mmod_RMS_Derivative-OPLS-2005>
3.69370436668396

$$$$
85
                    3D
 Structure written by MMmdl.
153161  0  0  1  0            999 V2000
  -30.6480  -14.6317   20.4893 C   0  0  0  0  0  0
  -30.4387  -12.3859   19.4525 C   0  0  0  0  0  0
  -29.5141  -12.5083   18.2213 C   0  0  0  0  0  0
  -28.0367  -12.3437   18.6317 C   0  0  0  0  0  0
  -27.6569  -13.2155   19.8571 C   0  0  2  0  0  0
  -28.7012  -13.0854   20.9895 C   0  0  0  0  0  0
  -25.2614  -13.8143   20.5660 C   0  0  0  0  0  0
  -24.1865  -13.0440   20.9181 C   0  0  0  0  0  0
  -24.6410  -11.6900   20.8712 C   0  0  0  0  0  0
  -23.9023  -10.4313   21.0383 C   0  0  0  0  0  0
  -24.3574   -9.4257   21.9165 C   0  0  0  0  0  0
  -23.6286   -8.2280   22.0745 C   0  0  0  0  0  0
  -22.4291   -8.0273   21.3523 C   0  0  0  0  0  0
  -21.9896   -9.0238   20.4628 C   0  0  0  0  0  0
  -22.7190  -10.2143   20.3045 C   0  0  0  0  0  0
  -21.6857   -6.0726   22.5270 C   0  0  0  0  0  0
  -21.4005   -6.5625   23.8200 C   0  0  0  0  0  0
  -21.3678   -5.6775   24.9152 C   0  0  0  0  0  0
  -21.6062   -4.3038   24.7218 C   0  0  0  0  0  0
  -21.8818   -3.8133   23.4343 C   0  0  0  0  0  0
  -21.9203   -4.6953   22.3395 C   0  0  0  0  0  0
  -22.7887  -13.5272   21.1801 C   0  0  0  0  0  0
  -22.1680   -4.2141   21.0977 F   0  0  0  0  0  0
  -21.5646   -3.4530   25.7737 F   0  0  0  0  0  0
  -30.0217  -13.4144   20.4269 N   0  0  0  0  0  0
  -26.3022  -12.9318   20.3250 N   0  0  0  0  0  0
  -25.9339  -11.6473   20.5682 N   0  0  0  0  0  0
  -22.0488  -12.8317   22.0365 N   0  0  0  0  0  0
  -25.4350  -15.1852   20.4082 N   0  0  0  0  0  0
  -31.8122  -14.7688   20.1036 O   0  0  0  0  0  0
  -21.6666   -6.8870   21.4232 O   0  0  0  0  0  0
  -22.3606  -14.5585   20.6619 O   0  0  0  0  0  0
  -24.6267  -31.8619   23.2011 C   0  0  0  0  0  0
  -25.9108  -32.4808   23.8353 C   0  0  1  0  0  0
  -27.2326  -27.3343   20.0999 C   0  0  0  0  0  0
  -25.5921  -33.8606   24.2295 N   0  0  0  0  0  0
  -23.4189  -30.4866   21.5423 C   0  0  2  0  0  0
  -24.8681  -28.9441   20.1107 C   0  0  0  0  0  0
  -22.7474  -29.4646   22.4926 C   0  0  0  0  0  0
  -18.0283  -28.1405   22.8494 C   0  0  0  0  0  0
  -24.1465  -36.7310   23.2639 C   0  0  0  0  0  0
  -25.9597  -30.7985   21.3681 C   0  0  0  0  0  0
  -26.0379  -29.4262   20.7107 C   0  0  0  0  0  0
  -27.2218  -28.6320   20.6944 C   0  0  0  0  0  0
  -26.0312  -26.9006   19.4879 C   0  0  0  0  0  0
  -24.8671  -27.6870   19.4916 C   0  0  0  0  0  0
  -23.6359  -29.8198   20.1589 C   0  0  0  0  0  0
  -25.4091  -36.3111   24.0331 C   0  0  1  0  0  0
  -20.5886  -28.3701   23.1296 C   0  0  2  0  0  0
  -20.6771  -26.9424   22.5411 C   0  0  0  0  0  0
  -19.5743  -26.6397   21.5217 C   0  0  0  0  0  0
  -18.1929  -26.7945   22.1626 C   0  0  0  0  0  0
  -19.1532  -28.8866   23.2901 C   0  0  0  0  0  0
  -18.9466  -30.1473   23.8906 C   0  0  0  0  0  0
  -17.6461  -30.6608   24.0568 C   0  0  0  0  0  0
  -25.9024  -34.9467   23.5110 C   0  0  0  0  0  0
  -16.5364  -29.9113   23.6333 C   0  0  0  0  0  0
  -16.7270  -28.6531   23.0352 C   0  0  0  0  0  0
  -26.4461  -31.6639   25.0744 C   0  0  0  0  0  0
  -25.3683  -31.3808   26.1479 C   0  0  0  0  0  0
  -27.0303  -30.3064   24.6191 C   0  0  0  0  0  0
  -27.6014  -32.4372   25.7518 C   0  0  0  0  0  0
  -27.5556  -37.1826   24.8470 C   0  0  0  0  0  0
  -21.4190  -29.3056   22.3687 N   0  0  0  0  0  0
  -26.4281  -37.3803   23.9392 N   0  0  0  0  0  0
  -24.6879  -31.0637   22.0953 N   0  0  0  0  0  0
  -23.4214  -28.8179   23.3002 O   0  0  0  0  0  0
  -28.3646  -26.5035   20.1267 O   0  0  0  0  0  0
  -26.5607  -34.8931   22.4671 O   0  0  0  0  0  0
  -23.5449  -32.1385   23.7357 O   0  0  0  0  0  0
  -28.9610  -19.4109   20.9179 C   0  0  0  0  0  0
  -28.9163  -17.9885   21.0396 C   0  0  0  0  0  0
  -31.1359  -17.8212   20.1274 C   0  0  0  0  0  0
  -30.1016  -20.0784   20.3964 C   0  0  0  0  0  0
  -30.0010  -17.1490   20.6586 C   0  0  0  0  0  0
  -31.1860  -19.2424   20.0010 C   0  0  0  0  0  0
  -30.2835  -21.6430   20.3696 C   0  0  0  0  0  0
  -29.3961  -24.0712   20.2231 C   0  0  0  0  0  0
  -28.1600  -25.0424   20.0106 C   0  0  0  0  0  0
  -29.8664  -15.6996   20.8391 N   0  0  0  0  0  0
  -29.1066  -22.5734   20.1668 N   0  3  0  0  0  0
  -32.3224  -19.8095   19.5200 F   0  0  0  0  0  0
  -31.4857  -12.4940   19.1576 H   0  0  0  0  0  0
  -30.3554  -11.3915   19.8923 H   0  0  0  0  0  0
  -29.7794  -11.7550   17.4796 H   0  0  0  0  0  0
  -29.6637  -13.4752   17.7397 H   0  0  0  0  0  0
  -27.8790  -11.2902   18.8591 H   0  0  0  0  0  0
  -27.3826  -12.5690   17.7886 H   0  0  0  0  0  0
  -27.6732  -14.2494   19.5094 H   0  0  0  0  0  0
  -28.7122  -12.0712   21.3879 H   0  0  0  0  0  0
  -28.4455  -13.7335   21.8295 H   0  0  0  0  0  0
  -25.2718   -9.5766   22.4727 H   0  0  0  0  0  0
  -24.0011   -7.4691   22.7478 H   0  0  0  0  0  0
  -21.0814   -8.8707   19.8960 H   0  0  0  0  0  0
  -22.3580  -10.9653   19.6162 H   0  0  0  0  0  0
  -21.1971   -7.6131   23.9687 H   0  0  0  0  0  0
  -21.1508   -6.0511   25.9048 H   0  0  0  0  0  0
  -22.0586   -2.7606   23.2836 H   0  0  0  0  0  0
  -22.4052  -12.0033   22.4856 H   0  0  0  0  0  0
  -21.1082  -13.1332   22.2416 H   0  0  0  0  0  0
  -24.6603  -15.8319   20.4840 H   0  0  0  0  0  0
  -26.2677  -15.6142   20.0217 H   0  0  0  0  0  0
  -26.7184  -32.5456   23.1126 H   0  0  0  0  0  0
  -25.0076  -33.9763   25.0454 H   0  0  0  0  0  0
  -22.7161  -31.3089   21.3958 H   0  0  0  0  0  0
  -23.3721  -35.9652   23.3350 H   0  0  0  0  0  0
  -24.3567  -36.8885   22.2046 H   0  0  0  0  0  0
  -23.7241  -37.6533   23.6640 H   0  0  0  0  0  0
  -26.0804  -31.5615   20.5970 H   0  0  0  0  0  0
  -26.8448  -30.8583   21.9910 H   0  0  0  0  0  0
  -28.1185  -29.0014   21.1697 H   0  0  0  0  0  0
  -25.9577  -25.9445   18.9933 H   0  0  0  0  0  0
  -23.9706  -27.3144   19.0167 H   0  0  0  0  0  0
  -23.7546  -30.5930   19.3981 H   0  0  0  0  0  0
  -22.7597  -29.2445   19.8586 H   0  0  0  0  0  0
  -25.1281  -36.1950   25.0838 H   0  0  0  0  0  0
  -20.9982  -28.3240   24.1409 H   0  0  0  0  0  0
  -20.5654  -26.2304   23.3602 H   0  0  0  0  0  0
  -21.6643  -26.7447   22.1198 H   0  0  0  0  0  0
  -19.6885  -25.6301   21.1261 H   0  0  0  0  0  0
  -19.6667  -27.3191   20.6736 H   0  0  0  0  0  0
  -17.4186  -26.6710   21.4044 H   0  0  0  0  0  0
  -18.0313  -26.0101   22.9026 H   0  0  0  0  0  0
  -19.7946  -30.7297   24.2276 H   0  0  0  0  0  0
  -17.5025  -31.6285   24.5184 H   0  0  0  0  0  0
  -15.5364  -30.3024   23.7658 H   0  0  0  0  0  0
  -15.8678  -28.0870   22.7057 H   0  0  0  0  0  0
  -24.5869  -30.7137   25.7836 H   0  0  0  0  0  0
  -24.8855  -32.2999   26.4833 H   0  0  0  0  0  0
  -25.8002  -30.9061   27.0305 H   0  0  0  0  0  0
  -26.2896  -29.6852   24.1162 H   0  0  0  0  0  0
  -27.3959  -29.7302   25.4701 H   0  0  0  0  0  0
  -27.8768  -30.4381   23.9448 H   0  0  0  0  0  0
  -27.2637  -33.3701   26.2050 H   0  0  0  0  0  0
  -28.3855  -32.6900   25.0370 H   0  0  0  0  0  0
  -28.0644  -31.8525   26.5482 H   0  0  0  0  0  0
  -28.2623  -38.0082   24.7480 H   0  0  0  0  0  0
  -28.1012  -36.2615   24.6340 H   0  0  0  0  0  0
  -27.2287  -37.1540   25.8888 H   0  0  0  0  0  0
  -20.9353  -29.8851   21.6962 H   0  0  0  0  0  0
  -26.0157  -38.2880   24.1393 H   0  0  0  0  0  0
  -28.1075  -19.9824   21.2602 H   0  0  0  0  0  0
  -28.0185  -17.5459   21.4530 H   0  0  0  0  0  0
  -32.0085  -17.2651   19.8217 H   0  0  0  0  0  0
  -31.0111  -21.8849   19.5908 H   0  0  0  0  0  0
  -30.7701  -21.9099   21.3091 H   0  0  0  0  0  0
  -29.8571  -24.3050   21.1830 H   0  0  0  0  0  0
  -30.1433  -24.2961   19.4629 H   0  0  0  0  0  0
  -27.3835  -24.7661   20.7271 H   0  0  0  0  0  0
  -27.7683  -24.8234   19.0175 H   0  0  0  0  0  0
  -28.9641  -15.4156   21.1894 H   0  0  0  0  0  0
  -28.7018  -22.3508   19.2699 H   0  0  0  0  0  0
  -28.4234  -22.3524   20.8716 H   0  0  0  0  0  0
  1 25  1  0  0  0
  1 30  2  0  0  0
  1 80  1  0  0  0
  2  3  1  0  0  0
  2 25  1  0  0  0
  2 83  1  0  0  0
  2 84  1  0  0  0
  3  4  1  0  0  0
  3 85  1  0  0  0
  3 86  1  0  0  0
  4  5  1  0  0  0
  4 87  1  0  0  0
  4 88  1  0  0  0
  5  6  1  0  0  0
  5 26  1  0  0  0
  5 89  1  0  0  0
  6 25  1  0  0  0
  6 90  1  0  0  0
  6 91  1  0  0  0
  7  8  2  0  0  0
  7 26  1  0  0  0
  7 29  1  0  0  0
  8  9  1  0  0  0
  8 22  1  0  0  0
  9 10  1  0  0  0
  9 27  2  0  0  0
 10 11  2  0  0  0
 10 15  1  0  0  0
 11 12  1  0  0  0
 11 92  1  0  0  0
 12 13  2  0  0  0
 12 93  1  0  0  0
 13 14  1  0  0  0
 13 31  1  0  0  0
 14 15  2  0  0  0
 14 94  1  0  0  0
 15 95  1  0  0  0
 16 17  2  0  0  0
 16 21  1  0  0  0
 16 31  1  0  0  0
 17 18  1  0  0  0
 17 96  1  0  0  0
 18 19  2  0  0  0
 18 97  1  0  0  0
 19 20  1  0  0  0
 19 24  1  0  0  0
 20 21  2  0  0  0
 20 98  1  0  0  0
 21 23  1  0  0  0
 22 28  1  0  0  0
 22 32  2  0  0  0
 26 27  1  0  0  0
 28 99  1  0  0  0
 28100  1  0  0  0
 29101  1  0  0  0
 29102  1  0  0  0
 33 34  1  0  0  0
 33 66  1  0  0  0
 33 70  2  0  0  0
 34 36  1  0  0  0
 34 59  1  0  0  0
 34103  1  0  0  0
 35 44  2  0  0  0
 35 45  1  0  0  0
 35 68  1  0  0  0
 36 56  1  0  0  0
 36104  1  0  0  0
 37 39  1  0  0  0
 37 47  1  0  0  0
 37 66  1  0  0  0
 37105  1  0  0  0
 38 43  2  0  0  0
 38 46  1  0  0  0
 38 47  1  0  0  0
 39 64  1  0  0  0
 39 67  2  0  0  0
 40 52  1  0  0  0
 40 53  2  0  0  0
 40 58  1  0  0  0
 41106  1  0  0  0
 41107  1  0  0  0
 41108  1  0  0  0
 41 48  1  0  0  0
 42 43  1  0  0  0
 42 66  1  0  0  0
 42109  1  0  0  0
 42110  1  0  0  0
 43 44  1  0  0  0
 44111  1  0  0  0
 45 46  2  0  0  0
 45112  1  0  0  0
 46113  1  0  0  0
 47114  1  0  0  0
 47115  1  0  0  0
 48 56  1  0  0  0
 48 65  1  0  0  0
 48116  1  0  0  0
 49 50  1  0  0  0
 49 53  1  0  0  0
 49 64  1  0  0  0
 49117  1  0  0  0
 50 51  1  0  0  0
 50118  1  0  0  0
 50119  1  0  0  0
 51 52  1  0  0  0
 51120  1  0  0  0
 51121  1  0  0  0
 52122  1  0  0  0
 52123  1  0  0  0
 53 54  1  0  0  0
 54 55  2  0  0  0
 54124  1  0  0  0
 55 57  1  0  0  0
 55125  1  0  0  0
 56 69  2  0  0  0
 57 58  2  0  0  0
 57126  1  0  0  0
 58127  1  0  0  0
 59 60  1  0  0  0
 59 61  1  0  0  0
 59 62  1  0  0  0
 60128  1  0  0  0
 60129  1  0  0  0
 60130  1  0  0  0
 61131  1  0  0  0
 61132  1  0  0  0
 61133  1  0  0  0
 62134  1  0  0  0
 62135  1  0  0  0
 62136  1  0  0  0
 63 65  1  0  0  0
 63137  1  0  0  0
 63138  1  0  0  0
 63139  1  0  0  0
 64140  1  0  0  0
 65141  1  0  0  0
 68 79  1  0  0  0
 71 72  2  0  0  0
 71 74  1  0  0  0
 71142  1  0  0  0
 72 75  1  0  0  0
 72143  1  0  0  0
 73 75  2  0  0  0
 73 76  1  0  0  0
 73144  1  0  0  0
 74 76  2  0  0  0
 74 77  1  0  0  0
 75 80  1  0  0  0
 76 82  1  0  0  0
 77 81  1  0  0  0
 77145  1  0  0  0
 77146  1  0  0  0
 78 79  1  0  0  0
 78 81  1  0  0  0
 78147  1  0  0  0
 78148  1  0  0  0
 79149  1  0  0  0
 79150  1  0  0  0
 80151  1  0  0  0
 81152  1  0  0  0
 81153  1  0  0  0
M  CHG  1  81   1
M  ISO  4   1 100  68 101  79 101  80 100
M  END
> <chiral flag>
0

> <version>
0

> <s_m_source_file>
/data/baiqing/PycharmProjects/Reinvent-master-3.2/result/LINK_invent/BTK/process_docking_weight1_custom_product_contain_oxygen_bond_distance_aromatic_linkinvent_7_9_3/rearranged_h_0010.sdf

> <i_m_source_file_index>
86

> <r_mmod_Potential_Energy-OPLS-2005>
-128.206466674805

> <r_mmod_Stretch_Energy-OPLS-2005>
76.468391418457

> <r_mmod_Bend_Energy-OPLS-2005>
136.176147460938

> <r_mmod_Torsional_Energy-OPLS-2005>
205.569976806641

> <r_mmod_Improper_Torsional_Energy-OPLS-2005>
4.73843193054199

> <r_mmod_Van_der_Waal_Energy-OPLS-2005>
144.648452758789

> <r_mmod_Electrostatic_Energy-OPLS-2005>
-268.798675537109

> <r_mmod_Solvation_Energy-OPLS-2005>
-470.467864990234

> <b_mmod_Minimization_Converged-OPLS-2005>
0

> <r_mmod_RMS_Derivative-OPLS-2005>
4.79185199737549

$$$$
86
                    3D
 Structure written by MMmdl.
154162  0  0  1  0            999 V2000
  -30.6907  -14.6539   20.5121 C   0  0  0  0  0  0
  -30.4152  -12.4110   19.4624 C   0  0  0  0  0  0
  -29.4967  -12.5058   18.2276 C   0  0  0  0  0  0
  -28.0242  -12.3427   18.6440 C   0  0  0  0  0  0
  -27.6438  -13.2322   19.8576 C   0  0  2  0  0  0
  -28.6899  -13.1467   20.9917 C   0  0  0  0  0  0
  -25.2503  -13.8203   20.5710 C   0  0  0  0  0  0
  -24.1795  -13.0441   20.9209 C   0  0  0  0  0  0
  -24.6393  -11.6923   20.8755 C   0  0  0  0  0  0
  -23.9070  -10.4295   21.0412 C   0  0  0  0  0  0
  -24.3618   -9.4207   21.9187 C   0  0  0  0  0  0
  -23.6291   -8.2242   22.0755 C   0  0  0  0  0  0
  -22.4273   -8.0281   21.3546 C   0  0  0  0  0  0
  -21.9913   -9.0255   20.4646 C   0  0  0  0  0  0
  -22.7242  -10.2134   20.3059 C   0  0  0  0  0  0
  -21.6856   -6.0731   22.5275 C   0  0  0  0  0  0
  -21.4016   -6.5636   23.8207 C   0  0  0  0  0  0
  -21.3659   -5.6791   24.9171 C   0  0  0  0  0  0
  -21.6045   -4.3053   24.7225 C   0  0  0  0  0  0
  -21.8820   -3.8142   23.4346 C   0  0  0  0  0  0
  -21.9193   -4.6958   22.3400 C   0  0  0  0  0  0
  -22.7812  -13.5216   21.1860 C   0  0  0  0  0  0
  -22.1661   -4.2143   21.0979 F   0  0  0  0  0  0
  -21.5630   -3.4538   25.7737 F   0  0  0  0  0  0
  -30.0012  -13.4681   20.4132 N   0  0  0  0  0  0
  -26.2948  -12.9420   20.3332 N   0  0  0  0  0  0
  -25.9329  -11.6559   20.5783 N   0  0  0  0  0  0
  -22.0464  -12.8209   22.0420 N   0  0  0  0  0  0
  -25.4161  -15.1926   20.4106 N   0  0  0  0  0  0
  -31.8483  -14.7290   20.0888 O   0  0  0  0  0  0
  -21.6641   -6.8874   21.4237 O   0  0  0  0  0  0
  -22.3492  -14.5520   20.6703 O   0  0  0  0  0  0
  -24.6289  -31.8594   23.2027 C   0  0  0  0  0  0
  -25.9134  -32.4767   23.8358 C   0  0  1  0  0  0
  -27.2101  -27.2874   20.1177 C   0  0  0  0  0  0
  -25.5945  -33.8570   24.2274 N   0  0  0  0  0  0
  -23.4233  -30.4856   21.5459 C   0  0  2  0  0  0
  -24.8674  -28.9437   20.1070 C   0  0  0  0  0  0
  -22.7490  -29.4622   22.4914 C   0  0  0  0  0  0
  -18.0291  -28.1380   22.8488 C   0  0  0  0  0  0
  -24.1490  -36.7287   23.2635 C   0  0  0  0  0  0
  -25.9685  -30.7782   21.3818 C   0  0  0  0  0  0
  -26.0383  -29.4047   20.7214 C   0  0  0  0  0  0
  -27.2118  -28.5872   20.7209 C   0  0  0  0  0  0
  -26.0213  -26.9040   19.4519 C   0  0  0  0  0  0
  -24.8630  -27.7000   19.4622 C   0  0  0  0  0  0
  -23.6385  -29.8283   20.1586 C   0  0  0  0  0  0
  -25.4117  -36.3076   24.0320 C   0  0  1  0  0  0
  -20.5896  -28.3695   23.1266 C   0  0  2  0  0  0
  -20.6784  -26.9415   22.5400 C   0  0  0  0  0  0
  -19.5754  -26.6383   21.5207 C   0  0  0  0  0  0
  -18.1934  -26.7925   22.1623 C   0  0  0  0  0  0
  -19.1547  -28.8855   23.2873 C   0  0  0  0  0  0
  -18.9472  -30.1458   23.8887 C   0  0  0  0  0  0
  -17.6473  -30.6584   24.0564 C   0  0  0  0  0  0
  -25.9058  -34.9444   23.5096 C   0  0  0  0  0  0
  -16.5363  -29.9085   23.6327 C   0  0  0  0  0  0
  -16.7281  -28.6501   23.0349 C   0  0  0  0  0  0
  -26.4502  -31.6581   25.0739 C   0  0  0  0  0  0
  -25.3722  -31.3741   26.1456 C   0  0  0  0  0  0
  -27.0342  -30.2993   24.6229 C   0  0  0  0  0  0
  -27.6056  -32.4323   25.7508 C   0  0  0  0  0  0
  -27.5578  -37.1798   24.8465 C   0  0  0  0  0  0
  -21.4201  -29.3053   22.3661 N   0  0  0  0  0  0
  -26.4292  -37.3775   23.9408 N   0  0  0  0  0  0
  -24.6925  -31.0582   22.0995 N   0  0  0  0  0  0
  -23.4203  -28.8147   23.2992 O   0  0  0  0  0  0
  -28.2996  -26.3929   20.2032 O   0  0  0  0  0  0
  -26.5620  -34.8908   22.4657 O   0  0  0  0  0  0
  -23.5443  -32.1411   23.7336 O   0  0  0  0  0  0
  -29.7502  -18.9197   19.1597 C   0  0  0  0  0  0
  -29.6825  -20.3328   18.9832 C   0  0  0  0  0  0
  -28.8256  -20.5972   21.2038 C   0  0  0  0  0  0
  -29.3198  -18.2842   20.3517 C   0  0  0  0  0  0
  -29.1991  -21.2220   19.9796 C   0  0  0  0  0  0
  -28.8704  -19.1707   21.3784 C   0  0  0  0  0  0
  -30.8922  -16.4364   22.1391 C   0  0  0  0  0  0
  -29.1525  -16.7038   20.4027 C   0  0  0  0  0  0
  -28.0607  -24.9460   19.9051 C   0  0  0  0  0  0
  -28.9179  -23.7407   20.5252 C   0  0  0  0  0  0
  -30.1120  -15.7649   21.0971 N   0  0  0  0  0  0
  -29.0767  -22.5886   19.6210 O   0  0  0  0  0  0
  -28.4132  -18.6478   22.5407 F   0  0  0  0  0  0
  -31.4595  -12.5000   19.1591 H   0  0  0  0  0  0
  -30.3291  -11.4293   19.9311 H   0  0  0  0  0  0
  -29.7642  -11.7405   17.4975 H   0  0  0  0  0  0
  -29.6373  -13.4667   17.7306 H   0  0  0  0  0  0
  -27.8692  -11.2921   18.8929 H   0  0  0  0  0  0
  -27.3660  -12.5538   17.8003 H   0  0  0  0  0  0
  -27.6443  -14.2581   19.4907 H   0  0  0  0  0  0
  -28.7063  -12.1481   21.4311 H   0  0  0  0  0  0
  -28.4352  -13.8321   21.8013 H   0  0  0  0  0  0
  -25.2762   -9.5683   22.4764 H   0  0  0  0  0  0
  -23.9999   -7.4635   22.7478 H   0  0  0  0  0  0
  -21.0843   -8.8772   19.8955 H   0  0  0  0  0  0
  -22.3697  -10.9673   19.6169 H   0  0  0  0  0  0
  -21.2010   -7.6145   23.9709 H   0  0  0  0  0  0
  -21.1482   -6.0522   25.9074 H   0  0  0  0  0  0
  -22.0601   -2.7605   23.2847 H   0  0  0  0  0  0
  -22.4088  -11.9874   22.4809 H   0  0  0  0  0  0
  -21.1081  -13.1231   22.2631 H   0  0  0  0  0  0
  -24.6454  -15.8424   20.5234 H   0  0  0  0  0  0
  -26.2609  -15.6359   20.0762 H   0  0  0  0  0  0
  -26.7198  -32.5424   23.1098 H   0  0  0  0  0  0
  -25.0112  -33.9712   25.0436 H   0  0  0  0  0  0
  -22.7182  -31.3076   21.4054 H   0  0  0  0  0  0
  -23.3747  -35.9621   23.3298 H   0  0  0  0  0  0
  -24.3581  -36.8912   22.2049 H   0  0  0  0  0  0
  -23.7247  -37.6492   23.6661 H   0  0  0  0  0  0
  -26.1080  -31.5411   20.6145 H   0  0  0  0  0  0
  -26.8456  -30.8230   22.0154 H   0  0  0  0  0  0
  -28.1062  -28.9311   21.2211 H   0  0  0  0  0  0
  -25.9442  -25.9681   18.9196 H   0  0  0  0  0  0
  -23.9703  -27.3491   18.9627 H   0  0  0  0  0  0
  -23.7629  -30.6092   19.4075 H   0  0  0  0  0  0
  -22.7560  -29.2642   19.8513 H   0  0  0  0  0  0
  -25.1292  -36.1923   25.0809 H   0  0  0  0  0  0
  -20.9994  -28.3279   24.1384 H   0  0  0  0  0  0
  -20.5686  -26.2305   23.3604 H   0  0  0  0  0  0
  -21.6648  -26.7437   22.1187 H   0  0  0  0  0  0
  -19.6914  -25.6292   21.1242 H   0  0  0  0  0  0
  -19.6686  -27.3187   20.6730 H   0  0  0  0  0  0
  -17.4203  -26.6672   21.4029 H   0  0  0  0  0  0
  -18.0339  -26.0060   22.9012 H   0  0  0  0  0  0
  -19.7949  -30.7281   24.2239 H   0  0  0  0  0  0
  -17.5028  -31.6260   24.5177 H   0  0  0  0  0  0
  -15.5363  -30.2989   23.7654 H   0  0  0  0  0  0
  -15.8678  -28.0825   22.7055 H   0  0  0  0  0  0
  -24.5904  -30.7070   25.7806 H   0  0  0  0  0  0
  -24.8894  -32.2909   26.4850 H   0  0  0  0  0  0
  -25.8029  -30.8958   27.0260 H   0  0  0  0  0  0
  -26.2929  -29.6749   24.1231 H   0  0  0  0  0  0
  -27.3994  -29.7248   25.4754 H   0  0  0  0  0  0
  -27.8818  -30.4249   23.9485 H   0  0  0  0  0  0
  -27.2667  -33.3641   26.2045 H   0  0  0  0  0  0
  -28.3887  -32.6860   25.0348 H   0  0  0  0  0  0
  -28.0700  -31.8479   26.5459 H   0  0  0  0  0  0
  -28.2589  -38.0103   24.7516 H   0  0  0  0  0  0
  -28.1079  -36.2632   24.6284 H   0  0  0  0  0  0
  -27.2296  -37.1445   25.8869 H   0  0  0  0  0  0
  -20.9383  -29.8800   21.6888 H   0  0  0  0  0  0
  -26.0166  -38.2845   24.1423 H   0  0  0  0  0  0
  -30.0838  -18.3117   18.3303 H   0  0  0  0  0  0
  -29.9819  -20.7423   18.0280 H   0  0  0  0  0  0
  -28.4384  -21.1959   22.0143 H   0  0  0  0  0  0
  -30.2371  -16.9370   22.8511 H   0  0  0  0  0  0
  -31.5640  -17.1778   21.7039 H   0  0  0  0  0  0
  -31.5006  -15.7312   22.7094 H   0  0  0  0  0  0
  -29.0445  -16.3625   19.3716 H   0  0  0  0  0  0
  -28.1784  -16.5164   20.8550 H   0  0  0  0  0  0
  -27.0395  -24.6795   20.1755 H   0  0  0  0  0  0
  -28.1153  -24.8580   18.8193 H   0  0  0  0  0  0
  -28.4852  -23.4358   21.4778 H   0  0  0  0  0  0
  -29.9213  -24.1020   20.7504 H   0  0  0  0  0  0
  1 25  1  0  0  0
  1 30  2  0  0  0
  1 81  1  0  0  0
  2  3  1  0  0  0
  2 25  1  0  0  0
  2 84  1  0  0  0
  2 85  1  0  0  0
  3  4  1  0  0  0
  3 86  1  0  0  0
  3 87  1  0  0  0
  4  5  1  0  0  0
  4 88  1  0  0  0
  4 89  1  0  0  0
  5  6  1  0  0  0
  5 26  1  0  0  0
  5 90  1  0  0  0
  6 25  1  0  0  0
  6 91  1  0  0  0
  6 92  1  0  0  0
  7  8  2  0  0  0
  7 26  1  0  0  0
  7 29  1  0  0  0
  8  9  1  0  0  0
  8 22  1  0  0  0
  9 10  1  0  0  0
  9 27  2  0  0  0
 10 11  2  0  0  0
 10 15  1  0  0  0
 11 12  1  0  0  0
 11 93  1  0  0  0
 12 13  2  0  0  0
 12 94  1  0  0  0
 13 14  1  0  0  0
 13 31  1  0  0  0
 14 15  2  0  0  0
 14 95  1  0  0  0
 15 96  1  0  0  0
 16 17  2  0  0  0
 16 21  1  0  0  0
 16 31  1  0  0  0
 17 18  1  0  0  0
 17 97  1  0  0  0
 18 19  2  0  0  0
 18 98  1  0  0  0
 19 20  1  0  0  0
 19 24  1  0  0  0
 20 21  2  0  0  0
 20 99  1  0  0  0
 21 23  1  0  0  0
 22 28  1  0  0  0
 22 32  2  0  0  0
 26 27  1  0  0  0
 28100  1  0  0  0
 28101  1  0  0  0
 29102  1  0  0  0
 29103  1  0  0  0
 33 34  1  0  0  0
 33 66  1  0  0  0
 33 70  2  0  0  0
 34 36  1  0  0  0
 34 59  1  0  0  0
 34104  1  0  0  0
 35 44  2  0  0  0
 35 45  1  0  0  0
 35 68  1  0  0  0
 36 56  1  0  0  0
 36105  1  0  0  0
 37 39  1  0  0  0
 37 47  1  0  0  0
 37 66  1  0  0  0
 37106  1  0  0  0
 38 43  2  0  0  0
 38 46  1  0  0  0
 38 47  1  0  0  0
 39 64  1  0  0  0
 39 67  2  0  0  0
 40 52  1  0  0  0
 40 53  2  0  0  0
 40 58  1  0  0  0
 41107  1  0  0  0
 41108  1  0  0  0
 41109  1  0  0  0
 41 48  1  0  0  0
 42 43  1  0  0  0
 42 66  1  0  0  0
 42110  1  0  0  0
 42111  1  0  0  0
 43 44  1  0  0  0
 44112  1  0  0  0
 45 46  2  0  0  0
 45113  1  0  0  0
 46114  1  0  0  0
 47115  1  0  0  0
 47116  1  0  0  0
 48 56  1  0  0  0
 48 65  1  0  0  0
 48117  1  0  0  0
 49 50  1  0  0  0
 49 53  1  0  0  0
 49 64  1  0  0  0
 49118  1  0  0  0
 50 51  1  0  0  0
 50119  1  0  0  0
 50120  1  0  0  0
 51 52  1  0  0  0
 51121  1  0  0  0
 51122  1  0  0  0
 52123  1  0  0  0
 52124  1  0  0  0
 53 54  1  0  0  0
 54 55  2  0  0  0
 54125  1  0  0  0
 55 57  1  0  0  0
 55126  1  0  0  0
 56 69  2  0  0  0
 57 58  2  0  0  0
 57127  1  0  0  0
 58128  1  0  0  0
 59 60  1  0  0  0
 59 61  1  0  0  0
 59 62  1  0  0  0
 60129  1  0  0  0
 60130  1  0  0  0
 60131  1  0  0  0
 61132  1  0  0  0
 61133  1  0  0  0
 61134  1  0  0  0
 62135  1  0  0  0
 62136  1  0  0  0
 62137  1  0  0  0
 63 65  1  0  0  0
 63138  1  0  0  0
 63139  1  0  0  0
 63140  1  0  0  0
 64141  1  0  0  0
 65142  1  0  0  0
 68 79  1  0  0  0
 71 72  2  0  0  0
 71 74  1  0  0  0
 71143  1  0  0  0
 72 75  1  0  0  0
 72144  1  0  0  0
 73 75  2  0  0  0
 73 76  1  0  0  0
 73145  1  0  0  0
 74 76  2  0  0  0
 74 78  1  0  0  0
 75 82  1  0  0  0
 76 83  1  0  0  0
 77 81  1  0  0  0
 77146  1  0  0  0
 77147  1  0  0  0
 77148  1  0  0  0
 78 81  1  0  0  0
 78149  1  0  0  0
 78150  1  0  0  0
 79 80  1  0  0  0
 79151  1  0  0  0
 79152  1  0  0  0
 80 82  1  0  0  0
 80153  1  0  0  0
 80154  1  0  0  0
M  ISO  4   1 100  68 101  79 101  81 100
M  END
> <chiral flag>
0

> <version>
0

> <s_m_source_file>
/data/baiqing/PycharmProjects/Reinvent-master-3.2/result/LINK_invent/BTK/process_docking_weight1_custom_product_contain_oxygen_bond_distance_aromatic_linkinvent_7_9_3/rearranged_h_0010.sdf

> <i_m_source_file_index>
87

> <r_mmod_Potential_Energy-OPLS-2005>
272.889465332031

> <r_mmod_Stretch_Energy-OPLS-2005>
94.9128341674805

> <r_mmod_Bend_Energy-OPLS-2005>
180.459259033203

> <r_mmod_Torsional_Energy-OPLS-2005>
280.204711914062

> <r_mmod_Improper_Torsional_Energy-OPLS-2005>
5.11675024032593

> <r_mmod_Van_der_Waal_Energy-OPLS-2005>
144.310485839844

> <r_mmod_Electrostatic_Energy-OPLS-2005>
-298.245025634766

> <r_mmod_Solvation_Energy-OPLS-2005>
-196.704925537109

> <b_mmod_Minimization_Converged-OPLS-2005>
0

> <r_mmod_RMS_Derivative-OPLS-2005>
0.964780151844025

$$$$
87
                    3D
 Structure written by MMmdl.
154162  0  0  1  0            999 V2000
  -30.6401  -14.8354   20.3550 C   0  0  0  0  0  0
  -30.4511  -12.5033   19.4608 C   0  0  0  0  0  0
  -29.5177  -12.5013   18.2296 C   0  0  0  0  0  0
  -28.0505  -12.3202   18.6633 C   0  0  0  0  0  0
  -27.6498  -13.2499   19.8400 C   0  0  2  0  0  0
  -28.7122  -13.2584   20.9658 C   0  0  0  0  0  0
  -25.2585  -13.8246   20.5733 C   0  0  0  0  0  0
  -24.1866  -13.0448   20.9240 C   0  0  0  0  0  0
  -24.6486  -11.6945   20.8780 C   0  0  0  0  0  0
  -23.9147  -10.4313   21.0433 C   0  0  0  0  0  0
  -24.3676   -9.4226   21.9221 C   0  0  0  0  0  0
  -23.6341   -8.2268   22.0764 C   0  0  0  0  0  0
  -22.4334   -8.0315   21.3549 C   0  0  0  0  0  0
  -21.9983   -9.0284   20.4657 C   0  0  0  0  0  0
  -22.7308  -10.2160   20.3084 C   0  0  0  0  0  0
  -21.6845   -6.0774   22.5263 C   0  0  0  0  0  0
  -21.4001   -6.5667   23.8204 C   0  0  0  0  0  0
  -21.3659   -5.6806   24.9160 C   0  0  0  0  0  0
  -21.6037   -4.3075   24.7206 C   0  0  0  0  0  0
  -21.8820   -3.8176   23.4329 C   0  0  0  0  0  0
  -21.9197   -4.7000   22.3386 C   0  0  0  0  0  0
  -22.7894  -13.5250   21.1846 C   0  0  0  0  0  0
  -22.1669   -4.2196   21.0962 F   0  0  0  0  0  0
  -21.5631   -3.4552   25.7720 F   0  0  0  0  0  0
  -30.0088  -13.6005   20.3584 N   0  0  0  0  0  0
  -26.3040  -12.9484   20.3325 N   0  0  0  0  0  0
  -25.9449  -11.6610   20.5790 N   0  0  0  0  0  0
  -22.0519  -12.8225   22.0388 N   0  0  0  0  0  0
  -25.4180  -15.1968   20.4112 N   0  0  0  0  0  0
  -31.8309  -14.8986   20.0457 O   0  0  0  0  0  0
  -21.6641   -6.8935   21.4245 O   0  0  0  0  0  0
  -22.3584  -14.5532   20.6670 O   0  0  0  0  0  0
  -24.6321  -31.8520   23.1963 C   0  0  0  0  0  0
  -25.9125  -32.4752   23.8314 C   0  0  1  0  0  0
  -27.2379  -27.2654   20.0964 C   0  0  0  0  0  0
  -25.5933  -33.8540   24.2238 N   0  0  0  0  0  0
  -23.4318  -30.4758   21.5422 C   0  0  2  0  0  0
  -24.8783  -28.9165   20.1173 C   0  0  0  0  0  0
  -22.7539  -29.4559   22.4900 C   0  0  0  0  0  0
  -18.0308  -28.1425   22.8498 C   0  0  0  0  0  0
  -24.1427  -36.7194   23.2647 C   0  0  0  0  0  0
  -25.9781  -30.7624   21.3788 C   0  0  0  0  0  0
  -26.0532  -29.3832   20.7199 C   0  0  0  0  0  0
  -27.2341  -28.5691   20.7010 C   0  0  0  0  0  0
  -26.0331  -26.8652   19.4704 C   0  0  0  0  0  0
  -24.8708  -27.6604   19.4894 C   0  0  0  0  0  0
  -23.6515  -29.8084   20.1623 C   0  0  0  0  0  0
  -25.4071  -36.3042   24.0350 C   0  0  1  0  0  0
  -20.5903  -28.3694   23.1271 C   0  0  2  0  0  0
  -20.6805  -26.9412   22.5411 C   0  0  0  0  0  0
  -19.5774  -26.6420   21.5215 C   0  0  0  0  0  0
  -18.1946  -26.7984   22.1636 C   0  0  0  0  0  0
  -19.1569  -28.8878   23.2885 C   0  0  0  0  0  0
  -18.9514  -30.1493   23.8907 C   0  0  0  0  0  0
  -17.6505  -30.6640   24.0570 C   0  0  0  0  0  0
  -25.9022  -34.9433   23.5090 C   0  0  0  0  0  0
  -16.5379  -29.9140   23.6347 C   0  0  0  0  0  0
  -16.7277  -28.6565   23.0358 C   0  0  0  0  0  0
  -26.4474  -31.6574   25.0706 C   0  0  0  0  0  0
  -25.3643  -31.3746   26.1375 C   0  0  0  0  0  0
  -27.0361  -30.3003   24.6189 C   0  0  0  0  0  0
  -27.6029  -32.4305   25.7488 C   0  0  0  0  0  0
  -27.5542  -37.1748   24.8496 C   0  0  0  0  0  0
  -21.4232  -29.3019   22.3669 N   0  0  0  0  0  0
  -26.4244  -37.3765   23.9456 N   0  0  0  0  0  0
  -24.7010  -31.0467   22.0958 N   0  0  0  0  0  0
  -23.4229  -28.8088   23.3010 O   0  0  0  0  0  0
  -28.3613  -26.4015   20.0547 O   0  0  0  0  0  0
  -26.5603  -34.8935   22.4654 O   0  0  0  0  0  0
  -23.5462  -32.1323   23.7253 O   0  0  0  0  0  0
  -31.1415  -20.9410   21.5840 C   0  0  0  0  0  0
  -32.1454  -20.4131   22.4157 C   0  0  0  0  0  0
  -31.6829  -18.2021   21.5539 C   0  0  0  0  0  0
  -30.6332  -18.6671   20.7226 C   0  0  0  0  0  0
  -30.3563  -20.1409   20.7025 C   0  0  0  0  0  0
  -32.4324  -19.0473   22.3810 C   0  0  0  0  0  0
  -30.0080  -17.4525   19.8953 C   0  0  0  0  0  0
  -29.0879  -23.7164   19.7309 C   0  0  0  0  0  0
  -28.2013  -24.9360   20.3701 C   0  0  0  0  0  0
  -28.8317  -22.2161   20.3339 C   0  0  0  0  0  0
  -29.8711  -15.9987   20.4542 N   0  0  0  0  0  0
  -29.4543  -20.8989   19.8861 O   0  0  0  0  0  0
  -33.4273  -18.5391   23.1474 F   0  0  0  0  0  0
  -31.4837  -12.6290   19.1268 H   0  0  0  0  0  0
  -30.4190  -11.5445   19.9759 H   0  0  0  0  0  0
  -29.8013  -11.7058   17.5386 H   0  0  0  0  0  0
  -29.6289  -13.4388   17.6810 H   0  0  0  0  0  0
  -27.9306  -11.2761   18.9604 H   0  0  0  0  0  0
  -27.3814  -12.4699   17.8142 H   0  0  0  0  0  0
  -27.6191  -14.2536   19.4184 H   0  0  0  0  0  0
  -28.7707  -12.2939   21.4723 H   0  0  0  0  0  0
  -28.4505  -13.9971   21.7249 H   0  0  0  0  0  0
  -25.2813   -9.5677   22.4799 H   0  0  0  0  0  0
  -24.0011   -7.4676   22.7511 H   0  0  0  0  0  0
  -21.0902   -8.8858   19.8977 H   0  0  0  0  0  0
  -22.3811  -10.9727   19.6193 H   0  0  0  0  0  0
  -21.1980   -7.6174   23.9716 H   0  0  0  0  0  0
  -21.1474   -6.0533   25.9055 H   0  0  0  0  0  0
  -22.0605   -2.7644   23.2794 H   0  0  0  0  0  0
  -22.4077  -11.9863   22.4773 H   0  0  0  0  0  0
  -21.1121  -13.1268   22.2549 H   0  0  0  0  0  0
  -24.6415  -15.8405   20.5203 H   0  0  0  0  0  0
  -26.2473  -15.6465   20.0431 H   0  0  0  0  0  0
  -26.7186  -32.5419   23.1066 H   0  0  0  0  0  0
  -25.0140  -33.9626   25.0435 H   0  0  0  0  0  0
  -22.7247  -31.2956   21.3998 H   0  0  0  0  0  0
  -23.3745  -35.9467   23.3346 H   0  0  0  0  0  0
  -24.3472  -36.8775   22.2037 H   0  0  0  0  0  0
  -23.7132  -37.6396   23.6648 H   0  0  0  0  0  0
  -26.1094  -31.5221   20.6098 H   0  0  0  0  0  0
  -26.8561  -30.8183   22.0099 H   0  0  0  0  0  0
  -28.1407  -28.9254   21.1698 H   0  0  0  0  0  0
  -25.9837  -25.9257   18.9383 H   0  0  0  0  0  0
  -23.9718  -27.2987   19.0082 H   0  0  0  0  0  0
  -23.7838  -30.5872   19.4109 H   0  0  0  0  0  0
  -22.7686  -29.2474   19.8526 H   0  0  0  0  0  0
  -25.1253  -36.1888   25.0851 H   0  0  0  0  0  0
  -20.9994  -28.3300   24.1389 H   0  0  0  0  0  0
  -20.5795  -26.2257   23.3598 H   0  0  0  0  0  0
  -21.6655  -26.7501   22.1140 H   0  0  0  0  0  0
  -19.6915  -25.6335   21.1246 H   0  0  0  0  0  0
  -19.6739  -27.3249   20.6756 H   0  0  0  0  0  0
  -17.4207  -26.6714   21.4038 H   0  0  0  0  0  0
  -18.0347  -26.0124   22.9032 H   0  0  0  0  0  0
  -19.7999  -30.7307   24.2262 H   0  0  0  0  0  0
  -17.5088  -31.6330   24.5205 H   0  0  0  0  0  0
  -15.5407  -30.3062   23.7731 H   0  0  0  0  0  0
  -15.8659  -28.0940   22.7013 H   0  0  0  0  0  0
  -24.5864  -30.7068   25.7662 H   0  0  0  0  0  0
  -24.8724  -32.2894   26.4673 H   0  0  0  0  0  0
  -25.7824  -30.8996   27.0227 H   0  0  0  0  0  0
  -26.2917  -29.6677   24.1290 H   0  0  0  0  0  0
  -27.4165  -29.7349   25.4720 H   0  0  0  0  0  0
  -27.8749  -30.4297   23.9342 H   0  0  0  0  0  0
  -27.2689  -33.3645   26.2006 H   0  0  0  0  0  0
  -28.3884  -32.6759   25.0356 H   0  0  0  0  0  0
  -28.0622  -31.8445   26.5461 H   0  0  0  0  0  0
  -28.2590  -38.0018   24.7589 H   0  0  0  0  0  0
  -28.1029  -36.2563   24.6315 H   0  0  0  0  0  0
  -27.2254  -37.1380   25.8900 H   0  0  0  0  0  0
  -20.9423  -29.8659   21.6791 H   0  0  0  0  0  0
  -26.0132  -38.2818   24.1576 H   0  0  0  0  0  0
  -31.0264  -22.0163   21.6325 H   0  0  0  0  0  0
  -32.7117  -21.0609   23.0709 H   0  0  0  0  0  0
  -31.9491  -17.1544   21.5574 H   0  0  0  0  0  0
  -30.5895  -17.3911   18.9699 H   0  0  0  0  0  0
  -29.0148  -17.7767   19.5776 H   0  0  0  0  0  0
  -30.1475  -23.9754   19.8215 H   0  0  0  0  0  0
  -28.9003  -23.6895   18.6550 H   0  0  0  0  0  0
  -28.3633  -24.8953   21.4480 H   0  0  0  0  0  0
  -27.1576  -24.6439   20.2542 H   0  0  0  0  0  0
  -27.7661  -22.0529   20.1536 H   0  0  0  0  0  0
  -28.8887  -22.2977   21.4189 H   0  0  0  0  0  0
  -28.9240  -15.7822   20.7223 H   0  0  0  0  0  0
  1 25  1  0  0  0
  1 30  2  0  0  0
  1 81  1  0  0  0
  2  3  1  0  0  0
  2 25  1  0  0  0
  2 84  1  0  0  0
  2 85  1  0  0  0
  3  4  1  0  0  0
  3 86  1  0  0  0
  3 87  1  0  0  0
  4  5  1  0  0  0
  4 88  1  0  0  0
  4 89  1  0  0  0
  5  6  1  0  0  0
  5 26  1  0  0  0
  5 90  1  0  0  0
  6 25  1  0  0  0
  6 91  1  0  0  0
  6 92  1  0  0  0
  7  8  2  0  0  0
  7 26  1  0  0  0
  7 29  1  0  0  0
  8  9  1  0  0  0
  8 22  1  0  0  0
  9 10  1  0  0  0
  9 27  2  0  0  0
 10 11  2  0  0  0
 10 15  1  0  0  0
 11 12  1  0  0  0
 11 93  1  0  0  0
 12 13  2  0  0  0
 12 94  1  0  0  0
 13 14  1  0  0  0
 13 31  1  0  0  0
 14 15  2  0  0  0
 14 95  1  0  0  0
 15 96  1  0  0  0
 16 17  2  0  0  0
 16 21  1  0  0  0
 16 31  1  0  0  0
 17 18  1  0  0  0
 17 97  1  0  0  0
 18 19  2  0  0  0
 18 98  1  0  0  0
 19 20  1  0  0  0
 19 24  1  0  0  0
 20 21  2  0  0  0
 20 99  1  0  0  0
 21 23  1  0  0  0
 22 28  1  0  0  0
 22 32  2  0  0  0
 26 27  1  0  0  0
 28100  1  0  0  0
 28101  1  0  0  0
 29102  1  0  0  0
 29103  1  0  0  0
 33 34  1  0  0  0
 33 66  1  0  0  0
 33 70  2  0  0  0
 34 36  1  0  0  0
 34 59  1  0  0  0
 34104  1  0  0  0
 35 44  2  0  0  0
 35 45  1  0  0  0
 35 68  1  0  0  0
 36 56  1  0  0  0
 36105  1  0  0  0
 37 39  1  0  0  0
 37 47  1  0  0  0
 37 66  1  0  0  0
 37106  1  0  0  0
 38 43  2  0  0  0
 38 46  1  0  0  0
 38 47  1  0  0  0
 39 64  1  0  0  0
 39 67  2  0  0  0
 40 52  1  0  0  0
 40 53  2  0  0  0
 40 58  1  0  0  0
 41107  1  0  0  0
 41108  1  0  0  0
 41109  1  0  0  0
 41 48  1  0  0  0
 42 43  1  0  0  0
 42 66  1  0  0  0
 42110  1  0  0  0
 42111  1  0  0  0
 43 44  1  0  0  0
 44112  1  0  0  0
 45 46  2  0  0  0
 45113  1  0  0  0
 46114  1  0  0  0
 47115  1  0  0  0
 47116  1  0  0  0
 48 56  1  0  0  0
 48 65  1  0  0  0
 48117  1  0  0  0
 49 50  1  0  0  0
 49 53  1  0  0  0
 49 64  1  0  0  0
 49118  1  0  0  0
 50 51  1  0  0  0
 50119  1  0  0  0
 50120  1  0  0  0
 51 52  1  0  0  0
 51121  1  0  0  0
 51122  1  0  0  0
 52123  1  0  0  0
 52124  1  0  0  0
 53 54  1  0  0  0
 54 55  2  0  0  0
 54125  1  0  0  0
 55 57  1  0  0  0
 55126  1  0  0  0
 56 69  2  0  0  0
 57 58  2  0  0  0
 57127  1  0  0  0
 58128  1  0  0  0
 59 60  1  0  0  0
 59 61  1  0  0  0
 59 62  1  0  0  0
 60129  1  0  0  0
 60130  1  0  0  0
 60131  1  0  0  0
 61132  1  0  0  0
 61133  1  0  0  0
 61134  1  0  0  0
 62135  1  0  0  0
 62136  1  0  0  0
 62137  1  0  0  0
 63 65  1  0  0  0
 63138  1  0  0  0
 63139  1  0  0  0
 63140  1  0  0  0
 64141  1  0  0  0
 65142  1  0  0  0
 68 79  1  0  0  0
 71 72  2  0  0  0
 71 75  1  0  0  0
 71143  1  0  0  0
 72 76  1  0  0  0
 72144  1  0  0  0
 73 74  1  0  0  0
 73 76  2  0  0  0
 73145  1  0  0  0
 74 75  2  0  0  0
 74 77  1  0  0  0
 75 82  1  0  0  0
 76 83  1  0  0  0
 77 81  1  0  0  0
 77146  1  0  0  0
 77147  1  0  0  0
 78 79  1  0  0  0
 78 80  1  0  0  0
 78148  1  0  0  0
 78149  1  0  0  0
 79150  1  0  0  0
 79151  1  0  0  0
 80 82  1  0  0  0
 80152  1  0  0  0
 80153  1  0  0  0
 81154  1  0  0  0
M  ISO  4   1 100  68 101  79 101  81 100
M  END
> <chiral flag>
0

> <version>
0

> <s_m_source_file>
/data/baiqing/PycharmProjects/Reinvent-master-3.2/result/LINK_invent/BTK/process_docking_weight1_custom_product_contain_oxygen_bond_distance_aromatic_linkinvent_7_9_3/rearranged_h_0010.sdf

> <i_m_source_file_index>
88

> <r_mmod_Potential_Energy-OPLS-2005>
250.485305786133

> <r_mmod_Stretch_Energy-OPLS-2005>
170.73518371582

> <r_mmod_Bend_Energy-OPLS-2005>
234.871078491211

> <r_mmod_Torsional_Energy-OPLS-2005>
224.81201171875

> <r_mmod_Improper_Torsional_Energy-OPLS-2005>
6.90786170959473

> <r_mmod_Van_der_Waal_Energy-OPLS-2005>
139.542053222656

> <r_mmod_Electrostatic_Energy-OPLS-2005>
-417.965576171875

> <r_mmod_Solvation_Energy-OPLS-2005>
-217.138580322266

> <b_mmod_Minimization_Converged-OPLS-2005>
0

> <r_mmod_RMS_Derivative-OPLS-2005>
6.68101501464844

$$$$
88
                    3D
 Structure written by MMmdl.
161168  0  0  1  0            999 V2000
  -30.4767  -14.8912   20.4395 C   0  0  0  0  0  0
  -30.4490  -12.5330   19.5092 C   0  0  0  0  0  0
  -29.5323  -12.5241   18.2608 C   0  0  0  0  0  0
  -28.0610  -12.2974   18.6647 C   0  0  0  0  0  0
  -27.6333  -13.2221   19.8343 C   0  0  2  0  0  0
  -28.6652  -13.1984   20.9774 C   0  0  0  0  0  0
  -25.2477  -13.8159   20.5597 C   0  0  0  0  0  0
  -24.1802  -13.0417   20.9272 C   0  0  0  0  0  0
  -24.6395  -11.6893   20.8753 C   0  0  0  0  0  0
  -23.9078  -10.4261   21.0420 C   0  0  0  0  0  0
  -24.3630   -9.4189   21.9235 C   0  0  0  0  0  0
  -23.6352   -8.2213   22.0791 C   0  0  0  0  0  0
  -22.4331   -8.0250   21.3571 C   0  0  0  0  0  0
  -21.9943   -9.0199   20.4665 C   0  0  0  0  0  0
  -22.7262  -10.2083   20.3072 C   0  0  0  0  0  0
  -21.6890   -6.0709   22.5271 C   0  0  0  0  0  0
  -21.4063   -6.5641   23.8191 C   0  0  0  0  0  0
  -21.3676   -5.6831   24.9166 C   0  0  0  0  0  0
  -21.6049   -4.3073   24.7255 C   0  0  0  0  0  0
  -21.8859   -3.8154   23.4387 C   0  0  0  0  0  0
  -21.9212   -4.6939   22.3415 C   0  0  0  0  0  0
  -22.7834  -13.5182   21.1949 C   0  0  0  0  0  0
  -22.1671   -4.2098   21.1002 F   0  0  0  0  0  0
  -21.5637   -3.4546   25.7763 F   0  0  0  0  0  0
  -29.9566  -13.6031   20.4176 N   0  0  0  0  0  0
  -26.2882  -12.9356   20.3186 N   0  0  0  0  0  0
  -25.9299  -11.6514   20.5724 N   0  0  0  0  0  0
  -22.0506  -12.8115   22.0529 N   0  0  0  0  0  0
  -25.4098  -15.1861   20.3735 N   0  0  0  0  0  0
  -31.6669  -15.0243   20.1303 O   0  0  0  0  0  0
  -21.6759   -6.8828   21.4222 O   0  0  0  0  0  0
  -22.3458  -14.5452   20.6808 O   0  0  0  0  0  0
  -24.6366  -31.8497   23.1876 C   0  0  0  0  0  0
  -25.9146  -32.4738   23.8291 C   0  0  1  0  0  0
  -27.2271  -27.1642   20.1655 C   0  0  0  0  0  0
  -25.5913  -33.8555   24.2190 N   0  0  0  0  0  0
  -23.4412  -30.4611   21.5314 C   0  0  2  0  0  0
  -24.8920  -28.8842   20.1063 C   0  0  0  0  0  0
  -22.7540  -29.4549   22.4873 C   0  0  0  0  0  0
  -18.0314  -28.1363   22.8484 C   0  0  0  0  0  0
  -24.1480  -36.7278   23.2657 C   0  0  0  0  0  0
  -25.9912  -30.7283   21.3845 C   0  0  0  0  0  0
  -26.0619  -29.3388   20.7290 C   0  0  0  0  0  0
  -27.2245  -28.4933   20.7406 C   0  0  0  0  0  0
  -26.0397  -26.7978   19.4966 C   0  0  0  0  0  0
  -24.8932  -27.6294   19.4732 C   0  0  0  0  0  0
  -23.6648  -29.7837   20.1494 C   0  0  0  0  0  0
  -25.4132  -36.3079   24.0318 C   0  0  1  0  0  0
  -20.5914  -28.3713   23.1251 C   0  0  2  0  0  0
  -20.6796  -26.9427   22.5400 C   0  0  0  0  0  0
  -19.5777  -26.6359   21.5211 C   0  0  0  0  0  0
  -18.1958  -26.7900   22.1625 C   0  0  0  0  0  0
  -19.1567  -28.8859   23.2859 C   0  0  0  0  0  0
  -18.9474  -30.1445   23.8894 C   0  0  0  0  0  0
  -17.6479  -30.6574   24.0551 C   0  0  0  0  0  0
  -25.9062  -34.9460   23.5065 C   0  0  0  0  0  0
  -16.5367  -29.9058   23.6321 C   0  0  0  0  0  0
  -16.7312  -28.6457   23.0389 C   0  0  0  0  0  0
  -26.4499  -31.6639   25.0728 C   0  0  0  0  0  0
  -25.3726  -31.3784   26.1455 C   0  0  0  0  0  0
  -27.0378  -30.3059   24.6283 C   0  0  0  0  0  0
  -27.5993  -32.4470   25.7517 C   0  0  0  0  0  0
  -27.5591  -37.1799   24.8471 C   0  0  0  0  0  0
  -21.4240  -29.3053   22.3648 N   0  0  0  0  0  0
  -26.4307  -37.3774   23.9379 N   0  0  0  0  0  0
  -24.7082  -31.0351   22.0900 N   0  0  0  0  0  0
  -23.4227  -28.8141   23.3046 O   0  0  0  0  0  0
  -28.3235  -26.2516   20.3090 O   0  0  0  0  0  0
  -26.5653  -34.8937   22.4648 O   0  0  0  0  0  0
  -23.5498  -32.1402   23.7068 O   0  0  0  0  0  0
  -28.6332  -21.9403   18.4540 C   0  0  0  0  0  0
  -27.6627  -22.8206   22.9823 C   0  0  0  0  0  0
  -29.9920  -23.1163   22.4542 C   0  0  0  0  0  0
  -29.5354  -16.2344   20.6613 C   0  0  0  0  0  0
  -29.9899  -17.8412   20.5685 C   0  0  0  0  0  0
  -28.9131  -19.1142   20.3664 C   0  0  0  0  0  0
  -28.4449  -24.7951   19.8172 C   0  0  0  0  0  0
  -28.2621  -23.3488   20.6500 C   0  0  2  0  0  0
  -28.4110  -21.8049   19.9703 C   0  0  2  0  0  0
  -28.6248  -23.4685   22.0788 N   0  0  0  0  0  0
  -29.3027  -20.6340   20.5286 N   0  3  0  0  0  0
  -31.4926  -12.6886   19.2238 H   0  0  0  0  0  0
  -30.4176  -11.5661   20.0149 H   0  0  0  0  0  0
  -29.8501  -11.7528   17.5598 H   0  0  0  0  0  0
  -29.6144  -13.4779   17.7369 H   0  0  0  0  0  0
  -27.9643  -11.2535   18.9754 H   0  0  0  0  0  0
  -27.4022  -12.4228   17.8051 H   0  0  0  0  0  0
  -27.6077  -14.2300   19.4245 H   0  0  0  0  0  0
  -28.7324  -12.1998   21.4101 H   0  0  0  0  0  0
  -28.3627  -13.8655   21.7827 H   0  0  0  0  0  0
  -25.2756   -9.5680   22.4829 H   0  0  0  0  0  0
  -24.0090   -7.4612   22.7529 H   0  0  0  0  0  0
  -21.0830   -8.8695   19.9005 H   0  0  0  0  0  0
  -22.3727  -10.9618   19.6165 H   0  0  0  0  0  0
  -21.2143   -7.6180   23.9637 H   0  0  0  0  0  0
  -21.1449   -6.0604   25.9035 H   0  0  0  0  0  0
  -22.0646   -2.7596   23.2949 H   0  0  0  0  0  0
  -22.4236  -11.9845   22.4892 H   0  0  0  0  0  0
  -21.1087  -13.1001   22.2703 H   0  0  0  0  0  0
  -26.1891  -15.5802   19.8611 H   0  0  0  0  0  0
  -24.5964  -15.7919   20.3625 H   0  0  0  0  0  0
  -26.7205  -32.5317   23.1019 H   0  0  0  0  0  0
  -25.0075  -33.9699   25.0345 H   0  0  0  0  0  0
  -22.7442  -31.2900   21.3744 H   0  0  0  0  0  0
  -23.3759  -35.9592   23.3320 H   0  0  0  0  0  0
  -24.3574  -36.8925   22.2076 H   0  0  0  0  0  0
  -23.7214  -37.6462   23.6702 H   0  0  0  0  0  0
  -26.1484  -31.4844   20.6142 H   0  0  0  0  0  0
  -26.8651  -30.7773   22.0239 H   0  0  0  0  0  0
  -28.1154  -28.8377   21.2441 H   0  0  0  0  0  0
  -25.9703  -25.8346   19.0154 H   0  0  0  0  0  0
  -24.0008  -27.2834   18.9657 H   0  0  0  0  0  0
  -23.8034  -30.5622   19.3998 H   0  0  0  0  0  0
  -22.7789  -29.2264   19.8313 H   0  0  0  0  0  0
  -25.1316  -36.1936   25.0812 H   0  0  0  0  0  0
  -21.0019  -28.3272   24.1378 H   0  0  0  0  0  0
  -20.5670  -26.2333   23.3623 H   0  0  0  0  0  0
  -21.6658  -26.7430   22.1209 H   0  0  0  0  0  0
  -19.6933  -25.6249   21.1297 H   0  0  0  0  0  0
  -19.6668  -27.3122   20.6706 H   0  0  0  0  0  0
  -17.4214  -26.6676   21.4037 H   0  0  0  0  0  0
  -18.0336  -26.0038   22.9021 H   0  0  0  0  0  0
  -19.7956  -30.7251   24.2275 H   0  0  0  0  0  0
  -17.5034  -31.6267   24.5132 H   0  0  0  0  0  0
  -15.5359  -30.2975   23.7612 H   0  0  0  0  0  0
  -15.8718  -28.0747   22.7152 H   0  0  0  0  0  0
  -24.5816  -30.7233   25.7779 H   0  0  0  0  0  0
  -24.9001  -32.2943   26.5008 H   0  0  0  0  0  0
  -25.8058  -30.8864   27.0161 H   0  0  0  0  0  0
  -26.2917  -29.6764   24.1403 H   0  0  0  0  0  0
  -27.4145  -29.7397   25.4808 H   0  0  0  0  0  0
  -27.8795  -30.4345   23.9473 H   0  0  0  0  0  0
  -27.2485  -33.3713   26.2133 H   0  0  0  0  0  0
  -28.3771  -32.7190   25.0361 H   0  0  0  0  0  0
  -28.0727  -31.8637   26.5424 H   0  0  0  0  0  0
  -28.2606  -38.0095   24.7500 H   0  0  0  0  0  0
  -28.1087  -36.2621   24.6312 H   0  0  0  0  0  0
  -27.2309  -37.1469   25.8879 H   0  0  0  0  0  0
  -20.9444  -29.8782   21.6837 H   0  0  0  0  0  0
  -26.0202  -38.2857   24.1352 H   0  0  0  0  0  0
  -28.4601  -21.0051   17.9274 H   0  0  0  0  0  0
  -29.6517  -22.2601   18.2356 H   0  0  0  0  0  0
  -27.9682  -22.6834   18.0068 H   0  0  0  0  0  0
  -27.6305  -21.7351   22.8609 H   0  0  0  0  0  0
  -26.6504  -23.2039   22.8257 H   0  0  0  0  0  0
  -27.9097  -23.0203   24.0247 H   0  0  0  0  0  0
  -30.2194  -23.5280   23.4428 H   0  0  0  0  0  0
  -30.7371  -23.5047   21.7495 H   0  0  0  0  0  0
  -30.1272  -22.0392   22.5470 H   0  0  0  0  0  0
  -28.7254  -16.1241   19.9432 H   0  0  0  0  0  0
  -29.0560  -16.1029   21.6345 H   0  0  0  0  0  0
  -30.7298  -17.9194   19.7689 H   0  0  0  0  0  0
  -30.5384  -18.0394   21.4901 H   0  0  0  0  0  0
  -28.0693  -18.9561   21.0377 H   0  0  0  0  0  0
  -28.4852  -19.0055   19.3693 H   0  0  0  0  0  0
  -29.4796  -24.7559   19.4721 H   0  0  0  0  0  0
  -27.8687  -24.7228   18.8981 H   0  0  0  0  0  0
  -27.1736  -23.4067   20.7151 H   0  0  0  0  0  0
  -27.4061  -21.3960   20.0740 H   0  0  0  0  0  0
  -29.4384  -20.8124   21.5111 H   0  0  0  0  0  0
  -30.2037  -20.7377   20.0904 H   0  0  0  0  0  0
  1 25  1  0  0  0
  1 30  2  0  0  0
  1 74  1  0  0  0
  2  3  1  0  0  0
  2 25  1  0  0  0
  2 82  1  0  0  0
  2 83  1  0  0  0
  3  4  1  0  0  0
  3 84  1  0  0  0
  3 85  1  0  0  0
  4  5  1  0  0  0
  4 86  1  0  0  0
  4 87  1  0  0  0
  5  6  1  0  0  0
  5 26  1  0  0  0
  5 88  1  0  0  0
  6 25  1  0  0  0
  6 89  1  0  0  0
  6 90  1  0  0  0
  7  8  2  0  0  0
  7 26  1  0  0  0
  7 29  1  0  0  0
  8  9  1  0  0  0
  8 22  1  0  0  0
  9 10  1  0  0  0
  9 27  2  0  0  0
 10 11  2  0  0  0
 10 15  1  0  0  0
 11 12  1  0  0  0
 11 91  1  0  0  0
 12 13  2  0  0  0
 12 92  1  0  0  0
 13 14  1  0  0  0
 13 31  1  0  0  0
 14 15  2  0  0  0
 14 93  1  0  0  0
 15 94  1  0  0  0
 16 17  2  0  0  0
 16 21  1  0  0  0
 16 31  1  0  0  0
 17 18  1  0  0  0
 17 95  1  0  0  0
 18 19  2  0  0  0
 18 96  1  0  0  0
 19 20  1  0  0  0
 19 24  1  0  0  0
 20 21  2  0  0  0
 20 97  1  0  0  0
 21 23  1  0  0  0
 22 28  1  0  0  0
 22 32  2  0  0  0
 26 27  1  0  0  0
 28 98  1  0  0  0
 28 99  1  0  0  0
 29100  1  0  0  0
 29101  1  0  0  0
 33 34  1  0  0  0
 33 66  1  0  0  0
 33 70  2  0  0  0
 34 36  1  0  0  0
 34 59  1  0  0  0
 34102  1  0  0  0
 35 44  2  0  0  0
 35 45  1  0  0  0
 35 68  1  0  0  0
 36 56  1  0  0  0
 36103  1  0  0  0
 37 39  1  0  0  0
 37 47  1  0  0  0
 37 66  1  0  0  0
 37104  1  0  0  0
 38 43  2  0  0  0
 38 46  1  0  0  0
 38 47  1  0  0  0
 39 64  1  0  0  0
 39 67  2  0  0  0
 40 52  1  0  0  0
 40 53  2  0  0  0
 40 58  1  0  0  0
 41105  1  0  0  0
 41106  1  0  0  0
 41107  1  0  0  0
 41 48  1  0  0  0
 42 43  1  0  0  0
 42 66  1  0  0  0
 42108  1  0  0  0
 42109  1  0  0  0
 43 44  1  0  0  0
 44110  1  0  0  0
 45 46  2  0  0  0
 45111  1  0  0  0
 46112  1  0  0  0
 47113  1  0  0  0
 47114  1  0  0  0
 48 56  1  0  0  0
 48 65  1  0  0  0
 48115  1  0  0  0
 49 50  1  0  0  0
 49 53  1  0  0  0
 49 64  1  0  0  0
 49116  1  0  0  0
 50 51  1  0  0  0
 50117  1  0  0  0
 50118  1  0  0  0
 51 52  1  0  0  0
 51119  1  0  0  0
 51120  1  0  0  0
 52121  1  0  0  0
 52122  1  0  0  0
 53 54  1  0  0  0
 54 55  2  0  0  0
 54123  1  0  0  0
 55 57  1  0  0  0
 55124  1  0  0  0
 56 69  2  0  0  0
 57 58  2  0  0  0
 57125  1  0  0  0
 58126  1  0  0  0
 59 60  1  0  0  0
 59 61  1  0  0  0
 59 62  1  0  0  0
 60127  1  0  0  0
 60128  1  0  0  0
 60129  1  0  0  0
 61130  1  0  0  0
 61131  1  0  0  0
 61132  1  0  0  0
 62133  1  0  0  0
 62134  1  0  0  0
 62135  1  0  0  0
 63 65  1  0  0  0
 63136  1  0  0  0
 63137  1  0  0  0
 63138  1  0  0  0
 64139  1  0  0  0
 65140  1  0  0  0
 68 77  1  0  0  0
 71141  1  0  0  0
 71142  1  0  0  0
 71143  1  0  0  0
 71 79  1  0  0  0
 72 80  1  0  0  0
 72144  1  0  0  0
 72145  1  0  0  0
 72146  1  0  0  0
 73 80  1  0  0  0
 73147  1  0  0  0
 73148  1  0  0  0
 73149  1  0  0  0
 74 75  1  0  0  0
 74150  1  0  0  0
 74151  1  0  0  0
 75 76  1  0  0  0
 75152  1  0  0  0
 75153  1  0  0  0
 76 81  1  0  0  0
 76154  1  0  0  0
 76155  1  0  0  0
 77156  1  0  0  0
 77157  1  0  0  0
 77 78  1  0  0  0
 78 79  1  0  0  0
 78 80  1  0  0  0
 78158  1  0  0  0
 79 81  1  0  0  0
 79159  1  0  0  0
 81160  1  0  0  0
 81161  1  0  0  0
M  CHG  1  81   1
M  ISO  4   1 100  68 101  74 100  77 101
M  END
> <chiral flag>
0

> <version>
0

> <s_m_source_file>
/data/baiqing/PycharmProjects/Reinvent-master-3.2/result/LINK_invent/BTK/process_docking_weight1_custom_product_contain_oxygen_bond_distance_aromatic_linkinvent_7_9_3/rearranged_h_0010.sdf

> <i_m_source_file_index>
89

> <r_mmod_Potential_Energy-OPLS-2005>
410.482147216797

> <r_mmod_Stretch_Energy-OPLS-2005>
242.2373046875

> <r_mmod_Bend_Energy-OPLS-2005>
303.2509765625

> <r_mmod_Torsional_Energy-OPLS-2005>
231.396636962891

> <r_mmod_Improper_Torsional_Energy-OPLS-2005>
5.74420261383057

> <r_mmod_Van_der_Waal_Energy-OPLS-2005>
110.50146484375

> <r_mmod_Electrostatic_Energy-OPLS-2005>
-183.443237304688

> <r_mmod_Solvation_Energy-OPLS-2005>
-462.161224365234

> <b_mmod_Minimization_Converged-OPLS-2005>
0

> <r_mmod_RMS_Derivative-OPLS-2005>
7.56939077377319

$$$$
89
                    3D
 Structure written by MMmdl.
165174  0  0  1  0            999 V2000
  -30.7360  -14.4800   20.5782 C   0  0  0  0  0  0
  -30.4181  -12.3191   19.4208 C   0  0  0  0  0  0
  -29.4878  -12.5037   18.2059 C   0  0  0  0  0  0
  -28.0134  -12.3466   18.6254 C   0  0  0  0  0  0
  -27.6558  -13.1937   19.8738 C   0  0  2  0  0  0
  -28.7078  -13.0070   20.9951 C   0  0  0  0  0  0
  -25.2568  -13.8112   20.5696 C   0  0  0  0  0  0
  -24.1816  -13.0406   20.9191 C   0  0  0  0  0  0
  -24.6365  -11.6876   20.8774 C   0  0  0  0  0  0
  -23.9033  -10.4277   21.0435 C   0  0  0  0  0  0
  -24.3575   -9.4195   21.9222 C   0  0  0  0  0  0
  -23.6254   -8.2230   22.0772 C   0  0  0  0  0  0
  -22.4256   -8.0263   21.3540 C   0  0  0  0  0  0
  -21.9891   -9.0242   20.4649 C   0  0  0  0  0  0
  -22.7212  -10.2124   20.3075 C   0  0  0  0  0  0
  -21.6834   -6.0721   22.5274 C   0  0  0  0  0  0
  -21.4005   -6.5619   23.8209 C   0  0  0  0  0  0
  -21.3669   -5.6782   24.9169 C   0  0  0  0  0  0
  -21.6049   -4.3044   24.7228 C   0  0  0  0  0  0
  -21.8816   -3.8135   23.4343 C   0  0  0  0  0  0
  -21.9182   -4.6953   22.3393 C   0  0  0  0  0  0
  -22.7840  -13.5220   21.1834 C   0  0  0  0  0  0
  -22.1646   -4.2138   21.0975 F   0  0  0  0  0  0
  -21.5647   -3.4542   25.7741 F   0  0  0  0  0  0
  -30.0320  -13.3190   20.4324 N   0  0  0  0  0  0
  -26.2992  -12.9260   20.3405 N   0  0  0  0  0  0
  -25.9295  -11.6440   20.5826 N   0  0  0  0  0  0
  -22.0459  -12.8238   22.0389 N   0  0  0  0  0  0
  -25.4251  -15.1829   20.4057 N   0  0  0  0  0  0
  -31.8579  -14.6280   20.0816 O   0  0  0  0  0  0
  -21.6611   -6.8868   21.4236 O   0  0  0  0  0  0
  -22.3568  -14.5547   20.6690 O   0  0  0  0  0  0
  -24.6120  -31.8692   23.2049 C   0  0  0  0  0  0
  -25.9005  -32.4836   23.8365 C   0  0  1  0  0  0
  -27.2460  -27.4377   20.1050 C   0  0  0  0  0  0
  -25.5864  -33.8638   24.2296 N   0  0  0  0  0  0
  -23.4023  -30.4845   21.5490 C   0  0  2  0  0  0
  -24.8531  -28.9467   20.1182 C   0  0  0  0  0  0
  -22.7409  -29.4628   22.5019 C   0  0  0  0  0  0
  -18.0278  -28.1315   22.8471 C   0  0  0  0  0  0
  -24.1497  -36.7320   23.2628 C   0  0  0  0  0  0
  -25.9276  -30.8351   21.3555 C   0  0  0  0  0  0
  -26.0104  -29.4663   20.7113 C   0  0  0  0  0  0
  -27.2115  -28.7213   20.6954 C   0  0  0  0  0  0
  -26.0726  -26.9236   19.5155 C   0  0  0  0  0  0
  -24.8797  -27.6751   19.5166 C   0  0  0  0  0  0
  -23.6098  -29.8082   20.1668 C   0  0  0  0  0  0
  -25.4123  -36.3130   24.0327 C   0  0  1  0  0  0
  -20.5867  -28.3614   23.1312 C   0  0  2  0  0  0
  -20.6797  -26.9352   22.5399 C   0  0  0  0  0  0
  -19.5789  -26.6337   21.5189 C   0  0  0  0  0  0
  -18.1941  -26.7856   22.1582 C   0  0  0  0  0  0
  -19.1527  -28.8775   23.2884 C   0  0  0  0  0  0
  -18.9464  -30.1369   23.8920 C   0  0  0  0  0  0
  -17.6476  -30.6535   24.0533 C   0  0  0  0  0  0
  -25.9058  -34.9494   23.5125 C   0  0  0  0  0  0
  -16.5368  -29.9032   23.6296 C   0  0  0  0  0  0
  -16.7274  -28.6437   23.0356 C   0  0  0  0  0  0
  -26.4438  -31.6618   25.0688 C   0  0  0  0  0  0
  -25.3675  -31.3676   26.1405 C   0  0  0  0  0  0
  -27.0293  -30.3092   24.6006 C   0  0  0  0  0  0
  -27.6016  -32.4330   25.7467 C   0  0  0  0  0  0
  -27.5618  -37.1800   24.8437 C   0  0  0  0  0  0
  -21.4147  -29.2986   22.3735 N   0  0  0  0  0  0
  -26.4309  -37.3822   23.9415 N   0  0  0  0  0  0
  -24.6657  -31.0769   22.0955 N   0  0  0  0  0  0
  -23.4179  -28.8181   23.3075 O   0  0  0  0  0  0
  -28.4291  -26.7364   20.0572 O   0  0  0  0  0  0
  -26.5656  -34.8942   22.4712 O   0  0  0  0  0  0
  -23.5314  -32.1443   23.7447 O   0  0  0  0  0  0
  -29.4891  -18.5891   19.9107 C   0  0  0  0  0  0
  -29.3953  -19.9989   19.9930 C   0  0  0  0  0  0
  -28.5067  -18.3973   22.1135 C   0  0  0  0  0  0
  -28.3948  -19.8037   22.1968 C   0  0  0  0  0  0
  -29.0392  -17.7724   20.9696 C   0  0  0  0  0  0
  -28.8374  -20.6474   21.1302 C   0  0  0  0  0  0
  -27.7733  -20.3751   23.4666 C   0  0  0  0  0  0
  -27.4281  -21.8579   23.3300 C   0  0  0  0  0  0
  -28.5535  -22.5788   22.5907 C   0  0  0  0  0  0
  -31.0799  -16.1759   22.2717 C   0  0  0  0  0  0
  -29.0274  -16.2402   20.8476 C   0  0  0  0  0  0
  -28.2938  -24.2437   19.8911 C   0  0  0  0  0  0
  -29.1856  -22.9956   20.1862 C   0  0  0  0  0  0
  -28.4955  -25.4979   20.7823 C   0  0  0  0  0  0
  -28.6941  -22.0686   21.2268 N   0  0  0  0  0  0
  -30.1956  -15.4691   21.3387 N   0  0  0  0  0  0
  -31.4621  -12.4073   19.1128 H   0  0  0  0  0  0
  -30.3191  -11.3125   19.8305 H   0  0  0  0  0  0
  -29.7353  -11.7802   17.4281 H   0  0  0  0  0  0
  -29.6435  -13.4908   17.7677 H   0  0  0  0  0  0
  -27.8387  -11.2902   18.8338 H   0  0  0  0  0  0
  -27.3553  -12.6070   17.7947 H   0  0  0  0  0  0
  -27.6748  -14.2273   19.5437 H   0  0  0  0  0  0
  -28.6995  -11.9770   21.3526 H   0  0  0  0  0  0
  -28.4728  -13.6158   21.8686 H   0  0  0  0  0  0
  -25.2710   -9.5669   22.4807 H   0  0  0  0  0  0
  -23.9952   -7.4629   22.7513 H   0  0  0  0  0  0
  -21.0817   -8.8755   19.8957 H   0  0  0  0  0  0
  -22.3673  -10.9662   19.6183 H   0  0  0  0  0  0
  -21.1995   -7.6125   23.9700 H   0  0  0  0  0  0
  -21.1502   -6.0518   25.9069 H   0  0  0  0  0  0
  -22.0596   -2.7607   23.2848 H   0  0  0  0  0  0
  -22.3988  -11.9841   22.4736 H   0  0  0  0  0  0
  -21.1113  -13.1351   22.2623 H   0  0  0  0  0  0
  -24.6513  -15.8305   20.5111 H   0  0  0  0  0  0
  -26.2628  -15.6305   20.0587 H   0  0  0  0  0  0
  -26.7081  -32.5565   23.1141 H   0  0  0  0  0  0
  -25.0009  -33.9813   25.0433 H   0  0  0  0  0  0
  -22.6894  -31.2987   21.4046 H   0  0  0  0  0  0
  -23.3807  -35.9602   23.3221 H   0  0  0  0  0  0
  -24.3617  -36.9039   22.2060 H   0  0  0  0  0  0
  -23.7194  -37.6470   23.6715 H   0  0  0  0  0  0
  -26.0322  -31.5940   20.5787 H   0  0  0  0  0  0
  -26.8160  -30.8988   21.9706 H   0  0  0  0  0  0
  -28.1125  -29.1224   21.1372 H   0  0  0  0  0  0
  -26.0837  -25.9530   19.0425 H   0  0  0  0  0  0
  -23.9917  -27.2720   19.0495 H   0  0  0  0  0  0
  -23.7052  -30.5767   19.3986 H   0  0  0  0  0  0
  -22.7351  -29.2204   19.8837 H   0  0  0  0  0  0
  -25.1298  -36.2001   25.0824 H   0  0  0  0  0  0
  -20.9968  -28.3172   24.1432 H   0  0  0  0  0  0
  -20.5720  -26.2208   23.3573 H   0  0  0  0  0  0
  -21.6674  -26.7395   22.1200 H   0  0  0  0  0  0
  -19.6982  -25.6260   21.1202 H   0  0  0  0  0  0
  -19.6740  -27.3157   20.6732 H   0  0  0  0  0  0
  -17.4233  -26.6596   21.3958 H   0  0  0  0  0  0
  -18.0334  -25.9944   22.8923 H   0  0  0  0  0  0
  -19.7945  -30.7143   24.2344 H   0  0  0  0  0  0
  -17.5032  -31.6235   24.5086 H   0  0  0  0  0  0
  -15.5369  -30.2956   23.7595 H   0  0  0  0  0  0
  -15.8662  -28.0749   22.7116 H   0  0  0  0  0  0
  -24.5869  -30.7036   25.7688 H   0  0  0  0  0  0
  -24.8809  -32.2800   26.4863 H   0  0  0  0  0  0
  -25.7958  -30.8810   27.0165 H   0  0  0  0  0  0
  -26.2837  -29.6860   24.1061 H   0  0  0  0  0  0
  -27.4151  -29.7320   25.4413 H   0  0  0  0  0  0
  -27.8605  -30.4494   23.9088 H   0  0  0  0  0  0
  -27.2671  -33.3661   26.2017 H   0  0  0  0  0  0
  -28.3828  -32.6861   25.0286 H   0  0  0  0  0  0
  -28.0660  -31.8454   26.5389 H   0  0  0  0  0  0
  -28.2526  -38.0205   24.7680 H   0  0  0  0  0  0
  -28.1239  -36.2757   24.6051 H   0  0  0  0  0  0
  -27.2346  -37.1202   25.8832 H   0  0  0  0  0  0
  -20.9324  -29.8677   21.6927 H   0  0  0  0  0  0
  -26.0198  -38.2890   24.1504 H   0  0  0  0  0  0
  -29.8892  -18.1425   19.0100 H   0  0  0  0  0  0
  -29.7614  -20.5472   19.1391 H   0  0  0  0  0  0
  -28.1528  -17.7881   22.9342 H   0  0  0  0  0  0
  -28.4859  -20.2410   24.2827 H   0  0  0  0  0  0
  -26.8797  -19.8092   23.7362 H   0  0  0  0  0  0
  -27.2575  -22.2984   24.3131 H   0  0  0  0  0  0
  -26.4933  -21.9732   22.7760 H   0  0  0  0  0  0
  -29.4975  -22.4434   23.1216 H   0  0  0  0  0  0
  -28.3519  -23.6463   22.5958 H   0  0  0  0  0  0
  -30.5194  -16.5608   23.1217 H   0  0  0  0  0  0
  -31.5857  -17.0075   21.7790 H   0  0  0  0  0  0
  -31.8486  -15.5128   22.6726 H   0  0  0  0  0  0
  -28.8601  -16.0250   19.7911 H   0  0  0  0  0  0
  -28.1463  -15.8760   21.3751 H   0  0  0  0  0  0
  -27.2408  -23.9685   19.8466 H   0  0  0  0  0  0
  -28.5471  -24.5555   18.8779 H   0  0  0  0  0  0
  -30.2037  -23.3089   20.4274 H   0  0  0  0  0  0
  -29.2569  -22.4805   19.2330 H   0  0  0  0  0  0
  -29.4916  -25.4661   21.2282 H   0  0  0  0  0  0
  -27.7936  -25.5005   21.6177 H   0  0  0  0  0  0
  1 25  1  0  0  0
  1 30  2  0  0  0
  1 86  1  0  0  0
  2  3  1  0  0  0
  2 25  1  0  0  0
  2 87  1  0  0  0
  2 88  1  0  0  0
  3  4  1  0  0  0
  3 89  1  0  0  0
  3 90  1  0  0  0
  4  5  1  0  0  0
  4 91  1  0  0  0
  4 92  1  0  0  0
  5  6  1  0  0  0
  5 26  1  0  0  0
  5 93  1  0  0  0
  6 25  1  0  0  0
  6 94  1  0  0  0
  6 95  1  0  0  0
  7  8  2  0  0  0
  7 26  1  0  0  0
  7 29  1  0  0  0
  8  9  1  0  0  0
  8 22  1  0  0  0
  9 10  1  0  0  0
  9 27  2  0  0  0
 10 11  2  0  0  0
 10 15  1  0  0  0
 11 12  1  0  0  0
 11 96  1  0  0  0
 12 13  2  0  0  0
 12 97  1  0  0  0
 13 14  1  0  0  0
 13 31  1  0  0  0
 14 15  2  0  0  0
 14 98  1  0  0  0
 15 99  1  0  0  0
 16 17  2  0  0  0
 16 21  1  0  0  0
 16 31  1  0  0  0
 17 18  1  0  0  0
 17100  1  0  0  0
 18 19  2  0  0  0
 18101  1  0  0  0
 19 20  1  0  0  0
 19 24  1  0  0  0
 20 21  2  0  0  0
 20102  1  0  0  0
 21 23  1  0  0  0
 22 28  1  0  0  0
 22 32  2  0  0  0
 26 27  1  0  0  0
 28103  1  0  0  0
 28104  1  0  0  0
 29105  1  0  0  0
 29106  1  0  0  0
 33 34  1  0  0  0
 33 66  1  0  0  0
 33 70  2  0  0  0
 34 36  1  0  0  0
 34 59  1  0  0  0
 34107  1  0  0  0
 35 44  2  0  0  0
 35 45  1  0  0  0
 35 68  1  0  0  0
 36 56  1  0  0  0
 36108  1  0  0  0
 37 39  1  0  0  0
 37 47  1  0  0  0
 37 66  1  0  0  0
 37109  1  0  0  0
 38 43  2  0  0  0
 38 46  1  0  0  0
 38 47  1  0  0  0
 39 64  1  0  0  0
 39 67  2  0  0  0
 40 52  1  0  0  0
 40 53  2  0  0  0
 40 58  1  0  0  0
 41110  1  0  0  0
 41111  1  0  0  0
 41112  1  0  0  0
 41 48  1  0  0  0
 42 43  1  0  0  0
 42 66  1  0  0  0
 42113  1  0  0  0
 42114  1  0  0  0
 43 44  1  0  0  0
 44115  1  0  0  0
 45 46  2  0  0  0
 45116  1  0  0  0
 46117  1  0  0  0
 47118  1  0  0  0
 47119  1  0  0  0
 48 56  1  0  0  0
 48 65  1  0  0  0
 48120  1  0  0  0
 49 50  1  0  0  0
 49 53  1  0  0  0
 49 64  1  0  0  0
 49121  1  0  0  0
 50 51  1  0  0  0
 50122  1  0  0  0
 50123  1  0  0  0
 51 52  1  0  0  0
 51124  1  0  0  0
 51125  1  0  0  0
 52126  1  0  0  0
 52127  1  0  0  0
 53 54  1  0  0  0
 54 55  2  0  0  0
 54128  1  0  0  0
 55 57  1  0  0  0
 55129  1  0  0  0
 56 69  2  0  0  0
 57 58  2  0  0  0
 57130  1  0  0  0
 58131  1  0  0  0
 59 60  1  0  0  0
 59 61  1  0  0  0
 59 62  1  0  0  0
 60132  1  0  0  0
 60133  1  0  0  0
 60134  1  0  0  0
 61135  1  0  0  0
 61136  1  0  0  0
 61137  1  0  0  0
 62138  1  0  0  0
 62139  1  0  0  0
 62140  1  0  0  0
 63 65  1  0  0  0
 63141  1  0  0  0
 63142  1  0  0  0
 63143  1  0  0  0
 64144  1  0  0  0
 65145  1  0  0  0
 68 84  1  0  0  0
 71 72  2  0  0  0
 71 75  1  0  0  0
 71146  1  0  0  0
 72 76  1  0  0  0
 72147  1  0  0  0
 73 74  1  0  0  0
 73 75  2  0  0  0
 73148  1  0  0  0
 74 76  2  0  0  0
 74 77  1  0  0  0
 75 81  1  0  0  0
 76 85  1  0  0  0
 77 78  1  0  0  0
 77149  1  0  0  0
 77150  1  0  0  0
 78 79  1  0  0  0
 78151  1  0  0  0
 78152  1  0  0  0
 79 85  1  0  0  0
 79153  1  0  0  0
 79154  1  0  0  0
 80 86  1  0  0  0
 80155  1  0  0  0
 80156  1  0  0  0
 80157  1  0  0  0
 81 86  1  0  0  0
 81158  1  0  0  0
 81159  1  0  0  0
 82 83  1  0  0  0
 82 84  1  0  0  0
 82160  1  0  0  0
 82161  1  0  0  0
 83 85  1  0  0  0
 83162  1  0  0  0
 83163  1  0  0  0
 84164  1  0  0  0
 84165  1  0  0  0
M  ISO  4   1 100  68 101  84 101  86 100
M  END
> <chiral flag>
0

> <version>
0

> <s_m_source_file>
/data/baiqing/PycharmProjects/Reinvent-master-3.2/result/LINK_invent/BTK/process_docking_weight1_custom_product_contain_oxygen_bond_distance_aromatic_linkinvent_7_9_3/rearranged_h_0010.sdf

> <i_m_source_file_index>
90

> <r_mmod_Potential_Energy-OPLS-2005>
100.102409362793

> <r_mmod_Stretch_Energy-OPLS-2005>
46.2670669555664

> <r_mmod_Bend_Energy-OPLS-2005>
123.320823669434

> <r_mmod_Torsional_Energy-OPLS-2005>
299.105194091797

> <r_mmod_Improper_Torsional_Energy-OPLS-2005>
5.57250499725342

> <r_mmod_Van_der_Waal_Energy-OPLS-2005>
162.320831298828

> <r_mmod_Electrostatic_Energy-OPLS-2005>
-337.274261474609

> <r_mmod_Solvation_Energy-OPLS-2005>
-211.981475830078

> <b_mmod_Minimization_Converged-OPLS-2005>
0

> <r_mmod_RMS_Derivative-OPLS-2005>
3.0714008808136

$$$$
90
                    3D
 Structure written by MMmdl.
161170  0  0  1  0            999 V2000
  -30.6955  -14.4733   20.5719 C   0  0  0  0  0  0
  -30.4259  -12.3087   19.4269 C   0  0  0  0  0  0
  -29.4998  -12.5096   18.2093 C   0  0  0  0  0  0
  -28.0185  -12.3710   18.6162 C   0  0  0  0  0  0
  -27.6603  -13.2043   19.8762 C   0  0  2  0  0  0
  -28.7010  -12.9849   20.9969 C   0  0  0  0  0  0
  -25.2588  -13.8152   20.5687 C   0  0  0  0  0  0
  -24.1834  -13.0430   20.9174 C   0  0  0  0  0  0
  -24.6381  -11.6893   20.8738 C   0  0  0  0  0  0
  -23.9038  -10.4284   21.0417 C   0  0  0  0  0  0
  -24.3598   -9.4206   21.9199 C   0  0  0  0  0  0
  -23.6282   -8.2234   22.0753 C   0  0  0  0  0  0
  -22.4264   -8.0275   21.3542 C   0  0  0  0  0  0
  -21.9894   -9.0244   20.4643 C   0  0  0  0  0  0
  -22.7213  -10.2128   20.3062 C   0  0  0  0  0  0
  -21.6844   -6.0731   22.5281 C   0  0  0  0  0  0
  -21.4007   -6.5636   23.8217 C   0  0  0  0  0  0
  -21.3666   -5.6792   24.9186 C   0  0  0  0  0  0
  -21.6052   -4.3053   24.7235 C   0  0  0  0  0  0
  -21.8821   -3.8141   23.4355 C   0  0  0  0  0  0
  -21.9188   -4.6959   22.3411 C   0  0  0  0  0  0
  -22.7865  -13.5237   21.1848 C   0  0  0  0  0  0
  -22.1649   -4.2151   21.0986 F   0  0  0  0  0  0
  -21.5643   -3.4536   25.7747 F   0  0  0  0  0  0
  -30.0300  -13.2918   20.4458 N   0  0  0  0  0  0
  -26.3017  -12.9308   20.3366 N   0  0  0  0  0  0
  -25.9311  -11.6471   20.5763 N   0  0  0  0  0  0
  -22.0490  -12.8246   22.0405 N   0  0  0  0  0  0
  -25.4338  -15.1873   20.4127 N   0  0  0  0  0  0
  -31.8436  -14.6376   20.1458 O   0  0  0  0  0  0
  -21.6632   -6.8870   21.4237 O   0  0  0  0  0  0
  -22.3555  -14.5539   20.6690 O   0  0  0  0  0  0
  -24.6116  -31.8701   23.2135 C   0  0  0  0  0  0
  -25.9020  -32.4840   23.8421 C   0  0  1  0  0  0
  -27.2377  -27.4562   20.1006 C   0  0  0  0  0  0
  -25.5885  -33.8640   24.2349 N   0  0  0  0  0  0
  -23.4007  -30.4924   21.5526 C   0  0  2  0  0  0
  -24.8510  -28.9617   20.1178 C   0  0  0  0  0  0
  -22.7404  -29.4652   22.5006 C   0  0  0  0  0  0
  -18.0270  -28.1370   22.8492 C   0  0  0  0  0  0
  -24.1483  -36.7321   23.2636 C   0  0  0  0  0  0
  -25.9260  -30.8414   21.3664 C   0  0  0  0  0  0
  -26.0069  -29.4743   20.7215 C   0  0  0  0  0  0
  -27.2045  -28.7257   20.7221 C   0  0  0  0  0  0
  -26.0733  -26.9583   19.4841 C   0  0  0  0  0  0
  -24.8764  -27.6992   19.4981 C   0  0  0  0  0  0
  -23.6107  -29.8250   20.1667 C   0  0  0  0  0  0
  -25.4103  -36.3124   24.0340 C   0  0  1  0  0  0
  -20.5858  -28.3648   23.1329 C   0  0  2  0  0  0
  -20.6762  -26.9388   22.5422 C   0  0  0  0  0  0
  -19.5739  -26.6377   21.5214 C   0  0  0  0  0  0
  -18.1915  -26.7919   22.1627 C   0  0  0  0  0  0
  -19.1518  -28.8826   23.2912 C   0  0  0  0  0  0
  -18.9446  -30.1432   23.8926 C   0  0  0  0  0  0
  -17.6446  -30.6579   24.0555 C   0  0  0  0  0  0
  -25.9025  -34.9487   23.5139 C   0  0  0  0  0  0
  -16.5335  -29.9078   23.6321 C   0  0  0  0  0  0
  -16.7258  -28.6491   23.0350 C   0  0  0  0  0  0
  -26.4456  -31.6611   25.0739 C   0  0  0  0  0  0
  -25.3725  -31.3717   26.1491 C   0  0  0  0  0  0
  -27.0294  -30.3058   24.6103 C   0  0  0  0  0  0
  -27.6042  -32.4325   25.7498 C   0  0  0  0  0  0
  -27.5590  -37.1806   24.8458 C   0  0  0  0  0  0
  -21.4133  -29.3022   22.3748 N   0  0  0  0  0  0
  -26.4291  -37.3805   23.9416 N   0  0  0  0  0  0
  -24.6636  -31.0817   22.1031 N   0  0  0  0  0  0
  -23.4181  -28.8192   23.3043 O   0  0  0  0  0  0
  -28.3665  -26.6762   20.0415 O   0  0  0  0  0  0
  -26.5583  -34.8922   22.4699 O   0  0  0  0  0  0
  -23.5314  -32.1446   23.7531 O   0  0  0  0  0  0
  -30.4604  -20.7394   21.1058 C   0  0  0  0  0  0
  -30.2220  -22.1300   21.1246 C   0  0  0  0  0  0
  -29.4312  -19.8132   21.3925 C   0  0  0  0  0  0
  -28.9308  -22.6300   21.4049 C   0  0  0  0  0  0
  -28.1420  -20.3187   21.7045 C   0  0  0  0  0  0
  -27.8978  -21.7111   21.6972 C   0  0  0  0  0  0
  -30.2771  -17.9245   20.0756 C   0  0  0  0  0  0
  -29.0894  -17.4696   22.2333 C   0  0  0  0  0  0
  -29.7136  -16.5280   19.7339 C   0  0  0  0  0  0
  -29.8191  -16.1042   22.1897 C   0  0  0  0  0  0
  -29.6539  -25.0399   21.2582 C   0  0  0  0  0  0
  -29.0542  -26.4627   21.2695 C   0  0  0  0  0  0
  -29.7280  -18.4300   21.3324 N   0  0  0  0  0  0
  -29.9096  -15.5473   20.8234 N   0  0  0  0  0  0
  -28.6282  -24.0054   21.3900 N   0  0  0  0  0  0
  -27.1116  -19.4825   21.9822 F   0  0  0  0  0  0
  -26.6506  -22.1729   21.9672 F   0  0  0  0  0  0
  -31.4694  -12.4150   19.1254 H   0  0  0  0  0  0
  -30.3296  -11.2972   19.8248 H   0  0  0  0  0  0
  -29.7415  -11.7882   17.4273 H   0  0  0  0  0  0
  -29.6708  -13.4965   17.7768 H   0  0  0  0  0  0
  -27.8222  -11.3137   18.8007 H   0  0  0  0  0  0
  -27.3740  -12.6582   17.7839 H   0  0  0  0  0  0
  -27.6999  -14.2533   19.5841 H   0  0  0  0  0  0
  -28.6780  -11.9517   21.3439 H   0  0  0  0  0  0
  -28.4610  -13.5943   21.8677 H   0  0  0  0  0  0
  -25.2748   -9.5684   22.4774 H   0  0  0  0  0  0
  -24.0001   -7.4615   22.7464 H   0  0  0  0  0  0
  -21.0828   -8.8755   19.8939 H   0  0  0  0  0  0
  -22.3675  -10.9668   19.6167 H   0  0  0  0  0  0
  -21.1982   -7.6143   23.9718 H   0  0  0  0  0  0
  -21.1492   -6.0530   25.9088 H   0  0  0  0  0  0
  -22.0590   -2.7602   23.2868 H   0  0  0  0  0  0
  -22.4066  -11.9896   22.4809 H   0  0  0  0  0  0
  -21.1102  -13.1283   22.2581 H   0  0  0  0  0  0
  -24.6753  -15.8500   20.5341 H   0  0  0  0  0  0
  -26.3048  -15.6229   20.1359 H   0  0  0  0  0  0
  -26.7099  -32.5571   23.1198 H   0  0  0  0  0  0
  -25.0063  -33.9815   25.0511 H   0  0  0  0  0  0
  -22.6872  -31.3074   21.4133 H   0  0  0  0  0  0
  -23.3753  -35.9650   23.3291 H   0  0  0  0  0  0
  -24.3587  -36.8944   22.2055 H   0  0  0  0  0  0
  -23.7222  -37.6519   23.6648 H   0  0  0  0  0  0
  -26.0330  -31.6061   20.5952 H   0  0  0  0  0  0
  -26.8151  -30.9004   21.9829 H   0  0  0  0  0  0
  -28.0971  -29.1251   21.1833 H   0  0  0  0  0  0
  -26.0941  -25.9914   19.0016 H   0  0  0  0  0  0
  -23.9898  -27.2985   19.0261 H   0  0  0  0  0  0
  -23.7156  -30.5995   19.4061 H   0  0  0  0  0  0
  -22.7373  -29.2411   19.8725 H   0  0  0  0  0  0
  -25.1276  -36.2000   25.0835 H   0  0  0  0  0  0
  -20.9946  -28.3199   24.1450 H   0  0  0  0  0  0
  -20.5669  -26.2246   23.3603 H   0  0  0  0  0  0
  -21.6631  -26.7435   22.1203 H   0  0  0  0  0  0
  -19.6896  -25.6287   21.1240 H   0  0  0  0  0  0
  -19.6690  -27.3192   20.6749 H   0  0  0  0  0  0
  -17.4192  -26.6678   21.4020 H   0  0  0  0  0  0
  -18.0303  -26.0050   22.9015 H   0  0  0  0  0  0
  -19.7919  -30.7238   24.2317 H   0  0  0  0  0  0
  -17.4998  -31.6268   24.5141 H   0  0  0  0  0  0
  -15.5336  -30.2991   23.7621 H   0  0  0  0  0  0
  -15.8657  -28.0813   22.7060 H   0  0  0  0  0  0
  -24.5870  -30.7101   25.7810 H   0  0  0  0  0  0
  -24.8952  -32.2884   26.4967 H   0  0  0  0  0  0
  -25.8064  -30.8845   27.0232 H   0  0  0  0  0  0
  -26.2845  -29.6830   24.1130 H   0  0  0  0  0  0
  -27.4049  -29.7277   25.4556 H   0  0  0  0  0  0
  -27.8682  -30.4392   23.9266 H   0  0  0  0  0  0
  -27.2662  -33.3608   26.2112 H   0  0  0  0  0  0
  -28.3824  -32.6913   25.0305 H   0  0  0  0  0  0
  -28.0735  -31.8431   26.5382 H   0  0  0  0  0  0
  -28.2577  -38.0132   24.7545 H   0  0  0  0  0  0
  -28.1110  -36.2665   24.6221 H   0  0  0  0  0  0
  -27.2313  -37.1384   25.8859 H   0  0  0  0  0  0
  -20.9285  -29.8749   21.6983 H   0  0  0  0  0  0
  -26.0186  -38.2883   24.1445 H   0  0  0  0  0  0
  -31.4546  -20.3856   20.8766 H   0  0  0  0  0  0
  -31.0435  -22.7952   20.9029 H   0  0  0  0  0  0
  -30.0489  -18.6131   19.2592 H   0  0  0  0  0  0
  -31.3660  -17.8844   20.1475 H   0  0  0  0  0  0
  -29.0858  -17.8626   23.2525 H   0  0  0  0  0  0
  -28.0472  -17.3281   21.9428 H   0  0  0  0  0  0
  -30.1591  -16.1852   18.7973 H   0  0  0  0  0  0
  -28.6445  -16.6015   19.5335 H   0  0  0  0  0  0
  -29.3130  -15.4030   22.8526 H   0  0  0  0  0  0
  -30.8273  -16.2234   22.5924 H   0  0  0  0  0  0
  -30.3516  -24.9414   22.0916 H   0  0  0  0  0  0
  -30.2313  -24.8918   20.3441 H   0  0  0  0  0  0
  -29.8524  -27.2016   21.3528 H   0  0  0  0  0  0
  -28.4033  -26.5914   22.1382 H   0  0  0  0  0  0
  -27.6623  -24.2984   21.5130 H   0  0  0  0  0  0
  1 25  1  0  0  0
  1 30  2  0  0  0
  1 84  1  0  0  0
  2  3  1  0  0  0
  2 25  1  0  0  0
  2 88  1  0  0  0
  2 89  1  0  0  0
  3  4  1  0  0  0
  3 90  1  0  0  0
  3 91  1  0  0  0
  4  5  1  0  0  0
  4 92  1  0  0  0
  4 93  1  0  0  0
  5  6  1  0  0  0
  5 26  1  0  0  0
  5 94  1  0  0  0
  6 25  1  0  0  0
  6 95  1  0  0  0
  6 96  1  0  0  0
  7  8  2  0  0  0
  7 26  1  0  0  0
  7 29  1  0  0  0
  8  9  1  0  0  0
  8 22  1  0  0  0
  9 10  1  0  0  0
  9 27  2  0  0  0
 10 11  2  0  0  0
 10 15  1  0  0  0
 11 12  1  0  0  0
 11 97  1  0  0  0
 12 13  2  0  0  0
 12 98  1  0  0  0
 13 14  1  0  0  0
 13 31  1  0  0  0
 14 15  2  0  0  0
 14 99  1  0  0  0
 15100  1  0  0  0
 16 17  2  0  0  0
 16 21  1  0  0  0
 16 31  1  0  0  0
 17 18  1  0  0  0
 17101  1  0  0  0
 18 19  2  0  0  0
 18102  1  0  0  0
 19 20  1  0  0  0
 19 24  1  0  0  0
 20 21  2  0  0  0
 20103  1  0  0  0
 21 23  1  0  0  0
 22 28  1  0  0  0
 22 32  2  0  0  0
 26 27  1  0  0  0
 28104  1  0  0  0
 28105  1  0  0  0
 29106  1  0  0  0
 29107  1  0  0  0
 33 34  1  0  0  0
 33 66  1  0  0  0
 33 70  2  0  0  0
 34 36  1  0  0  0
 34 59  1  0  0  0
 34108  1  0  0  0
 35 44  2  0  0  0
 35 45  1  0  0  0
 35 68  1  0  0  0
 36 56  1  0  0  0
 36109  1  0  0  0
 37 39  1  0  0  0
 37 47  1  0  0  0
 37 66  1  0  0  0
 37110  1  0  0  0
 38 43  2  0  0  0
 38 46  1  0  0  0
 38 47  1  0  0  0
 39 64  1  0  0  0
 39 67  2  0  0  0
 40 52  1  0  0  0
 40 53  2  0  0  0
 40 58  1  0  0  0
 41111  1  0  0  0
 41112  1  0  0  0
 41113  1  0  0  0
 41 48  1  0  0  0
 42 43  1  0  0  0
 42 66  1  0  0  0
 42114  1  0  0  0
 42115  1  0  0  0
 43 44  1  0  0  0
 44116  1  0  0  0
 45 46  2  0  0  0
 45117  1  0  0  0
 46118  1  0  0  0
 47119  1  0  0  0
 47120  1  0  0  0
 48 56  1  0  0  0
 48 65  1  0  0  0
 48121  1  0  0  0
 49 50  1  0  0  0
 49 53  1  0  0  0
 49 64  1  0  0  0
 49122  1  0  0  0
 50 51  1  0  0  0
 50123  1  0  0  0
 50124  1  0  0  0
 51 52  1  0  0  0
 51125  1  0  0  0
 51126  1  0  0  0
 52127  1  0  0  0
 52128  1  0  0  0
 53 54  1  0  0  0
 54 55  2  0  0  0
 54129  1  0  0  0
 55 57  1  0  0  0
 55130  1  0  0  0
 56 69  2  0  0  0
 57 58  2  0  0  0
 57131  1  0  0  0
 58132  1  0  0  0
 59 60  1  0  0  0
 59 61  1  0  0  0
 59 62  1  0  0  0
 60133  1  0  0  0
 60134  1  0  0  0
 60135  1  0  0  0
 61136  1  0  0  0
 61137  1  0  0  0
 61138  1  0  0  0
 62139  1  0  0  0
 62140  1  0  0  0
 62141  1  0  0  0
 63 65  1  0  0  0
 63142  1  0  0  0
 63143  1  0  0  0
 63144  1  0  0  0
 64145  1  0  0  0
 65146  1  0  0  0
 68 82  1  0  0  0
 71 72  2  0  0  0
 71 73  1  0  0  0
 71147  1  0  0  0
 72 74  1  0  0  0
 72148  1  0  0  0
 73 75  2  0  0  0
 73 83  1  0  0  0
 74 76  2  0  0  0
 74 85  1  0  0  0
 75 76  1  0  0  0
 75 86  1  0  0  0
 76 87  1  0  0  0
 77 79  1  0  0  0
 77 83  1  0  0  0
 77149  1  0  0  0
 77150  1  0  0  0
 78 80  1  0  0  0
 78 83  1  0  0  0
 78151  1  0  0  0
 78152  1  0  0  0
 79 84  1  0  0  0
 79153  1  0  0  0
 79154  1  0  0  0
 80 84  1  0  0  0
 80155  1  0  0  0
 80156  1  0  0  0
 81 82  1  0  0  0
 81 85  1  0  0  0
 81157  1  0  0  0
 81158  1  0  0  0
 82159  1  0  0  0
 82160  1  0  0  0
 85161  1  0  0  0
M  ISO  4   1 100  68 101  82 101  84 100
M  END
> <chiral flag>
0

> <version>
0

> <s_m_source_file>
/data/baiqing/PycharmProjects/Reinvent-master-3.2/result/LINK_invent/BTK/process_docking_weight1_custom_product_contain_oxygen_bond_distance_aromatic_linkinvent_7_9_3/rearranged_h_0010.sdf

> <i_m_source_file_index>
91

> <r_mmod_Potential_Energy-OPLS-2005>
224.943298339844

> <r_mmod_Stretch_Energy-OPLS-2005>
38.3751182556152

> <r_mmod_Bend_Energy-OPLS-2005>
113.938514709473

> <r_mmod_Torsional_Energy-OPLS-2005>
377.864471435547

> <r_mmod_Improper_Torsional_Energy-OPLS-2005>
13.6867027282715

> <r_mmod_Van_der_Waal_Energy-OPLS-2005>
161.404693603516

> <r_mmod_Electrostatic_Energy-OPLS-2005>
-285.298370361328

> <r_mmod_Solvation_Energy-OPLS-2005>
-207.121658325195

> <b_mmod_Minimization_Converged-OPLS-2005>
0

> <r_mmod_RMS_Derivative-OPLS-2005>
1.83715951442719

$$$$
91
                    3D
 Structure written by MMmdl.
152161  0  0  1  0            999 V2000
  -30.6041  -14.9595   20.4016 C   0  0  0  0  0  0
  -30.4133  -12.5948   19.5193 C   0  0  0  0  0  0
  -29.5175  -12.5272   18.2635 C   0  0  0  0  0  0
  -28.0491  -12.3151   18.6739 C   0  0  0  0  0  0
  -27.6138  -13.2644   19.8207 C   0  0  2  0  0  0
  -28.6506  -13.3465   20.9588 C   0  0  0  0  0  0
  -25.2383  -13.8250   20.5683 C   0  0  0  0  0  0
  -24.1726  -13.0448   20.9234 C   0  0  0  0  0  0
  -24.6370  -11.6941   20.8752 C   0  0  0  0  0  0
  -23.9081  -10.4292   21.0401 C   0  0  0  0  0  0
  -24.3625   -9.4205   21.9175 C   0  0  0  0  0  0
  -23.6292   -8.2242   22.0755 C   0  0  0  0  0  0
  -22.4268   -8.0281   21.3557 C   0  0  0  0  0  0
  -21.9922   -9.0257   20.4655 C   0  0  0  0  0  0
  -22.7257  -10.2133   20.3058 C   0  0  0  0  0  0
  -21.6853   -6.0734   22.5284 C   0  0  0  0  0  0
  -21.4019   -6.5638   23.8222 C   0  0  0  0  0  0
  -21.3655   -5.6785   24.9176 C   0  0  0  0  0  0
  -21.6053   -4.3052   24.7225 C   0  0  0  0  0  0
  -21.8821   -3.8145   23.4345 C   0  0  0  0  0  0
  -21.9195   -4.6961   22.3401 C   0  0  0  0  0  0
  -22.7748  -13.5203   21.1900 C   0  0  0  0  0  0
  -22.1663   -4.2156   21.0977 F   0  0  0  0  0  0
  -21.5625   -3.4524   25.7728 F   0  0  0  0  0  0
  -29.9298  -13.7347   20.3594 N   0  0  0  0  0  0
  -26.2805  -12.9516   20.3160 N   0  0  0  0  0  0
  -25.9306  -11.6643   20.5705 N   0  0  0  0  0  0
  -22.0405  -12.8197   22.0460 N   0  0  0  0  0  0
  -25.4002  -15.1986   20.4075 N   0  0  0  0  0  0
  -31.8184  -14.8728   20.1889 O   0  0  0  0  0  0
  -21.6638   -6.8871   21.4248 O   0  0  0  0  0  0
  -22.3439  -14.5496   20.6723 O   0  0  0  0  0  0
  -24.6441  -31.8424   23.1846 C   0  0  0  0  0  0
  -25.9203  -32.4684   23.8249 C   0  0  1  0  0  0
  -27.2080  -27.1174   20.1665 C   0  0  0  0  0  0
  -25.5938  -33.8495   24.2156 N   0  0  0  0  0  0
  -23.4469  -30.4610   21.5316 C   0  0  2  0  0  0
  -24.8941  -28.8755   20.1157 C   0  0  0  0  0  0
  -22.7567  -29.4530   22.4861 C   0  0  0  0  0  0
  -18.0318  -28.1407   22.8487 C   0  0  0  0  0  0
  -24.1483  -36.7249   23.2638 C   0  0  0  0  0  0
  -26.0038  -30.7096   21.3845 C   0  0  0  0  0  0
  -26.0733  -29.3184   20.7292 C   0  0  0  0  0  0
  -27.2345  -28.4569   20.7303 C   0  0  0  0  0  0
  -26.0027  -26.7689   19.5253 C   0  0  0  0  0  0
  -24.8721  -27.6150   19.4966 C   0  0  0  0  0  0
  -23.6737  -29.7825   20.1541 C   0  0  0  0  0  0
  -25.4122  -36.3031   24.0309 C   0  0  1  0  0  0
  -20.5920  -28.3722   23.1233 C   0  0  2  0  0  0
  -20.6796  -26.9427   22.5399 C   0  0  0  0  0  0
  -19.5766  -26.6383   21.5216 C   0  0  0  0  0  0
  -18.1950  -26.7946   22.1625 C   0  0  0  0  0  0
  -19.1572  -28.8887   23.2848 C   0  0  0  0  0  0
  -18.9485  -30.1487   23.8874 C   0  0  0  0  0  0
  -17.6478  -30.6604   24.0564 C   0  0  0  0  0  0
  -25.9076  -34.9405   23.5046 C   0  0  0  0  0  0
  -16.5374  -29.9093   23.6339 C   0  0  0  0  0  0
  -16.7293  -28.6508   23.0360 C   0  0  0  0  0  0
  -26.4516  -31.6573   25.0710 C   0  0  0  0  0  0
  -25.3685  -31.3782   26.1398 C   0  0  0  0  0  0
  -27.0388  -30.2968   24.6310 C   0  0  0  0  0  0
  -27.6032  -32.4355   25.7497 C   0  0  0  0  0  0
  -27.5573  -37.1784   24.8467 C   0  0  0  0  0  0
  -21.4260  -29.3050   22.3604 N   0  0  0  0  0  0
  -26.4286  -37.3747   23.9410 N   0  0  0  0  0  0
  -24.7182  -31.0274   22.0881 N   0  0  0  0  0  0
  -23.4212  -28.8094   23.3018 O   0  0  0  0  0  0
  -28.2695  -26.1436   20.1831 O   0  0  0  0  0  0
  -26.5670  -34.8907   22.4628 O   0  0  0  0  0  0
  -23.5555  -32.1309   23.7054 O   0  0  0  0  0  0
  -30.9238  -17.5711   20.0410 C   0  0  0  0  0  0
  -30.5692  -18.9724   19.9501 C   0  0  0  0  0  0
  -28.7505  -17.0297   20.7362 C   0  0  0  0  0  0
  -30.0485  -16.4870   20.4063 C   0  0  0  0  0  0
  -29.2687  -19.5170   20.2088 C   0  0  0  0  0  0
  -28.3795  -18.4502   20.6240 C   0  0  0  0  0  0
  -27.6283  -23.4290   19.6346 C   0  0  0  0  0  0
  -29.2676  -23.5927   20.7306 C   0  0  0  0  0  0
  -28.0640  -24.6374   20.5659 C   0  0  1  0  0  0
  -28.8729  -21.0609   19.7047 C   0  0  0  0  0  0
  -28.3906  -22.3847   20.4464 N   0  3  1  0  0  0
  -27.0935  -18.7774   20.8915 F   0  0  0  0  0  0
  -31.4571  -12.6965   19.2179 H   0  0  0  0  0  0
  -30.3654  -11.6582   20.0779 H   0  0  0  0  0  0
  -29.8434  -11.7199   17.6068 H   0  0  0  0  0  0
  -29.6133  -13.4528   17.6916 H   0  0  0  0  0  0
  -27.9440  -11.2766   18.9892 H   0  0  0  0  0  0
  -27.3920  -12.4371   17.8122 H   0  0  0  0  0  0
  -27.5609  -14.2548   19.3682 H   0  0  0  0  0  0
  -28.7376  -12.3923   21.4814 H   0  0  0  0  0  0
  -28.3482  -14.0812   21.7057 H   0  0  0  0  0  0
  -25.2765   -9.5693   22.4753 H   0  0  0  0  0  0
  -24.0015   -7.4646   22.7485 H   0  0  0  0  0  0
  -21.0853   -8.8798   19.8956 H   0  0  0  0  0  0
  -22.3723  -10.9683   19.6179 H   0  0  0  0  0  0
  -21.2025   -7.6152   23.9720 H   0  0  0  0  0  0
  -21.1465   -6.0518   25.9078 H   0  0  0  0  0  0
  -22.0599   -2.7606   23.2860 H   0  0  0  0  0  0
  -22.4025  -11.9889   22.4915 H   0  0  0  0  0  0
  -21.1026  -13.1232   22.2645 H   0  0  0  0  0  0
  -24.6259  -15.8431   20.5218 H   0  0  0  0  0  0
  -26.2265  -15.6419   20.0288 H   0  0  0  0  0  0
  -26.7264  -32.5285   23.0969 H   0  0  0  0  0  0
  -25.0059  -33.9604   25.0287 H   0  0  0  0  0  0
  -22.7497  -31.2867   21.3720 H   0  0  0  0  0  0
  -23.3755  -35.9573   23.3302 H   0  0  0  0  0  0
  -24.3553  -36.8888   22.2052 H   0  0  0  0  0  0
  -23.7240  -37.6436   23.6689 H   0  0  0  0  0  0
  -26.1605  -31.4601   20.6098 H   0  0  0  0  0  0
  -26.8728  -30.7600   22.0281 H   0  0  0  0  0  0
  -28.1386  -28.7935   21.2182 H   0  0  0  0  0  0
  -25.9183  -25.8021   19.0527 H   0  0  0  0  0  0
  -23.9712  -27.2708   19.0073 H   0  0  0  0  0  0
  -23.8119  -30.5506   19.3931 H   0  0  0  0  0  0
  -22.7878  -29.2268   19.8414 H   0  0  0  0  0  0
  -25.1315  -36.1841   25.0805 H   0  0  0  0  0  0
  -21.0026  -28.3337   24.1347 H   0  0  0  0  0  0
  -20.5695  -26.2354   23.3629 H   0  0  0  0  0  0
  -21.6665  -26.7447   22.1198 H   0  0  0  0  0  0
  -19.6929  -25.6284   21.1270 H   0  0  0  0  0  0
  -19.6704  -27.3179   20.6737 H   0  0  0  0  0  0
  -17.4219  -26.6697   21.4032 H   0  0  0  0  0  0
  -18.0353  -26.0096   22.9026 H   0  0  0  0  0  0
  -19.7956  -30.7314   24.2240 H   0  0  0  0  0  0
  -17.5025  -31.6282   24.5169 H   0  0  0  0  0  0
  -15.5367  -30.2983   23.7675 H   0  0  0  0  0  0
  -15.8696  -28.0810   22.7096 H   0  0  0  0  0  0
  -24.5845  -30.7162   25.7707 H   0  0  0  0  0  0
  -24.8906  -32.2982   26.4774 H   0  0  0  0  0  0
  -25.7950  -30.8970   27.0209 H   0  0  0  0  0  0
  -26.3019  -29.6685   24.1304 H   0  0  0  0  0  0
  -27.3969  -29.7278   25.4897 H   0  0  0  0  0  0
  -27.8934  -30.4195   23.9657 H   0  0  0  0  0  0
  -27.2601  -33.3657   26.2031 H   0  0  0  0  0  0
  -28.3862  -32.6923   25.0352 H   0  0  0  0  0  0
  -28.0683  -31.8527   26.5450 H   0  0  0  0  0  0
  -28.2589  -38.0077   24.7503 H   0  0  0  0  0  0
  -28.1071  -36.2613   24.6315 H   0  0  0  0  0  0
  -27.2287  -37.1441   25.8865 H   0  0  0  0  0  0
  -20.9486  -29.8741   21.6751 H   0  0  0  0  0  0
  -26.0146  -38.2811   24.1422 H   0  0  0  0  0  0
  -31.9430  -17.3218   19.7745 H   0  0  0  0  0  0
  -31.3316  -19.6437   19.5816 H   0  0  0  0  0  0
  -27.9852  -16.3412   21.0596 H   0  0  0  0  0  0
  -28.0167  -23.5178   18.6180 H   0  0  0  0  0  0
  -26.5531  -23.2551   19.6048 H   0  0  0  0  0  0
  -29.7019  -23.5749   21.7305 H   0  0  0  0  0  0
  -30.0551  -23.7279   19.9864 H   0  0  0  0  0  0
  -27.4648  -24.6224   21.4787 H   0  0  0  0  0  0
  -28.0545  -20.8618   19.0137 H   0  0  0  0  0  0
  -29.6820  -21.3743   19.0459 H   0  0  0  0  0  0
  -27.8403  -22.1417   21.2573 H   0  0  0  0  0  0
  1 25  1  0  0  0
  1 30  2  0  0  0
  1 74  1  0  0  0
  2  3  1  0  0  0
  2 25  1  0  0  0
  2 83  1  0  0  0
  2 84  1  0  0  0
  3  4  1  0  0  0
  3 85  1  0  0  0
  3 86  1  0  0  0
  4  5  1  0  0  0
  4 87  1  0  0  0
  4 88  1  0  0  0
  5  6  1  0  0  0
  5 26  1  0  0  0
  5 89  1  0  0  0
  6 25  1  0  0  0
  6 90  1  0  0  0
  6 91  1  0  0  0
  7  8  2  0  0  0
  7 26  1  0  0  0
  7 29  1  0  0  0
  8  9  1  0  0  0
  8 22  1  0  0  0
  9 10  1  0  0  0
  9 27  2  0  0  0
 10 11  2  0  0  0
 10 15  1  0  0  0
 11 12  1  0  0  0
 11 92  1  0  0  0
 12 13  2  0  0  0
 12 93  1  0  0  0
 13 14  1  0  0  0
 13 31  1  0  0  0
 14 15  2  0  0  0
 14 94  1  0  0  0
 15 95  1  0  0  0
 16 17  2  0  0  0
 16 21  1  0  0  0
 16 31  1  0  0  0
 17 18  1  0  0  0
 17 96  1  0  0  0
 18 19  2  0  0  0
 18 97  1  0  0  0
 19 20  1  0  0  0
 19 24  1  0  0  0
 20 21  2  0  0  0
 20 98  1  0  0  0
 21 23  1  0  0  0
 22 28  1  0  0  0
 22 32  2  0  0  0
 26 27  1  0  0  0
 28 99  1  0  0  0
 28100  1  0  0  0
 29101  1  0  0  0
 29102  1  0  0  0
 33 34  1  0  0  0
 33 66  1  0  0  0
 33 70  2  0  0  0
 34 36  1  0  0  0
 34 59  1  0  0  0
 34103  1  0  0  0
 35 44  2  0  0  0
 35 45  1  0  0  0
 35 68  1  0  0  0
 36 56  1  0  0  0
 36104  1  0  0  0
 37 39  1  0  0  0
 37 47  1  0  0  0
 37 66  1  0  0  0
 37105  1  0  0  0
 38 43  2  0  0  0
 38 46  1  0  0  0
 38 47  1  0  0  0
 39 64  1  0  0  0
 39 67  2  0  0  0
 40 52  1  0  0  0
 40 53  2  0  0  0
 40 58  1  0  0  0
 41106  1  0  0  0
 41107  1  0  0  0
 41108  1  0  0  0
 41 48  1  0  0  0
 42 43  1  0  0  0
 42 66  1  0  0  0
 42109  1  0  0  0
 42110  1  0  0  0
 43 44  1  0  0  0
 44111  1  0  0  0
 45 46  2  0  0  0
 45112  1  0  0  0
 46113  1  0  0  0
 47114  1  0  0  0
 47115  1  0  0  0
 48 56  1  0  0  0
 48 65  1  0  0  0
 48116  1  0  0  0
 49 50  1  0  0  0
 49 53  1  0  0  0
 49 64  1  0  0  0
 49117  1  0  0  0
 50 51  1  0  0  0
 50118  1  0  0  0
 50119  1  0  0  0
 51 52  1  0  0  0
 51120  1  0  0  0
 51121  1  0  0  0
 52122  1  0  0  0
 52123  1  0  0  0
 53 54  1  0  0  0
 54 55  2  0  0  0
 54124  1  0  0  0
 55 57  1  0  0  0
 55125  1  0  0  0
 56 69  2  0  0  0
 57 58  2  0  0  0
 57126  1  0  0  0
 58127  1  0  0  0
 59 60  1  0  0  0
 59 61  1  0  0  0
 59 62  1  0  0  0
 60128  1  0  0  0
 60129  1  0  0  0
 60130  1  0  0  0
 61131  1  0  0  0
 61132  1  0  0  0
 61133  1  0  0  0
 62134  1  0  0  0
 62135  1  0  0  0
 62136  1  0  0  0
 63 65  1  0  0  0
 63137  1  0  0  0
 63138  1  0  0  0
 63139  1  0  0  0
 64140  1  0  0  0
 65141  1  0  0  0
 68 79  1  0  0  0
 71 72  2  0  0  0
 71 74  1  0  0  0
 71142  1  0  0  0
 72 75  1  0  0  0
 72143  1  0  0  0
 73 74  2  0  0  0
 73 76  1  0  0  0
 73144  1  0  0  0
 75 76  2  0  0  0
 75 80  1  0  0  0
 76 82  1  0  0  0
 77 79  1  0  0  0
 77 81  1  0  0  0
 77145  1  0  0  0
 77146  1  0  0  0
 78 79  1  0  0  0
 78 81  1  0  0  0
 78147  1  0  0  0
 78148  1  0  0  0
 79149  1  0  0  0
 80150  1  0  0  0
 80151  1  0  0  0
 80 81  1  0  0  0
 81152  1  0  0  0
M  CHG  1  81   1
M  ISO  4   1 100  68 101  74 100  79 101
M  END
> <chiral flag>
0

> <version>
0

> <s_m_source_file>
/data/baiqing/PycharmProjects/Reinvent-master-3.2/result/LINK_invent/BTK/process_docking_weight1_custom_product_contain_oxygen_bond_distance_aromatic_linkinvent_7_9_3/rearranged_h_0010.sdf

> <i_m_source_file_index>
92

> <r_mmod_Potential_Energy-OPLS-2005>
391.894866943359

> <r_mmod_Stretch_Energy-OPLS-2005>
237.532928466797

> <r_mmod_Bend_Energy-OPLS-2005>
347.543060302734

> <r_mmod_Torsional_Energy-OPLS-2005>
217.703582763672

> <r_mmod_Improper_Torsional_Energy-OPLS-2005>
8.74036312103271

> <r_mmod_Van_der_Waal_Energy-OPLS-2005>
131.962417602539

> <r_mmod_Electrostatic_Energy-OPLS-2005>
-299.890594482422

> <r_mmod_Solvation_Energy-OPLS-2005>
-454.3623046875

> <b_mmod_Minimization_Converged-OPLS-2005>
0

> <r_mmod_RMS_Derivative-OPLS-2005>
2.6601939201355

$$$$
92
                    3D
 Structure written by MMmdl.
151159  0  0  1  0            999 V2000
  -30.6207  -14.6404   20.5017 C   0  0  0  0  0  0
  -30.4366  -12.3919   19.4535 C   0  0  0  0  0  0
  -29.5098  -12.5192   18.2233 C   0  0  0  0  0  0
  -28.0301  -12.3614   18.6287 C   0  0  0  0  0  0
  -27.6546  -13.2197   19.8662 C   0  0  2  0  0  0
  -28.6989  -13.0661   20.9954 C   0  0  0  0  0  0
  -25.2562  -13.8176   20.5677 C   0  0  0  0  0  0
  -24.1832  -13.0437   20.9184 C   0  0  0  0  0  0
  -24.6408  -11.6909   20.8734 C   0  0  0  0  0  0
  -23.9071  -10.4294   21.0403 C   0  0  0  0  0  0
  -24.3624   -9.4210   21.9184 C   0  0  0  0  0  0
  -23.6305   -8.2243   22.0754 C   0  0  0  0  0  0
  -22.4286   -8.0284   21.3541 C   0  0  0  0  0  0
  -21.9914   -9.0260   20.4646 C   0  0  0  0  0  0
  -22.7240  -10.2138   20.3055 C   0  0  0  0  0  0
  -21.6857   -6.0737   22.5278 C   0  0  0  0  0  0
  -21.4014   -6.5640   23.8212 C   0  0  0  0  0  0
  -21.3660   -5.6793   24.9175 C   0  0  0  0  0  0
  -21.6046   -4.3057   24.7221 C   0  0  0  0  0  0
  -21.8818   -3.8145   23.4342 C   0  0  0  0  0  0
  -21.9192   -4.6963   22.3399 C   0  0  0  0  0  0
  -22.7853  -13.5234   21.1843 C   0  0  0  0  0  0
  -22.1661   -4.2148   21.0977 F   0  0  0  0  0  0
  -21.5634   -3.4541   25.7733 F   0  0  0  0  0  0
  -30.0151  -13.4116   20.4353 N   0  0  0  0  0  0
  -26.2997  -12.9363   20.3319 N   0  0  0  0  0  0
  -25.9335  -11.6512   20.5749 N   0  0  0  0  0  0
  -22.0486  -12.8240   22.0403 N   0  0  0  0  0  0
  -25.4262  -15.1899   20.4079 N   0  0  0  0  0  0
  -31.7816  -14.8007   20.1137 O   0  0  0  0  0  0
  -21.6645   -6.8881   21.4242 O   0  0  0  0  0  0
  -22.3545  -14.5541   20.6689 O   0  0  0  0  0  0
  -24.6261  -31.8609   23.2045 C   0  0  0  0  0  0
  -25.9106  -32.4786   23.8370 C   0  0  1  0  0  0
  -27.2208  -27.3184   20.1168 C   0  0  0  0  0  0
  -25.5922  -33.8588   24.2296 N   0  0  0  0  0  0
  -23.4191  -30.4865   21.5481 C   0  0  2  0  0  0
  -24.8644  -28.9431   20.1147 C   0  0  0  0  0  0
  -22.7475  -29.4631   22.4947 C   0  0  0  0  0  0
  -18.0285  -28.1384   22.8493 C   0  0  0  0  0  0
  -24.1484  -36.7305   23.2639 C   0  0  0  0  0  0
  -25.9610  -30.7917   21.3754 C   0  0  0  0  0  0
  -26.0348  -29.4188   20.7191 C   0  0  0  0  0  0
  -27.2166  -28.6186   20.7108 C   0  0  0  0  0  0
  -26.0277  -26.9035   19.4793 C   0  0  0  0  0  0
  -24.8629  -27.6902   19.4870 C   0  0  0  0  0  0
  -23.6338  -29.8253   20.1625 C   0  0  0  0  0  0
  -25.4108  -36.3093   24.0334 C   0  0  1  0  0  0
  -20.5887  -28.3687   23.1297 C   0  0  2  0  0  0
  -20.6778  -26.9412   22.5417 C   0  0  0  0  0  0
  -19.5748  -26.6383   21.5224 C   0  0  0  0  0  0
  -18.1930  -26.7927   22.1635 C   0  0  0  0  0  0
  -19.1538  -28.8852   23.2889 C   0  0  0  0  0  0
  -18.9458  -30.1459   23.8898 C   0  0  0  0  0  0
  -17.6457  -30.6586   24.0566 C   0  0  0  0  0  0
  -25.9048  -34.9459   23.5116 C   0  0  0  0  0  0
  -16.5350  -29.9089   23.6324 C   0  0  0  0  0  0
  -16.7273  -28.6507   23.0345 C   0  0  0  0  0  0
  -26.4484  -31.6584   25.0734 C   0  0  0  0  0  0
  -25.3716  -31.3731   26.1462 C   0  0  0  0  0  0
  -27.0320  -30.3006   24.6178 C   0  0  0  0  0  0
  -27.6040  -32.4319   25.7509 C   0  0  0  0  0  0
  -27.5581  -37.1809   24.8464 C   0  0  0  0  0  0
  -21.4188  -29.3042   22.3692 N   0  0  0  0  0  0
  -26.4287  -37.3788   23.9414 N   0  0  0  0  0  0
  -24.6878  -31.0628   22.0996 N   0  0  0  0  0  0
  -23.4204  -28.8162   23.3016 O   0  0  0  0  0  0
  -28.3380  -26.4663   20.1474 O   0  0  0  0  0  0
  -26.5621  -34.8920   22.4686 O   0  0  0  0  0  0
  -23.5426  -32.1409   23.7376 O   0  0  0  0  0  0
  -30.9863  -17.8445   20.1353 C   0  0  0  0  0  0
  -30.9685  -19.2641   19.9932 C   0  0  0  0  0  0
  -28.7959  -17.9532   21.1125 C   0  0  0  0  0  0
  -29.8921  -17.1406   20.7028 C   0  0  0  0  0  0
  -29.8751  -20.0780   20.4000 C   0  0  0  0  0  0
  -28.7766  -19.3749   20.9706 C   0  0  0  0  0  0
  -29.2657  -23.9632   20.2182 C   0  0  0  0  0  0
  -28.0896  -25.0186   20.3689 C   0  0  0  0  0  0
  -28.9132  -22.4303   20.4994 C   0  0  0  0  0  0
  -29.8096  -15.6840   20.8721 N   0  0  0  0  0  0
  -29.9850  -21.4758   20.2123 O   0  0  0  0  0  0
  -27.6825  -20.0505   21.3985 F   0  0  0  0  0  0
  -31.4800  -12.5130   19.1578 H   0  0  0  0  0  0
  -30.3636  -11.3933   19.8877 H   0  0  0  0  0  0
  -29.7745  -11.7737   17.4721 H   0  0  0  0  0  0
  -29.6578  -13.4925   17.7514 H   0  0  0  0  0  0
  -27.8564  -11.3069   18.8449 H   0  0  0  0  0  0
  -27.3814  -12.6100   17.7878 H   0  0  0  0  0  0
  -27.6751  -14.2577   19.5349 H   0  0  0  0  0  0
  -28.7070  -12.0412   21.3704 H   0  0  0  0  0  0
  -28.4466  -13.6905   21.8533 H   0  0  0  0  0  0
  -25.2762   -9.5698   22.4766 H   0  0  0  0  0  0
  -24.0009   -7.4636   22.7478 H   0  0  0  0  0  0
  -21.0837   -8.8783   19.8964 H   0  0  0  0  0  0
  -22.3691  -10.9683   19.6175 H   0  0  0  0  0  0
  -21.2008   -7.6150   23.9716 H   0  0  0  0  0  0
  -21.1488   -6.0523   25.9081 H   0  0  0  0  0  0
  -22.0595   -2.7607   23.2840 H   0  0  0  0  0  0
  -22.4089  -11.9910   22.4815 H   0  0  0  0  0  0
  -21.1103  -13.1286   22.2588 H   0  0  0  0  0  0
  -24.6535  -15.8392   20.5078 H   0  0  0  0  0  0
  -26.2659  -15.6258   20.0488 H   0  0  0  0  0  0
  -26.7176  -32.5454   23.1120 H   0  0  0  0  0  0
  -25.0041  -33.9736   25.0421 H   0  0  0  0  0  0
  -22.7122  -31.3072   21.4089 H   0  0  0  0  0  0
  -23.3742  -35.9641   23.3296 H   0  0  0  0  0  0
  -24.3581  -36.8930   22.2055 H   0  0  0  0  0  0
  -23.7231  -37.6505   23.6659 H   0  0  0  0  0  0
  -26.0901  -31.5536   20.6055 H   0  0  0  0  0  0
  -26.8432  -30.8433   22.0018 H   0  0  0  0  0  0
  -28.1141  -28.9809   21.1926 H   0  0  0  0  0  0
  -25.9631  -25.9651   18.9527 H   0  0  0  0  0  0
  -23.9688  -27.3238   19.0015 H   0  0  0  0  0  0
  -23.7580  -30.6052   19.4102 H   0  0  0  0  0  0
  -22.7510  -29.2610   19.8558 H   0  0  0  0  0  0
  -25.1278  -36.1954   25.0826 H   0  0  0  0  0  0
  -20.9986  -28.3259   24.1416 H   0  0  0  0  0  0
  -20.5700  -26.2292   23.3614 H   0  0  0  0  0  0
  -21.6645  -26.7453   22.1199 H   0  0  0  0  0  0
  -19.6912  -25.6297   21.1248 H   0  0  0  0  0  0
  -19.6681  -27.3198   20.6759 H   0  0  0  0  0  0
  -17.4202  -26.6681   21.4034 H   0  0  0  0  0  0
  -18.0319  -26.0066   22.9030 H   0  0  0  0  0  0
  -19.7934  -30.7281   24.2258 H   0  0  0  0  0  0
  -17.5009  -31.6264   24.5173 H   0  0  0  0  0  0
  -15.5352  -30.2993   23.7638 H   0  0  0  0  0  0
  -15.8675  -28.0836   22.7043 H   0  0  0  0  0  0
  -24.5875  -30.7096   25.7793 H   0  0  0  0  0  0
  -24.8922  -32.2904   26.4894 H   0  0  0  0  0  0
  -25.8038  -30.8898   27.0234 H   0  0  0  0  0  0
  -26.2896  -29.6772   24.1177 H   0  0  0  0  0  0
  -27.3990  -29.7243   25.4681 H   0  0  0  0  0  0
  -27.8778  -30.4287   23.9419 H   0  0  0  0  0  0
  -27.2638  -33.3610   26.2096 H   0  0  0  0  0  0
  -28.3847  -32.6897   25.0339 H   0  0  0  0  0  0
  -28.0707  -31.8436   26.5420 H   0  0  0  0  0  0
  -28.2592  -38.0112   24.7515 H   0  0  0  0  0  0
  -28.1081  -36.2644   24.6274 H   0  0  0  0  0  0
  -27.2308  -37.1443   25.8869 H   0  0  0  0  0  0
  -20.9359  -29.8783   21.6922 H   0  0  0  0  0  0
  -26.0170  -38.2865   24.1414 H   0  0  0  0  0  0
  -31.8602  -17.3082   19.7940 H   0  0  0  0  0  0
  -31.8306  -19.7434   19.5523 H   0  0  0  0  0  0
  -27.9270  -17.4854   21.5514 H   0  0  0  0  0  0
  -30.0869  -24.2585   20.8705 H   0  0  0  0  0  0
  -29.6558  -24.0408   19.2037 H   0  0  0  0  0  0
  -27.6780  -24.9194   21.3744 H   0  0  0  0  0  0
  -27.3178  -24.6505   19.6997 H   0  0  0  0  0  0
  -28.0446  -22.1532   19.9005 H   0  0  0  0  0  0
  -28.6236  -22.3281   21.5461 H   0  0  0  0  0  0
  -28.9203  -15.3590   21.2197 H   0  0  0  0  0  0
  1 25  1  0  0  0
  1 30  2  0  0  0
  1 80  1  0  0  0
  2  3  1  0  0  0
  2 25  1  0  0  0
  2 83  1  0  0  0
  2 84  1  0  0  0
  3  4  1  0  0  0
  3 85  1  0  0  0
  3 86  1  0  0  0
  4  5  1  0  0  0
  4 87  1  0  0  0
  4 88  1  0  0  0
  5  6  1  0  0  0
  5 26  1  0  0  0
  5 89  1  0  0  0
  6 25  1  0  0  0
  6 90  1  0  0  0
  6 91  1  0  0  0
  7  8  2  0  0  0
  7 26  1  0  0  0
  7 29  1  0  0  0
  8  9  1  0  0  0
  8 22  1  0  0  0
  9 10  1  0  0  0
  9 27  2  0  0  0
 10 11  2  0  0  0
 10 15  1  0  0  0
 11 12  1  0  0  0
 11 92  1  0  0  0
 12 13  2  0  0  0
 12 93  1  0  0  0
 13 14  1  0  0  0
 13 31  1  0  0  0
 14 15  2  0  0  0
 14 94  1  0  0  0
 15 95  1  0  0  0
 16 17  2  0  0  0
 16 21  1  0  0  0
 16 31  1  0  0  0
 17 18  1  0  0  0
 17 96  1  0  0  0
 18 19  2  0  0  0
 18 97  1  0  0  0
 19 20  1  0  0  0
 19 24  1  0  0  0
 20 21  2  0  0  0
 20 98  1  0  0  0
 21 23  1  0  0  0
 22 28  1  0  0  0
 22 32  2  0  0  0
 26 27  1  0  0  0
 28 99  1  0  0  0
 28100  1  0  0  0
 29101  1  0  0  0
 29102  1  0  0  0
 33 34  1  0  0  0
 33 66  1  0  0  0
 33 70  2  0  0  0
 34 36  1  0  0  0
 34 59  1  0  0  0
 34103  1  0  0  0
 35 44  2  0  0  0
 35 45  1  0  0  0
 35 68  1  0  0  0
 36 56  1  0  0  0
 36104  1  0  0  0
 37 39  1  0  0  0
 37 47  1  0  0  0
 37 66  1  0  0  0
 37105  1  0  0  0
 38 43  2  0  0  0
 38 46  1  0  0  0
 38 47  1  0  0  0
 39 64  1  0  0  0
 39 67  2  0  0  0
 40 52  1  0  0  0
 40 53  2  0  0  0
 40 58  1  0  0  0
 41106  1  0  0  0
 41107  1  0  0  0
 41108  1  0  0  0
 41 48  1  0  0  0
 42 43  1  0  0  0
 42 66  1  0  0  0
 42109  1  0  0  0
 42110  1  0  0  0
 43 44  1  0  0  0
 44111  1  0  0  0
 45 46  2  0  0  0
 45112  1  0  0  0
 46113  1  0  0  0
 47114  1  0  0  0
 47115  1  0  0  0
 48 56  1  0  0  0
 48 65  1  0  0  0
 48116  1  0  0  0
 49 50  1  0  0  0
 49 53  1  0  0  0
 49 64  1  0  0  0
 49117  1  0  0  0
 50 51  1  0  0  0
 50118  1  0  0  0
 50119  1  0  0  0
 51 52  1  0  0  0
 51120  1  0  0  0
 51121  1  0  0  0
 52122  1  0  0  0
 52123  1  0  0  0
 53 54  1  0  0  0
 54 55  2  0  0  0
 54124  1  0  0  0
 55 57  1  0  0  0
 55125  1  0  0  0
 56 69  2  0  0  0
 57 58  2  0  0  0
 57126  1  0  0  0
 58127  1  0  0  0
 59 60  1  0  0  0
 59 61  1  0  0  0
 59 62  1  0  0  0
 60128  1  0  0  0
 60129  1  0  0  0
 60130  1  0  0  0
 61131  1  0  0  0
 61132  1  0  0  0
 61133  1  0  0  0
 62134  1  0  0  0
 62135  1  0  0  0
 62136  1  0  0  0
 63 65  1  0  0  0
 63137  1  0  0  0
 63138  1  0  0  0
 63139  1  0  0  0
 64140  1  0  0  0
 65141  1  0  0  0
 68 78  1  0  0  0
 71 72  2  0  0  0
 71 74  1  0  0  0
 71142  1  0  0  0
 72 75  1  0  0  0
 72143  1  0  0  0
 73 74  2  0  0  0
 73 76  1  0  0  0
 73144  1  0  0  0
 74 80  1  0  0  0
 75 76  2  0  0  0
 75 81  1  0  0  0
 76 82  1  0  0  0
 77 78  1  0  0  0
 77 79  1  0  0  0
 77145  1  0  0  0
 77146  1  0  0  0
 78147  1  0  0  0
 78148  1  0  0  0
 79 81  1  0  0  0
 79149  1  0  0  0
 79150  1  0  0  0
 80151  1  0  0  0
M  ISO  4   1 100  68 101  78 101  80 100
M  END
> <chiral flag>
0

> <version>
0

> <s_m_source_file>
/data/baiqing/PycharmProjects/Reinvent-master-3.2/result/LINK_invent/BTK/process_docking_weight1_custom_product_contain_oxygen_bond_distance_aromatic_linkinvent_7_9_3/rearranged_h_0010.sdf

> <i_m_source_file_index>
93

> <r_mmod_Potential_Energy-OPLS-2005>
74.7860946655273

> <r_mmod_Stretch_Energy-OPLS-2005>
79.5826568603516

> <r_mmod_Bend_Energy-OPLS-2005>
147.580917358398

> <r_mmod_Torsional_Energy-OPLS-2005>
214.559097290039

> <r_mmod_Improper_Torsional_Energy-OPLS-2005>
3.90157985687256

> <r_mmod_Van_der_Waal_Energy-OPLS-2005>
146.884353637695

> <r_mmod_Electrostatic_Energy-OPLS-2005>
-358.382598876953

> <r_mmod_Solvation_Energy-OPLS-2005>
-207.118133544922

> <b_mmod_Minimization_Converged-OPLS-2005>
0

> <r_mmod_RMS_Derivative-OPLS-2005>
1.06894218921661

$$$$
93
                    3D
 Structure written by MMmdl.
163171  0  0  1  0            999 V2000
  -30.6472  -14.7340   20.5024 C   0  0  0  0  0  0
  -30.4435  -12.4612   19.4711 C   0  0  0  0  0  0
  -29.5086  -12.5269   18.2416 C   0  0  0  0  0  0
  -28.0389  -12.3457   18.6586 C   0  0  0  0  0  0
  -27.6515  -13.2358   19.8670 C   0  0  2  0  0  0
  -28.7016  -13.1457   21.0021 C   0  0  0  0  0  0
  -25.2381  -13.8153   20.5578 C   0  0  0  0  0  0
  -24.1751  -13.0403   20.9223 C   0  0  0  0  0  0
  -24.6408  -11.6911   20.8792 C   0  0  0  0  0  0
  -23.9109  -10.4284   21.0426 C   0  0  0  0  0  0
  -24.3648   -9.4188   21.9191 C   0  0  0  0  0  0
  -23.6308   -8.2234   22.0745 C   0  0  0  0  0  0
  -22.4283   -8.0285   21.3545 C   0  0  0  0  0  0
  -21.9947   -9.0259   20.4644 C   0  0  0  0  0  0
  -22.7290  -10.2124   20.3065 C   0  0  0  0  0  0
  -21.6848   -6.0752   22.5291 C   0  0  0  0  0  0
  -21.4008   -6.5642   23.8231 C   0  0  0  0  0  0
  -21.3661   -5.6781   24.9182 C   0  0  0  0  0  0
  -21.6046   -4.3053   24.7217 C   0  0  0  0  0  0
  -21.8818   -3.8157   23.4331 C   0  0  0  0  0  0
  -21.9186   -4.6982   22.3397 C   0  0  0  0  0  0
  -22.7766  -13.5174   21.1873 C   0  0  0  0  0  0
  -22.1657   -4.2183   21.0970 F   0  0  0  0  0  0
  -21.5630   -3.4526   25.7710 F   0  0  0  0  0  0
  -30.0213  -13.5006   20.4428 N   0  0  0  0  0  0
  -26.2959  -12.9448   20.3360 N   0  0  0  0  0  0
  -25.9357  -11.6586   20.5857 N   0  0  0  0  0  0
  -22.0402  -12.8196   22.0440 N   0  0  0  0  0  0
  -25.3767  -15.1843   20.3703 N   0  0  0  0  0  0
  -31.7503  -14.8946   19.9732 O   0  0  0  0  0  0
  -21.6630   -6.8890   21.4247 O   0  0  0  0  0  0
  -22.3460  -14.5487   20.6713 O   0  0  0  0  0  0
  -24.6329  -31.8546   23.1982 C   0  0  0  0  0  0
  -25.9137  -32.4770   23.8326 C   0  0  1  0  0  0
  -27.2406  -27.2610   20.1171 C   0  0  0  0  0  0
  -25.5924  -33.8574   24.2242 N   0  0  0  0  0  0
  -23.4312  -30.4724   21.5448 C   0  0  2  0  0  0
  -24.8803  -28.9181   20.1142 C   0  0  0  0  0  0
  -22.7521  -29.4568   22.4954 C   0  0  0  0  0  0
  -18.0287  -28.1403   22.8510 C   0  0  0  0  0  0
  -24.1468  -36.7264   23.2642 C   0  0  0  0  0  0
  -25.9772  -30.7660   21.3786 C   0  0  0  0  0  0
  -26.0526  -29.3869   20.7199 C   0  0  0  0  0  0
  -27.2306  -28.5711   20.7109 C   0  0  0  0  0  0
  -26.0388  -26.8628   19.4827 C   0  0  0  0  0  0
  -24.8775  -27.6629   19.4879 C   0  0  0  0  0  0
  -23.6496  -29.8050   20.1626 C   0  0  0  0  0  0
  -25.4105  -36.3085   24.0334 C   0  0  1  0  0  0
  -20.5896  -28.3695   23.1302 C   0  0  2  0  0  0
  -20.6778  -26.9419   22.5431 C   0  0  0  0  0  0
  -19.5742  -26.6390   21.5249 C   0  0  0  0  0  0
  -18.1920  -26.7939   22.1653 C   0  0  0  0  0  0
  -19.1545  -28.8874   23.2888 C   0  0  0  0  0  0
  -18.9464  -30.1479   23.8887 C   0  0  0  0  0  0
  -17.6465  -30.6600   24.0572 C   0  0  0  0  0  0
  -25.9066  -34.9462   23.5097 C   0  0  0  0  0  0
  -16.5354  -29.9103   23.6346 C   0  0  0  0  0  0
  -16.7277  -28.6525   23.0364 C   0  0  0  0  0  0
  -26.4492  -31.6614   25.0731 C   0  0  0  0  0  0
  -25.3695  -31.3797   26.1442 C   0  0  0  0  0  0
  -27.0348  -30.3038   24.6226 C   0  0  0  0  0  0
  -27.6031  -32.4372   25.7496 C   0  0  0  0  0  0
  -27.5569  -37.1788   24.8474 C   0  0  0  0  0  0
  -21.4233  -29.3023   22.3694 N   0  0  0  0  0  0
  -26.4272  -37.3791   23.9437 N   0  0  0  0  0  0
  -24.6998  -31.0477   22.0976 N   0  0  0  0  0  0
  -23.4219  -28.8128   23.3067 O   0  0  0  0  0  0
  -28.3551  -26.3805   20.1764 O   0  0  0  0  0  0
  -26.5639  -34.8944   22.4666 O   0  0  0  0  0  0
  -23.5472  -32.1359   23.7268 O   0  0  0  0  0  0
  -28.0591  -17.0374   20.8241 C   0  0  0  0  0  0
  -27.2693  -18.1924   20.7484 C   0  0  0  0  0  0
  -30.0504  -18.4002   20.6566 C   0  0  0  0  0  0
  -29.2492  -19.6319   20.5988 C   0  0  0  0  0  0
  -29.4588  -17.0714   20.8013 C   0  0  0  0  0  0
  -27.8422  -19.4845   20.6981 C   0  0  0  0  0  0
  -24.9699  -20.4271   19.6697 C   0  0  0  0  0  0
  -28.8593  -22.0778   18.4850 C   0  0  0  0  0  0
  -29.8240  -21.1330   20.5748 C   0  0  0  0  0  0
  -29.2637  -23.7610   20.3172 C   0  0  0  0  0  0
  -25.6852  -20.5670   21.0154 C   0  0  0  0  0  0
  -28.1884  -24.9088   19.8794 C   0  0  0  0  0  0
  -30.0414  -15.7625   21.1932 N   0  0  0  0  0  0
  -28.9821  -22.2751   19.9496 N   0  3  1  0  0  0
  -27.0890  -20.6399   20.7987 O   0  0  0  0  0  0
  -31.4793  -12.5930   19.1502 H   0  0  0  0  0  0
  -30.4040  -11.4738   19.9331 H   0  0  0  0  0  0
  -29.7859  -11.7590   17.5166 H   0  0  0  0  0  0
  -29.6295  -13.4842   17.7337 H   0  0  0  0  0  0
  -27.8990  -11.2955   18.9167 H   0  0  0  0  0  0
  -27.3782  -12.5400   17.8141 H   0  0  0  0  0  0
  -27.6557  -14.2621   19.5006 H   0  0  0  0  0  0
  -28.7277  -12.1399   21.4233 H   0  0  0  0  0  0
  -28.4239  -13.8034   21.8249 H   0  0  0  0  0  0
  -25.2789   -9.5649   22.4774 H   0  0  0  0  0  0
  -24.0005   -7.4623   22.7460 H   0  0  0  0  0  0
  -21.0889   -8.8805   19.8938 H   0  0  0  0  0  0
  -22.3783  -10.9667   19.6173 H   0  0  0  0  0  0
  -21.2008   -7.6148   23.9751 H   0  0  0  0  0  0
  -21.1485   -6.0495   25.9086 H   0  0  0  0  0  0
  -22.0598   -2.7618   23.2804 H   0  0  0  0  0  0
  -22.3995  -11.9884   22.4907 H   0  0  0  0  0  0
  -21.1010  -13.1229   22.2612 H   0  0  0  0  0  0
  -24.5946  -15.8189   20.4861 H   0  0  0  0  0  0
  -26.1952  -15.6253   19.9744 H   0  0  0  0  0  0
  -26.7202  -32.5419   23.1066 H   0  0  0  0  0  0
  -25.0096  -33.9707   25.0408 H   0  0  0  0  0  0
  -22.7280  -31.2943   21.3987 H   0  0  0  0  0  0
  -23.3765  -35.9561   23.3311 H   0  0  0  0  0  0
  -24.3552  -36.8875   22.2052 H   0  0  0  0  0  0
  -23.7179  -37.6449   23.6660 H   0  0  0  0  0  0
  -26.1138  -31.5272   20.6079 H   0  0  0  0  0  0
  -26.8546  -30.8168   22.0114 H   0  0  0  0  0  0
  -28.1273  -28.9281   21.1979 H   0  0  0  0  0  0
  -25.9616  -25.9075   18.9849 H   0  0  0  0  0  0
  -23.9794  -27.2995   19.0077 H   0  0  0  0  0  0
  -23.7783  -30.5797   19.4063 H   0  0  0  0  0  0
  -22.7680  -29.2387   19.8575 H   0  0  0  0  0  0
  -25.1287  -36.1912   25.0824 H   0  0  0  0  0  0
  -20.9970  -28.3256   24.1431 H   0  0  0  0  0  0
  -20.5715  -26.2302   23.3630 H   0  0  0  0  0  0
  -21.6642  -26.7473   22.1197 H   0  0  0  0  0  0
  -19.6907  -25.6303   21.1273 H   0  0  0  0  0  0
  -19.6668  -27.3210   20.6784 H   0  0  0  0  0  0
  -17.4196  -26.6712   21.4041 H   0  0  0  0  0  0
  -18.0293  -26.0082   22.9042 H   0  0  0  0  0  0
  -19.7940  -30.7312   24.2231 H   0  0  0  0  0  0
  -17.5020  -31.6282   24.5175 H   0  0  0  0  0  0
  -15.5352  -30.3006   23.7685 H   0  0  0  0  0  0
  -15.8673  -28.0852   22.7078 H   0  0  0  0  0  0
  -24.5831  -30.7199   25.7767 H   0  0  0  0  0  0
  -24.8932  -32.2991   26.4859 H   0  0  0  0  0  0
  -25.7965  -30.8957   27.0232 H   0  0  0  0  0  0
  -26.2954  -29.6792   24.1203 H   0  0  0  0  0  0
  -27.3992  -29.7296   25.4750 H   0  0  0  0  0  0
  -27.8840  -30.4341   23.9517 H   0  0  0  0  0  0
  -27.2629  -33.3683   26.2044 H   0  0  0  0  0  0
  -28.3839  -32.6921   25.0320 H   0  0  0  0  0  0
  -28.0708  -31.8531   26.5430 H   0  0  0  0  0  0
  -28.2596  -38.0079   24.7555 H   0  0  0  0  0  0
  -28.1049  -36.2620   24.6253 H   0  0  0  0  0  0
  -27.2302  -37.1387   25.8878 H   0  0  0  0  0  0
  -20.9442  -29.8703   21.6846 H   0  0  0  0  0  0
  -26.0149  -38.2859   24.1460 H   0  0  0  0  0  0
  -27.5730  -16.0938   20.9905 H   0  0  0  0  0  0
  -26.2009  -18.0473   20.8041 H   0  0  0  0  0  0
  -31.1277  -18.4900   20.6632 H   0  0  0  0  0  0
  -25.1498  -21.3012   19.0411 H   0  0  0  0  0  0
  -25.3062  -19.5503   19.1203 H   0  0  0  0  0  0
  -23.8945  -20.3386   19.8158 H   0  0  0  0  0  0
  -28.6685  -21.0315   18.2408 H   0  0  0  0  0  0
  -29.7743  -22.3745   17.9712 H   0  0  0  0  0  0
  -28.0320  -22.6539   18.0752 H   0  0  0  0  0  0
  -30.8075  -21.1175   20.1040 H   0  0  0  0  0  0
  -30.0008  -21.4027   21.6165 H   0  0  0  0  0  0
  -29.3741  -23.8131   21.4004 H   0  0  0  0  0  0
  -30.2386  -24.0293   19.9064 H   0  0  0  0  0  0
  -25.3773  -21.5012   21.4855 H   0  0  0  0  0  0
  -25.4066  -19.7834   21.7216 H   0  0  0  0  0  0
  -27.2331  -24.5950   20.2980 H   0  0  0  0  0  0
  -28.0745  -24.8506   18.7961 H   0  0  0  0  0  0
  -29.4345  -15.3183   21.8669 H   0  0  0  0  0  0
  -28.0627  -22.0677   20.3233 H   0  0  0  0  0  0
  1 25  1  0  0  0
  1 30  2  0  0  0
  1 83  1  0  0  0
  2  3  1  0  0  0
  2 25  1  0  0  0
  2 86  1  0  0  0
  2 87  1  0  0  0
  3  4  1  0  0  0
  3 88  1  0  0  0
  3 89  1  0  0  0
  4  5  1  0  0  0
  4 90  1  0  0  0
  4 91  1  0  0  0
  5  6  1  0  0  0
  5 26  1  0  0  0
  5 92  1  0  0  0
  6 25  1  0  0  0
  6 93  1  0  0  0
  6 94  1  0  0  0
  7  8  2  0  0  0
  7 26  1  0  0  0
  7 29  1  0  0  0
  8  9  1  0  0  0
  8 22  1  0  0  0
  9 10  1  0  0  0
  9 27  2  0  0  0
 10 11  2  0  0  0
 10 15  1  0  0  0
 11 12  1  0  0  0
 11 95  1  0  0  0
 12 13  2  0  0  0
 12 96  1  0  0  0
 13 14  1  0  0  0
 13 31  1  0  0  0
 14 15  2  0  0  0
 14 97  1  0  0  0
 15 98  1  0  0  0
 16 17  2  0  0  0
 16 21  1  0  0  0
 16 31  1  0  0  0
 17 18  1  0  0  0
 17 99  1  0  0  0
 18 19  2  0  0  0
 18100  1  0  0  0
 19 20  1  0  0  0
 19 24  1  0  0  0
 20 21  2  0  0  0
 20101  1  0  0  0
 21 23  1  0  0  0
 22 28  1  0  0  0
 22 32  2  0  0  0
 26 27  1  0  0  0
 28102  1  0  0  0
 28103  1  0  0  0
 29104  1  0  0  0
 29105  1  0  0  0
 33 34  1  0  0  0
 33 66  1  0  0  0
 33 70  2  0  0  0
 34 36  1  0  0  0
 34 59  1  0  0  0
 34106  1  0  0  0
 35 44  2  0  0  0
 35 45  1  0  0  0
 35 68  1  0  0  0
 36 56  1  0  0  0
 36107  1  0  0  0
 37 39  1  0  0  0
 37 47  1  0  0  0
 37 66  1  0  0  0
 37108  1  0  0  0
 38 43  2  0  0  0
 38 46  1  0  0  0
 38 47  1  0  0  0
 39 64  1  0  0  0
 39 67  2  0  0  0
 40 52  1  0  0  0
 40 53  2  0  0  0
 40 58  1  0  0  0
 41109  1  0  0  0
 41110  1  0  0  0
 41111  1  0  0  0
 41 48  1  0  0  0
 42 43  1  0  0  0
 42 66  1  0  0  0
 42112  1  0  0  0
 42113  1  0  0  0
 43 44  1  0  0  0
 44114  1  0  0  0
 45 46  2  0  0  0
 45115  1  0  0  0
 46116  1  0  0  0
 47117  1  0  0  0
 47118  1  0  0  0
 48 56  1  0  0  0
 48 65  1  0  0  0
 48119  1  0  0  0
 49 50  1  0  0  0
 49 53  1  0  0  0
 49 64  1  0  0  0
 49120  1  0  0  0
 50 51  1  0  0  0
 50121  1  0  0  0
 50122  1  0  0  0
 51 52  1  0  0  0
 51123  1  0  0  0
 51124  1  0  0  0
 52125  1  0  0  0
 52126  1  0  0  0
 53 54  1  0  0  0
 54 55  2  0  0  0
 54127  1  0  0  0
 55 57  1  0  0  0
 55128  1  0  0  0
 56 69  2  0  0  0
 57 58  2  0  0  0
 57129  1  0  0  0
 58130  1  0  0  0
 59 60  1  0  0  0
 59 61  1  0  0  0
 59 62  1  0  0  0
 60131  1  0  0  0
 60132  1  0  0  0
 60133  1  0  0  0
 61134  1  0  0  0
 61135  1  0  0  0
 61136  1  0  0  0
 62137  1  0  0  0
 62138  1  0  0  0
 62139  1  0  0  0
 63 65  1  0  0  0
 63140  1  0  0  0
 63141  1  0  0  0
 63142  1  0  0  0
 64143  1  0  0  0
 65144  1  0  0  0
 68 82  1  0  0  0
 71 72  2  0  0  0
 71 75  1  0  0  0
 71145  1  0  0  0
 72 76  1  0  0  0
 72146  1  0  0  0
 73 74  1  0  0  0
 73 75  2  0  0  0
 73147  1  0  0  0
 74 76  2  0  0  0
 74 79  1  0  0  0
 75 83  1  0  0  0
 76 85  1  0  0  0
 77 81  1  0  0  0
 77148  1  0  0  0
 77149  1  0  0  0
 77150  1  0  0  0
 78151  1  0  0  0
 78152  1  0  0  0
 78153  1  0  0  0
 78 84  1  0  0  0
 79 84  1  0  0  0
 79154  1  0  0  0
 79155  1  0  0  0
 80 82  1  0  0  0
 80 84  1  0  0  0
 80156  1  0  0  0
 80157  1  0  0  0
 81 85  1  0  0  0
 81158  1  0  0  0
 81159  1  0  0  0
 82160  1  0  0  0
 82161  1  0  0  0
 83162  1  0  0  0
 84163  1  0  0  0
M  CHG  1  84   1
M  ISO  4   1 100  68 101  82 101  83 100
M  END
> <chiral flag>
0

> <version>
0

> <s_m_source_file>
/data/baiqing/PycharmProjects/Reinvent-master-3.2/result/LINK_invent/BTK/process_docking_weight1_custom_product_contain_oxygen_bond_distance_aromatic_linkinvent_7_9_3/rearranged_h_0010.sdf

> <i_m_source_file_index>
94

> <r_mmod_Potential_Energy-OPLS-2005>
96.5436477661133

> <r_mmod_Stretch_Energy-OPLS-2005>
139.609405517578

> <r_mmod_Bend_Energy-OPLS-2005>
207.582458496094

> <r_mmod_Torsional_Energy-OPLS-2005>
248.374877929688

> <r_mmod_Improper_Torsional_Energy-OPLS-2005>
8.49334049224854

> <r_mmod_Van_der_Waal_Energy-OPLS-2005>
147.357940673828

> <r_mmod_Electrostatic_Energy-OPLS-2005>
-319.896850585938

> <r_mmod_Solvation_Energy-OPLS-2005>
-415.906951904297

> <b_mmod_Minimization_Converged-OPLS-2005>
0

> <r_mmod_RMS_Derivative-OPLS-2005>
2.92212891578674

$$$$
