0
                    3D
 Structure written by MMmdl.
153161  0  0  1  0            999 V2000
  -30.6940  -14.5172   20.5212 C   0  0  0  0  0  0
  -30.4122  -12.3151   19.4611 C   0  0  0  0  0  0
  -29.5002  -12.4849   18.2292 C   0  0  0  0  0  0
  -28.0243  -12.3377   18.6415 C   0  0  0  0  0  0
  -27.6513  -13.2142   19.8669 C   0  0  2  0  0  0
  -28.6870  -13.0643   21.0057 C   0  0  0  0  0  0
  -25.2510  -13.8173   20.5680 C   0  0  0  0  0  0
  -24.1797  -13.0463   20.9208 C   0  0  0  0  0  0
  -24.6373  -11.6926   20.8764 C   0  0  0  0  0  0
  -23.9042  -10.4330   21.0439 C   0  0  0  0  0  0
  -24.3592   -9.4221   21.9174 C   0  0  0  0  0  0
  -23.6291   -8.2243   22.0736 C   0  0  0  0  0  0
  -22.4265   -8.0289   21.3528 C   0  0  0  0  0  0
  -21.9902   -9.0274   20.4631 C   0  0  0  0  0  0
  -22.7232  -10.2161   20.3062 C   0  0  0  0  0  0
  -21.6874   -6.0732   22.5284 C   0  0  0  0  0  0
  -21.4045   -6.5636   23.8214 C   0  0  0  0  0  0
  -21.3663   -5.6785   24.9166 C   0  0  0  0  0  0
  -21.6045   -4.3050   24.7223 C   0  0  0  0  0  0
  -21.8817   -3.8149   23.4340 C   0  0  0  0  0  0
  -21.9195   -4.6966   22.3402 C   0  0  0  0  0  0
  -22.7808  -13.5242   21.1844 C   0  0  0  0  0  0
  -22.1640   -4.2154   21.0977 F   0  0  0  0  0  0
  -21.5614   -3.4527   25.7727 F   0  0  0  0  0  0
  -30.0180  -13.3383   20.4459 N   0  0  0  0  0  0
  -26.2950  -12.9361   20.3320 N   0  0  0  0  0  0
  -25.9284  -11.6514   20.5786 N   0  0  0  0  0  0
  -22.0442  -12.8296   22.0431 N   0  0  0  0  0  0
  -25.4201  -15.1894   20.4037 N   0  0  0  0  0  0
  -31.8527  -14.6354   20.1136 O   0  0  0  0  0  0
  -21.6648   -6.8872   21.4231 O   0  0  0  0  0  0
  -22.3512  -14.5526   20.6635 O   0  0  0  0  0  0
  -24.6127  -31.8681   23.2115 C   0  0  0  0  0  0
  -25.9013  -32.4842   23.8408 C   0  0  1  0  0  0
  -27.2367  -27.4463   20.0994 C   0  0  0  0  0  0
  -25.5851  -33.8641   24.2333 N   0  0  0  0  0  0
  -23.4014  -30.4899   21.5545 C   0  0  2  0  0  0
  -24.8497  -28.9575   20.1186 C   0  0  0  0  0  0
  -22.7408  -29.4655   22.5050 C   0  0  0  0  0  0
  -18.0269  -28.1377   22.8521 C   0  0  0  0  0  0
  -24.1474  -36.7336   23.2645 C   0  0  0  0  0  0
  -25.9304  -30.8363   21.3667 C   0  0  0  0  0  0
  -26.0104  -29.4748   20.7094 C   0  0  0  0  0  0
  -27.2102  -28.7253   20.6953 C   0  0  0  0  0  0
  -26.0645  -26.9424   19.4964 C   0  0  0  0  0  0
  -24.8726  -27.6895   19.5119 C   0  0  0  0  0  0
  -23.6087  -29.8175   20.1729 C   0  0  0  0  0  0
  -25.4099  -36.3116   24.0344 C   0  0  1  0  0  0
  -20.5873  -28.3646   23.1339 C   0  0  2  0  0  0
  -20.6749  -26.9379   22.5435 C   0  0  0  0  0  0
  -19.5728  -26.6382   21.5221 C   0  0  0  0  0  0
  -18.1904  -26.7931   22.1631 C   0  0  0  0  0  0
  -19.1511  -28.8825   23.2934 C   0  0  0  0  0  0
  -18.9455  -30.1443   23.8925 C   0  0  0  0  0  0
  -17.6460  -30.6585   24.0565 C   0  0  0  0  0  0
  -25.9029  -34.9478   23.5140 C   0  0  0  0  0  0
  -16.5349  -29.9099   23.6331 C   0  0  0  0  0  0
  -16.7257  -28.6507   23.0366 C   0  0  0  0  0  0
  -26.4466  -31.6663   25.0744 C   0  0  0  0  0  0
  -25.3745  -31.3782   26.1515 C   0  0  0  0  0  0
  -27.0358  -30.3119   24.6143 C   0  0  0  0  0  0
  -27.6039  -32.4439   25.7468 C   0  0  0  0  0  0
  -27.5577  -37.1798   24.8459 C   0  0  0  0  0  0
  -21.4133  -29.3008   22.3764 N   0  0  0  0  0  0
  -26.4278  -37.3792   23.9396 N   0  0  0  0  0  0
  -24.6659  -31.0799   22.1016 N   0  0  0  0  0  0
  -23.4178  -28.8205   23.3077 O   0  0  0  0  0  0
  -28.3825  -26.6804   20.1024 O   0  0  0  0  0  0
  -26.5603  -34.8917   22.4711 O   0  0  0  0  0  0
  -23.5305  -32.1434   23.7500 O   0  0  0  0  0  0
  -30.1449  -19.4774   20.4883 C   0  0  0  0  0  0
  -28.3444  -20.0258   21.8485 C   0  0  0  0  0  0
  -29.3658  -20.5222   21.0807 C   0  0  0  0  0  0
  -29.7147  -18.2026   20.7897 C   0  0  0  0  0  0
  -30.3447  -16.9382   20.2471 C   0  0  0  0  0  0
  -28.7948  -23.0059   21.2081 C   0  0  0  0  0  0
  -28.2946  -25.5241   20.9552 C   0  0  0  0  0  0
  -29.1558  -24.3261   20.4693 C   0  0  1  0  0  0
  -29.6721  -21.8845   20.8432 N   0  0  0  0  0  0
  -29.9615  -15.6223   20.8041 N   0  0  0  0  0  0
  -30.5179  -24.6131   20.7321 O   0  0  0  0  0  0
  -28.3109  -18.2715   21.8330 S   0  0  0  0  0  0
  -31.4609  -12.3931   19.1710 H   0  0  0  0  0  0
  -30.2941  -11.3216   19.8949 H   0  0  0  0  0  0
  -29.7467  -11.7410   17.4692 H   0  0  0  0  0  0
  -29.6717  -13.4610   17.7750 H   0  0  0  0  0  0
  -27.8547  -11.2849   18.8730 H   0  0  0  0  0  0
  -27.3703  -12.5678   17.8014 H   0  0  0  0  0  0
  -27.6749  -14.2496   19.5274 H   0  0  0  0  0  0
  -28.6559  -12.0585   21.4251 H   0  0  0  0  0  0
  -28.4518  -13.7420   21.8278 H   0  0  0  0  0  0
  -25.2737   -9.5712   22.4737 H   0  0  0  0  0  0
  -24.0011   -7.4651   22.7457 H   0  0  0  0  0  0
  -21.0816   -8.8802   19.8973 H   0  0  0  0  0  0
  -22.3665  -10.9680   19.6175 H   0  0  0  0  0  0
  -21.2051   -7.6151   23.9723 H   0  0  0  0  0  0
  -21.1467   -6.0500   25.9064 H   0  0  0  0  0  0
  -22.0592   -2.7613   23.2835 H   0  0  0  0  0  0
  -22.4056  -12.0013   22.4915 H   0  0  0  0  0  0
  -21.1030  -13.1318   22.2537 H   0  0  0  0  0  0
  -24.6474  -15.8396   20.5003 H   0  0  0  0  0  0
  -26.2591  -15.6337   20.0556 H   0  0  0  0  0  0
  -26.7087  -32.5539   23.1178 H   0  0  0  0  0  0
  -24.9899  -33.9845   25.0392 H   0  0  0  0  0  0
  -22.6862  -31.3047   21.4134 H   0  0  0  0  0  0
  -23.3729  -35.9691   23.3343 H   0  0  0  0  0  0
  -24.3525  -36.8917   22.2048 H   0  0  0  0  0  0
  -23.7277  -37.6563   23.6654 H   0  0  0  0  0  0
  -26.0466  -31.6043   20.6021 H   0  0  0  0  0  0
  -26.8180  -30.8834   21.9881 H   0  0  0  0  0  0
  -28.1062  -29.1187   21.1527 H   0  0  0  0  0  0
  -26.0769  -25.9674   19.0279 H   0  0  0  0  0  0
  -23.9799  -27.2810   19.0576 H   0  0  0  0  0  0
  -23.7103  -30.5881   19.4080 H   0  0  0  0  0  0
  -22.7365  -29.2275   19.8836 H   0  0  0  0  0  0
  -25.1288  -36.1973   25.0848 H   0  0  0  0  0  0
  -20.9957  -28.3191   24.1467 H   0  0  0  0  0  0
  -20.5635  -26.2237   23.3618 H   0  0  0  0  0  0
  -21.6616  -26.7425   22.1212 H   0  0  0  0  0  0
  -19.6866  -25.6295   21.1221 H   0  0  0  0  0  0
  -19.6654  -27.3212   20.6761 H   0  0  0  0  0  0
  -17.4171  -26.6707   21.4031 H   0  0  0  0  0  0
  -18.0291  -26.0076   22.9021 H   0  0  0  0  0  0
  -19.7936  -30.7249   24.2293 H   0  0  0  0  0  0
  -17.5017  -31.6262   24.5165 H   0  0  0  0  0  0
  -15.5345  -30.2988   23.7651 H   0  0  0  0  0  0
  -15.8670  -28.0818   22.7080 H   0  0  0  0  0  0
  -24.5944  -30.7084   25.7858 H   0  0  0  0  0  0
  -24.8901  -32.2928   26.4940 H   0  0  0  0  0  0
  -25.8108  -30.8997   27.0303 H   0  0  0  0  0  0
  -26.2915  -29.6833   24.1220 H   0  0  0  0  0  0
  -27.4184  -29.7405   25.4604 H   0  0  0  0  0  0
  -27.8712  -30.4504   23.9286 H   0  0  0  0  0  0
  -27.2629  -33.3666   26.2169 H   0  0  0  0  0  0
  -28.3735  -32.7155   25.0236 H   0  0  0  0  0  0
  -28.0856  -31.8541   26.5269 H   0  0  0  0  0  0
  -28.2617  -38.0065   24.7481 H   0  0  0  0  0  0
  -28.1050  -36.2603   24.6323 H   0  0  0  0  0  0
  -27.2287  -37.1496   25.8857 H   0  0  0  0  0  0
  -20.9290  -29.8729   21.6991 H   0  0  0  0  0  0
  -26.0191  -38.2886   24.1373 H   0  0  0  0  0  0
  -30.9874  -19.6895   19.8405 H   0  0  0  0  0  0
  -27.5989  -20.5673   22.4196 H   0  0  0  0  0  0
  -31.4270  -17.0647   20.3196 H   0  0  0  0  0  0
  -30.1324  -16.8941   19.1765 H   0  0  0  0  0  0
  -27.7668  -22.7347   20.9525 H   0  0  0  0  0  0
  -28.8260  -23.1658   22.2905 H   0  0  0  0  0  0
  -28.5694  -25.8129   21.9709 H   0  0  0  0  0  0
  -27.2614  -25.1766   21.0255 H   0  0  0  0  0  0
  -29.0212  -24.1921   19.3966 H   0  0  0  0  0  0
  -30.5165  -22.1237   20.3224 H   0  0  0  0  0  0
  -29.0164  -15.4966   21.1351 H   0  0  0  0  0  0
  -30.7304  -25.4055   20.2464 H   0  0  0  0  0  0
  1 25  1  0  0  0
  1 30  2  0  0  0
  1 80  1  0  0  0
  2  3  1  0  0  0
  2 25  1  0  0  0
  2 83  1  0  0  0
  2 84  1  0  0  0
  3  4  1  0  0  0
  3 85  1  0  0  0
  3 86  1  0  0  0
  4  5  1  0  0  0
  4 87  1  0  0  0
  4 88  1  0  0  0
  5  6  1  0  0  0
  5 26  1  0  0  0
  5 89  1  0  0  0
  6 25  1  0  0  0
  6 90  1  0  0  0
  6 91  1  0  0  0
  7  8  2  0  0  0
  7 26  1  0  0  0
  7 29  1  0  0  0
  8  9  1  0  0  0
  8 22  1  0  0  0
  9 10  1  0  0  0
  9 27  2  0  0  0
 10 11  2  0  0  0
 10 15  1  0  0  0
 11 12  1  0  0  0
 11 92  1  0  0  0
 12 13  2  0  0  0
 12 93  1  0  0  0
 13 14  1  0  0  0
 13 31  1  0  0  0
 14 15  2  0  0  0
 14 94  1  0  0  0
 15 95  1  0  0  0
 16 17  2  0  0  0
 16 21  1  0  0  0
 16 31  1  0  0  0
 17 18  1  0  0  0
 17 96  1  0  0  0
 18 19  2  0  0  0
 18 97  1  0  0  0
 19 20  1  0  0  0
 19 24  1  0  0  0
 20 21  2  0  0  0
 20 98  1  0  0  0
 21 23  1  0  0  0
 22 28  1  0  0  0
 22 32  2  0  0  0
 26 27  1  0  0  0
 28 99  1  0  0  0
 28100  1  0  0  0
 29101  1  0  0  0
 29102  1  0  0  0
 33 34  1  0  0  0
 33 66  1  0  0  0
 33 70  2  0  0  0
 34 36  1  0  0  0
 34 59  1  0  0  0
 34103  1  0  0  0
 35 44  2  0  0  0
 35 45  1  0  0  0
 35 68  1  0  0  0
 36 56  1  0  0  0
 36104  1  0  0  0
 37 39  1  0  0  0
 37 47  1  0  0  0
 37 66  1  0  0  0
 37105  1  0  0  0
 38 43  2  0  0  0
 38 46  1  0  0  0
 38 47  1  0  0  0
 39 64  1  0  0  0
 39 67  2  0  0  0
 40 52  1  0  0  0
 40 53  2  0  0  0
 40 58  1  0  0  0
 41106  1  0  0  0
 41107  1  0  0  0
 41108  1  0  0  0
 41 48  1  0  0  0
 42 43  1  0  0  0
 42 66  1  0  0  0
 42109  1  0  0  0
 42110  1  0  0  0
 43 44  1  0  0  0
 44111  1  0  0  0
 45 46  2  0  0  0
 45112  1  0  0  0
 46113  1  0  0  0
 47114  1  0  0  0
 47115  1  0  0  0
 48 56  1  0  0  0
 48 65  1  0  0  0
 48116  1  0  0  0
 49 50  1  0  0  0
 49 53  1  0  0  0
 49 64  1  0  0  0
 49117  1  0  0  0
 50 51  1  0  0  0
 50118  1  0  0  0
 50119  1  0  0  0
 51 52  1  0  0  0
 51120  1  0  0  0
 51121  1  0  0  0
 52122  1  0  0  0
 52123  1  0  0  0
 53 54  1  0  0  0
 54 55  2  0  0  0
 54124  1  0  0  0
 55 57  1  0  0  0
 55125  1  0  0  0
 56 69  2  0  0  0
 57 58  2  0  0  0
 57126  1  0  0  0
 58127  1  0  0  0
 59 60  1  0  0  0
 59 61  1  0  0  0
 59 62  1  0  0  0
 60128  1  0  0  0
 60129  1  0  0  0
 60130  1  0  0  0
 61131  1  0  0  0
 61132  1  0  0  0
 61133  1  0  0  0
 62134  1  0  0  0
 62135  1  0  0  0
 62136  1  0  0  0
 63 65  1  0  0  0
 63137  1  0  0  0
 63138  1  0  0  0
 63139  1  0  0  0
 64140  1  0  0  0
 65141  1  0  0  0
 68 77  1  0  0  0
 71 73  1  0  0  0
 71 74  2  0  0  0
 71142  1  0  0  0
 72 73  2  0  0  0
 72 82  1  0  0  0
 72143  1  0  0  0
 73 79  1  0  0  0
 74 75  1  0  0  0
 74 82  1  0  0  0
 75 80  1  0  0  0
 75144  1  0  0  0
 75145  1  0  0  0
 76 78  1  0  0  0
 76 79  1  0  0  0
 76146  1  0  0  0
 76147  1  0  0  0
 77 78  1  0  0  0
 77148  1  0  0  0
 77149  1  0  0  0
 78 81  1  0  0  0
 78150  1  0  0  0
 79151  1  0  0  0
 80152  1  0  0  0
 81153  1  0  0  0
M  ISO  4   1 100  68 101  77 101  80 100
M  END
> <chiral flag>
0

> <version>
0

> <s_m_source_file>
/data/baiqing/PycharmProjects/Reinvent-master-3.2/result/LINK_invent/BTK/process_docking_weight1_custom_product_contain_oxygen_bond_distance_aromatic_linkinvent_7_9_3/rearranged_h_0197.sdf

> <i_m_source_file_index>
1

> <r_mmod_Potential_Energy-OPLS-2005>
-142.982940673828

> <r_mmod_Stretch_Energy-OPLS-2005>
36.6299934387207

> <r_mmod_Bend_Energy-OPLS-2005>
103.614250183105

> <r_mmod_Torsional_Energy-OPLS-2005>
258.151214599609

> <r_mmod_Improper_Torsional_Energy-OPLS-2005>
7.62240648269653

> <r_mmod_Van_der_Waal_Energy-OPLS-2005>
130.057647705078

> <r_mmod_Electrostatic_Energy-OPLS-2005>
-462.038970947266

> <r_mmod_Solvation_Energy-OPLS-2005>
-235.840789794922

> <b_mmod_Minimization_Converged-OPLS-2005>
0

> <r_mmod_RMS_Derivative-OPLS-2005>
5.91024971008301

$$$$
1
                    3D
 Structure written by MMmdl.
158166  0  0  1  0            999 V2000
  -30.6604  -14.5490   20.5599 C   0  0  0  0  0  0
  -30.4354  -12.3516   19.4218 C   0  0  0  0  0  0
  -29.5013  -12.5292   18.2046 C   0  0  0  0  0  0
  -28.0216  -12.3843   18.6149 C   0  0  0  0  0  0
  -27.6666  -13.2114   19.8800 C   0  0  2  0  0  0
  -28.7142  -12.9909   20.9942 C   0  0  0  0  0  0
  -25.2628  -13.8144   20.5698 C   0  0  0  0  0  0
  -24.1881  -13.0434   20.9160 C   0  0  0  0  0  0
  -24.6441  -11.6902   20.8725 C   0  0  0  0  0  0
  -23.9106  -10.4290   21.0406 C   0  0  0  0  0  0
  -24.3640   -9.4199   21.9195 C   0  0  0  0  0  0
  -23.6301   -8.2246   22.0769 C   0  0  0  0  0  0
  -22.4281   -8.0292   21.3567 C   0  0  0  0  0  0
  -21.9932   -9.0270   20.4667 C   0  0  0  0  0  0
  -22.7276  -10.2141   20.3069 C   0  0  0  0  0  0
  -21.6862   -6.0741   22.5279 C   0  0  0  0  0  0
  -21.4014   -6.5648   23.8209 C   0  0  0  0  0  0
  -21.3661   -5.6808   24.9171 C   0  0  0  0  0  0
  -21.6049   -4.3064   24.7219 C   0  0  0  0  0  0
  -21.8819   -3.8155   23.4342 C   0  0  0  0  0  0
  -21.9190   -4.6973   22.3392 C   0  0  0  0  0  0
  -22.7909  -13.5238   21.1814 C   0  0  0  0  0  0
  -22.1665   -4.2165   21.0969 F   0  0  0  0  0  0
  -21.5627   -3.4540   25.7724 F   0  0  0  0  0  0
  -30.0399  -13.3337   20.4456 N   0  0  0  0  0  0
  -26.3075  -12.9329   20.3395 N   0  0  0  0  0  0
  -25.9375  -11.6490   20.5769 N   0  0  0  0  0  0
  -22.0544  -12.8253   22.0371 N   0  0  0  0  0  0
  -25.4338  -15.1875   20.4089 N   0  0  0  0  0  0
  -31.7625  -14.7795   20.0519 O   0  0  0  0  0  0
  -21.6655   -6.8892   21.4251 O   0  0  0  0  0  0
  -22.3596  -14.5564   20.6673 O   0  0  0  0  0  0
  -24.6210  -31.8623   23.2045 C   0  0  0  0  0  0
  -25.9057  -32.4801   23.8372 C   0  0  1  0  0  0
  -27.2387  -27.3605   20.0955 C   0  0  0  0  0  0
  -25.5874  -33.8595   24.2296 N   0  0  0  0  0  0
  -23.4137  -30.4855   21.5458 C   0  0  2  0  0  0
  -24.8623  -28.9456   20.1126 C   0  0  0  0  0  0
  -22.7427  -29.4622   22.4935 C   0  0  0  0  0  0
  -18.0272  -28.1323   22.8502 C   0  0  0  0  0  0
  -24.1507  -36.7317   23.2627 C   0  0  0  0  0  0
  -25.9535  -30.8017   21.3749 C   0  0  0  0  0  0
  -26.0276  -29.4342   20.7126 C   0  0  0  0  0  0
  -27.2148  -28.6500   20.7014 C   0  0  0  0  0  0
  -26.0470  -26.9138   19.4764 C   0  0  0  0  0  0
  -24.8719  -27.6863   19.4932 C   0  0  0  0  0  0
  -23.6283  -29.8201   20.1624 C   0  0  0  0  0  0
  -25.4110  -36.3104   24.0337 C   0  0  1  0  0  0
  -20.5869  -28.3655   23.1288 C   0  0  2  0  0  0
  -20.6765  -26.9375   22.5433 C   0  0  0  0  0  0
  -19.5757  -26.6355   21.5223 C   0  0  0  0  0  0
  -18.1929  -26.7894   22.1617 C   0  0  0  0  0  0
  -19.1515  -28.8815   23.2896 C   0  0  0  0  0  0
  -18.9461  -30.1433   23.8908 C   0  0  0  0  0  0
  -17.6462  -30.6577   24.0541 C   0  0  0  0  0  0
  -25.9026  -34.9449   23.5125 C   0  0  0  0  0  0
  -16.5343  -29.9052   23.6321 C   0  0  0  0  0  0
  -16.7267  -28.6441   23.0383 C   0  0  0  0  0  0
  -26.4465  -31.6578   25.0717 C   0  0  0  0  0  0
  -25.3739  -31.3697   26.1462 C   0  0  0  0  0  0
  -27.0326  -30.3029   24.6139 C   0  0  0  0  0  0
  -27.6006  -32.4309   25.7517 C   0  0  0  0  0  0
  -27.5596  -37.1799   24.8455 C   0  0  0  0  0  0
  -21.4132  -29.3045   22.3705 N   0  0  0  0  0  0
  -26.4313  -37.3775   23.9401 N   0  0  0  0  0  0
  -24.6813  -31.0656   22.0981 N   0  0  0  0  0  0
  -23.4166  -28.8167   23.3008 O   0  0  0  0  0  0
  -28.4041  -26.5862   20.1459 O   0  0  0  0  0  0
  -26.5624  -34.8898   22.4701 O   0  0  0  0  0  0
  -23.5384  -32.1432   23.7365 O   0  0  0  0  0  0
  -29.3837  -19.2408   21.9064 C   0  0  0  0  0  0
  -29.8484  -19.1368   20.6186 C   0  0  0  0  0  0
  -29.9558  -16.9105   21.3050 C   0  0  0  0  0  0
  -29.2951  -19.9342   18.2914 C   0  0  0  0  0  0
  -30.6521  -23.2614   18.5636 C   0  0  0  0  0  0
  -29.2988  -24.2221   20.5898 C   0  0  0  0  0  0
  -28.4511  -25.1949   19.6796 C   0  0  0  0  0  0
  -29.9970  -20.3017   19.6127 C   0  0  1  0  0  0
  -30.0992  -22.9843   19.9772 C   0  0  1  0  0  0
  -30.2040  -17.7870   20.3024 N   0  0  0  0  0  0
  -29.9522  -15.4734   21.2496 N   0  0  0  0  0  0
  -29.4467  -21.6271   20.0864 N   0  3  0  0  0  0
  -29.3311  -17.7100   22.7397 S   0  0  0  0  0  0
  -31.4801  -12.4574   19.1241 H   0  0  0  0  0  0
  -30.3395  -11.3407   19.8207 H   0  0  0  0  0  0
  -29.7453  -11.7966   17.4336 H   0  0  0  0  0  0
  -29.6614  -13.5092   17.7529 H   0  0  0  0  0  0
  -27.8288  -11.3256   18.7913 H   0  0  0  0  0  0
  -27.3699  -12.6746   17.7883 H   0  0  0  0  0  0
  -27.7083  -14.2612   19.5909 H   0  0  0  0  0  0
  -28.7065  -11.9485   21.3131 H   0  0  0  0  0  0
  -28.4601  -13.5598   21.8887 H   0  0  0  0  0  0
  -25.2784   -9.5666   22.4763 H   0  0  0  0  0  0
  -24.0008   -7.4641   22.7491 H   0  0  0  0  0  0
  -21.0859   -8.8818   19.8960 H   0  0  0  0  0  0
  -22.3761  -10.9694   19.6169 H   0  0  0  0  0  0
  -21.2016   -7.6156   23.9719 H   0  0  0  0  0  0
  -21.1486   -6.0533   25.9086 H   0  0  0  0  0  0
  -22.0590   -2.7618   23.2835 H   0  0  0  0  0  0
  -22.4158  -11.9907   22.4755 H   0  0  0  0  0  0
  -21.1163  -13.1297   22.2552 H   0  0  0  0  0  0
  -24.6588  -15.8351   20.4999 H   0  0  0  0  0  0
  -26.2868  -15.6325   20.0955 H   0  0  0  0  0  0
  -26.7120  -32.5461   23.1115 H   0  0  0  0  0  0
  -25.0042  -33.9780   25.0455 H   0  0  0  0  0  0
  -22.7081  -31.3063   21.4045 H   0  0  0  0  0  0
  -23.3782  -35.9642   23.3300 H   0  0  0  0  0  0
  -24.3636  -36.8906   22.2041 H   0  0  0  0  0  0
  -23.7252  -37.6512   23.6636 H   0  0  0  0  0  0
  -26.8278  -30.8414   22.0121 H   0  0  0  0  0  0
  -26.0894  -31.5712   20.6100 H   0  0  0  0  0  0
  -28.1116  -29.0250   21.1762 H   0  0  0  0  0  0
  -25.9823  -25.9637   18.9697 H   0  0  0  0  0  0
  -23.9781  -27.3048   19.0180 H   0  0  0  0  0  0
  -23.7417  -30.5980   19.4066 H   0  0  0  0  0  0
  -22.7517  -29.2425   19.8580 H   0  0  0  0  0  0
  -25.1289  -36.1986   25.0828 H   0  0  0  0  0  0
  -20.9971  -28.3211   24.1396 H   0  0  0  0  0  0
  -20.5653  -26.2234   23.3609 H   0  0  0  0  0  0
  -21.6629  -26.7389   22.1241 H   0  0  0  0  0  0
  -19.6888  -25.6261   21.1262 H   0  0  0  0  0  0
  -19.6707  -27.3143   20.6747 H   0  0  0  0  0  0
  -17.4198  -26.6679   21.4021 H   0  0  0  0  0  0
  -18.0310  -26.0005   22.8990 H   0  0  0  0  0  0
  -19.7947  -30.7238   24.2294 H   0  0  0  0  0  0
  -17.5013  -31.6268   24.5119 H   0  0  0  0  0  0
  -15.5336  -30.2957   23.7668 H   0  0  0  0  0  0
  -15.8651  -28.0760   22.7119 H   0  0  0  0  0  0
  -24.5913  -30.7026   25.7816 H   0  0  0  0  0  0
  -24.8954  -32.2863   26.4915 H   0  0  0  0  0  0
  -25.8102  -30.8896   27.0242 H   0  0  0  0  0  0
  -26.2918  -29.6783   24.1139 H   0  0  0  0  0  0
  -27.4046  -29.7223   25.4592 H   0  0  0  0  0  0
  -27.8759  -30.4383   23.9372 H   0  0  0  0  0  0
  -27.2581  -33.3597   26.2101 H   0  0  0  0  0  0
  -28.3837  -32.6860   25.0359 H   0  0  0  0  0  0
  -28.0656  -31.8448   26.5454 H   0  0  0  0  0  0
  -28.2604  -38.0105   24.7469 H   0  0  0  0  0  0
  -28.1094  -36.2620   24.6310 H   0  0  0  0  0  0
  -27.2315  -37.1448   25.8859 H   0  0  0  0  0  0
  -20.9270  -29.8777   21.6963 H   0  0  0  0  0  0
  -26.0226  -38.2875   24.1347 H   0  0  0  0  0  0
  -29.0460  -20.1228   22.4336 H   0  0  0  0  0  0
  -29.6882  -18.9993   17.8905 H   0  0  0  0  0  0
  -29.4460  -20.6910   17.5200 H   0  0  0  0  0  0
  -28.2212  -19.7987   18.4319 H   0  0  0  0  0  0
  -31.1552  -24.2302   18.5333 H   0  0  0  0  0  0
  -29.8631  -23.2768   17.8120 H   0  0  0  0  0  0
  -31.3927  -22.5213   18.2556 H   0  0  0  0  0  0
  -28.6643  -23.8676   21.4036 H   0  0  0  0  0  0
  -30.0405  -24.8541   21.0818 H   0  0  0  0  0  0
  -27.4728  -24.7310   19.5910 H   0  0  0  0  0  0
  -28.8589  -25.2348   18.6704 H   0  0  0  0  0  0
  -31.0591  -20.4429   19.4094 H   0  0  0  0  0  0
  -30.9740  -22.8804   20.6219 H   0  0  0  0  0  0
  -29.2127  -15.0539   21.7909 H   0  0  0  0  0  0
  -29.5189  -21.7311   19.0888 H   0  0  0  0  0  0
  -30.1425  -21.4722   20.8006 H   0  0  0  0  0  0
  1 25  1  0  0  0
  1 30  2  0  0  0
  1 81  1  0  0  0
  2  3  1  0  0  0
  2 25  1  0  0  0
  2 84  1  0  0  0
  2 85  1  0  0  0
  3  4  1  0  0  0
  3 86  1  0  0  0
  3 87  1  0  0  0
  4  5  1  0  0  0
  4 88  1  0  0  0
  4 89  1  0  0  0
  5  6  1  0  0  0
  5 26  1  0  0  0
  5 90  1  0  0  0
  6 25  1  0  0  0
  6 91  1  0  0  0
  6 92  1  0  0  0
  7  8  2  0  0  0
  7 26  1  0  0  0
  7 29  1  0  0  0
  8  9  1  0  0  0
  8 22  1  0  0  0
  9 10  1  0  0  0
  9 27  2  0  0  0
 10 11  2  0  0  0
 10 15  1  0  0  0
 11 12  1  0  0  0
 11 93  1  0  0  0
 12 13  2  0  0  0
 12 94  1  0  0  0
 13 14  1  0  0  0
 13 31  1  0  0  0
 14 15  2  0  0  0
 14 95  1  0  0  0
 15 96  1  0  0  0
 16 17  2  0  0  0
 16 21  1  0  0  0
 16 31  1  0  0  0
 17 18  1  0  0  0
 17 97  1  0  0  0
 18 19  2  0  0  0
 18 98  1  0  0  0
 19 20  1  0  0  0
 19 24  1  0  0  0
 20 21  2  0  0  0
 20 99  1  0  0  0
 21 23  1  0  0  0
 22 28  1  0  0  0
 22 32  2  0  0  0
 26 27  1  0  0  0
 28100  1  0  0  0
 28101  1  0  0  0
 29102  1  0  0  0
 29103  1  0  0  0
 33 34  1  0  0  0
 33 66  1  0  0  0
 33 70  2  0  0  0
 34 36  1  0  0  0
 34 59  1  0  0  0
 34104  1  0  0  0
 35 44  2  0  0  0
 35 45  1  0  0  0
 35 68  1  0  0  0
 36 56  1  0  0  0
 36105  1  0  0  0
 37 39  1  0  0  0
 37 47  1  0  0  0
 37 66  1  0  0  0
 37106  1  0  0  0
 38 43  2  0  0  0
 38 46  1  0  0  0
 38 47  1  0  0  0
 39 64  1  0  0  0
 39 67  2  0  0  0
 40 52  1  0  0  0
 40 53  2  0  0  0
 40 58  1  0  0  0
 41107  1  0  0  0
 41108  1  0  0  0
 41109  1  0  0  0
 41 48  1  0  0  0
 42 43  1  0  0  0
 42 66  1  0  0  0
 42110  1  0  0  0
 42111  1  0  0  0
 43 44  1  0  0  0
 44112  1  0  0  0
 45 46  2  0  0  0
 45113  1  0  0  0
 46114  1  0  0  0
 47115  1  0  0  0
 47116  1  0  0  0
 48 56  1  0  0  0
 48 65  1  0  0  0
 48117  1  0  0  0
 49 50  1  0  0  0
 49 53  1  0  0  0
 49 64  1  0  0  0
 49118  1  0  0  0
 50 51  1  0  0  0
 50119  1  0  0  0
 50120  1  0  0  0
 51 52  1  0  0  0
 51121  1  0  0  0
 51122  1  0  0  0
 52123  1  0  0  0
 52124  1  0  0  0
 53 54  1  0  0  0
 54 55  2  0  0  0
 54125  1  0  0  0
 55 57  1  0  0  0
 55126  1  0  0  0
 56 69  2  0  0  0
 57 58  2  0  0  0
 57127  1  0  0  0
 58128  1  0  0  0
 59 60  1  0  0  0
 59 61  1  0  0  0
 59 62  1  0  0  0
 60129  1  0  0  0
 60130  1  0  0  0
 60131  1  0  0  0
 61132  1  0  0  0
 61133  1  0  0  0
 61134  1  0  0  0
 62135  1  0  0  0
 62136  1  0  0  0
 62137  1  0  0  0
 63 65  1  0  0  0
 63138  1  0  0  0
 63139  1  0  0  0
 63140  1  0  0  0
 64141  1  0  0  0
 65142  1  0  0  0
 68 77  1  0  0  0
 71 72  2  0  0  0
 71 83  1  0  0  0
 71143  1  0  0  0
 72 78  1  0  0  0
 72 80  1  0  0  0
 73 80  2  0  0  0
 73 81  1  0  0  0
 73 83  1  0  0  0
 74144  1  0  0  0
 74145  1  0  0  0
 74146  1  0  0  0
 74 78  1  0  0  0
 75147  1  0  0  0
 75148  1  0  0  0
 75149  1  0  0  0
 75 79  1  0  0  0
 76 77  1  0  0  0
 76 79  1  0  0  0
 76150  1  0  0  0
 76151  1  0  0  0
 77152  1  0  0  0
 77153  1  0  0  0
 78 82  1  0  0  0
 78154  1  0  0  0
 79 82  1  0  0  0
 79155  1  0  0  0
 81156  1  0  0  0
 82157  1  0  0  0
 82158  1  0  0  0
M  CHG  1  82   1
M  ISO  4   1 100  68 101  77 101  81 100
M  END
> <chiral flag>
0

> <version>
0

> <s_m_source_file>
/data/baiqing/PycharmProjects/Reinvent-master-3.2/result/LINK_invent/BTK/process_docking_weight1_custom_product_contain_oxygen_bond_distance_aromatic_linkinvent_7_9_3/rearranged_h_0197.sdf

> <i_m_source_file_index>
2

> <r_mmod_Potential_Energy-OPLS-2005>
-55.7402420043945

> <r_mmod_Stretch_Energy-OPLS-2005>
62.3058624267578

> <r_mmod_Bend_Energy-OPLS-2005>
349.318450927734

> <r_mmod_Torsional_Energy-OPLS-2005>
235.200332641602

> <r_mmod_Improper_Torsional_Energy-OPLS-2005>
3.04823231697083

> <r_mmod_Van_der_Waal_Energy-OPLS-2005>
124.10334777832

> <r_mmod_Electrostatic_Energy-OPLS-2005>
-359.251190185547

> <r_mmod_Solvation_Energy-OPLS-2005>
-496.135925292969

> <b_mmod_Minimization_Converged-OPLS-2005>
0

> <r_mmod_RMS_Derivative-OPLS-2005>
4.12237548828125

$$$$
2
                    3D
 Structure written by MMmdl.
161169  0  0  1  0            999 V2000
  -30.6982  -14.4858   20.5463 C   0  0  0  0  0  0
  -30.4242  -12.3012   19.4279 C   0  0  0  0  0  0
  -29.5047  -12.4921   18.2063 C   0  0  0  0  0  0
  -28.0236  -12.3561   18.6170 C   0  0  0  0  0  0
  -27.6607  -13.2066   19.8647 C   0  0  2  0  0  0
  -28.7014  -13.0073   20.9900 C   0  0  0  0  0  0
  -25.2570  -13.8173   20.5655 C   0  0  0  0  0  0
  -24.1829  -13.0436   20.9155 C   0  0  0  0  0  0
  -24.6367  -11.6908   20.8691 C   0  0  0  0  0  0
  -23.9030  -10.4301   21.0385 C   0  0  0  0  0  0
  -24.3595   -9.4220   21.9161 C   0  0  0  0  0  0
  -23.6288   -8.2244   22.0742 C   0  0  0  0  0  0
  -22.4272   -8.0267   21.3536 C   0  0  0  0  0  0
  -21.9882   -9.0237   20.4647 C   0  0  0  0  0  0
  -22.7197  -10.2126   20.3036 C   0  0  0  0  0  0
  -21.6857   -6.0714   22.5283 C   0  0  0  0  0  0
  -21.4026   -6.5617   23.8209 C   0  0  0  0  0  0
  -21.3663   -5.6770   24.9169 C   0  0  0  0  0  0
  -21.6045   -4.3032   24.7225 C   0  0  0  0  0  0
  -21.8818   -3.8122   23.4348 C   0  0  0  0  0  0
  -21.9198   -4.6941   22.3392 C   0  0  0  0  0  0
  -22.7842  -13.5230   21.1838 C   0  0  0  0  0  0
  -22.1655   -4.2125   21.0981 F   0  0  0  0  0  0
  -21.5637   -3.4520   25.7735 F   0  0  0  0  0  0
  -30.0299  -13.3049   20.4309 N   0  0  0  0  0  0
  -26.3010  -12.9345   20.3277 N   0  0  0  0  0  0
  -25.9296  -11.6504   20.5692 N   0  0  0  0  0  0
  -22.0463  -12.8237   22.0399 N   0  0  0  0  0  0
  -25.4255  -15.1900   20.4097 N   0  0  0  0  0  0
  -31.8510  -14.6320   20.1323 O   0  0  0  0  0  0
  -21.6626   -6.8864   21.4245 O   0  0  0  0  0  0
  -22.3534  -14.5532   20.6683 O   0  0  0  0  0  0
  -24.6150  -31.8668   23.2097 C   0  0  0  0  0  0
  -25.9031  -32.4837   23.8393 C   0  0  1  0  0  0
  -27.2369  -27.4157   20.1079 C   0  0  0  0  0  0
  -25.5887  -33.8630   24.2339 N   0  0  0  0  0  0
  -23.4068  -30.4879   21.5511 C   0  0  2  0  0  0
  -24.8563  -28.9504   20.1178 C   0  0  0  0  0  0
  -22.7426  -29.4641   22.4990 C   0  0  0  0  0  0
  -18.0282  -28.1371   22.8493 C   0  0  0  0  0  0
  -24.1485  -36.7298   23.2639 C   0  0  0  0  0  0
  -25.9378  -30.8250   21.3676 C   0  0  0  0  0  0
  -26.0176  -29.4582   20.7155 C   0  0  0  0  0  0
  -27.2132  -28.6976   20.7064 C   0  0  0  0  0  0
  -26.0623  -26.9327   19.4933 C   0  0  0  0  0  0
  -24.8733  -27.6867   19.5039 C   0  0  0  0  0  0
  -23.6180  -29.8185   20.1678 C   0  0  0  0  0  0
  -25.4109  -36.3119   24.0342 C   0  0  1  0  0  0
  -20.5873  -28.3658   23.1318 C   0  0  2  0  0  0
  -20.6770  -26.9387   22.5428 C   0  0  0  0  0  0
  -19.5758  -26.6378   21.5215 C   0  0  0  0  0  0
  -18.1926  -26.7925   22.1613 C   0  0  0  0  0  0
  -19.1528  -28.8836   23.2902 C   0  0  0  0  0  0
  -18.9451  -30.1434   23.8912 C   0  0  0  0  0  0
  -17.6453  -30.6584   24.0558 C   0  0  0  0  0  0
  -25.9035  -34.9482   23.5143 C   0  0  0  0  0  0
  -16.5349  -29.9079   23.6323 C   0  0  0  0  0  0
  -16.7269  -28.6500   23.0350 C   0  0  0  0  0  0
  -26.4454  -31.6617   25.0726 C   0  0  0  0  0  0
  -25.3710  -31.3720   26.1472 C   0  0  0  0  0  0
  -27.0291  -30.3066   24.6093 C   0  0  0  0  0  0
  -27.6049  -32.4318   25.7468 C   0  0  0  0  0  0
  -27.5590  -37.1807   24.8466 C   0  0  0  0  0  0
  -21.4153  -29.3016   22.3717 N   0  0  0  0  0  0
  -26.4305  -37.3797   23.9405 N   0  0  0  0  0  0
  -24.6715  -31.0751   22.1008 N   0  0  0  0  0  0
  -23.4192  -28.8170   23.3025 O   0  0  0  0  0  0
  -28.3748  -26.6307   20.1182 O   0  0  0  0  0  0
  -26.5593  -34.8928   22.4702 O   0  0  0  0  0  0
  -23.5329  -32.1420   23.7477 O   0  0  0  0  0  0
  -31.4148  -19.0836   21.4566 C   0  0  0  0  0  0
  -30.1056  -19.1838   21.0369 C   0  0  0  0  0  0
  -30.3696  -16.8894   21.0726 C   0  0  0  0  0  0
  -32.3098  -22.6019   20.4178 C   0  0  0  0  0  0
  -29.0038  -23.0994   22.7611 C   0  0  0  0  0  0
  -29.2686  -20.4437   20.8010 C   0  0  0  0  0  0
  -29.2595  -24.2853   20.4799 C   0  0  0  0  0  0
  -31.0142  -21.9780   19.8614 C   0  0  0  0  0  0
  -28.2309  -25.3942   20.8528 C   0  0  0  0  0  0
  -29.0446  -22.9105   21.2287 C   0  0  1  0  0  0
  -29.5190  -17.9092   20.8603 N   0  0  0  0  0  0
  -29.9475  -15.5365   20.9419 N   0  0  0  0  0  0
  -29.9840  -21.7615   20.9229 N   0  3  1  0  0  0
  -31.9703  -17.4299   21.5656 S   0  0  0  0  0  0
  -31.4720  -12.3876   19.1336 H   0  0  0  0  0  0
  -30.3161  -11.2939   19.8337 H   0  0  0  0  0  0
  -29.7482  -11.7552   17.4392 H   0  0  0  0  0  0
  -29.6794  -13.4709   17.7566 H   0  0  0  0  0  0
  -27.8358  -11.3043   18.8295 H   0  0  0  0  0  0
  -27.3765  -12.6167   17.7783 H   0  0  0  0  0  0
  -27.6969  -14.2485   19.5484 H   0  0  0  0  0  0
  -28.6765  -11.9815   21.3591 H   0  0  0  0  0  0
  -28.4700  -13.6280   21.8566 H   0  0  0  0  0  0
  -25.2749   -9.5715   22.4704 H   0  0  0  0  0  0
  -24.0015   -7.4645   22.7453 H   0  0  0  0  0  0
  -21.0807   -8.8752   19.8950 H   0  0  0  0  0  0
  -22.3663  -10.9648   19.6123 H   0  0  0  0  0  0
  -21.2019   -7.6133   23.9714 H   0  0  0  0  0  0
  -21.1479   -6.0492   25.9075 H   0  0  0  0  0  0
  -22.0599   -2.7590   23.2836 H   0  0  0  0  0  0
  -22.4070  -11.9949   22.4882 H   0  0  0  0  0  0
  -21.1070  -13.1291   22.2537 H   0  0  0  0  0  0
  -24.6543  -15.8391   20.5306 H   0  0  0  0  0  0
  -26.2755  -15.6406   20.0932 H   0  0  0  0  0  0
  -26.7093  -32.5549   23.1146 H   0  0  0  0  0  0
  -25.0068  -33.9798   25.0509 H   0  0  0  0  0  0
  -22.6948  -31.3039   21.4111 H   0  0  0  0  0  0
  -23.3765  -35.9613   23.3316 H   0  0  0  0  0  0
  -24.3576  -36.8896   22.2053 H   0  0  0  0  0  0
  -23.7215  -37.6497   23.6638 H   0  0  0  0  0  0
  -26.0550  -31.5872   20.5965 H   0  0  0  0  0  0
  -26.8242  -30.8797   21.9883 H   0  0  0  0  0  0
  -28.1084  -29.0826   21.1731 H   0  0  0  0  0  0
  -26.0639  -25.9661   19.0099 H   0  0  0  0  0  0
  -23.9808  -27.2881   19.0411 H   0  0  0  0  0  0
  -23.7287  -30.5930   19.4079 H   0  0  0  0  0  0
  -22.7421  -29.2376   19.8726 H   0  0  0  0  0  0
  -25.1284  -36.1998   25.0834 H   0  0  0  0  0  0
  -20.9967  -28.3225   24.1437 H   0  0  0  0  0  0
  -20.5679  -26.2245   23.3606 H   0  0  0  0  0  0
  -21.6640  -26.7431   22.1216 H   0  0  0  0  0  0
  -19.6913  -25.6290   21.1237 H   0  0  0  0  0  0
  -19.6720  -27.3191   20.6749 H   0  0  0  0  0  0
  -17.4203  -26.6687   21.3998 H   0  0  0  0  0  0
  -18.0311  -26.0065   22.9007 H   0  0  0  0  0  0
  -19.7923  -30.7244   24.2295 H   0  0  0  0  0  0
  -17.5009  -31.6272   24.5144 H   0  0  0  0  0  0
  -15.5346  -30.2978   23.7657 H   0  0  0  0  0  0
  -15.8667  -28.0823   22.7056 H   0  0  0  0  0  0
  -24.5877  -30.7076   25.7800 H   0  0  0  0  0  0
  -24.8893  -32.2872   26.4919 H   0  0  0  0  0  0
  -25.8046  -30.8881   27.0238 H   0  0  0  0  0  0
  -26.2842  -29.6831   24.1133 H   0  0  0  0  0  0
  -27.4071  -29.7291   25.4543 H   0  0  0  0  0  0
  -27.8666  -30.4410   23.9244 H   0  0  0  0  0  0
  -27.2701  -33.3605   26.2088 H   0  0  0  0  0  0
  -28.3819  -32.6895   25.0265 H   0  0  0  0  0  0
  -28.0756  -31.8413   26.5339 H   0  0  0  0  0  0
  -28.2625  -38.0095   24.7517 H   0  0  0  0  0  0
  -28.1077  -36.2627   24.6292 H   0  0  0  0  0  0
  -27.2304  -37.1454   25.8872 H   0  0  0  0  0  0
  -20.9305  -29.8724   21.6934 H   0  0  0  0  0  0
  -26.0208  -38.2880   24.1408 H   0  0  0  0  0  0
  -32.1131  -19.8691   21.7052 H   0  0  0  0  0  0
  -32.1381  -23.5655   20.8941 H   0  0  0  0  0  0
  -33.0262  -22.7586   19.6099 H   0  0  0  0  0  0
  -32.8032  -21.9556   21.1449 H   0  0  0  0  0  0
  -28.1463  -23.6960   23.0727 H   0  0  0  0  0  0
  -29.9049  -23.5945   23.1262 H   0  0  0  0  0  0
  -28.9141  -22.1471   23.2861 H   0  0  0  0  0  0
  -28.4478  -20.4275   21.5197 H   0  0  0  0  0  0
  -28.7944  -20.4030   19.8207 H   0  0  0  0  0  0
  -30.2577  -24.6791   20.6613 H   0  0  0  0  0  0
  -29.1749  -24.1312   19.4043 H   0  0  0  0  0  0
  -31.2933  -21.0231   19.4141 H   0  0  0  0  0  0
  -30.6238  -22.5571   19.0249 H   0  0  0  0  0  0
  -28.3408  -25.6525   21.9061 H   0  0  0  0  0  0
  -27.2279  -24.9761   20.7506 H   0  0  0  0  0  0
  -28.0458  -22.5879   20.9265 H   0  0  0  0  0  0
  -28.9702  -15.3530   21.0980 H   0  0  0  0  0  0
  -30.5165  -21.6449   21.7708 H   0  0  0  0  0  0
  1 25  1  0  0  0
  1 30  2  0  0  0
  1 82  1  0  0  0
  2  3  1  0  0  0
  2 25  1  0  0  0
  2 85  1  0  0  0
  2 86  1  0  0  0
  3  4  1  0  0  0
  3 87  1  0  0  0
  3 88  1  0  0  0
  4  5  1  0  0  0
  4 89  1  0  0  0
  4 90  1  0  0  0
  5  6  1  0  0  0
  5 26  1  0  0  0
  5 91  1  0  0  0
  6 25  1  0  0  0
  6 92  1  0  0  0
  6 93  1  0  0  0
  7  8  2  0  0  0
  7 26  1  0  0  0
  7 29  1  0  0  0
  8  9  1  0  0  0
  8 22  1  0  0  0
  9 10  1  0  0  0
  9 27  2  0  0  0
 10 11  2  0  0  0
 10 15  1  0  0  0
 11 12  1  0  0  0
 11 94  1  0  0  0
 12 13  2  0  0  0
 12 95  1  0  0  0
 13 14  1  0  0  0
 13 31  1  0  0  0
 14 15  2  0  0  0
 14 96  1  0  0  0
 15 97  1  0  0  0
 16 17  2  0  0  0
 16 21  1  0  0  0
 16 31  1  0  0  0
 17 18  1  0  0  0
 17 98  1  0  0  0
 18 19  2  0  0  0
 18 99  1  0  0  0
 19 20  1  0  0  0
 19 24  1  0  0  0
 20 21  2  0  0  0
 20100  1  0  0  0
 21 23  1  0  0  0
 22 28  1  0  0  0
 22 32  2  0  0  0
 26 27  1  0  0  0
 28101  1  0  0  0
 28102  1  0  0  0
 29103  1  0  0  0
 29104  1  0  0  0
 33 34  1  0  0  0
 33 66  1  0  0  0
 33 70  2  0  0  0
 34 36  1  0  0  0
 34 59  1  0  0  0
 34105  1  0  0  0
 35 44  2  0  0  0
 35 45  1  0  0  0
 35 68  1  0  0  0
 36 56  1  0  0  0
 36106  1  0  0  0
 37 39  1  0  0  0
 37 47  1  0  0  0
 37 66  1  0  0  0
 37107  1  0  0  0
 38 43  2  0  0  0
 38 46  1  0  0  0
 38 47  1  0  0  0
 39 64  1  0  0  0
 39 67  2  0  0  0
 40 52  1  0  0  0
 40 53  2  0  0  0
 40 58  1  0  0  0
 41108  1  0  0  0
 41109  1  0  0  0
 41110  1  0  0  0
 41 48  1  0  0  0
 42 43  1  0  0  0
 42 66  1  0  0  0
 42111  1  0  0  0
 42112  1  0  0  0
 43 44  1  0  0  0
 44113  1  0  0  0
 45 46  2  0  0  0
 45114  1  0  0  0
 46115  1  0  0  0
 47116  1  0  0  0
 47117  1  0  0  0
 48 56  1  0  0  0
 48 65  1  0  0  0
 48118  1  0  0  0
 49 50  1  0  0  0
 49 53  1  0  0  0
 49 64  1  0  0  0
 49119  1  0  0  0
 50 51  1  0  0  0
 50120  1  0  0  0
 50121  1  0  0  0
 51 52  1  0  0  0
 51122  1  0  0  0
 51123  1  0  0  0
 52124  1  0  0  0
 52125  1  0  0  0
 53 54  1  0  0  0
 54 55  2  0  0  0
 54126  1  0  0  0
 55 57  1  0  0  0
 55127  1  0  0  0
 56 69  2  0  0  0
 57 58  2  0  0  0
 57128  1  0  0  0
 58129  1  0  0  0
 59 60  1  0  0  0
 59 61  1  0  0  0
 59 62  1  0  0  0
 60130  1  0  0  0
 60131  1  0  0  0
 60132  1  0  0  0
 61133  1  0  0  0
 61134  1  0  0  0
 61135  1  0  0  0
 62136  1  0  0  0
 62137  1  0  0  0
 62138  1  0  0  0
 63 65  1  0  0  0
 63139  1  0  0  0
 63140  1  0  0  0
 63141  1  0  0  0
 64142  1  0  0  0
 65143  1  0  0  0
 68 79  1  0  0  0
 71 72  2  0  0  0
 71 84  1  0  0  0
 71144  1  0  0  0
 72 76  1  0  0  0
 72 81  1  0  0  0
 73 81  2  0  0  0
 73 82  1  0  0  0
 73 84  1  0  0  0
 74 78  1  0  0  0
 74145  1  0  0  0
 74146  1  0  0  0
 74147  1  0  0  0
 75148  1  0  0  0
 75149  1  0  0  0
 75150  1  0  0  0
 75 80  1  0  0  0
 76151  1  0  0  0
 76152  1  0  0  0
 76 83  1  0  0  0
 77 79  1  0  0  0
 77 80  1  0  0  0
 77153  1  0  0  0
 77154  1  0  0  0
 78 83  1  0  0  0
 78155  1  0  0  0
 78156  1  0  0  0
 79157  1  0  0  0
 79158  1  0  0  0
 80 83  1  0  0  0
 80159  1  0  0  0
 82160  1  0  0  0
 83161  1  0  0  0
M  CHG  1  83   1
M  ISO  4   1 100  68 101  79 101  82 100
M  END
> <chiral flag>
0

> <version>
0

> <s_m_source_file>
/data/baiqing/PycharmProjects/Reinvent-master-3.2/result/LINK_invent/BTK/process_docking_weight1_custom_product_contain_oxygen_bond_distance_aromatic_linkinvent_7_9_3/rearranged_h_0197.sdf

> <i_m_source_file_index>
3

> <r_mmod_Potential_Energy-OPLS-2005>
-210.580139160156

> <r_mmod_Stretch_Energy-OPLS-2005>
45.9705123901367

> <r_mmod_Bend_Energy-OPLS-2005>
112.163940429688

> <r_mmod_Torsional_Energy-OPLS-2005>
249.414016723633

> <r_mmod_Improper_Torsional_Energy-OPLS-2005>
4.71236228942871

> <r_mmod_Van_der_Waal_Energy-OPLS-2005>
134.406097412109

> <r_mmod_Electrostatic_Energy-OPLS-2005>
-324.121734619141

> <r_mmod_Solvation_Energy-OPLS-2005>
-450.122131347656

> <b_mmod_Minimization_Converged-OPLS-2005>
0

> <r_mmod_RMS_Derivative-OPLS-2005>
3.13123464584351

$$$$
3
                    3D
 Structure written by MMmdl.
155163  0  0  1  0            999 V2000
  -30.6423  -14.5778   20.4872 C   0  0  0  0  0  0
  -30.4220  -12.3472   19.4470 C   0  0  0  0  0  0
  -29.4970  -12.4815   18.2169 C   0  0  0  0  0  0
  -28.0179  -12.3309   18.6250 C   0  0  0  0  0  0
  -27.6419  -13.2120   19.8466 C   0  0  2  0  0  0
  -28.6810  -13.0668   20.9808 C   0  0  0  0  0  0
  -25.2500  -13.8177   20.5665 C   0  0  0  0  0  0
  -24.1768  -13.0440   20.9193 C   0  0  0  0  0  0
  -24.6323  -11.6912   20.8722 C   0  0  0  0  0  0
  -23.9009  -10.4298   21.0410 C   0  0  0  0  0  0
  -24.3578   -9.4212   21.9187 C   0  0  0  0  0  0
  -23.6266   -8.2239   22.0766 C   0  0  0  0  0  0
  -22.4255   -8.0256   21.3549 C   0  0  0  0  0  0
  -21.9865   -9.0225   20.4659 C   0  0  0  0  0  0
  -22.7182  -10.2113   20.3059 C   0  0  0  0  0  0
  -21.6842   -6.0715   22.5286 C   0  0  0  0  0  0
  -21.4005   -6.5627   23.8214 C   0  0  0  0  0  0
  -21.3665   -5.6790   24.9181 C   0  0  0  0  0  0
  -21.6041   -4.3050   24.7238 C   0  0  0  0  0  0
  -21.8815   -3.8135   23.4361 C   0  0  0  0  0  0
  -21.9187   -4.6945   22.3412 C   0  0  0  0  0  0
  -22.7786  -13.5229   21.1852 C   0  0  0  0  0  0
  -22.1656   -4.2118   21.0994 F   0  0  0  0  0  0
  -21.5633   -3.4545   25.7761 F   0  0  0  0  0  0
  -30.0039  -13.3759   20.4188 N   0  0  0  0  0  0
  -26.2895  -12.9346   20.3207 N   0  0  0  0  0  0
  -25.9239  -11.6508   20.5694 N   0  0  0  0  0  0
  -22.0427  -12.8243   22.0430 N   0  0  0  0  0  0
  -25.4204  -15.1901   20.4099 N   0  0  0  0  0  0
  -31.8163  -14.7152   20.1326 O   0  0  0  0  0  0
  -21.6626   -6.8846   21.4243 O   0  0  0  0  0  0
  -22.3479  -14.5534   20.6694 O   0  0  0  0  0  0
  -24.6167  -31.8635   23.2040 C   0  0  0  0  0  0
  -25.9057  -32.4805   23.8363 C   0  0  1  0  0  0
  -27.2392  -27.3783   20.1251 C   0  0  0  0  0  0
  -25.5906  -33.8604   24.2304 N   0  0  0  0  0  0
  -23.4103  -30.4850   21.5436 C   0  0  2  0  0  0
  -24.8592  -28.9305   20.1251 C   0  0  0  0  0  0
  -22.7399  -29.4701   22.4970 C   0  0  0  0  0  0
  -18.0256  -28.1472   22.8460 C   0  0  0  0  0  0
  -24.1489  -36.7311   23.2641 C   0  0  0  0  0  0
  -25.9414  -30.8109   21.3668 C   0  0  0  0  0  0
  -26.0204  -29.4377   20.7227 C   0  0  0  0  0  0
  -27.2136  -28.6728   20.7120 C   0  0  0  0  0  0
  -26.0619  -26.8928   19.5252 C   0  0  0  0  0  0
  -24.8769  -27.6565   19.5257 C   0  0  0  0  0  0
  -23.6246  -29.8048   20.1647 C   0  0  0  0  0  0
  -25.4118  -36.3113   24.0336 C   0  0  1  0  0  0
  -20.5829  -28.3774   23.1295 C   0  0  2  0  0  0
  -20.6702  -26.9563   22.5322 C   0  0  0  0  0  0
  -19.5708  -26.6710   21.5042 C   0  0  0  0  0  0
  -18.1914  -26.8037   22.1546 C   0  0  0  0  0  0
  -19.1493  -28.8928   23.2937 C   0  0  0  0  0  0
  -18.9407  -30.1468   23.9091 C   0  0  0  0  0  0
  -17.6397  -30.6599   24.0737 C   0  0  0  0  0  0
  -25.9041  -34.9476   23.5108 C   0  0  0  0  0  0
  -16.5313  -29.9159   23.6331 C   0  0  0  0  0  0
  -16.7237  -28.6609   23.0301 C   0  0  0  0  0  0
  -26.4481  -31.6592   25.0702 C   0  0  0  0  0  0
  -25.3727  -31.3705   26.1424 C   0  0  0  0  0  0
  -27.0331  -30.3032   24.6123 C   0  0  0  0  0  0
  -27.6063  -32.4311   25.7457 C   0  0  0  0  0  0
  -27.5589  -37.1806   24.8467 C   0  0  0  0  0  0
  -21.4122  -29.3102   22.3666 N   0  0  0  0  0  0
  -26.4309  -37.3799   23.9398 N   0  0  0  0  0  0
  -24.6741  -31.0699   22.0974 N   0  0  0  0  0  0
  -23.4126  -28.8276   23.3077 O   0  0  0  0  0  0
  -28.4190  -26.6540   20.0732 O   0  0  0  0  0  0
  -26.5618  -34.8927   22.4684 O   0  0  0  0  0  0
  -23.5356  -32.1427   23.7392 O   0  0  0  0  0  0
  -29.3235  -18.2026   20.9588 C   0  0  0  0  0  0
  -28.4255  -18.1633   22.0016 C   0  0  0  0  0  0
  -28.5253  -20.3865   20.9060 C   0  0  0  0  0  0
  -28.1495  -17.0433   22.9521 C   0  0  0  0  0  0
  -30.2817  -17.0800   20.5248 C   0  0  0  0  0  0
  -28.9291  -22.7329   19.6640 C   0  0  0  0  0  0
  -28.4777  -25.2619   20.5187 C   0  0  0  0  0  0
  -28.1685  -24.1159   19.4843 C   0  0  1  0  0  0
  -29.3667  -19.4917   20.3512 N   0  0  0  0  0  0
  -28.3413  -21.7470   20.5823 N   0  0  0  0  0  0
  -29.8633  -15.6636   20.7267 N   0  0  0  0  0  0
  -28.5987  -24.5775   18.2169 O   0  0  0  0  0  0
  -27.5843  -19.6835   22.2092 S   0  0  0  0  0  0
  -31.4696  -12.4512   19.1529 H   0  0  0  0  0  0
  -30.3372  -11.3548   19.8883 H   0  0  0  0  0  0
  -29.7534  -11.7318   17.4665 H   0  0  0  0  0  0
  -29.6469  -13.4520   17.7445 H   0  0  0  0  0  0
  -27.8463  -11.2798   18.8583 H   0  0  0  0  0  0
  -27.3659  -12.5556   17.7792 H   0  0  0  0  0  0
  -27.6589  -14.2435   19.4952 H   0  0  0  0  0  0
  -28.6664  -12.0519   21.3769 H   0  0  0  0  0  0
  -28.4345  -13.7209   21.8195 H   0  0  0  0  0  0
  -25.2718   -9.5687   22.4758 H   0  0  0  0  0  0
  -23.9970   -7.4633   22.7488 H   0  0  0  0  0  0
  -21.0792   -8.8724   19.8974 H   0  0  0  0  0  0
  -22.3628  -10.9635   19.6162 H   0  0  0  0  0  0
  -21.1998   -7.6136   23.9701 H   0  0  0  0  0  0
  -21.1492   -6.0533   25.9080 H   0  0  0  0  0  0
  -22.0590   -2.7591   23.2883 H   0  0  0  0  0  0
  -22.4032  -11.9905   22.4829 H   0  0  0  0  0  0
  -21.1048  -13.1290   22.2638 H   0  0  0  0  0  0
  -24.6467  -15.8374   20.5090 H   0  0  0  0  0  0
  -26.2580  -15.6311   20.0542 H   0  0  0  0  0  0
  -26.7130  -32.5506   23.1122 H   0  0  0  0  0  0
  -25.0048  -33.9756   25.0443 H   0  0  0  0  0  0
  -22.7050  -31.3059   21.3906 H   0  0  0  0  0  0
  -23.3755  -35.9637   23.3307 H   0  0  0  0  0  0
  -24.3585  -36.8918   22.2056 H   0  0  0  0  0  0
  -23.7218  -37.6508   23.6649 H   0  0  0  0  0  0
  -26.0587  -31.5706   20.5931 H   0  0  0  0  0  0
  -26.8266  -30.8696   21.9886 H   0  0  0  0  0  0
  -28.1144  -29.0633   21.1647 H   0  0  0  0  0  0
  -26.0616  -25.9333   19.0311 H   0  0  0  0  0  0
  -23.9903  -27.2521   19.0560 H   0  0  0  0  0  0
  -23.7430  -30.5722   19.4000 H   0  0  0  0  0  0
  -22.7483  -29.2266   19.8670 H   0  0  0  0  0  0
  -25.1286  -36.1995   25.0835 H   0  0  0  0  0  0
  -20.9972  -28.3330   24.1390 H   0  0  0  0  0  0
  -20.5507  -26.2398   23.3451 H   0  0  0  0  0  0
  -21.6614  -26.7655   22.1165 H   0  0  0  0  0  0
  -19.7003  -25.6786   21.0725 H   0  0  0  0  0  0
  -19.6531  -27.3811   20.6790 H   0  0  0  0  0  0
  -18.0460  -26.0137   22.8941 H   0  0  0  0  0  0
  -17.4146  -26.6789   21.3986 H   0  0  0  0  0  0
  -19.7840  -30.7236   24.2650 H   0  0  0  0  0  0
  -17.4971  -31.6195   24.5517 H   0  0  0  0  0  0
  -15.5314  -30.3130   23.7605 H   0  0  0  0  0  0
  -15.8663  -28.0930   22.6944 H   0  0  0  0  0  0
  -24.5907  -30.7065   25.7723 H   0  0  0  0  0  0
  -24.8906  -32.2856   26.4871 H   0  0  0  0  0  0
  -25.8039  -30.8847   27.0184 H   0  0  0  0  0  0
  -26.2892  -29.6761   24.1195 H   0  0  0  0  0  0
  -27.4108  -29.7308   25.4610 H   0  0  0  0  0  0
  -27.8724  -30.4342   23.9289 H   0  0  0  0  0  0
  -27.2716  -33.3614   26.2062 H   0  0  0  0  0  0
  -28.3854  -32.6868   25.0262 H   0  0  0  0  0  0
  -28.0767  -31.8418   26.5335 H   0  0  0  0  0  0
  -28.2615  -38.0100   24.7525 H   0  0  0  0  0  0
  -28.1079  -36.2628   24.6283 H   0  0  0  0  0  0
  -27.2307  -37.1446   25.8873 H   0  0  0  0  0  0
  -20.9333  -29.8656   21.6708 H   0  0  0  0  0  0
  -26.0203  -38.2887   24.1379 H   0  0  0  0  0  0
  -29.0711  -16.5222   23.2097 H   0  0  0  0  0  0
  -27.7287  -17.4226   23.8833 H   0  0  0  0  0  0
  -27.4502  -16.3249   22.5222 H   0  0  0  0  0  0
  -30.5321  -17.2081   19.4699 H   0  0  0  0  0  0
  -31.2181  -17.2166   21.0655 H   0  0  0  0  0  0
  -28.9749  -22.2218   18.6980 H   0  0  0  0  0  0
  -29.9685  -22.9065   19.9487 H   0  0  0  0  0  0
  -29.5049  -25.1228   20.8538 H   0  0  0  0  0  0
  -27.8733  -25.1286   21.4182 H   0  0  0  0  0  0
  -27.0913  -23.9502   19.4229 H   0  0  0  0  0  0
  -27.6463  -22.1655   21.1935 H   0  0  0  0  0  0
  -28.8946  -15.5017   20.9422 H   0  0  0  0  0  0
  -28.3001  -23.9479   17.5694 H   0  0  0  0  0  0
  1 25  1  0  0  0
  1 30  2  0  0  0
  1 81  1  0  0  0
  2  3  1  0  0  0
  2 25  1  0  0  0
  2 84  1  0  0  0
  2 85  1  0  0  0
  3  4  1  0  0  0
  3 86  1  0  0  0
  3 87  1  0  0  0
  4  5  1  0  0  0
  4 88  1  0  0  0
  4 89  1  0  0  0
  5  6  1  0  0  0
  5 26  1  0  0  0
  5 90  1  0  0  0
  6 25  1  0  0  0
  6 91  1  0  0  0
  6 92  1  0  0  0
  7  8  2  0  0  0
  7 26  1  0  0  0
  7 29  1  0  0  0
  8  9  1  0  0  0
  8 22  1  0  0  0
  9 10  1  0  0  0
  9 27  2  0  0  0
 10 11  2  0  0  0
 10 15  1  0  0  0
 11 12  1  0  0  0
 11 93  1  0  0  0
 12 13  2  0  0  0
 12 94  1  0  0  0
 13 14  1  0  0  0
 13 31  1  0  0  0
 14 15  2  0  0  0
 14 95  1  0  0  0
 15 96  1  0  0  0
 16 17  2  0  0  0
 16 21  1  0  0  0
 16 31  1  0  0  0
 17 18  1  0  0  0
 17 97  1  0  0  0
 18 19  2  0  0  0
 18 98  1  0  0  0
 19 20  1  0  0  0
 19 24  1  0  0  0
 20 21  2  0  0  0
 20 99  1  0  0  0
 21 23  1  0  0  0
 22 28  1  0  0  0
 22 32  2  0  0  0
 26 27  1  0  0  0
 28100  1  0  0  0
 28101  1  0  0  0
 29102  1  0  0  0
 29103  1  0  0  0
 33 34  1  0  0  0
 33 66  1  0  0  0
 33 70  2  0  0  0
 34 36  1  0  0  0
 34 59  1  0  0  0
 34104  1  0  0  0
 35 44  2  0  0  0
 35 45  1  0  0  0
 35 68  1  0  0  0
 36 56  1  0  0  0
 36105  1  0  0  0
 37 39  1  0  0  0
 37 47  1  0  0  0
 37 66  1  0  0  0
 37106  1  0  0  0
 38 43  2  0  0  0
 38 46  1  0  0  0
 38 47  1  0  0  0
 39 64  1  0  0  0
 39 67  2  0  0  0
 40 52  1  0  0  0
 40 53  2  0  0  0
 40 58  1  0  0  0
 41107  1  0  0  0
 41108  1  0  0  0
 41109  1  0  0  0
 41 48  1  0  0  0
 42 43  1  0  0  0
 42 66  1  0  0  0
 42110  1  0  0  0
 42111  1  0  0  0
 43 44  1  0  0  0
 44112  1  0  0  0
 45 46  2  0  0  0
 45113  1  0  0  0
 46114  1  0  0  0
 47115  1  0  0  0
 47116  1  0  0  0
 48 56  1  0  0  0
 48 65  1  0  0  0
 48117  1  0  0  0
 49 50  1  0  0  0
 49 53  1  0  0  0
 49 64  1  0  0  0
 49118  1  0  0  0
 50 51  1  0  0  0
 50119  1  0  0  0
 50120  1  0  0  0
 51 52  1  0  0  0
 51121  1  0  0  0
 51122  1  0  0  0
 52123  1  0  0  0
 52124  1  0  0  0
 53 54  1  0  0  0
 54 55  2  0  0  0
 54125  1  0  0  0
 55 57  1  0  0  0
 55126  1  0  0  0
 56 69  2  0  0  0
 57 58  2  0  0  0
 57127  1  0  0  0
 58128  1  0  0  0
 59 60  1  0  0  0
 59 61  1  0  0  0
 59 62  1  0  0  0
 60129  1  0  0  0
 60130  1  0  0  0
 60131  1  0  0  0
 61132  1  0  0  0
 61133  1  0  0  0
 61134  1  0  0  0
 62135  1  0  0  0
 62136  1  0  0  0
 62137  1  0  0  0
 63 65  1  0  0  0
 63138  1  0  0  0
 63139  1  0  0  0
 63140  1  0  0  0
 64141  1  0  0  0
 65142  1  0  0  0
 68 77  1  0  0  0
 71 72  2  0  0  0
 71 75  1  0  0  0
 71 79  1  0  0  0
 72 74  1  0  0  0
 72 83  1  0  0  0
 73 79  2  0  0  0
 73 80  1  0  0  0
 73 83  1  0  0  0
 74143  1  0  0  0
 74144  1  0  0  0
 74145  1  0  0  0
 75 81  1  0  0  0
 75146  1  0  0  0
 75147  1  0  0  0
 76 78  1  0  0  0
 76 80  1  0  0  0
 76148  1  0  0  0
 76149  1  0  0  0
 77 78  1  0  0  0
 77150  1  0  0  0
 77151  1  0  0  0
 78 82  1  0  0  0
 78152  1  0  0  0
 80153  1  0  0  0
 81154  1  0  0  0
 82155  1  0  0  0
M  ISO  4   1 100  68 101  77 101  81 100
M  END
> <chiral flag>
0

> <version>
0

> <s_m_source_file>
/data/baiqing/PycharmProjects/Reinvent-master-3.2/result/LINK_invent/BTK/process_docking_weight1_custom_product_contain_oxygen_bond_distance_aromatic_linkinvent_7_9_3/rearranged_h_0197.sdf

> <i_m_source_file_index>
4

> <r_mmod_Potential_Energy-OPLS-2005>
-174.035659790039

> <r_mmod_Stretch_Energy-OPLS-2005>
52.121410369873

> <r_mmod_Bend_Energy-OPLS-2005>
123.017753601074

> <r_mmod_Torsional_Energy-OPLS-2005>
237.652969360352

> <r_mmod_Improper_Torsional_Energy-OPLS-2005>
6.39590787887573

> <r_mmod_Van_der_Waal_Energy-OPLS-2005>
113.567100524902

> <r_mmod_Electrostatic_Energy-OPLS-2005>
-483.815490722656

> <r_mmod_Solvation_Energy-OPLS-2005>
-251.834533691406

> <b_mmod_Minimization_Converged-OPLS-2005>
0

> <r_mmod_RMS_Derivative-OPLS-2005>
4.35505294799805

$$$$
4
                    3D
 Structure written by MMmdl.
154162  0  0  1  0            999 V2000
  -30.6504  -14.7298   20.4368 C   0  0  0  0  0  0
  -30.4154  -12.4390   19.4827 C   0  0  0  0  0  0
  -29.5084  -12.5012   18.2376 C   0  0  0  0  0  0
  -28.0315  -12.3367   18.6447 C   0  0  0  0  0  0
  -27.6354  -13.2420   19.8421 C   0  0  2  0  0  0
  -28.6773  -13.1992   20.9805 C   0  0  0  0  0  0
  -25.2458  -13.8221   20.5670 C   0  0  0  0  0  0
  -24.1782  -13.0449   20.9213 C   0  0  0  0  0  0
  -24.6384  -11.6936   20.8731 C   0  0  0  0  0  0
  -23.9083  -10.4299   21.0407 C   0  0  0  0  0  0
  -24.3637   -9.4215   21.9198 C   0  0  0  0  0  0
  -23.6310   -8.2236   22.0754 C   0  0  0  0  0  0
  -22.4288   -8.0274   21.3530 C   0  0  0  0  0  0
  -21.9925   -9.0254   20.4645 C   0  0  0  0  0  0
  -22.7241  -10.2139   20.3058 C   0  0  0  0  0  0
  -21.6853   -6.0735   22.5276 C   0  0  0  0  0  0
  -21.4008   -6.5638   23.8213 C   0  0  0  0  0  0
  -21.3665   -5.6786   24.9171 C   0  0  0  0  0  0
  -21.6052   -4.3047   24.7219 C   0  0  0  0  0  0
  -21.8814   -3.8139   23.4327 C   0  0  0  0  0  0
  -21.9184   -4.6963   22.3391 C   0  0  0  0  0  0
  -22.7787  -13.5219   21.1865 C   0  0  0  0  0  0
  -22.1659   -4.2144   21.0972 F   0  0  0  0  0  0
  -21.5647   -3.4547   25.7737 F   0  0  0  0  0  0
  -29.9814  -13.5253   20.3933 N   0  0  0  0  0  0
  -26.2900  -12.9453   20.3221 N   0  0  0  0  0  0
  -25.9314  -11.6586   20.5721 N   0  0  0  0  0  0
  -22.0436  -12.8224   22.0446 N   0  0  0  0  0  0
  -25.4109  -15.1943   20.4101 N   0  0  0  0  0  0
  -31.8579  -14.7163   20.1761 O   0  0  0  0  0  0
  -21.6627   -6.8872   21.4237 O   0  0  0  0  0  0
  -22.3469  -14.5519   20.6700 O   0  0  0  0  0  0
  -24.6279  -31.8565   23.1979 C   0  0  0  0  0  0
  -25.9116  -32.4767   23.8321 C   0  0  1  0  0  0
  -27.2229  -27.2860   20.1398 C   0  0  0  0  0  0
  -25.5934  -33.8567   24.2255 N   0  0  0  0  0  0
  -23.4235  -30.4765   21.5408 C   0  0  2  0  0  0
  -24.8713  -28.9169   20.1177 C   0  0  0  0  0  0
  -22.7479  -29.4615   22.4931 C   0  0  0  0  0  0
  -18.0282  -28.1392   22.8476 C   0  0  0  0  0  0
  -24.1493  -36.7288   23.2635 C   0  0  0  0  0  0
  -25.9634  -30.7793   21.3698 C   0  0  0  0  0  0
  -26.0398  -29.3990   20.7213 C   0  0  0  0  0  0
  -27.2232  -28.5974   20.7151 C   0  0  0  0  0  0
  -26.0329  -26.8516   19.5248 C   0  0  0  0  0  0
  -24.8709  -27.6508   19.5080 C   0  0  0  0  0  0
  -23.6428  -29.8043   20.1584 C   0  0  0  0  0  0
  -25.4118  -36.3075   24.0322 C   0  0  1  0  0  0
  -20.5876  -28.3703   23.1270 C   0  0  2  0  0  0
  -20.6789  -26.9423   22.5418 C   0  0  0  0  0  0
  -19.5779  -26.6389   21.5207 C   0  0  0  0  0  0
  -18.1946  -26.7938   22.1603 C   0  0  0  0  0  0
  -19.1532  -28.8862   23.2871 C   0  0  0  0  0  0
  -18.9457  -30.1460   23.8898 C   0  0  0  0  0  0
  -17.6462  -30.6604   24.0549 C   0  0  0  0  0  0
  -25.9063  -34.9448   23.5094 C   0  0  0  0  0  0
  -16.5349  -29.9107   23.6322 C   0  0  0  0  0  0
  -16.7269  -28.6518   23.0350 C   0  0  0  0  0  0
  -26.4505  -31.6575   25.0691 C   0  0  0  0  0  0
  -25.3728  -31.3712   26.1407 C   0  0  0  0  0  0
  -27.0341  -30.3000   24.6135 C   0  0  0  0  0  0
  -27.6074  -32.4292   25.7475 C   0  0  0  0  0  0
  -27.5576  -37.1808   24.8459 C   0  0  0  0  0  0
  -21.4188  -29.3057   22.3674 N   0  0  0  0  0  0
  -26.4286  -37.3776   23.9401 N   0  0  0  0  0  0
  -24.6905  -31.0549   22.0943 N   0  0  0  0  0  0
  -23.4191  -28.8161   23.3026 O   0  0  0  0  0  0
  -28.3422  -26.4385   20.1124 O   0  0  0  0  0  0
  -26.5623  -34.8914   22.4654 O   0  0  0  0  0  0
  -23.5438  -32.1380   23.7287 O   0  0  0  0  0  0
  -31.0508  -19.8464   19.6536 C   0  0  0  0  0  0
  -29.7630  -19.6481   20.1706 C   0  0  0  0  0  0
  -31.8777  -18.7450   19.4923 C   0  0  0  0  0  0
  -30.2784  -17.2931   20.3126 C   0  0  0  0  0  0
  -28.7477  -20.8876   20.1235 C   0  0  0  0  0  0
  -28.4187  -23.6975   19.9766 C   0  0  0  0  0  0
  -28.2821  -25.1005   20.7714 C   0  0  0  0  0  0
  -29.0375  -22.3888   20.7159 C   0  0  2  0  0  0
  -29.3923  -18.3349   20.4893 N   0  0  0  0  0  0
  -31.4985  -17.5112   19.8211 N   0  0  0  0  0  0
  -33.1409  -18.8706   18.9441 N   0  0  0  0  0  0
  -29.9306  -15.9200   20.5769 N   0  0  0  0  0  0
  -30.4285  -22.6707   20.7959 O   0  0  0  0  0  0
  -31.4616  -12.5255   19.1859 H   0  0  0  0  0  0
  -30.3295  -11.4702   19.9775 H   0  0  0  0  0  0
  -29.7952  -11.7253   17.5248 H   0  0  0  0  0  0
  -29.6454  -13.4555   17.7253 H   0  0  0  0  0  0
  -27.8790  -11.2893   18.9082 H   0  0  0  0  0  0
  -27.3805  -12.5335   17.7925 H   0  0  0  0  0  0
  -27.6266  -14.2619   19.4539 H   0  0  0  0  0  0
  -28.7021  -12.2150   21.4529 H   0  0  0  0  0  0
  -28.4167  -13.9093   21.7667 H   0  0  0  0  0  0
  -25.2797   -9.5699   22.4761 H   0  0  0  0  0  0
  -24.0024   -7.4636   22.7478 H   0  0  0  0  0  0
  -21.0844   -8.8777   19.8967 H   0  0  0  0  0  0
  -22.3706  -10.9680   19.6154 H   0  0  0  0  0  0
  -21.1997   -7.6150   23.9719 H   0  0  0  0  0  0
  -21.1506   -6.0517   25.9084 H   0  0  0  0  0  0
  -22.0588   -2.7603   23.2828 H   0  0  0  0  0  0
  -22.4043  -11.9901   22.4860 H   0  0  0  0  0  0
  -21.1043  -13.1242   22.2626 H   0  0  0  0  0  0
  -24.6378  -15.8420   20.5230 H   0  0  0  0  0  0
  -26.2542  -15.6426   20.0788 H   0  0  0  0  0  0
  -26.7169  -32.5441   23.1059 H   0  0  0  0  0  0
  -25.0098  -33.9720   25.0407 H   0  0  0  0  0  0
  -22.7181  -31.2967   21.3930 H   0  0  0  0  0  0
  -23.3763  -35.9615   23.3309 H   0  0  0  0  0  0
  -24.3573  -36.8905   22.2046 H   0  0  0  0  0  0
  -23.7249  -37.6494   23.6654 H   0  0  0  0  0  0
  -26.0862  -31.5360   20.5933 H   0  0  0  0  0  0
  -26.8470  -30.8390   21.9941 H   0  0  0  0  0  0
  -28.1261  -28.9688   21.1807 H   0  0  0  0  0  0
  -26.0014  -25.8773   19.0577 H   0  0  0  0  0  0
  -23.9756  -27.2782   19.0305 H   0  0  0  0  0  0
  -23.7687  -30.5775   19.3997 H   0  0  0  0  0  0
  -22.7624  -29.2367   19.8522 H   0  0  0  0  0  0
  -25.1311  -36.1930   25.0818 H   0  0  0  0  0  0
  -20.9942  -28.3288   24.1395 H   0  0  0  0  0  0
  -20.5692  -26.2304   23.3620 H   0  0  0  0  0  0
  -21.6664  -26.7495   22.1207 H   0  0  0  0  0  0
  -19.6959  -25.6296   21.1258 H   0  0  0  0  0  0
  -19.6732  -27.3172   20.6713 H   0  0  0  0  0  0
  -17.4225  -26.6651   21.4005 H   0  0  0  0  0  0
  -18.0369  -26.0091   22.9009 H   0  0  0  0  0  0
  -19.7934  -30.7258   24.2292 H   0  0  0  0  0  0
  -17.5027  -31.6278   24.5155 H   0  0  0  0  0  0
  -15.5353  -30.3017   23.7665 H   0  0  0  0  0  0
  -15.8658  -28.0847   22.7076 H   0  0  0  0  0  0
  -24.5922  -30.7049   25.7724 H   0  0  0  0  0  0
  -24.8887  -32.2864   26.4817 H   0  0  0  0  0  0
  -25.8036  -30.8899   27.0192 H   0  0  0  0  0  0
  -26.2891  -29.6761   24.1174 H   0  0  0  0  0  0
  -27.4062  -29.7262   25.4636 H   0  0  0  0  0  0
  -27.8761  -30.4310   23.9330 H   0  0  0  0  0  0
  -27.2715  -33.3604   26.2055 H   0  0  0  0  0  0
  -28.3897  -32.6827   25.0306 H   0  0  0  0  0  0
  -28.0722  -31.8395   26.5392 H   0  0  0  0  0  0
  -28.2610  -38.0096   24.7505 H   0  0  0  0  0  0
  -28.1067  -36.2628   24.6303 H   0  0  0  0  0  0
  -27.2286  -37.1475   25.8862 H   0  0  0  0  0  0
  -20.9371  -29.8744   21.6847 H   0  0  0  0  0  0
  -26.0180  -38.2854   24.1410 H   0  0  0  0  0  0
  -31.3719  -20.8331   19.3481 H   0  0  0  0  0  0
  -27.8050  -20.5437   20.5490 H   0  0  0  0  0  0
  -28.5403  -21.0126   19.0615 H   0  0  0  0  0  0
  -28.9977  -23.8723   19.0687 H   0  0  0  0  0  0
  -27.4210  -23.4433   19.6194 H   0  0  0  0  0  0
  -29.1071  -25.1343   21.4823 H   0  0  0  0  0  0
  -27.3914  -25.0528   21.3994 H   0  0  0  0  0  0
  -28.6719  -22.3839   21.7448 H   0  0  0  0  0  0
  -33.3509  -19.7113   18.4191 H   0  0  0  0  0  0
  -33.5495  -18.0323   18.5477 H   0  0  0  0  0  0
  -28.9692  -15.7872   20.8347 H   0  0  0  0  0  0
  -30.5439  -23.4784   21.2910 H   0  0  0  0  0  0
  1 25  1  0  0  0
  1 30  2  0  0  0
  1 82  1  0  0  0
  2  3  1  0  0  0
  2 25  1  0  0  0
  2 84  1  0  0  0
  2 85  1  0  0  0
  3  4  1  0  0  0
  3 86  1  0  0  0
  3 87  1  0  0  0
  4  5  1  0  0  0
  4 88  1  0  0  0
  4 89  1  0  0  0
  5  6  1  0  0  0
  5 26  1  0  0  0
  5 90  1  0  0  0
  6 25  1  0  0  0
  6 91  1  0  0  0
  6 92  1  0  0  0
  7  8  2  0  0  0
  7 26  1  0  0  0
  7 29  1  0  0  0
  8  9  1  0  0  0
  8 22  1  0  0  0
  9 10  1  0  0  0
  9 27  2  0  0  0
 10 11  2  0  0  0
 10 15  1  0  0  0
 11 12  1  0  0  0
 11 93  1  0  0  0
 12 13  2  0  0  0
 12 94  1  0  0  0
 13 14  1  0  0  0
 13 31  1  0  0  0
 14 15  2  0  0  0
 14 95  1  0  0  0
 15 96  1  0  0  0
 16 17  2  0  0  0
 16 21  1  0  0  0
 16 31  1  0  0  0
 17 18  1  0  0  0
 17 97  1  0  0  0
 18 19  2  0  0  0
 18 98  1  0  0  0
 19 20  1  0  0  0
 19 24  1  0  0  0
 20 21  2  0  0  0
 20 99  1  0  0  0
 21 23  1  0  0  0
 22 28  1  0  0  0
 22 32  2  0  0  0
 26 27  1  0  0  0
 28100  1  0  0  0
 28101  1  0  0  0
 29102  1  0  0  0
 29103  1  0  0  0
 33 34  1  0  0  0
 33 66  1  0  0  0
 33 70  2  0  0  0
 34 36  1  0  0  0
 34 59  1  0  0  0
 34104  1  0  0  0
 35 44  2  0  0  0
 35 45  1  0  0  0
 35 68  1  0  0  0
 36 56  1  0  0  0
 36105  1  0  0  0
 37 39  1  0  0  0
 37 47  1  0  0  0
 37 66  1  0  0  0
 37106  1  0  0  0
 38 43  2  0  0  0
 38 46  1  0  0  0
 38 47  1  0  0  0
 39 64  1  0  0  0
 39 67  2  0  0  0
 40 52  1  0  0  0
 40 53  2  0  0  0
 40 58  1  0  0  0
 41107  1  0  0  0
 41108  1  0  0  0
 41109  1  0  0  0
 41 48  1  0  0  0
 42 43  1  0  0  0
 42 66  1  0  0  0
 42110  1  0  0  0
 42111  1  0  0  0
 43 44  1  0  0  0
 44112  1  0  0  0
 45 46  2  0  0  0
 45113  1  0  0  0
 46114  1  0  0  0
 47115  1  0  0  0
 47116  1  0  0  0
 48 56  1  0  0  0
 48 65  1  0  0  0
 48117  1  0  0  0
 49 50  1  0  0  0
 49 53  1  0  0  0
 49 64  1  0  0  0
 49118  1  0  0  0
 50 51  1  0  0  0
 50119  1  0  0  0
 50120  1  0  0  0
 51 52  1  0  0  0
 51121  1  0  0  0
 51122  1  0  0  0
 52123  1  0  0  0
 52124  1  0  0  0
 53 54  1  0  0  0
 54 55  2  0  0  0
 54125  1  0  0  0
 55 57  1  0  0  0
 55126  1  0  0  0
 56 69  2  0  0  0
 57 58  2  0  0  0
 57127  1  0  0  0
 58128  1  0  0  0
 59 60  1  0  0  0
 59 61  1  0  0  0
 59 62  1  0  0  0
 60129  1  0  0  0
 60130  1  0  0  0
 60131  1  0  0  0
 61132  1  0  0  0
 61133  1  0  0  0
 61134  1  0  0  0
 62135  1  0  0  0
 62136  1  0  0  0
 62137  1  0  0  0
 63 65  1  0  0  0
 63138  1  0  0  0
 63139  1  0  0  0
 63140  1  0  0  0
 64141  1  0  0  0
 65142  1  0  0  0
 68 77  1  0  0  0
 71 72  2  0  0  0
 71 73  1  0  0  0
 71143  1  0  0  0
 72 75  1  0  0  0
 72 79  1  0  0  0
 73 80  2  0  0  0
 73 81  1  0  0  0
 74 79  2  0  0  0
 74 80  1  0  0  0
 74 82  1  0  0  0
 75 78  1  0  0  0
 75144  1  0  0  0
 75145  1  0  0  0
 76 77  1  0  0  0
 76 78  1  0  0  0
 76146  1  0  0  0
 76147  1  0  0  0
 77148  1  0  0  0
 77149  1  0  0  0
 78 83  1  0  0  0
 78150  1  0  0  0
 81151  1  0  0  0
 81152  1  0  0  0
 82153  1  0  0  0
 83154  1  0  0  0
M  ISO  4   1 100  68 101  77 101  82 100
M  END
> <chiral flag>
0

> <version>
0

> <s_m_source_file>
/data/baiqing/PycharmProjects/Reinvent-master-3.2/result/LINK_invent/BTK/process_docking_weight1_custom_product_contain_oxygen_bond_distance_aromatic_linkinvent_7_9_3/rearranged_h_0197.sdf

> <i_m_source_file_index>
5

> <r_mmod_Potential_Energy-OPLS-2005>
-229.696411132812

> <r_mmod_Stretch_Energy-OPLS-2005>
127.822761535645

> <r_mmod_Bend_Energy-OPLS-2005>
184.649703979492

> <r_mmod_Torsional_Energy-OPLS-2005>
252.290161132812

> <r_mmod_Improper_Torsional_Energy-OPLS-2005>
8.89540672302246

> <r_mmod_Van_der_Waal_Energy-OPLS-2005>
146.734329223633

> <r_mmod_Electrostatic_Energy-OPLS-2005>
-756.3212890625

> <r_mmod_Solvation_Energy-OPLS-2005>
-268.509613037109

> <b_mmod_Minimization_Converged-OPLS-2005>
0

> <r_mmod_RMS_Derivative-OPLS-2005>
2.9321596622467

$$$$
5
                    3D
 Structure written by MMmdl.
153161  0  0  1  0            999 V2000
  -30.6181  -14.7602   20.4061 C   0  0  0  0  0  0
  -30.4343  -12.4558   19.4704 C   0  0  0  0  0  0
  -29.5205  -12.4917   18.2263 C   0  0  0  0  0  0
  -28.0451  -12.3189   18.6366 C   0  0  0  0  0  0
  -27.6425  -13.2303   19.8282 C   0  0  2  0  0  0
  -28.6859  -13.1961   20.9668 C   0  0  0  0  0  0
  -25.2545  -13.8169   20.5650 C   0  0  0  0  0  0
  -24.1834  -13.0428   20.9172 C   0  0  0  0  0  0
  -24.6411  -11.6912   20.8698 C   0  0  0  0  0  0
  -23.9065  -10.4300   21.0394 C   0  0  0  0  0  0
  -24.3635   -9.4228   21.9175 C   0  0  0  0  0  0
  -23.6321   -8.2256   22.0741 C   0  0  0  0  0  0
  -22.4305   -8.0282   21.3524 C   0  0  0  0  0  0
  -21.9918   -9.0257   20.4626 C   0  0  0  0  0  0
  -22.7239  -10.2148   20.3033 C   0  0  0  0  0  0
  -21.6877   -6.0755   22.5277 C   0  0  0  0  0  0
  -21.4036   -6.5645   23.8210 C   0  0  0  0  0  0
  -21.3648   -5.6781   24.9159 C   0  0  0  0  0  0
  -21.6053   -4.3051   24.7213 C   0  0  0  0  0  0
  -21.8823   -3.8144   23.4333 C   0  0  0  0  0  0
  -21.9198   -4.6983   22.3393 C   0  0  0  0  0  0
  -22.7850  -13.5245   21.1827 C   0  0  0  0  0  0
  -22.1667   -4.2165   21.0988 F   0  0  0  0  0  0
  -21.5609   -3.4530   25.7724 F   0  0  0  0  0  0
  -29.9883  -13.5345   20.3830 N   0  0  0  0  0  0
  -26.2949  -12.9370   20.3148 N   0  0  0  0  0  0
  -25.9354  -11.6519   20.5660 N   0  0  0  0  0  0
  -22.0470  -12.8273   22.0384 N   0  0  0  0  0  0
  -25.4214  -15.1911   20.4143 N   0  0  0  0  0  0
  -31.8274  -14.8061   20.1518 O   0  0  0  0  0  0
  -21.6652   -6.8910   21.4238 O   0  0  0  0  0  0
  -22.3582  -14.5575   20.6680 O   0  0  0  0  0  0
  -24.6315  -31.8506   23.1964 C   0  0  0  0  0  0
  -25.9150  -32.4726   23.8303 C   0  0  1  0  0  0
  -27.2305  -27.2649   20.1147 C   0  0  0  0  0  0
  -25.5932  -33.8535   24.2217 N   0  0  0  0  0  0
  -23.4279  -30.4681   21.5424 C   0  0  2  0  0  0
  -24.8720  -28.9087   20.1106 C   0  0  0  0  0  0
  -22.7522  -29.4563   22.4964 C   0  0  0  0  0  0
  -18.0284  -28.1393   22.8498 C   0  0  0  0  0  0
  -24.1487  -36.7290   23.2629 C   0  0  0  0  0  0
  -25.9708  -30.7609   21.3741 C   0  0  0  0  0  0
  -26.0412  -29.3831   20.7165 C   0  0  0  0  0  0
  -27.2179  -28.5714   20.7085 C   0  0  0  0  0  0
  -26.0364  -26.8427   19.4913 C   0  0  0  0  0  0
  -24.8740  -27.6453   19.4924 C   0  0  0  0  0  0
  -23.6445  -29.7984   20.1595 C   0  0  0  0  0  0
  -25.4118  -36.3052   24.0307 C   0  0  1  0  0  0
  -20.5896  -28.3698   23.1313 C   0  0  2  0  0  0
  -20.6797  -26.9423   22.5430 C   0  0  0  0  0  0
  -19.5763  -26.6390   21.5242 C   0  0  0  0  0  0
  -18.1937  -26.7940   22.1636 C   0  0  0  0  0  0
  -19.1539  -28.8866   23.2887 C   0  0  0  0  0  0
  -18.9450  -30.1480   23.8884 C   0  0  0  0  0  0
  -17.6448  -30.6599   24.0566 C   0  0  0  0  0  0
  -25.9059  -34.9426   23.5058 C   0  0  0  0  0  0
  -16.5348  -29.9097   23.6336 C   0  0  0  0  0  0
  -16.7272  -28.6519   23.0357 C   0  0  0  0  0  0
  -26.4485  -31.6583   25.0725 C   0  0  0  0  0  0
  -25.3700  -31.3771   26.1457 C   0  0  0  0  0  0
  -27.0319  -30.2992   24.6233 C   0  0  0  0  0  0
  -27.6019  -32.4348   25.7519 C   0  0  0  0  0  0
  -27.5586  -37.1788   24.8450 C   0  0  0  0  0  0
  -21.4226  -29.3022   22.3705 N   0  0  0  0  0  0
  -26.4282  -37.3771   23.9410 N   0  0  0  0  0  0
  -24.6962  -31.0477   22.0934 N   0  0  0  0  0  0
  -23.4224  -28.8134   23.3098 O   0  0  0  0  0  0
  -28.3620  -26.4223   20.2089 O   0  0  0  0  0  0
  -26.5650  -34.8913   22.4640 O   0  0  0  0  0  0
  -23.5478  -32.1342   23.7267 O   0  0  0  0  0  0
  -30.8892  -17.4425   18.8872 C   0  0  0  0  0  0
  -31.0612  -18.7022   18.3096 C   0  0  0  0  0  0
  -30.0648  -17.3032   20.0163 C   0  0  0  0  0  0
  -29.7051  -19.6980   19.8676 C   0  0  0  0  0  0
  -30.5621  -22.7009   19.0471 C   0  0  0  0  0  0
  -28.4398  -23.6332   20.3460 C   0  0  0  0  0  0
  -28.5228  -25.0743   19.5678 C   0  0  0  0  0  0
  -29.5329  -22.4135   20.1664 C   0  0  1  0  0  0
  -30.4675  -19.8005   18.7973 N   0  0  0  0  0  0
  -29.4632  -18.4878   20.4720 N   0  0  0  0  0  0
  -29.8487  -15.9188   20.5332 N   0  0  0  0  0  0
  -29.0936  -20.9389   20.3001 N   0  0  0  0  0  0
  -31.4776  -12.5678   19.1712 H   0  0  0  0  0  0
  -30.3712  -11.4870   19.9683 H   0  0  0  0  0  0
  -29.8126  -11.7009   17.5346 H   0  0  0  0  0  0
  -29.6480  -13.4315   17.6864 H   0  0  0  0  0  0
  -27.9046  -11.2709   18.9069 H   0  0  0  0  0  0
  -27.3915  -12.4972   17.7807 H   0  0  0  0  0  0
  -27.6285  -14.2454   19.4294 H   0  0  0  0  0  0
  -28.7201  -12.2159   21.4455 H   0  0  0  0  0  0
  -28.4175  -13.9111   21.7449 H   0  0  0  0  0  0
  -25.2785   -9.5744   22.4731 H   0  0  0  0  0  0
  -24.0021   -7.4692   22.7489 H   0  0  0  0  0  0
  -21.0824   -8.8799   19.8974 H   0  0  0  0  0  0
  -22.3679  -10.9694   19.6140 H   0  0  0  0  0  0
  -21.2044   -7.6162   23.9731 H   0  0  0  0  0  0
  -21.1453   -6.0505   25.9076 H   0  0  0  0  0  0
  -22.0610   -2.7613   23.2818 H   0  0  0  0  0  0
  -22.4077  -11.9968   22.4846 H   0  0  0  0  0  0
  -21.1082  -13.1305   22.2501 H   0  0  0  0  0  0
  -24.6451  -15.8294   20.5427 H   0  0  0  0  0  0
  -26.2613  -15.6511   20.0850 H   0  0  0  0  0  0
  -26.7221  -32.5347   23.1043 H   0  0  0  0  0  0
  -25.0070  -33.9658   25.0355 H   0  0  0  0  0  0
  -22.7239  -31.2888   21.3987 H   0  0  0  0  0  0
  -23.3744  -35.9621   23.3250 H   0  0  0  0  0  0
  -24.3584  -36.8971   22.2051 H   0  0  0  0  0  0
  -23.7248  -37.6475   23.6702 H   0  0  0  0  0  0
  -26.1115  -31.5179   20.6010 H   0  0  0  0  0  0
  -26.8491  -30.8072   22.0089 H   0  0  0  0  0  0
  -28.1184  -28.9320   21.1879 H   0  0  0  0  0  0
  -25.9694  -25.8701   19.0264 H   0  0  0  0  0  0
  -23.9754  -27.2747   19.0218 H   0  0  0  0  0  0
  -23.7742  -30.5744   19.4046 H   0  0  0  0  0  0
  -22.7603  -29.2362   19.8550 H   0  0  0  0  0  0
  -25.1292  -36.1861   25.0798 H   0  0  0  0  0  0
  -20.9948  -28.3263   24.1455 H   0  0  0  0  0  0
  -20.5782  -26.2282   23.3621 H   0  0  0  0  0  0
  -21.6656  -26.7517   22.1171 H   0  0  0  0  0  0
  -19.6936  -25.6300   21.1280 H   0  0  0  0  0  0
  -19.6710  -27.3205   20.6775 H   0  0  0  0  0  0
  -17.4224  -26.6707   21.4017 H   0  0  0  0  0  0
  -18.0316  -26.0091   22.9033 H   0  0  0  0  0  0
  -19.7917  -30.7305   24.2260 H   0  0  0  0  0  0
  -17.4993  -31.6275   24.5164 H   0  0  0  0  0  0
  -15.5348  -30.2981   23.7664 H   0  0  0  0  0  0
  -15.8684  -28.0829   22.7073 H   0  0  0  0  0  0
  -24.5867  -30.7112   25.7818 H   0  0  0  0  0  0
  -24.8894  -32.2955   26.4845 H   0  0  0  0  0  0
  -25.8010  -30.8991   27.0263 H   0  0  0  0  0  0
  -26.2895  -29.6782   24.1213 H   0  0  0  0  0  0
  -27.3928  -29.7228   25.4757 H   0  0  0  0  0  0
  -27.8806  -30.4251   23.9511 H   0  0  0  0  0  0
  -27.2586  -33.3651   26.2069 H   0  0  0  0  0  0
  -28.3851  -32.6921   25.0373 H   0  0  0  0  0  0
  -28.0668  -31.8506   26.5474 H   0  0  0  0  0  0
  -28.2542  -38.0142   24.7550 H   0  0  0  0  0  0
  -28.1128  -36.2669   24.6176 H   0  0  0  0  0  0
  -27.2314  -37.1325   25.8851 H   0  0  0  0  0  0
  -20.9452  -29.8644   21.6796 H   0  0  0  0  0  0
  -26.0132  -38.2816   24.1466 H   0  0  0  0  0  0
  -31.3891  -16.6003   18.4295 H   0  0  0  0  0  0
  -31.6692  -18.8346   17.4263 H   0  0  0  0  0  0
  -30.9972  -23.6958   19.1316 H   0  0  0  0  0  0
  -30.1412  -22.5915   18.0460 H   0  0  0  0  0  0
  -31.4352  -22.0524   19.1313 H   0  0  0  0  0  0
  -27.4457  -23.2299   20.1449 H   0  0  0  0  0  0
  -28.4179  -23.8653   21.4108 H   0  0  0  0  0  0
  -27.9177  -25.0098   18.6645 H   0  0  0  0  0  0
  -29.5237  -25.1757   19.1589 H   0  0  0  0  0  0
  -30.1454  -22.5244   21.0627 H   0  0  0  0  0  0
  -28.9220  -15.7513   20.8925 H   0  0  0  0  0  0
  -28.4498  -20.7896   21.0693 H   0  0  0  0  0  0
  1 25  1  0  0  0
  1 30  2  0  0  0
  1 81  1  0  0  0
  2  3  1  0  0  0
  2 25  1  0  0  0
  2 83  1  0  0  0
  2 84  1  0  0  0
  3  4  1  0  0  0
  3 85  1  0  0  0
  3 86  1  0  0  0
  4  5  1  0  0  0
  4 87  1  0  0  0
  4 88  1  0  0  0
  5  6  1  0  0  0
  5 26  1  0  0  0
  5 89  1  0  0  0
  6 25  1  0  0  0
  6 90  1  0  0  0
  6 91  1  0  0  0
  7  8  2  0  0  0
  7 26  1  0  0  0
  7 29  1  0  0  0
  8  9  1  0  0  0
  8 22  1  0  0  0
  9 10  1  0  0  0
  9 27  2  0  0  0
 10 11  2  0  0  0
 10 15  1  0  0  0
 11 12  1  0  0  0
 11 92  1  0  0  0
 12 13  2  0  0  0
 12 93  1  0  0  0
 13 14  1  0  0  0
 13 31  1  0  0  0
 14 15  2  0  0  0
 14 94  1  0  0  0
 15 95  1  0  0  0
 16 17  2  0  0  0
 16 21  1  0  0  0
 16 31  1  0  0  0
 17 18  1  0  0  0
 17 96  1  0  0  0
 18 19  2  0  0  0
 18 97  1  0  0  0
 19 20  1  0  0  0
 19 24  1  0  0  0
 20 21  2  0  0  0
 20 98  1  0  0  0
 21 23  1  0  0  0
 22 28  1  0  0  0
 22 32  2  0  0  0
 26 27  1  0  0  0
 28 99  1  0  0  0
 28100  1  0  0  0
 29101  1  0  0  0
 29102  1  0  0  0
 33 34  1  0  0  0
 33 66  1  0  0  0
 33 70  2  0  0  0
 34 36  1  0  0  0
 34 59  1  0  0  0
 34103  1  0  0  0
 35 44  2  0  0  0
 35 45  1  0  0  0
 35 68  1  0  0  0
 36 56  1  0  0  0
 36104  1  0  0  0
 37 39  1  0  0  0
 37 47  1  0  0  0
 37 66  1  0  0  0
 37105  1  0  0  0
 38 43  2  0  0  0
 38 46  1  0  0  0
 38 47  1  0  0  0
 39 64  1  0  0  0
 39 67  2  0  0  0
 40 52  1  0  0  0
 40 53  2  0  0  0
 40 58  1  0  0  0
 41106  1  0  0  0
 41107  1  0  0  0
 41108  1  0  0  0
 41 48  1  0  0  0
 42 43  1  0  0  0
 42 66  1  0  0  0
 42109  1  0  0  0
 42110  1  0  0  0
 43 44  1  0  0  0
 44111  1  0  0  0
 45 46  2  0  0  0
 45112  1  0  0  0
 46113  1  0  0  0
 47114  1  0  0  0
 47115  1  0  0  0
 48 56  1  0  0  0
 48 65  1  0  0  0
 48116  1  0  0  0
 49 50  1  0  0  0
 49 53  1  0  0  0
 49 64  1  0  0  0
 49117  1  0  0  0
 50 51  1  0  0  0
 50118  1  0  0  0
 50119  1  0  0  0
 51 52  1  0  0  0
 51120  1  0  0  0
 51121  1  0  0  0
 52122  1  0  0  0
 52123  1  0  0  0
 53 54  1  0  0  0
 54 55  2  0  0  0
 54124  1  0  0  0
 55 57  1  0  0  0
 55125  1  0  0  0
 56 69  2  0  0  0
 57 58  2  0  0  0
 57126  1  0  0  0
 58127  1  0  0  0
 59 60  1  0  0  0
 59 61  1  0  0  0
 59 62  1  0  0  0
 60128  1  0  0  0
 60129  1  0  0  0
 60130  1  0  0  0
 61131  1  0  0  0
 61132  1  0  0  0
 61133  1  0  0  0
 62134  1  0  0  0
 62135  1  0  0  0
 62136  1  0  0  0
 63 65  1  0  0  0
 63137  1  0  0  0
 63138  1  0  0  0
 63139  1  0  0  0
 64140  1  0  0  0
 65141  1  0  0  0
 68 77  1  0  0  0
 71 72  2  0  0  0
 71 73  1  0  0  0
 71142  1  0  0  0
 72 79  1  0  0  0
 72143  1  0  0  0
 73 80  2  0  0  0
 73 81  1  0  0  0
 74 79  2  0  0  0
 74 80  1  0  0  0
 74 82  1  0  0  0
 75144  1  0  0  0
 75145  1  0  0  0
 75146  1  0  0  0
 75 78  1  0  0  0
 76 77  1  0  0  0
 76 78  1  0  0  0
 76147  1  0  0  0
 76148  1  0  0  0
 77149  1  0  0  0
 77150  1  0  0  0
 78 82  1  0  0  0
 78151  1  0  0  0
 81152  1  0  0  0
 82153  1  0  0  0
M  ISO  4   1 100  68 101  77 101  81 100
M  END
> <chiral flag>
0

> <version>
0

> <s_m_source_file>
/data/baiqing/PycharmProjects/Reinvent-master-3.2/result/LINK_invent/BTK/process_docking_weight1_custom_product_contain_oxygen_bond_distance_aromatic_linkinvent_7_9_3/rearranged_h_0197.sdf

> <i_m_source_file_index>
6

> <r_mmod_Potential_Energy-OPLS-2005>
-209.2783203125

> <r_mmod_Stretch_Energy-OPLS-2005>
142.45832824707

> <r_mmod_Bend_Energy-OPLS-2005>
218.344635009766

> <r_mmod_Torsional_Energy-OPLS-2005>
239.895004272461

> <r_mmod_Improper_Torsional_Energy-OPLS-2005>
6.00649261474609

> <r_mmod_Van_der_Waal_Energy-OPLS-2005>
157.36930847168

> <r_mmod_Electrostatic_Energy-OPLS-2005>
-821.530212402344

> <r_mmod_Solvation_Energy-OPLS-2005>
-240.732498168945

> <b_mmod_Minimization_Converged-OPLS-2005>
0

> <r_mmod_RMS_Derivative-OPLS-2005>
4.23062992095947

$$$$
6
                    3D
 Structure written by MMmdl.
153161  0  0  1  0            999 V2000
  -29.8611  -13.2059   19.5994 C   0  0  0  0  0  0
  -31.0505  -13.6249   18.7498 C   0  0  0  0  0  0
  -30.1668  -15.3948   19.1978 C   0  0  0  0  0  0
  -28.4100  -15.1107   20.1564 C   0  0  0  0  0  0
  -27.7456  -13.5016   20.6408 C   0  0  2  0  0  0
  -28.8129  -12.1309   20.2948 C   0  0  0  0  0  0
  -25.2032  -13.8920   20.5878 C   0  0  0  0  0  0
  -24.1506  -13.0693   20.8774 C   0  0  0  0  0  0
  -24.6503  -11.7351   20.8425 C   0  0  0  0  0  0
  -23.9332  -10.4509   21.0121 C   0  0  0  0  0  0
  -24.3844   -9.4453   21.8977 C   0  0  0  0  0  0
  -23.6494   -8.2475   22.0684 C   0  0  0  0  0  0
  -22.4433   -8.0423   21.3543 C   0  0  0  0  0  0
  -22.0063   -9.0383   20.4629 C   0  0  0  0  0  0
  -22.7428  -10.2224   20.2900 C   0  0  0  0  0  0
  -21.6967   -6.0818   22.5293 C   0  0  0  0  0  0
  -21.4095   -6.5684   23.8234 C   0  0  0  0  0  0
  -21.3692   -5.6805   24.9172 C   0  0  0  0  0  0
  -21.6062   -4.3073   24.7206 C   0  0  0  0  0  0
  -21.8835   -3.8185   23.4320 C   0  0  0  0  0  0
  -21.9241   -4.7030   22.3395 C   0  0  0  0  0  0
  -22.7476  -13.5185   21.1548 C   0  0  0  0  0  0
  -22.1697   -4.2211   21.0974 F   0  0  0  0  0  0
  -21.5618   -3.4546   25.7714 F   0  0  0  0  0  0
  -30.2443  -12.2641   19.4191 N   0  0  0  0  0  0
  -26.3255  -13.0996   20.4888 N   0  0  0  0  0  0
  -25.9686  -11.7750   20.6331 N   0  0  0  0  0  0
  -22.0369  -12.8062   22.0216 N   0  0  0  0  0  0
  -25.2838  -15.2671   20.4769 N   0  0  0  0  0  0
  -30.4222  -13.6848   20.8146 O   0  0  0  0  0  0
  -21.6795   -6.8992   21.4272 O   0  0  0  0  0  0
  -22.3039  -14.5518   20.6590 O   0  0  0  0  0  0
  -24.6810  -31.8130   23.1615 C   0  0  0  0  0  0
  -25.9477  -32.4488   23.8079 C   0  0  1  0  0  0
  -27.1078  -26.8370   19.9853 C   0  0  0  0  0  0
  -25.6115  -33.8310   24.1999 N   0  0  0  0  0  0
  -23.4845  -30.4408   21.5230 C   0  0  2  0  0  0
  -24.8966  -28.8238   20.0885 C   0  0  0  0  0  0
  -22.7680  -29.4453   22.4748 C   0  0  0  0  0  0
  -18.0310  -28.1449   22.8415 C   0  0  0  0  0  0
  -24.1496  -36.7126   23.2652 C   0  0  0  0  0  0
  -26.0678  -30.5712   21.4002 C   0  0  0  0  0  0
  -26.1062  -29.1643   20.7054 C   0  0  0  0  0  0
  -27.2169  -28.1862   20.6374 C   0  0  0  0  0  0
  -25.8609  -26.6803   19.3669 C   0  0  0  0  0  0
  -24.7985  -27.6024   19.4174 C   0  0  0  0  0  0
  -23.7082  -29.7775   20.1430 C   0  0  0  0  0  0
  -25.4153  -36.2885   24.0278 C   0  0  1  0  0  0
  -20.5937  -28.3800   23.1136 C   0  0  2  0  0  0
  -20.6814  -26.9489   22.5355 C   0  0  0  0  0  0
  -19.5797  -26.6407   21.5168 C   0  0  0  0  0  0
  -18.1965  -26.7962   22.1580 C   0  0  0  0  0  0
  -19.1576  -28.8942   23.2753 C   0  0  0  0  0  0
  -18.9500  -30.1514   23.8818 C   0  0  0  0  0  0
  -17.6504  -30.6630   24.0548 C   0  0  0  0  0  0
  -25.9147  -34.9288   23.4940 C   0  0  0  0  0  0
  -16.5382  -29.9125   23.6364 C   0  0  0  0  0  0
  -16.7288  -28.6554   23.0348 C   0  0  0  0  0  0
  -26.4658  -31.6467   25.0662 C   0  0  0  0  0  0
  -25.3743  -31.3723   26.1278 C   0  0  0  0  0  0
  -27.0623  -30.2831   24.6512 C   0  0  0  0  0  0
  -27.6081  -32.4315   25.7523 C   0  0  0  0  0  0
  -27.5547  -37.1727   24.8489 C   0  0  0  0  0  0
  -21.4350  -29.3080   22.3491 N   0  0  0  0  0  0
  -26.4269  -37.3650   23.9409 N   0  0  0  0  0  0
  -24.7703  -30.9703   22.0794 N   0  0  0  0  0  0
  -23.4195  -28.8001   23.2995 O   0  0  0  0  0  0
  -27.9977  -25.6240   19.8749 O   0  0  0  0  0  0
  -26.5722  -34.8865   22.4518 O   0  0  0  0  0  0
  -23.5878  -32.1168   23.6673 O   0  0  0  0  0  0
  -25.6538  -18.1066   17.5686 C   0  0  0  0  0  0
  -26.2995  -16.8581   17.5455 C   0  0  0  0  0  0
  -27.6824  -16.7476   17.8466 C   0  0  0  0  0  0
  -27.4595  -19.3745   18.3073 C   0  0  0  0  0  0
  -25.4286  -15.6686   17.1375 C   0  0  0  0  0  0
  -28.3207  -15.0732   17.4931 C   0  0  0  0  0  0
  -28.2537  -22.3466   19.1922 C   0  0  0  0  0  0
  -27.5537  -24.0657   19.3567 C   0  0  0  0  0  0
  -26.2042  -19.2794   17.9271 N   0  0  0  0  0  0
  -28.2259  -18.1097   18.2412 N   0  0  0  0  0  0
  -27.5582  -20.9226   18.6608 N   0  0  0  0  0  0
  -28.8198  -13.5983   18.3097 N   0  0  0  0  0  0
  -32.1141  -13.6634   19.0592 H   0  0  0  0  0  0
  -31.1942  -13.5256   17.6576 H   0  0  0  0  0  0
  -30.2299  -16.1440   18.4103 H   0  0  0  0  0  0
  -30.8165  -15.9033   19.9178 H   0  0  0  0  0  0
  -27.6295  -15.8278   19.9754 H   0  0  0  0  0  0
  -28.6725  -15.5125   21.1362 H   0  0  0  0  0  0
  -27.8212  -13.5765   21.7284 H   0  0  0  0  0  0
  -28.2370  -11.3851   19.7300 H   0  0  0  0  0  0
  -28.9980  -11.5818   21.2278 H   0  0  0  0  0  0
  -25.3011   -9.5952   22.4478 H   0  0  0  0  0  0
  -24.0267   -7.4924   22.7426 H   0  0  0  0  0  0
  -21.0978   -8.8903   19.8987 H   0  0  0  0  0  0
  -22.3785  -10.9690   19.5988 H   0  0  0  0  0  0
  -21.2109   -7.6196   23.9770 H   0  0  0  0  0  0
  -21.1489   -6.0508   25.9083 H   0  0  0  0  0  0
  -22.0580   -2.7643   23.2777 H   0  0  0  0  0  0
  -22.4141  -11.9654   22.4325 H   0  0  0  0  0  0
  -21.1013  -13.0957   22.2676 H   0  0  0  0  0  0
  -24.4334  -15.8170   20.4581 H   0  0  0  0  0  0
  -26.1067  -15.7927   20.2205 H   0  0  0  0  0  0
  -26.7537  -32.4939   23.0759 H   0  0  0  0  0  0
  -25.0300  -33.9344   25.0181 H   0  0  0  0  0  0
  -22.8057  -31.2806   21.3629 H   0  0  0  0  0  0
  -23.3775  -35.9440   23.3300 H   0  0  0  0  0  0
  -24.3545  -36.8806   22.2068 H   0  0  0  0  0  0
  -23.7246  -37.6296   23.6749 H   0  0  0  0  0  0
  -26.2850  -31.3254   20.6418 H   0  0  0  0  0  0
  -26.9159  -30.5942   22.0716 H   0  0  0  0  0  0
  -28.1460  -28.4354   21.1300 H   0  0  0  0  0  0
  -25.6535  -25.7707   18.8277 H   0  0  0  0  0  0
  -23.8716  -27.3383   18.9260 H   0  0  0  0  0  0
  -23.8778  -30.5538   19.3973 H   0  0  0  0  0  0
  -22.8024  -29.2629   19.8174 H   0  0  0  0  0  0
  -25.1367  -36.1621   25.0765 H   0  0  0  0  0  0
  -20.9990  -28.3418   24.1273 H   0  0  0  0  0  0
  -20.5731  -26.2410   23.3585 H   0  0  0  0  0  0
  -21.6675  -26.7510   22.1142 H   0  0  0  0  0  0
  -19.6973  -25.6303   21.1243 H   0  0  0  0  0  0
  -19.6736  -27.3170   20.6659 H   0  0  0  0  0  0
  -17.4216  -26.6618   21.4010 H   0  0  0  0  0  0
  -18.0432  -26.0155   22.9048 H   0  0  0  0  0  0
  -19.7985  -30.7328   24.2159 H   0  0  0  0  0  0
  -17.5078  -31.6305   24.5174 H   0  0  0  0  0  0
  -15.5390  -30.3019   23.7782 H   0  0  0  0  0  0
  -15.8656  -28.0878   22.7118 H   0  0  0  0  0  0
  -24.5872  -30.7186   25.7513 H   0  0  0  0  0  0
  -24.9021  -32.2942   26.4681 H   0  0  0  0  0  0
  -25.7912  -30.8813   27.0079 H   0  0  0  0  0  0
  -26.3355  -29.6397   24.1550 H   0  0  0  0  0  0
  -27.4155  -29.7307   25.5233 H   0  0  0  0  0  0
  -27.9276  -30.3992   23.9974 H   0  0  0  0  0  0
  -27.2568  -33.3590   26.2060 H   0  0  0  0  0  0
  -28.3942  -32.6930   25.0425 H   0  0  0  0  0  0
  -28.0732  -31.8500   26.5494 H   0  0  0  0  0  0
  -28.2575  -38.0010   24.7511 H   0  0  0  0  0  0
  -28.1032  -36.2539   24.6370 H   0  0  0  0  0  0
  -27.2251  -37.1425   25.8888 H   0  0  0  0  0  0
  -20.9632  -29.8741   21.6578 H   0  0  0  0  0  0
  -26.0084  -38.2694   24.1420 H   0  0  0  0  0  0
  -24.6184  -18.1785   17.2648 H   0  0  0  0  0  0
  -24.3663  -15.8988   17.2267 H   0  0  0  0  0  0
  -25.5993  -14.8005   17.7753 H   0  0  0  0  0  0
  -25.6077  -15.3839   16.0999 H   0  0  0  0  0  0
  -29.1425  -15.2750   16.8053 H   0  0  0  0  0  0
  -27.6246  -14.6490   16.7772 H   0  0  0  0  0  0
  -28.6479  -22.1019   20.1774 H   0  0  0  0  0  0
  -29.1376  -22.4567   18.5631 H   0  0  0  0  0  0
  -26.6376  -23.9013   19.9232 H   0  0  0  0  0  0
  -27.2107  -24.2693   18.3420 H   0  0  0  0  0  0
  -26.6180  -21.2455   18.4539 H   0  0  0  0  0  0
  -28.6458  -12.7871   17.7366 H   0  0  0  0  0  0
  1 25  1  0  0  0
  1 30  2  0  0  0
  1 82  1  0  0  0
  2  3  1  0  0  0
  2 25  1  0  0  0
  2 83  1  0  0  0
  2 84  1  0  0  0
  3  4  1  0  0  0
  3 85  1  0  0  0
  3 86  1  0  0  0
  4  5  1  0  0  0
  4 87  1  0  0  0
  4 88  1  0  0  0
  5  6  1  0  0  0
  5 26  1  0  0  0
  5 89  1  0  0  0
  6 25  1  0  0  0
  6 90  1  0  0  0
  6 91  1  0  0  0
  7  8  2  0  0  0
  7 26  1  0  0  0
  7 29  1  0  0  0
  8  9  1  0  0  0
  8 22  1  0  0  0
  9 10  1  0  0  0
  9 27  2  0  0  0
 10 11  2  0  0  0
 10 15  1  0  0  0
 11 12  1  0  0  0
 11 92  1  0  0  0
 12 13  2  0  0  0
 12 93  1  0  0  0
 13 14  1  0  0  0
 13 31  1  0  0  0
 14 15  2  0  0  0
 14 94  1  0  0  0
 15 95  1  0  0  0
 16 17  2  0  0  0
 16 21  1  0  0  0
 16 31  1  0  0  0
 17 18  1  0  0  0
 17 96  1  0  0  0
 18 19  2  0  0  0
 18 97  1  0  0  0
 19 20  1  0  0  0
 19 24  1  0  0  0
 20 21  2  0  0  0
 20 98  1  0  0  0
 21 23  1  0  0  0
 22 28  1  0  0  0
 22 32  2  0  0  0
 26 27  1  0  0  0
 28 99  1  0  0  0
 28100  1  0  0  0
 29101  1  0  0  0
 29102  1  0  0  0
 33 34  1  0  0  0
 33 66  1  0  0  0
 33 70  2  0  0  0
 34 36  1  0  0  0
 34 59  1  0  0  0
 34103  1  0  0  0
 35 44  2  0  0  0
 35 45  1  0  0  0
 35 68  1  0  0  0
 36 56  1  0  0  0
 36104  1  0  0  0
 37 39  1  0  0  0
 37 47  1  0  0  0
 37 66  1  0  0  0
 37105  1  0  0  0
 38 43  2  0  0  0
 38 46  1  0  0  0
 38 47  1  0  0  0
 39 64  1  0  0  0
 39 67  2  0  0  0
 40 52  1  0  0  0
 40 53  2  0  0  0
 40 58  1  0  0  0
 41106  1  0  0  0
 41107  1  0  0  0
 41108  1  0  0  0
 41 48  1  0  0  0
 42 43  1  0  0  0
 42 66  1  0  0  0
 42109  1  0  0  0
 42110  1  0  0  0
 43 44  1  0  0  0
 44111  1  0  0  0
 45 46  2  0  0  0
 45112  1  0  0  0
 46113  1  0  0  0
 47114  1  0  0  0
 47115  1  0  0  0
 48 56  1  0  0  0
 48 65  1  0  0  0
 48116  1  0  0  0
 49 50  1  0  0  0
 49 53  1  0  0  0
 49 64  1  0  0  0
 49117  1  0  0  0
 50 51  1  0  0  0
 50118  1  0  0  0
 50119  1  0  0  0
 51 52  1  0  0  0
 51120  1  0  0  0
 51121  1  0  0  0
 52122  1  0  0  0
 52123  1  0  0  0
 53 54  1  0  0  0
 54 55  2  0  0  0
 54124  1  0  0  0
 55 57  1  0  0  0
 55125  1  0  0  0
 56 69  2  0  0  0
 57 58  2  0  0  0
 57126  1  0  0  0
 58127  1  0  0  0
 59 60  1  0  0  0
 59 61  1  0  0  0
 59 62  1  0  0  0
 60128  1  0  0  0
 60129  1  0  0  0
 60130  1  0  0  0
 61131  1  0  0  0
 61132  1  0  0  0
 61133  1  0  0  0
 62134  1  0  0  0
 62135  1  0  0  0
 62136  1  0  0  0
 63 65  1  0  0  0
 63137  1  0  0  0
 63138  1  0  0  0
 63139  1  0  0  0
 64140  1  0  0  0
 65141  1  0  0  0
 68 78  1  0  0  0
 71 72  2  0  0  0
 71 79  1  0  0  0
 71142  1  0  0  0
 72 73  1  0  0  0
 72 75  1  0  0  0
 73 76  1  0  0  0
 73 80  2  0  0  0
 74 79  2  0  0  0
 74 80  1  0  0  0
 74 81  1  0  0  0
 75143  1  0  0  0
 75144  1  0  0  0
 75145  1  0  0  0
 76 82  1  0  0  0
 76146  1  0  0  0
 76147  1  0  0  0
 77 78  1  0  0  0
 77 81  1  0  0  0
 77148  1  0  0  0
 77149  1  0  0  0
 78150  1  0  0  0
 78151  1  0  0  0
 81152  1  0  0  0
 82153  1  0  0  0
M  ISO  4   1 100  68 101  78 101  82 100
M  END
> <chiral flag>
0

> <version>
0

> <s_m_source_file>
/data/baiqing/PycharmProjects/Reinvent-master-3.2/result/LINK_invent/BTK/process_docking_weight1_custom_product_contain_oxygen_bond_distance_aromatic_linkinvent_7_9_3/rearranged_h_0197.sdf

> <i_m_source_file_index>
7

> <r_mmod_Potential_Energy-OPLS-2005>
7525.4873046875

> <r_mmod_Stretch_Energy-OPLS-2005>
2337.46533203125

> <r_mmod_Bend_Energy-OPLS-2005>
1298.51391601562

> <r_mmod_Torsional_Energy-OPLS-2005>
291.276062011719

> <r_mmod_Improper_Torsional_Energy-OPLS-2005>
6.23844528198242

> <r_mmod_Van_der_Waal_Energy-OPLS-2005>
1276.59631347656

> <r_mmod_Electrostatic_Energy-OPLS-2005>
-994.041687011719

> <r_mmod_Solvation_Energy-OPLS-2005>
-271.571929931641

> <b_mmod_Minimization_Converged-OPLS-2005>
0

> <r_mmod_RMS_Derivative-OPLS-2005>
4.44179058074951

$$$$
7
                    3D
 Structure written by MMmdl.
162170  0  0  1  0            999 V2000
  -29.3809  -13.1147   21.4685 C   0  0  0  0  0  0
  -30.8145  -12.6635   19.3090 C   0  0  0  0  0  0
  -30.1202  -12.9960   17.8762 C   0  0  0  0  0  0
  -28.5786  -13.3468   17.8816 C   0  0  0  0  0  0
  -28.2373  -13.6158   19.3586 C   0  0  2  0  0  0
  -28.7867  -12.1120   19.7486 C   0  0  0  0  0  0
  -25.9263  -14.4127   21.6265 C   0  0  0  0  0  0
  -24.5152  -13.3698   21.7870 C   0  0  0  0  0  0
  -24.3264  -12.3021   20.4433 C   0  0  0  0  0  0
  -23.7230  -10.8135   20.7998 C   0  0  0  0  0  0
  -24.2374   -9.8331   21.7534 C   0  0  0  0  0  0
  -23.6372   -8.5440   21.9956 C   0  0  0  0  0  0
  -22.4540   -8.1678   21.3148 C   0  0  0  0  0  0
  -21.9561   -9.0972   20.3818 C   0  0  0  0  0  0
  -22.5666  -10.3565   20.1362 C   0  0  0  0  0  0
  -21.7597   -6.1326   22.5220 C   0  0  0  0  0  0
  -21.4549   -6.6062   23.8189 C   0  0  0  0  0  0
  -21.3812   -5.7080   24.9074 C   0  0  0  0  0  0
  -21.6032   -4.3320   24.7100 C   0  0  0  0  0  0
  -21.8775   -3.8491   23.4198 C   0  0  0  0  0  0
  -21.9441   -4.7416   22.3326 C   0  0  0  0  0  0
  -23.0157  -13.7751   21.8366 C   0  0  0  0  0  0
  -22.1764   -4.2497   21.0914 F   0  0  0  0  0  0
  -21.5507   -3.4750   25.7586 F   0  0  0  0  0  0
  -29.8817  -12.4135   20.4386 N   0  0  0  0  0  0
  -27.0222  -14.2549   20.0654 N   0  0  0  0  0  0
  -26.4449  -13.1397   19.0553 N   0  0  0  0  0  0
  -22.1814  -12.9008   22.3891 N   0  0  0  0  0  0
  -25.7735  -15.7686   21.6940 N   0  0  0  0  0  0
  -30.1721  -14.1280   21.5931 O   0  0  0  0  0  0
  -21.7735   -6.9563   21.4116 O   0  0  0  0  0  0
  -22.5125  -14.6816   21.1527 O   0  0  0  0  0  0
  -24.7045  -31.7831   23.1530 C   0  0  0  0  0  0
  -25.9600  -32.4315   23.8040 C   0  0  1  0  0  0
  -26.7478  -26.4509   20.0230 C   0  0  0  0  0  0
  -25.6137  -33.8167   24.1896 N   0  0  0  0  0  0
  -23.4993  -30.4328   21.5242 C   0  0  2  0  0  0
  -24.8473  -28.7798   20.0538 C   0  0  0  0  0  0
  -22.7728  -29.4331   22.4659 C   0  0  0  0  0  0
  -18.0344  -28.1404   22.8464 C   0  0  0  0  0  0
  -24.1503  -36.7069   23.2656 C   0  0  0  0  0  0
  -26.0892  -30.3996   21.4407 C   0  0  0  0  0  0
  -26.0547  -28.9697   20.7296 C   0  0  0  0  0  0
  -27.0239  -27.8120   20.6992 C   0  0  0  0  0  0
  -25.6004  -26.5667   19.2608 C   0  0  0  0  0  0
  -24.6756  -27.6204   19.2986 C   0  0  0  0  0  0
  -23.7190  -29.8059   20.1284 C   0  0  0  0  0  0
  -25.4163  -36.2794   24.0271 C   0  0  1  0  0  0
  -20.5969  -28.3773   23.1115 C   0  0  2  0  0  0
  -20.6791  -26.9432   22.5369 C   0  0  0  0  0  0
  -19.5756  -26.6367   21.5192 C   0  0  0  0  0  0
  -18.1960  -26.7932   22.1626 C   0  0  0  0  0  0
  -19.1608  -28.8915   23.2779 C   0  0  0  0  0  0
  -18.9518  -30.1496   23.8836 C   0  0  0  0  0  0
  -17.6501  -30.6585   24.0562 C   0  0  0  0  0  0
  -25.9185  -34.9197   23.4908 C   0  0  0  0  0  0
  -16.5394  -29.9074   23.6338 C   0  0  0  0  0  0
  -16.7327  -28.6489   23.0380 C   0  0  0  0  0  0
  -26.4678  -31.6442   25.0755 C   0  0  0  0  0  0
  -25.3718  -31.3823   26.1365 C   0  0  0  0  0  0
  -27.0612  -30.2746   24.6817 C   0  0  0  0  0  0
  -27.6076  -32.4355   25.7590 C   0  0  0  0  0  0
  -27.5550  -37.1709   24.8472 C   0  0  0  0  0  0
  -21.4375  -29.3036   22.3434 N   0  0  0  0  0  0
  -26.4250  -37.3596   23.9414 N   0  0  0  0  0  0
  -24.7983  -30.9116   22.0864 N   0  0  0  0  0  0
  -23.4196  -28.7843   23.2931 O   0  0  0  0  0  0
  -27.2620  -24.9653   19.9591 O   0  0  0  0  0  0
  -26.5800  -34.8808   22.4507 O   0  0  0  0  0  0
  -23.6081  -32.1060   23.6463 O   0  0  0  0  0  0
  -25.2249  -11.2742   18.4559 C   0  0  0  0  0  0
  -24.4539  -12.7486   17.8397 C   0  0  0  0  0  0
  -24.4649  -14.3691   18.4281 C   0  0  0  0  0  0
  -26.4110  -12.2533   20.9583 C   0  0  0  0  0  0
  -23.1975  -16.6899   17.8038 C   0  0  0  0  0  0
  -24.0080  -20.0995   18.7848 C   0  0  0  0  0  0
  -26.4088  -21.3060   19.4376 C   0  0  0  0  0  0
  -26.4506  -23.3685   19.4327 C   0  0  0  0  0  0
  -24.6454  -16.2793   18.0873 C   0  0  1  0  0  0
  -25.4657  -19.6335   18.6926 C   0  0  1  0  0  0
  -26.1850  -11.0006   19.8425 N   0  0  0  0  0  0
  -24.8041  -14.2605   19.7334 N   0  0  0  0  0  0
  -23.8577  -12.5896   16.5814 N   0  0  0  0  0  0
  -27.8820  -12.6532   21.8516 N   0  0  0  0  0  0
  -25.4287  -17.7832   18.8398 N   0  3  0  0  0  0
  -31.4845  -13.4832   19.5715 H   0  0  0  0  0  0
  -31.4703  -11.7989   19.1968 H   0  0  0  0  0  0
  -30.2887  -12.1638   17.1897 H   0  0  0  0  0  0
  -30.6683  -13.8265   17.4278 H   0  0  0  0  0  0
  -28.0243  -12.5480   17.3794 H   0  0  0  0  0  0
  -28.3987  -14.2441   17.2893 H   0  0  0  0  0  0
  -28.9420  -14.4522   19.4555 H   0  0  0  0  0  0
  -28.9203  -11.3846   18.9365 H   0  0  0  0  0  0
  -28.3881  -11.2248   20.2361 H   0  0  0  0  0  0
  -25.1285  -10.0820   22.3107 H   0  0  0  0  0  0
  -24.0917   -7.8620   22.6997 H   0  0  0  0  0  0
  -21.0648   -8.8415   19.8263 H   0  0  0  0  0  0
  -22.1103  -11.0158   19.4100 H   0  0  0  0  0  0
  -21.2714   -7.6581   23.9842 H   0  0  0  0  0  0
  -21.1562   -6.0748   25.8991 H   0  0  0  0  0  0
  -22.0302   -2.7918   23.2630 H   0  0  0  0  0  0
  -22.5247  -12.1028   22.9034 H   0  0  0  0  0  0
  -21.1879  -13.0795   22.3647 H   0  0  0  0  0  0
  -24.8304  -15.8680   21.3313 H   0  0  0  0  0  0
  -26.4306  -16.1691   21.0400 H   0  0  0  0  0  0
  -26.7636  -32.4603   23.0675 H   0  0  0  0  0  0
  -25.0271  -33.9179   25.0055 H   0  0  0  0  0  0
  -22.8376  -31.2902   21.3838 H   0  0  0  0  0  0
  -23.3792  -35.9367   23.3247 H   0  0  0  0  0  0
  -24.3574  -36.8818   22.2085 H   0  0  0  0  0  0
  -23.7251  -37.6213   23.6804 H   0  0  0  0  0  0
  -26.3586  -31.1235   20.6722 H   0  0  0  0  0  0
  -26.9293  -30.3953   22.1224 H   0  0  0  0  0  0
  -27.9246  -27.9007   21.2899 H   0  0  0  0  0  0
  -25.3091  -25.7105   18.6701 H   0  0  0  0  0  0
  -23.7652  -27.5006   18.7300 H   0  0  0  0  0  0
  -23.9541  -30.6001   19.4203 H   0  0  0  0  0  0
  -22.7878  -29.3636   19.7715 H   0  0  0  0  0  0
  -25.1380  -36.1515   25.0762 H   0  0  0  0  0  0
  -21.0080  -28.3389   24.1231 H   0  0  0  0  0  0
  -20.5644  -26.2398   23.3642 H   0  0  0  0  0  0
  -21.6658  -26.7366   22.1196 H   0  0  0  0  0  0
  -19.6902  -25.6262   21.1265 H   0  0  0  0  0  0
  -19.6673  -27.3141   20.6694 H   0  0  0  0  0  0
  -17.4212  -26.6696   21.4043 H   0  0  0  0  0  0
  -18.0361  -26.0089   22.9039 H   0  0  0  0  0  0
  -19.8006  -30.7327   24.2174 H   0  0  0  0  0  0
  -17.5069  -31.6264   24.5168 H   0  0  0  0  0  0
  -15.5396  -30.2969   23.7681 H   0  0  0  0  0  0
  -15.8740  -28.0784   22.7128 H   0  0  0  0  0  0
  -24.5924  -30.7127   25.7711 H   0  0  0  0  0  0
  -24.8902  -32.3061   26.4577 H   0  0  0  0  0  0
  -25.7896  -30.9149   27.0297 H   0  0  0  0  0  0
  -26.3291  -29.6246   24.2006 H   0  0  0  0  0  0
  -27.4119  -29.7334   25.5624 H   0  0  0  0  0  0
  -27.9271  -30.3789   24.0277 H   0  0  0  0  0  0
  -27.2556  -33.3721   26.1926 H   0  0  0  0  0  0
  -28.4009  -32.6811   25.0519 H   0  0  0  0  0  0
  -28.0607  -31.8671   26.5727 H   0  0  0  0  0  0
  -28.2507  -38.0054   24.7513 H   0  0  0  0  0  0
  -28.1099  -36.2572   24.6304 H   0  0  0  0  0  0
  -27.2258  -37.1339   25.8869 H   0  0  0  0  0  0
  -20.9644  -29.8806   21.6626 H   0  0  0  0  0  0
  -26.0036  -38.2611   24.1470 H   0  0  0  0  0  0
  -25.1212  -10.3840   17.8536 H   0  0  0  0  0  0
  -22.6945  -15.9298   17.2055 H   0  0  0  0  0  0
  -23.1391  -17.6203   17.2435 H   0  0  0  0  0  0
  -22.6445  -16.7981   18.7364 H   0  0  0  0  0  0
  -23.9265  -21.1577   18.5344 H   0  0  0  0  0  0
  -23.6181  -19.9665   19.7939 H   0  0  0  0  0  0
  -23.3580  -19.5764   18.0886 H   0  0  0  0  0  0
  -26.3263  -21.1189   20.5068 H   0  0  0  0  0  0
  -27.4532  -21.0715   19.2324 H   0  0  0  0  0  0
  -25.4412  -23.5672   19.7904 H   0  0  0  0  0  0
  -26.3904  -23.5658   18.3622 H   0  0  0  0  0  0
  -25.1383  -16.2539   17.1153 H   0  0  0  0  0  0
  -25.7294  -19.7056   17.6353 H   0  0  0  0  0  0
  -23.2692  -13.3321   16.2113 H   0  0  0  0  0  0
  -23.5892  -11.6622   16.2630 H   0  0  0  0  0  0
  -27.6465  -13.0937   22.7271 H   0  0  0  0  0  0
  -26.4027  -17.5385   18.7619 H   0  0  0  0  0  0
  -25.2016  -17.6462   19.8089 H   0  0  0  0  0  0
  1 25  1  0  0  0
  1 30  2  0  0  0
  1 84  1  0  0  0
  2  3  1  0  0  0
  2 25  1  0  0  0
  2 86  1  0  0  0
  2 87  1  0  0  0
  3  4  1  0  0  0
  3 88  1  0  0  0
  3 89  1  0  0  0
  4  5  1  0  0  0
  4 90  1  0  0  0
  4 91  1  0  0  0
  5  6  1  0  0  0
  5 26  1  0  0  0
  5 92  1  0  0  0
  6 25  1  0  0  0
  6 93  1  0  0  0
  6 94  1  0  0  0
  7  8  2  0  0  0
  7 26  1  0  0  0
  7 29  1  0  0  0
  8  9  1  0  0  0
  8 22  1  0  0  0
  9 10  1  0  0  0
  9 27  2  0  0  0
 10 11  2  0  0  0
 10 15  1  0  0  0
 11 12  1  0  0  0
 11 95  1  0  0  0
 12 13  2  0  0  0
 12 96  1  0  0  0
 13 14  1  0  0  0
 13 31  1  0  0  0
 14 15  2  0  0  0
 14 97  1  0  0  0
 15 98  1  0  0  0
 16 17  2  0  0  0
 16 21  1  0  0  0
 16 31  1  0  0  0
 17 18  1  0  0  0
 17 99  1  0  0  0
 18 19  2  0  0  0
 18100  1  0  0  0
 19 20  1  0  0  0
 19 24  1  0  0  0
 20 21  2  0  0  0
 20101  1  0  0  0
 21 23  1  0  0  0
 22 28  1  0  0  0
 22 32  2  0  0  0
 26 27  1  0  0  0
 28102  1  0  0  0
 28103  1  0  0  0
 29104  1  0  0  0
 29105  1  0  0  0
 33 34  1  0  0  0
 33 66  1  0  0  0
 33 70  2  0  0  0
 34 36  1  0  0  0
 34 59  1  0  0  0
 34106  1  0  0  0
 35 44  2  0  0  0
 35 45  1  0  0  0
 35 68  1  0  0  0
 36 56  1  0  0  0
 36107  1  0  0  0
 37 39  1  0  0  0
 37 47  1  0  0  0
 37 66  1  0  0  0
 37108  1  0  0  0
 38 43  2  0  0  0
 38 46  1  0  0  0
 38 47  1  0  0  0
 39 64  1  0  0  0
 39 67  2  0  0  0
 40 52  1  0  0  0
 40 53  2  0  0  0
 40 58  1  0  0  0
 41109  1  0  0  0
 41110  1  0  0  0
 41111  1  0  0  0
 41 48  1  0  0  0
 42 43  1  0  0  0
 42 66  1  0  0  0
 42112  1  0  0  0
 42113  1  0  0  0
 43 44  1  0  0  0
 44114  1  0  0  0
 45 46  2  0  0  0
 45115  1  0  0  0
 46116  1  0  0  0
 47117  1  0  0  0
 47118  1  0  0  0
 48 56  1  0  0  0
 48 65  1  0  0  0
 48119  1  0  0  0
 49 50  1  0  0  0
 49 53  1  0  0  0
 49 64  1  0  0  0
 49120  1  0  0  0
 50 51  1  0  0  0
 50121  1  0  0  0
 50122  1  0  0  0
 51 52  1  0  0  0
 51123  1  0  0  0
 51124  1  0  0  0
 52125  1  0  0  0
 52126  1  0  0  0
 53 54  1  0  0  0
 54 55  2  0  0  0
 54127  1  0  0  0
 55 57  1  0  0  0
 55128  1  0  0  0
 56 69  2  0  0  0
 57 58  2  0  0  0
 57129  1  0  0  0
 58130  1  0  0  0
 59 60  1  0  0  0
 59 61  1  0  0  0
 59 62  1  0  0  0
 60131  1  0  0  0
 60132  1  0  0  0
 60133  1  0  0  0
 61134  1  0  0  0
 61135  1  0  0  0
 61136  1  0  0  0
 62137  1  0  0  0
 62138  1  0  0  0
 62139  1  0  0  0
 63 65  1  0  0  0
 63140  1  0  0  0
 63141  1  0  0  0
 63142  1  0  0  0
 64143  1  0  0  0
 65144  1  0  0  0
 68 78  1  0  0  0
 71 72  2  0  0  0
 71 81  1  0  0  0
 71145  1  0  0  0
 72 73  1  0  0  0
 72 83  1  0  0  0
 73 79  1  0  0  0
 73 82  2  0  0  0
 74 81  2  0  0  0
 74 82  1  0  0  0
 74 84  1  0  0  0
 75146  1  0  0  0
 75147  1  0  0  0
 75148  1  0  0  0
 75 79  1  0  0  0
 76149  1  0  0  0
 76150  1  0  0  0
 76151  1  0  0  0
 76 80  1  0  0  0
 77 78  1  0  0  0
 77 80  1  0  0  0
 77152  1  0  0  0
 77153  1  0  0  0
 78154  1  0  0  0
 78155  1  0  0  0
 79 85  1  0  0  0
 79156  1  0  0  0
 80 85  1  0  0  0
 80157  1  0  0  0
 83158  1  0  0  0
 83159  1  0  0  0
 84160  1  0  0  0
 85161  1  0  0  0
 85162  1  0  0  0
M  CHG  1  85   1
M  ISO  4   1 100  68 101  78 101  84 100
M  END
> <chiral flag>
0

> <version>
0

> <s_m_source_file>
/data/baiqing/PycharmProjects/Reinvent-master-3.2/result/LINK_invent/BTK/process_docking_weight1_custom_product_contain_oxygen_bond_distance_aromatic_linkinvent_7_9_3/rearranged_h_0197.sdf

> <i_m_source_file_index>
8

> <r_mmod_Potential_Energy-OPLS-2005>
22556.166015625

> <r_mmod_Stretch_Energy-OPLS-2005>
12588.5185546875

> <r_mmod_Bend_Energy-OPLS-2005>
1806.00915527344

> <r_mmod_Torsional_Energy-OPLS-2005>
612.818542480469

> <r_mmod_Improper_Torsional_Energy-OPLS-2005>
123.752517700195

> <r_mmod_Van_der_Waal_Energy-OPLS-2005>
4710.72509765625

> <r_mmod_Electrostatic_Energy-OPLS-2005>
-638.223083496094

> <r_mmod_Solvation_Energy-OPLS-2005>
-498.922698974609

> <b_mmod_Minimization_Converged-OPLS-2005>
0

> <r_mmod_RMS_Derivative-OPLS-2005>
7.00666284561157

$$$$
8
                    3D
 Structure written by MMmdl.
156164  0  0  1  0            999 V2000
  -30.6269  -14.6589   20.4917 C   0  0  0  0  0  0
  -30.4386  -12.4030   19.4560 C   0  0  0  0  0  0
  -29.5086  -12.5075   18.2267 C   0  0  0  0  0  0
  -28.0319  -12.3433   18.6389 C   0  0  0  0  0  0
  -27.6514  -13.2195   19.8618 C   0  0  2  0  0  0
  -28.6983  -13.0898   20.9921 C   0  0  0  0  0  0
  -25.2534  -13.8157   20.5669 C   0  0  0  0  0  0
  -24.1808  -13.0420   20.9174 C   0  0  0  0  0  0
  -24.6392  -11.6900   20.8734 C   0  0  0  0  0  0
  -23.9062  -10.4285   21.0400 C   0  0  0  0  0  0
  -24.3611   -9.4203   21.9179 C   0  0  0  0  0  0
  -23.6285   -8.2241   22.0753 C   0  0  0  0  0  0
  -22.4266   -8.0279   21.3545 C   0  0  0  0  0  0
  -21.9901   -9.0252   20.4647 C   0  0  0  0  0  0
  -22.7233  -10.2127   20.3051 C   0  0  0  0  0  0
  -21.6854   -6.0729   22.5277 C   0  0  0  0  0  0
  -21.4017   -6.5634   23.8211 C   0  0  0  0  0  0
  -21.3660   -5.6786   24.9172 C   0  0  0  0  0  0
  -21.6042   -4.3048   24.7225 C   0  0  0  0  0  0
  -21.8819   -3.8142   23.4346 C   0  0  0  0  0  0
  -21.9193   -4.6959   22.3402 C   0  0  0  0  0  0
  -22.7832  -13.5220   21.1841 C   0  0  0  0  0  0
  -22.1660   -4.2146   21.0979 F   0  0  0  0  0  0
  -21.5628   -3.4533   25.7737 F   0  0  0  0  0  0
  -30.0119  -13.4335   20.4246 N   0  0  0  0  0  0
  -26.2982  -12.9358   20.3322 N   0  0  0  0  0  0
  -25.9328  -11.6510   20.5765 N   0  0  0  0  0  0
  -22.0472  -12.8226   22.0403 N   0  0  0  0  0  0
  -25.4179  -15.1876   20.4099 N   0  0  0  0  0  0
  -31.7995  -14.7960   20.1289 O   0  0  0  0  0  0
  -21.6637   -6.8872   21.4240 O   0  0  0  0  0  0
  -22.3520  -14.5531   20.6693 O   0  0  0  0  0  0
  -24.6271  -31.8604   23.2036 C   0  0  0  0  0  0
  -25.9120  -32.4781   23.8363 C   0  0  1  0  0  0
  -27.2217  -27.3154   20.1138 C   0  0  0  0  0  0
  -25.5935  -33.8582   24.2291 N   0  0  0  0  0  0
  -23.4199  -30.4860   21.5471 C   0  0  2  0  0  0
  -24.8654  -28.9428   20.1135 C   0  0  0  0  0  0
  -22.7477  -29.4632   22.4939 C   0  0  0  0  0  0
  -18.0288  -28.1385   22.8485 C   0  0  0  0  0  0
  -24.1487  -36.7296   23.2635 C   0  0  0  0  0  0
  -25.9626  -30.7908   21.3747 C   0  0  0  0  0  0
  -26.0367  -29.4178   20.7172 C   0  0  0  0  0  0
  -27.2189  -28.6171   20.7064 C   0  0  0  0  0  0
  -26.0270  -26.9015   19.4792 C   0  0  0  0  0  0
  -24.8630  -27.6898   19.4859 C   0  0  0  0  0  0
  -23.6346  -29.8239   20.1619 C   0  0  0  0  0  0
  -25.4110  -36.3084   24.0329 C   0  0  1  0  0  0
  -20.5889  -28.3693   23.1282 C   0  0  2  0  0  0
  -20.6779  -26.9415   22.5408 C   0  0  0  0  0  0
  -19.5752  -26.6385   21.5212 C   0  0  0  0  0  0
  -18.1931  -26.7928   22.1622 C   0  0  0  0  0  0
  -19.1540  -28.8855   23.2879 C   0  0  0  0  0  0
  -18.9464  -30.1458   23.8893 C   0  0  0  0  0  0
  -17.6461  -30.6586   24.0562 C   0  0  0  0  0  0
  -25.9049  -34.9452   23.5108 C   0  0  0  0  0  0
  -16.5354  -29.9084   23.6325 C   0  0  0  0  0  0
  -16.7274  -28.6502   23.0347 C   0  0  0  0  0  0
  -26.4500  -31.6585   25.0731 C   0  0  0  0  0  0
  -25.3738  -31.3731   26.1464 C   0  0  0  0  0  0
  -27.0335  -30.3004   24.6182 C   0  0  0  0  0  0
  -27.6059  -32.4317   25.7506 C   0  0  0  0  0  0
  -27.5579  -37.1801   24.8460 C   0  0  0  0  0  0
  -21.4190  -29.3051   22.3681 N   0  0  0  0  0  0
  -26.4288  -37.3779   23.9409 N   0  0  0  0  0  0
  -24.6889  -31.0618   22.0988 N   0  0  0  0  0  0
  -23.4201  -28.8162   23.3012 O   0  0  0  0  0  0
  -28.3357  -26.4576   20.1415 O   0  0  0  0  0  0
  -26.5613  -34.8920   22.4671 O   0  0  0  0  0  0
  -23.5435  -32.1400   23.7365 O   0  0  0  0  0  0
  -31.0614  -19.1774   20.1119 C   0  0  0  0  0  0
  -29.9250  -19.9837   20.4166 C   0  0  0  0  0  0
  -29.9637  -17.1714   20.6706 C   0  0  0  0  0  0
  -28.8267  -17.9890   21.0009 C   0  0  0  0  0  0
  -26.5560  -18.2197   21.9643 C   0  0  0  0  0  0
  -28.8478  -22.3915   20.4156 C   0  0  0  0  0  0
  -28.0782  -25.0107   20.3750 C   0  0  0  0  0  0
  -29.2579  -23.9377   20.2892 C   0  0  1  0  0  0
  -31.0818  -17.8117   20.2246 N   0  0  0  0  0  0
  -28.8024  -19.3573   20.8534 N   0  0  0  0  0  0
  -29.8202  -15.7195   20.8111 N   0  0  0  0  0  0
  -27.6624  -17.3853   21.5052 N   0  0  0  0  0  0
  -29.9711  -21.4129   20.2886 N   0  0  0  0  0  0
  -30.1522  -24.1660   21.3652 O   0  0  0  0  0  0
  -31.4798  -12.5259   19.1524 H   0  0  0  0  0  0
  -30.3742  -11.4110   19.9055 H   0  0  0  0  0  0
  -29.7759  -11.7532   17.4852 H   0  0  0  0  0  0
  -29.6490  -13.4752   17.7424 H   0  0  0  0  0  0
  -27.8723  -11.2907   18.8765 H   0  0  0  0  0  0
  -27.3771  -12.5669   17.7959 H   0  0  0  0  0  0
  -27.6626  -14.2522   19.5121 H   0  0  0  0  0  0
  -28.7145  -12.0721   21.3852 H   0  0  0  0  0  0
  -28.4432  -13.7295   21.8384 H   0  0  0  0  0  0
  -25.2756   -9.5682   22.4753 H   0  0  0  0  0  0
  -23.9995   -7.4634   22.7472 H   0  0  0  0  0  0
  -21.0831   -8.8772   19.8952 H   0  0  0  0  0  0
  -22.3692  -10.9665   19.6158 H   0  0  0  0  0  0
  -21.2011   -7.6142   23.9712 H   0  0  0  0  0  0
  -21.1479   -6.0516   25.9074 H   0  0  0  0  0  0
  -22.0599   -2.7604   23.2847 H   0  0  0  0  0  0
  -22.4076  -11.9884   22.4797 H   0  0  0  0  0  0
  -21.1091  -13.1263   22.2601 H   0  0  0  0  0  0
  -24.6482  -15.8327   20.5475 H   0  0  0  0  0  0
  -26.2724  -15.6607   20.1440 H   0  0  0  0  0  0
  -26.7189  -32.5454   23.1114 H   0  0  0  0  0  0
  -25.0093  -33.9729   25.0443 H   0  0  0  0  0  0
  -22.7133  -31.3067   21.4060 H   0  0  0  0  0  0
  -23.3747  -35.9629   23.3294 H   0  0  0  0  0  0
  -24.3580  -36.8920   22.2051 H   0  0  0  0  0  0
  -23.7243  -37.6499   23.6658 H   0  0  0  0  0  0
  -26.0932  -31.5537   20.6059 H   0  0  0  0  0  0
  -26.8436  -30.8411   22.0028 H   0  0  0  0  0  0
  -28.1178  -28.9797   21.1851 H   0  0  0  0  0  0
  -25.9593  -25.9607   18.9574 H   0  0  0  0  0  0
  -23.9683  -27.3239   19.0011 H   0  0  0  0  0  0
  -23.7559  -30.6018   19.4072 H   0  0  0  0  0  0
  -22.7537  -29.2555   19.8576 H   0  0  0  0  0  0
  -25.1287  -36.1937   25.0821 H   0  0  0  0  0  0
  -20.9983  -28.3267   24.1402 H   0  0  0  0  0  0
  -20.5682  -26.2302   23.3608 H   0  0  0  0  0  0
  -21.6646  -26.7444   22.1201 H   0  0  0  0  0  0
  -19.6913  -25.6295   21.1241 H   0  0  0  0  0  0
  -19.6685  -27.3192   20.6738 H   0  0  0  0  0  0
  -17.4203  -26.6681   21.4022 H   0  0  0  0  0  0
  -18.0325  -26.0068   22.9015 H   0  0  0  0  0  0
  -19.7940  -30.7278   24.2254 H   0  0  0  0  0  0
  -17.5016  -31.6263   24.5169 H   0  0  0  0  0  0
  -15.5354  -30.2985   23.7647 H   0  0  0  0  0  0
  -15.8675  -28.0819   22.7060 H   0  0  0  0  0  0
  -24.5908  -30.7079   25.7807 H   0  0  0  0  0  0
  -24.8938  -32.2903   26.4885 H   0  0  0  0  0  0
  -25.8072  -30.8918   27.0240 H   0  0  0  0  0  0
  -26.2904  -29.6763   24.1203 H   0  0  0  0  0  0
  -27.4027  -29.7252   25.4683 H   0  0  0  0  0  0
  -27.8778  -30.4283   23.9403 H   0  0  0  0  0  0
  -27.2664  -33.3616   26.2081 H   0  0  0  0  0  0
  -28.3874  -32.6879   25.0340 H   0  0  0  0  0  0
  -28.0718  -31.8443   26.5429 H   0  0  0  0  0  0
  -28.2590  -38.0104   24.7515 H   0  0  0  0  0  0
  -28.1082  -36.2638   24.6269 H   0  0  0  0  0  0
  -27.2301  -37.1432   25.8864 H   0  0  0  0  0  0
  -20.9365  -29.8793   21.6910 H   0  0  0  0  0  0
  -26.0169  -38.2852   24.1414 H   0  0  0  0  0  0
  -31.9767  -19.6341   19.7639 H   0  0  0  0  0  0
  -25.7501  -17.5996   22.3591 H   0  0  0  0  0  0
  -26.1477  -18.8170   21.1471 H   0  0  0  0  0  0
  -26.8767  -18.8966   22.7583 H   0  0  0  0  0  0
  -28.1161  -22.1591   19.6397 H   0  0  0  0  0  0
  -28.3368  -22.2181   21.3643 H   0  0  0  0  0  0
  -27.5766  -24.9134   21.3391 H   0  0  0  0  0  0
  -27.3639  -24.6516   19.6388 H   0  0  0  0  0  0
  -29.7854  -24.0906   19.3461 H   0  0  0  0  0  0
  -28.8905  -15.4384   21.0699 H   0  0  0  0  0  0
  -27.7597  -16.4834   21.9558 H   0  0  0  0  0  0
  -30.8715  -21.8182   20.0472 H   0  0  0  0  0  0
  -29.7012  -23.9197   22.1664 H   0  0  0  0  0  0
  1 25  1  0  0  0
  1 30  2  0  0  0
  1 81  1  0  0  0
  2  3  1  0  0  0
  2 25  1  0  0  0
  2 85  1  0  0  0
  2 86  1  0  0  0
  3  4  1  0  0  0
  3 87  1  0  0  0
  3 88  1  0  0  0
  4  5  1  0  0  0
  4 89  1  0  0  0
  4 90  1  0  0  0
  5  6  1  0  0  0
  5 26  1  0  0  0
  5 91  1  0  0  0
  6 25  1  0  0  0
  6 92  1  0  0  0
  6 93  1  0  0  0
  7  8  2  0  0  0
  7 26  1  0  0  0
  7 29  1  0  0  0
  8  9  1  0  0  0
  8 22  1  0  0  0
  9 10  1  0  0  0
  9 27  2  0  0  0
 10 11  2  0  0  0
 10 15  1  0  0  0
 11 12  1  0  0  0
 11 94  1  0  0  0
 12 13  2  0  0  0
 12 95  1  0  0  0
 13 14  1  0  0  0
 13 31  1  0  0  0
 14 15  2  0  0  0
 14 96  1  0  0  0
 15 97  1  0  0  0
 16 17  2  0  0  0
 16 21  1  0  0  0
 16 31  1  0  0  0
 17 18  1  0  0  0
 17 98  1  0  0  0
 18 19  2  0  0  0
 18 99  1  0  0  0
 19 20  1  0  0  0
 19 24  1  0  0  0
 20 21  2  0  0  0
 20100  1  0  0  0
 21 23  1  0  0  0
 22 28  1  0  0  0
 22 32  2  0  0  0
 26 27  1  0  0  0
 28101  1  0  0  0
 28102  1  0  0  0
 29103  1  0  0  0
 29104  1  0  0  0
 33 34  1  0  0  0
 33 66  1  0  0  0
 33 70  2  0  0  0
 34 36  1  0  0  0
 34 59  1  0  0  0
 34105  1  0  0  0
 35 44  2  0  0  0
 35 45  1  0  0  0
 35 68  1  0  0  0
 36 56  1  0  0  0
 36106  1  0  0  0
 37 39  1  0  0  0
 37 47  1  0  0  0
 37 66  1  0  0  0
 37107  1  0  0  0
 38 43  2  0  0  0
 38 46  1  0  0  0
 38 47  1  0  0  0
 39 64  1  0  0  0
 39 67  2  0  0  0
 40 52  1  0  0  0
 40 53  2  0  0  0
 40 58  1  0  0  0
 41108  1  0  0  0
 41109  1  0  0  0
 41110  1  0  0  0
 41 48  1  0  0  0
 42 43  1  0  0  0
 42 66  1  0  0  0
 42111  1  0  0  0
 42112  1  0  0  0
 43 44  1  0  0  0
 44113  1  0  0  0
 45 46  2  0  0  0
 45114  1  0  0  0
 46115  1  0  0  0
 47116  1  0  0  0
 47117  1  0  0  0
 48 56  1  0  0  0
 48 65  1  0  0  0
 48118  1  0  0  0
 49 50  1  0  0  0
 49 53  1  0  0  0
 49 64  1  0  0  0
 49119  1  0  0  0
 50 51  1  0  0  0
 50120  1  0  0  0
 50121  1  0  0  0
 51 52  1  0  0  0
 51122  1  0  0  0
 51123  1  0  0  0
 52124  1  0  0  0
 52125  1  0  0  0
 53 54  1  0  0  0
 54 55  2  0  0  0
 54126  1  0  0  0
 55 57  1  0  0  0
 55127  1  0  0  0
 56 69  2  0  0  0
 57 58  2  0  0  0
 57128  1  0  0  0
 58129  1  0  0  0
 59 60  1  0  0  0
 59 61  1  0  0  0
 59 62  1  0  0  0
 60130  1  0  0  0
 60131  1  0  0  0
 60132  1  0  0  0
 61133  1  0  0  0
 61134  1  0  0  0
 61135  1  0  0  0
 62136  1  0  0  0
 62137  1  0  0  0
 62138  1  0  0  0
 63 65  1  0  0  0
 63139  1  0  0  0
 63140  1  0  0  0
 63141  1  0  0  0
 64142  1  0  0  0
 65143  1  0  0  0
 68 77  1  0  0  0
 71 72  2  0  0  0
 71 79  1  0  0  0
 71144  1  0  0  0
 72 80  1  0  0  0
 72 83  1  0  0  0
 73 74  1  0  0  0
 73 79  2  0  0  0
 73 81  1  0  0  0
 74 80  2  0  0  0
 74 82  1  0  0  0
 75 82  1  0  0  0
 75145  1  0  0  0
 75146  1  0  0  0
 75147  1  0  0  0
 76 78  1  0  0  0
 76 83  1  0  0  0
 76148  1  0  0  0
 76149  1  0  0  0
 77 78  1  0  0  0
 77150  1  0  0  0
 77151  1  0  0  0
 78 84  1  0  0  0
 78152  1  0  0  0
 81153  1  0  0  0
 82154  1  0  0  0
 83155  1  0  0  0
 84156  1  0  0  0
M  ISO  4   1 100  68 101  77 101  81 100
M  END
> <chiral flag>
0

> <version>
0

> <s_m_source_file>
/data/baiqing/PycharmProjects/Reinvent-master-3.2/result/LINK_invent/BTK/process_docking_weight1_custom_product_contain_oxygen_bond_distance_aromatic_linkinvent_7_9_3/rearranged_h_0197.sdf

> <i_m_source_file_index>
9

> <r_mmod_Potential_Energy-OPLS-2005>
-31.9564838409424

> <r_mmod_Stretch_Energy-OPLS-2005>
85.5150985717773

> <r_mmod_Bend_Energy-OPLS-2005>
156.942504882812

> <r_mmod_Torsional_Energy-OPLS-2005>
221.329956054688

> <r_mmod_Improper_Torsional_Energy-OPLS-2005>
5.96919822692871

> <r_mmod_Van_der_Waal_Energy-OPLS-2005>
152.9404296875

> <r_mmod_Electrostatic_Energy-OPLS-2005>
-435.578979492188

> <r_mmod_Solvation_Energy-OPLS-2005>
-271.195617675781

> <b_mmod_Minimization_Converged-OPLS-2005>
0

> <r_mmod_RMS_Derivative-OPLS-2005>
0.632148385047913

$$$$
9
                    3D
 Structure written by MMmdl.
155163  0  0  1  0            999 V2000
  -30.6826  -14.5027   20.5258 C   0  0  0  0  0  0
  -30.4240  -12.3223   19.4235 C   0  0  0  0  0  0
  -29.4922  -12.5069   18.2058 C   0  0  0  0  0  0
  -28.0137  -12.3675   18.6172 C   0  0  0  0  0  0
  -27.6614  -13.2089   19.8733 C   0  0  2  0  0  0
  -28.7048  -13.0104   20.9968 C   0  0  0  0  0  0
  -25.2614  -13.8163   20.5690 C   0  0  0  0  0  0
  -24.1870  -13.0457   20.9178 C   0  0  0  0  0  0
  -24.6420  -11.6914   20.8751 C   0  0  0  0  0  0
  -23.9093  -10.4304   21.0417 C   0  0  0  0  0  0
  -24.3646   -9.4210   21.9193 C   0  0  0  0  0  0
  -23.6318   -8.2251   22.0756 C   0  0  0  0  0  0
  -22.4300   -8.0296   21.3538 C   0  0  0  0  0  0
  -21.9939   -9.0282   20.4648 C   0  0  0  0  0  0
  -22.7266  -10.2158   20.3063 C   0  0  0  0  0  0
  -21.6861   -6.0762   22.5279 C   0  0  0  0  0  0
  -21.4020   -6.5663   23.8214 C   0  0  0  0  0  0
  -21.3644   -5.6802   24.9168 C   0  0  0  0  0  0
  -21.6030   -4.3071   24.7210 C   0  0  0  0  0  0
  -21.8824   -3.8171   23.4334 C   0  0  0  0  0  0
  -21.9196   -4.6991   22.3391 C   0  0  0  0  0  0
  -22.7887  -13.5258   21.1821 C   0  0  0  0  0  0
  -22.1664   -4.2183   21.0969 F   0  0  0  0  0  0
  -21.5617   -3.4544   25.7720 F   0  0  0  0  0  0
  -30.0330  -13.3102   20.4422 N   0  0  0  0  0  0
  -26.3041  -12.9335   20.3375 N   0  0  0  0  0  0
  -25.9350  -11.6498   20.5805 N   0  0  0  0  0  0
  -22.0522  -12.8263   22.0362 N   0  0  0  0  0  0
  -25.4363  -15.1890   20.4103 N   0  0  0  0  0  0
  -31.8319  -14.6607   20.1016 O   0  0  0  0  0  0
  -21.6639   -6.8911   21.4249 O   0  0  0  0  0  0
  -22.3573  -14.5549   20.6638 O   0  0  0  0  0  0
  -24.6168  -31.8671   23.2119 C   0  0  0  0  0  0
  -25.9051  -32.4824   23.8414 C   0  0  1  0  0  0
  -27.2192  -27.3929   20.1010 C   0  0  0  0  0  0
  -25.5909  -33.8625   24.2349 N   0  0  0  0  0  0
  -23.4078  -30.4919   21.5535 C   0  0  2  0  0  0
  -24.8536  -28.9665   20.1057 C   0  0  0  0  0  0
  -22.7418  -29.4636   22.4985 C   0  0  0  0  0  0
  -18.0273  -28.1375   22.8491 C   0  0  0  0  0  0
  -24.1483  -36.7307   23.2640 C   0  0  0  0  0  0
  -25.9423  -30.8187   21.3753 C   0  0  0  0  0  0
  -26.0170  -29.4546   20.7141 C   0  0  0  0  0  0
  -27.2011  -28.6716   20.7156 C   0  0  0  0  0  0
  -26.0428  -26.9597   19.4414 C   0  0  0  0  0  0
  -24.8628  -27.7183   19.4665 C   0  0  0  0  0  0
  -23.6196  -29.8371   20.1646 C   0  0  0  0  0  0
  -25.4108  -36.3119   24.0344 C   0  0  1  0  0  0
  -20.5864  -28.3638   23.1332 C   0  0  2  0  0  0
  -20.6765  -26.9375   22.5424 C   0  0  0  0  0  0
  -19.5748  -26.6377   21.5218 C   0  0  0  0  0  0
  -18.1921  -26.7921   22.1622 C   0  0  0  0  0  0
  -19.1524  -28.8825   23.2908 C   0  0  0  0  0  0
  -18.9445  -30.1434   23.8900 C   0  0  0  0  0  0
  -17.6454  -30.6574   24.0558 C   0  0  0  0  0  0
  -25.9031  -34.9480   23.5141 C   0  0  0  0  0  0
  -16.5342  -29.9074   23.6340 C   0  0  0  0  0  0
  -16.7265  -28.6504   23.0337 C   0  0  0  0  0  0
  -26.4462  -31.6605   25.0744 C   0  0  0  0  0  0
  -25.3716  -31.3704   26.1480 C   0  0  0  0  0  0
  -27.0299  -30.3050   24.6127 C   0  0  0  0  0  0
  -27.6049  -32.4306   25.7494 C   0  0  0  0  0  0
  -27.5584  -37.1807   24.8471 C   0  0  0  0  0  0
  -21.4140  -29.3019   22.3736 N   0  0  0  0  0  0
  -26.4303  -37.3798   23.9407 N   0  0  0  0  0  0
  -24.6741  -31.0719   22.1064 N   0  0  0  0  0  0
  -23.4166  -28.8182   23.3047 O   0  0  0  0  0  0
  -28.3436  -26.5780   20.1755 O   0  0  0  0  0  0
  -26.5574  -34.8929   22.4688 O   0  0  0  0  0  0
  -23.5344  -32.1469   23.7472 O   0  0  0  0  0  0
  -30.3684  -17.1670   19.1081 C   0  0  0  0  0  0
  -30.0300  -16.8783   20.4077 C   0  0  0  0  0  0
  -29.8902  -19.0137   20.1181 C   0  0  0  0  0  0
  -29.0091  -21.0972   22.3739 C   0  0  0  0  0  0
  -28.7971  -22.7007   20.3701 C   0  0  0  0  0  0
  -28.1028  -25.1511   20.0322 C   0  0  0  0  0  0
  -29.6191  -21.5408   21.0328 C   0  0  1  0  0  0
  -29.0928  -24.1920   20.7543 C   0  0  1  0  0  0
  -29.7000  -18.0775   21.0593 N   0  0  0  0  0  0
  -29.9456  -15.5554   20.9466 N   0  0  0  0  0  0
  -29.7500  -20.4030   20.1091 N   0  0  0  0  0  0
  -30.2829  -18.5195   18.9162 O   0  0  0  0  0  0
  -28.8999  -24.3781   22.1442 O   0  0  0  0  0  0
  -31.4639  -12.4334   19.1106 H   0  0  0  0  0  0
  -30.3395  -11.3128   19.8279 H   0  0  0  0  0  0
  -29.7349  -11.7769   17.4319 H   0  0  0  0  0  0
  -29.6562  -13.4883   17.7561 H   0  0  0  0  0  0
  -27.8196  -11.3118   18.8084 H   0  0  0  0  0  0
  -27.3658  -12.6466   17.7854 H   0  0  0  0  0  0
  -27.6999  -14.2543   19.5663 H   0  0  0  0  0  0
  -28.6889  -11.9830   21.3636 H   0  0  0  0  0  0
  -28.4682  -13.6328   21.8605 H   0  0  0  0  0  0
  -25.2806   -9.5673   22.4757 H   0  0  0  0  0  0
  -24.0020   -7.4639   22.7476 H   0  0  0  0  0  0
  -21.0864   -8.8818   19.8961 H   0  0  0  0  0  0
  -22.3747  -10.9706   19.6169 H   0  0  0  0  0  0
  -21.2025   -7.6174   23.9728 H   0  0  0  0  0  0
  -21.1446   -6.0529   25.9065 H   0  0  0  0  0  0
  -22.0619   -2.7640   23.2813 H   0  0  0  0  0  0
  -22.4170  -11.9949   22.4777 H   0  0  0  0  0  0
  -21.1128  -13.1276   22.2546 H   0  0  0  0  0  0
  -24.6759  -15.8495   20.5284 H   0  0  0  0  0  0
  -26.2945  -15.6262   20.1019 H   0  0  0  0  0  0
  -26.7110  -32.5522   23.1161 H   0  0  0  0  0  0
  -25.0117  -33.9801   25.0530 H   0  0  0  0  0  0
  -22.7003  -31.3129   21.4168 H   0  0  0  0  0  0
  -23.3753  -35.9633   23.3330 H   0  0  0  0  0  0
  -24.3590  -36.8890   22.2056 H   0  0  0  0  0  0
  -23.7236  -37.6519   23.6629 H   0  0  0  0  0  0
  -26.0626  -31.5894   20.6127 H   0  0  0  0  0  0
  -26.8272  -30.8664   21.9974 H   0  0  0  0  0  0
  -28.0880  -29.0287   21.2206 H   0  0  0  0  0  0
  -26.0069  -26.0210   18.9082 H   0  0  0  0  0  0
  -23.9723  -27.3379   18.9830 H   0  0  0  0  0  0
  -23.7367  -30.6218   19.4160 H   0  0  0  0  0  0
  -22.7426  -29.2640   19.8595 H   0  0  0  0  0  0
  -25.1283  -36.1999   25.0840 H   0  0  0  0  0  0
  -20.9937  -28.3181   24.1457 H   0  0  0  0  0  0
  -20.5666  -26.2217   23.3587 H   0  0  0  0  0  0
  -21.6636  -26.7427   22.1203 H   0  0  0  0  0  0
  -19.6895  -25.6293   21.1232 H   0  0  0  0  0  0
  -19.6707  -27.3203   20.6764 H   0  0  0  0  0  0
  -17.4189  -26.6678   21.4025 H   0  0  0  0  0  0
  -18.0301  -26.0067   22.9020 H   0  0  0  0  0  0
  -19.7924  -30.7257   24.2250 H   0  0  0  0  0  0
  -17.5010  -31.6260   24.5152 H   0  0  0  0  0  0
  -15.5341  -30.2962   23.7678 H   0  0  0  0  0  0
  -15.8668  -28.0839   22.7015 H   0  0  0  0  0  0
  -24.5900  -30.7037   25.7817 H   0  0  0  0  0  0
  -24.8870  -32.2838   26.4937 H   0  0  0  0  0  0
  -25.8059  -30.8875   27.0241 H   0  0  0  0  0  0
  -26.2868  -29.6819   24.1130 H   0  0  0  0  0  0
  -27.4029  -29.7288   25.4608 H   0  0  0  0  0  0
  -27.8714  -30.4394   23.9327 H   0  0  0  0  0  0
  -27.2703  -33.3613   26.2093 H   0  0  0  0  0  0
  -28.3833  -32.6854   25.0286 H   0  0  0  0  0  0
  -28.0721  -31.8393   26.5380 H   0  0  0  0  0  0
  -28.2601  -38.0104   24.7521 H   0  0  0  0  0  0
  -28.1078  -36.2637   24.6290 H   0  0  0  0  0  0
  -27.2296  -37.1451   25.8871 H   0  0  0  0  0  0
  -20.9262  -29.8780   21.7014 H   0  0  0  0  0  0
  -26.0201  -38.2872   24.1420 H   0  0  0  0  0  0
  -30.6509  -16.5711   18.2517 H   0  0  0  0  0  0
  -28.9223  -21.9326   23.0690 H   0  0  0  0  0  0
  -29.6230  -20.3415   22.8668 H   0  0  0  0  0  0
  -28.0099  -20.6816   22.2389 H   0  0  0  0  0  0
  -27.7366  -22.4958   20.5215 H   0  0  0  0  0  0
  -28.9329  -22.6484   19.2887 H   0  0  0  0  0  0
  -27.1107  -24.8765   20.3969 H   0  0  0  0  0  0
  -28.1204  -24.9236   18.9642 H   0  0  0  0  0  0
  -30.6305  -21.9012   21.2236 H   0  0  0  0  0  0
  -30.1201  -24.4418   20.4870 H   0  0  0  0  0  0
  -29.1064  -15.3371   21.4612 H   0  0  0  0  0  0
  -29.9768  -20.7247   19.1742 H   0  0  0  0  0  0
  -29.0488  -25.3026   22.3212 H   0  0  0  0  0  0
  1 25  1  0  0  0
  1 30  2  0  0  0
  1 80  1  0  0  0
  2  3  1  0  0  0
  2 25  1  0  0  0
  2 84  1  0  0  0
  2 85  1  0  0  0
  3  4  1  0  0  0
  3 86  1  0  0  0
  3 87  1  0  0  0
  4  5  1  0  0  0
  4 88  1  0  0  0
  4 89  1  0  0  0
  5  6  1  0  0  0
  5 26  1  0  0  0
  5 90  1  0  0  0
  6 25  1  0  0  0
  6 91  1  0  0  0
  6 92  1  0  0  0
  7  8  2  0  0  0
  7 26  1  0  0  0
  7 29  1  0  0  0
  8  9  1  0  0  0
  8 22  1  0  0  0
  9 10  1  0  0  0
  9 27  2  0  0  0
 10 11  2  0  0  0
 10 15  1  0  0  0
 11 12  1  0  0  0
 11 93  1  0  0  0
 12 13  2  0  0  0
 12 94  1  0  0  0
 13 14  1  0  0  0
 13 31  1  0  0  0
 14 15  2  0  0  0
 14 95  1  0  0  0
 15 96  1  0  0  0
 16 17  2  0  0  0
 16 21  1  0  0  0
 16 31  1  0  0  0
 17 18  1  0  0  0
 17 97  1  0  0  0
 18 19  2  0  0  0
 18 98  1  0  0  0
 19 20  1  0  0  0
 19 24  1  0  0  0
 20 21  2  0  0  0
 20 99  1  0  0  0
 21 23  1  0  0  0
 22 28  1  0  0  0
 22 32  2  0  0  0
 26 27  1  0  0  0
 28100  1  0  0  0
 28101  1  0  0  0
 29102  1  0  0  0
 29103  1  0  0  0
 33 34  1  0  0  0
 33 66  1  0  0  0
 33 70  2  0  0  0
 34 36  1  0  0  0
 34 59  1  0  0  0
 34104  1  0  0  0
 35 44  2  0  0  0
 35 45  1  0  0  0
 35 68  1  0  0  0
 36 56  1  0  0  0
 36105  1  0  0  0
 37 39  1  0  0  0
 37 47  1  0  0  0
 37 66  1  0  0  0
 37106  1  0  0  0
 38 43  2  0  0  0
 38 46  1  0  0  0
 38 47  1  0  0  0
 39 64  1  0  0  0
 39 67  2  0  0  0
 40 52  1  0  0  0
 40 53  2  0  0  0
 40 58  1  0  0  0
 41107  1  0  0  0
 41108  1  0  0  0
 41109  1  0  0  0
 41 48  1  0  0  0
 42 43  1  0  0  0
 42 66  1  0  0  0
 42110  1  0  0  0
 42111  1  0  0  0
 43 44  1  0  0  0
 44112  1  0  0  0
 45 46  2  0  0  0
 45113  1  0  0  0
 46114  1  0  0  0
 47115  1  0  0  0
 47116  1  0  0  0
 48 56  1  0  0  0
 48 65  1  0  0  0
 48117  1  0  0  0
 49 50  1  0  0  0
 49 53  1  0  0  0
 49 64  1  0  0  0
 49118  1  0  0  0
 50 51  1  0  0  0
 50119  1  0  0  0
 50120  1  0  0  0
 51 52  1  0  0  0
 51121  1  0  0  0
 51122  1  0  0  0
 52123  1  0  0  0
 52124  1  0  0  0
 53 54  1  0  0  0
 54 55  2  0  0  0
 54125  1  0  0  0
 55 57  1  0  0  0
 55126  1  0  0  0
 56 69  2  0  0  0
 57 58  2  0  0  0
 57127  1  0  0  0
 58128  1  0  0  0
 59 60  1  0  0  0
 59 61  1  0  0  0
 59 62  1  0  0  0
 60129  1  0  0  0
 60130  1  0  0  0
 60131  1  0  0  0
 61132  1  0  0  0
 61133  1  0  0  0
 61134  1  0  0  0
 62135  1  0  0  0
 62136  1  0  0  0
 62137  1  0  0  0
 63 65  1  0  0  0
 63138  1  0  0  0
 63139  1  0  0  0
 63140  1  0  0  0
 64141  1  0  0  0
 65142  1  0  0  0
 68 76  1  0  0  0
 71 72  2  0  0  0
 71 82  1  0  0  0
 71143  1  0  0  0
 72 79  1  0  0  0
 72 80  1  0  0  0
 73 79  2  0  0  0
 73 81  1  0  0  0
 73 82  1  0  0  0
 74144  1  0  0  0
 74145  1  0  0  0
 74146  1  0  0  0
 74 77  1  0  0  0
 75 77  1  0  0  0
 75 78  1  0  0  0
 75147  1  0  0  0
 75148  1  0  0  0
 76 78  1  0  0  0
 76149  1  0  0  0
 76150  1  0  0  0
 77 81  1  0  0  0
 77151  1  0  0  0
 78 83  1  0  0  0
 78152  1  0  0  0
 80153  1  0  0  0
 81154  1  0  0  0
 83155  1  0  0  0
M  ISO  4   1 100  68 101  76 101  80 100
M  END
> <chiral flag>
0

> <version>
0

> <s_m_source_file>
/data/baiqing/PycharmProjects/Reinvent-master-3.2/result/LINK_invent/BTK/process_docking_weight1_custom_product_contain_oxygen_bond_distance_aromatic_linkinvent_7_9_3/rearranged_h_0197.sdf

> <i_m_source_file_index>
10

> <r_mmod_Potential_Energy-OPLS-2005>
-79.5655975341797

> <r_mmod_Stretch_Energy-OPLS-2005>
41.7934761047363

> <r_mmod_Bend_Energy-OPLS-2005>
122.759330749512

> <r_mmod_Torsional_Energy-OPLS-2005>
240.33659362793

> <r_mmod_Improper_Torsional_Energy-OPLS-2005>
5.39929342269897

> <r_mmod_Van_der_Waal_Energy-OPLS-2005>
136.799621582031

> <r_mmod_Electrostatic_Energy-OPLS-2005>
-409.733642578125

> <r_mmod_Solvation_Energy-OPLS-2005>
-239.635971069336

> <b_mmod_Minimization_Converged-OPLS-2005>
0

> <r_mmod_RMS_Derivative-OPLS-2005>
2.61383938789368

$$$$
10
                    3D
 Structure written by MMmdl.
151159  0  0  1  0            999 V2000
  -30.6682  -14.6501   20.4768 C   0  0  0  0  0  0
  -30.4187  -12.3989   19.4607 C   0  0  0  0  0  0
  -29.4997  -12.4943   18.2252 C   0  0  0  0  0  0
  -28.0245  -12.3377   18.6395 C   0  0  0  0  0  0
  -27.6429  -13.2294   19.8523 C   0  0  2  0  0  0
  -28.6885  -13.1415   20.9854 C   0  0  0  0  0  0
  -25.2504  -13.8201   20.5690 C   0  0  0  0  0  0
  -24.1797  -13.0444   20.9203 C   0  0  0  0  0  0
  -24.6390  -11.6922   20.8753 C   0  0  0  0  0  0
  -23.9070  -10.4295   21.0409 C   0  0  0  0  0  0
  -24.3620   -9.4210   21.9186 C   0  0  0  0  0  0
  -23.6295   -8.2243   22.0756 C   0  0  0  0  0  0
  -22.4278   -8.0282   21.3546 C   0  0  0  0  0  0
  -21.9916   -9.0253   20.4646 C   0  0  0  0  0  0
  -22.7242  -10.2133   20.3056 C   0  0  0  0  0  0
  -21.6855   -6.0737   22.5277 C   0  0  0  0  0  0
  -21.4016   -6.5639   23.8212 C   0  0  0  0  0  0
  -21.3658   -5.6793   24.9174 C   0  0  0  0  0  0
  -21.6043   -4.3055   24.7225 C   0  0  0  0  0  0
  -21.8818   -3.8149   23.4345 C   0  0  0  0  0  0
  -21.9194   -4.6966   22.3401 C   0  0  0  0  0  0
  -22.7814  -13.5221   21.1864 C   0  0  0  0  0  0
  -22.1660   -4.2151   21.0979 F   0  0  0  0  0  0
  -21.5629   -3.4540   25.7738 F   0  0  0  0  0  0
  -29.9972  -13.4575   20.4022 N   0  0  0  0  0  0
  -26.2939  -12.9407   20.3299 N   0  0  0  0  0  0
  -25.9321  -11.6550   20.5768 N   0  0  0  0  0  0
  -22.0464  -12.8207   22.0418 N   0  0  0  0  0  0
  -25.4192  -15.1925   20.4097 N   0  0  0  0  0  0
  -31.8568  -14.7171   20.1560 O   0  0  0  0  0  0
  -21.6641   -6.8879   21.4240 O   0  0  0  0  0  0
  -22.3494  -14.5527   20.6716 O   0  0  0  0  0  0
  -24.6268  -31.8589   23.2024 C   0  0  0  0  0  0
  -25.9110  -32.4774   23.8358 C   0  0  1  0  0  0
  -27.2175  -27.3147   20.1255 C   0  0  0  0  0  0
  -25.5923  -33.8577   24.2281 N   0  0  0  0  0  0
  -23.4211  -30.4828   21.5445 C   0  0  2  0  0  0
  -24.8685  -28.9373   20.1102 C   0  0  0  0  0  0
  -22.7473  -29.4624   22.4932 C   0  0  0  0  0  0
  -18.0280  -28.1390   22.8487 C   0  0  0  0  0  0
  -24.1486  -36.7289   23.2641 C   0  0  0  0  0  0
  -25.9624  -30.7893   21.3740 C   0  0  0  0  0  0
  -26.0379  -29.4161   20.7167 C   0  0  0  0  0  0
  -27.2203  -28.6167   20.7138 C   0  0  0  0  0  0
  -26.0338  -26.8930   19.4850 C   0  0  0  0  0  0
  -24.8684  -27.6815   19.4835 C   0  0  0  0  0  0
  -23.6366  -29.8178   20.1597 C   0  0  0  0  0  0
  -25.4111  -36.3082   24.0333 C   0  0  1  0  0  0
  -20.5881  -28.3696   23.1281 C   0  0  2  0  0  0
  -20.6772  -26.9417   22.5412 C   0  0  0  0  0  0
  -19.5748  -26.6389   21.5213 C   0  0  0  0  0  0
  -18.1923  -26.7937   22.1618 C   0  0  0  0  0  0
  -19.1533  -28.8860   23.2881 C   0  0  0  0  0  0
  -18.9458  -30.1462   23.8902 C   0  0  0  0  0  0
  -17.6459  -30.6595   24.0568 C   0  0  0  0  0  0
  -25.9048  -34.9451   23.5106 C   0  0  0  0  0  0
  -16.5347  -29.9093   23.6335 C   0  0  0  0  0  0
  -16.7267  -28.6508   23.0360 C   0  0  0  0  0  0
  -26.4497  -31.6586   25.0729 C   0  0  0  0  0  0
  -25.3730  -31.3720   26.1454 C   0  0  0  0  0  0
  -27.0347  -30.3011   24.6191 C   0  0  0  0  0  0
  -27.6053  -32.4331   25.7496 C   0  0  0  0  0  0
  -27.5581  -37.1798   24.8465 C   0  0  0  0  0  0
  -21.4185  -29.3047   22.3671 N   0  0  0  0  0  0
  -26.4287  -37.3778   23.9415 N   0  0  0  0  0  0
  -24.6888  -31.0601   22.0973 N   0  0  0  0  0  0
  -23.4186  -28.8160   23.3017 O   0  0  0  0  0  0
  -28.3005  -26.4265   20.1632 O   0  0  0  0  0  0
  -26.5614  -34.8917   22.4672 O   0  0  0  0  0  0
  -23.5430  -32.1385   23.7350 O   0  0  0  0  0  0
  -29.7086  -20.7514   19.7059 C   0  0  0  0  0  0
  -29.8064  -18.5588   20.6062 C   0  0  0  0  0  0
  -28.9032  -21.2441   20.7757 C   0  0  0  0  0  0
  -28.9789  -19.0396   21.6627 C   0  0  0  0  0  0
  -28.7322  -23.8147   20.2669 C   0  0  0  0  0  0
  -30.5882  -17.1821   20.6058 C   0  0  0  0  0  0
  -28.0238  -25.1221   20.8223 C   0  0  0  0  0  0
  -30.1443  -19.4490   19.6245 N   0  0  0  0  0  0
  -28.5350  -20.3316   21.7287 N   0  0  0  0  0  0
  -28.6087  -18.2348   22.7320 N   0  0  0  0  0  0
  -28.4560  -22.6335   20.9123 N   0  0  0  0  0  0
  -29.9628  -15.8083   20.6962 N   0  0  0  0  0  0
  -29.4909  -23.8863   19.2963 O   0  0  0  0  0  0
  -31.4630  -12.4950   19.1591 H   0  0  0  0  0  0
  -30.3342  -11.4178   19.9311 H   0  0  0  0  0  0
  -29.7656  -11.7286   17.4951 H   0  0  0  0  0  0
  -29.6439  -13.4555   17.7296 H   0  0  0  0  0  0
  -27.8644  -11.2881   18.8881 H   0  0  0  0  0  0
  -27.3695  -12.5516   17.7937 H   0  0  0  0  0  0
  -27.6453  -14.2553   19.4840 H   0  0  0  0  0  0
  -28.7008  -12.1436   21.4260 H   0  0  0  0  0  0
  -28.4415  -13.8310   21.7939 H   0  0  0  0  0  0
  -25.2764   -9.5686   22.4764 H   0  0  0  0  0  0
  -24.0004   -7.4636   22.7479 H   0  0  0  0  0  0
  -21.0847   -8.8771   19.8949 H   0  0  0  0  0  0
  -22.3704  -10.9671   19.6164 H   0  0  0  0  0  0
  -21.2007   -7.6147   23.9716 H   0  0  0  0  0  0
  -21.1481   -6.0523   25.9076 H   0  0  0  0  0  0
  -22.0599   -2.7612   23.2847 H   0  0  0  0  0  0
  -22.4081  -11.9862   22.4794 H   0  0  0  0  0  0
  -21.1083  -13.1229   22.2632 H   0  0  0  0  0  0
  -24.6525  -15.8470   20.5224 H   0  0  0  0  0  0
  -26.2694  -15.6343   20.0842 H   0  0  0  0  0  0
  -26.7177  -32.5444   23.1106 H   0  0  0  0  0  0
  -25.0087  -33.9723   25.0439 H   0  0  0  0  0  0
  -22.7154  -31.3035   21.4010 H   0  0  0  0  0  0
  -23.3754  -35.9614   23.3295 H   0  0  0  0  0  0
  -24.3582  -36.8918   22.2058 H   0  0  0  0  0  0
  -23.7227  -37.6484   23.6668 H   0  0  0  0  0  0
  -26.0935  -31.5525   20.6057 H   0  0  0  0  0  0
  -26.8426  -30.8382   22.0039 H   0  0  0  0  0  0
  -28.1172  -28.9759   21.1985 H   0  0  0  0  0  0
  -26.0007  -25.9278   18.9993 H   0  0  0  0  0  0
  -23.9738  -27.3105   19.0025 H   0  0  0  0  0  0
  -23.7557  -30.5943   19.4031 H   0  0  0  0  0  0
  -22.7562  -29.2476   19.8575 H   0  0  0  0  0  0
  -25.1290  -36.1936   25.0825 H   0  0  0  0  0  0
  -20.9974  -28.3280   24.1402 H   0  0  0  0  0  0
  -20.5676  -26.2309   23.3616 H   0  0  0  0  0  0
  -21.6645  -26.7452   22.1206 H   0  0  0  0  0  0
  -19.6913  -25.6299   21.1249 H   0  0  0  0  0  0
  -19.6691  -27.3198   20.6743 H   0  0  0  0  0  0
  -17.4196  -26.6691   21.4015 H   0  0  0  0  0  0
  -18.0317  -26.0076   22.9013 H   0  0  0  0  0  0
  -19.7933  -30.7277   24.2277 H   0  0  0  0  0  0
  -17.5010  -31.6276   24.5166 H   0  0  0  0  0  0
  -15.5349  -30.2996   23.7663 H   0  0  0  0  0  0
  -15.8664  -28.0829   22.7082 H   0  0  0  0  0  0
  -24.5931  -30.7033   25.7791 H   0  0  0  0  0  0
  -24.8888  -32.2878   26.4856 H   0  0  0  0  0  0
  -25.8063  -30.8931   27.0242 H   0  0  0  0  0  0
  -26.2927  -29.6752   24.1219 H   0  0  0  0  0  0
  -27.4044  -29.7279   25.4703 H   0  0  0  0  0  0
  -27.8792  -30.4296   23.9417 H   0  0  0  0  0  0
  -27.2665  -33.3645   26.2048 H   0  0  0  0  0  0
  -28.3873  -32.6870   25.0326 H   0  0  0  0  0  0
  -28.0706  -31.8470   26.5432 H   0  0  0  0  0  0
  -28.2588  -38.0105   24.7530 H   0  0  0  0  0  0
  -28.1088  -36.2639   24.6267 H   0  0  0  0  0  0
  -27.2303  -37.1420   25.8867 H   0  0  0  0  0  0
  -20.9363  -29.8765   21.6878 H   0  0  0  0  0  0
  -26.0169  -38.2849   24.1431 H   0  0  0  0  0  0
  -30.0297  -21.4018   18.9062 H   0  0  0  0  0  0
  -31.2983  -17.2505   21.4309 H   0  0  0  0  0  0
  -31.2083  -17.1868   19.7078 H   0  0  0  0  0  0
  -28.3277  -25.2303   21.8636 H   0  0  0  0  0  0
  -26.9560  -24.9069   20.8614 H   0  0  0  0  0  0
  -29.0680  -17.3445   22.8818 H   0  0  0  0  0  0
  -28.2029  -18.6515   23.5614 H   0  0  0  0  0  0
  -27.8226  -22.7640   21.6871 H   0  0  0  0  0  0
  -28.9737  -15.7444   20.8792 H   0  0  0  0  0  0
  1 25  1  0  0  0
  1 30  2  0  0  0
  1 82  1  0  0  0
  2  3  1  0  0  0
  2 25  1  0  0  0
  2 84  1  0  0  0
  2 85  1  0  0  0
  3  4  1  0  0  0
  3 86  1  0  0  0
  3 87  1  0  0  0
  4  5  1  0  0  0
  4 88  1  0  0  0
  4 89  1  0  0  0
  5  6  1  0  0  0
  5 26  1  0  0  0
  5 90  1  0  0  0
  6 25  1  0  0  0
  6 91  1  0  0  0
  6 92  1  0  0  0
  7  8  2  0  0  0
  7 26  1  0  0  0
  7 29  1  0  0  0
  8  9  1  0  0  0
  8 22  1  0  0  0
  9 10  1  0  0  0
  9 27  2  0  0  0
 10 11  2  0  0  0
 10 15  1  0  0  0
 11 12  1  0  0  0
 11 93  1  0  0  0
 12 13  2  0  0  0
 12 94  1  0  0  0
 13 14  1  0  0  0
 13 31  1  0  0  0
 14 15  2  0  0  0
 14 95  1  0  0  0
 15 96  1  0  0  0
 16 17  2  0  0  0
 16 21  1  0  0  0
 16 31  1  0  0  0
 17 18  1  0  0  0
 17 97  1  0  0  0
 18 19  2  0  0  0
 18 98  1  0  0  0
 19 20  1  0  0  0
 19 24  1  0  0  0
 20 21  2  0  0  0
 20 99  1  0  0  0
 21 23  1  0  0  0
 22 28  1  0  0  0
 22 32  2  0  0  0
 26 27  1  0  0  0
 28100  1  0  0  0
 28101  1  0  0  0
 29102  1  0  0  0
 29103  1  0  0  0
 33 34  1  0  0  0
 33 66  1  0  0  0
 33 70  2  0  0  0
 34 36  1  0  0  0
 34 59  1  0  0  0
 34104  1  0  0  0
 35 44  2  0  0  0
 35 45  1  0  0  0
 35 68  1  0  0  0
 36 56  1  0  0  0
 36105  1  0  0  0
 37 39  1  0  0  0
 37 47  1  0  0  0
 37 66  1  0  0  0
 37106  1  0  0  0
 38 43  2  0  0  0
 38 46  1  0  0  0
 38 47  1  0  0  0
 39 64  1  0  0  0
 39 67  2  0  0  0
 40 52  1  0  0  0
 40 53  2  0  0  0
 40 58  1  0  0  0
 41107  1  0  0  0
 41108  1  0  0  0
 41109  1  0  0  0
 41 48  1  0  0  0
 42 43  1  0  0  0
 42 66  1  0  0  0
 42110  1  0  0  0
 42111  1  0  0  0
 43 44  1  0  0  0
 44112  1  0  0  0
 45 46  2  0  0  0
 45113  1  0  0  0
 46114  1  0  0  0
 47115  1  0  0  0
 47116  1  0  0  0
 48 56  1  0  0  0
 48 65  1  0  0  0
 48117  1  0  0  0
 49 50  1  0  0  0
 49 53  1  0  0  0
 49 64  1  0  0  0
 49118  1  0  0  0
 50 51  1  0  0  0
 50119  1  0  0  0
 50120  1  0  0  0
 51 52  1  0  0  0
 51121  1  0  0  0
 51122  1  0  0  0
 52123  1  0  0  0
 52124  1  0  0  0
 53 54  1  0  0  0
 54 55  2  0  0  0
 54125  1  0  0  0
 55 57  1  0  0  0
 55126  1  0  0  0
 56 69  2  0  0  0
 57 58  2  0  0  0
 57127  1  0  0  0
 58128  1  0  0  0
 59 60  1  0  0  0
 59 61  1  0  0  0
 59 62  1  0  0  0
 60129  1  0  0  0
 60130  1  0  0  0
 60131  1  0  0  0
 61132  1  0  0  0
 61133  1  0  0  0
 61134  1  0  0  0
 62135  1  0  0  0
 62136  1  0  0  0
 62137  1  0  0  0
 63 65  1  0  0  0
 63138  1  0  0  0
 63139  1  0  0  0
 63140  1  0  0  0
 64141  1  0  0  0
 65142  1  0  0  0
 68 77  1  0  0  0
 71 73  2  0  0  0
 71 78  1  0  0  0
 71143  1  0  0  0
 72 74  1  0  0  0
 72 76  1  0  0  0
 72 78  2  0  0  0
 73 79  1  0  0  0
 73 81  1  0  0  0
 74 79  2  0  0  0
 74 80  1  0  0  0
 75 77  1  0  0  0
 75 81  1  0  0  0
 75 83  2  0  0  0
 76 82  1  0  0  0
 76144  1  0  0  0
 76145  1  0  0  0
 77146  1  0  0  0
 77147  1  0  0  0
 80148  1  0  0  0
 80149  1  0  0  0
 81150  1  0  0  0
 82151  1  0  0  0
M  ISO  4   1 100  68 101  77 101  82 100
M  END
> <chiral flag>
0

> <version>
0

> <s_m_source_file>
/data/baiqing/PycharmProjects/Reinvent-master-3.2/result/LINK_invent/BTK/process_docking_weight1_custom_product_contain_oxygen_bond_distance_aromatic_linkinvent_7_9_3/rearranged_h_0197.sdf

> <i_m_source_file_index>
11

> <r_mmod_Potential_Energy-OPLS-2005>
4.25421237945557

> <r_mmod_Stretch_Energy-OPLS-2005>
85.7669830322266

> <r_mmod_Bend_Energy-OPLS-2005>
167.542999267578

> <r_mmod_Torsional_Energy-OPLS-2005>
234.031585693359

> <r_mmod_Improper_Torsional_Energy-OPLS-2005>
7.60660839080811

> <r_mmod_Van_der_Waal_Energy-OPLS-2005>
145.243530273438

> <r_mmod_Electrostatic_Energy-OPLS-2005>
-435.217651367188

> <r_mmod_Solvation_Energy-OPLS-2005>
-257.940246582031

> <b_mmod_Minimization_Converged-OPLS-2005>
0

> <r_mmod_RMS_Derivative-OPLS-2005>
0.641279995441437

$$$$
11
                    3D
 Structure written by MMmdl.
161169  0  0  1  0            999 V2000
  -30.6128  -14.6685   20.5050 C   0  0  0  0  0  0
  -30.4403  -12.4107   19.4585 C   0  0  0  0  0  0
  -29.5111  -12.5102   18.2269 C   0  0  0  0  0  0
  -28.0330  -12.3411   18.6372 C   0  0  0  0  0  0
  -27.6497  -13.2185   19.8591 C   0  0  2  0  0  0
  -28.6942  -13.0882   20.9905 C   0  0  0  0  0  0
  -25.2549  -13.8166   20.5698 C   0  0  0  0  0  0
  -24.1816  -13.0427   20.9191 C   0  0  0  0  0  0
  -24.6396  -11.6905   20.8748 C   0  0  0  0  0  0
  -23.9068  -10.4290   21.0420 C   0  0  0  0  0  0
  -24.3623   -9.4199   21.9194 C   0  0  0  0  0  0
  -23.6292   -8.2238   22.0761 C   0  0  0  0  0  0
  -22.4270   -8.0285   21.3553 C   0  0  0  0  0  0
  -21.9908   -9.0262   20.4657 C   0  0  0  0  0  0
  -22.7242  -10.2136   20.3067 C   0  0  0  0  0  0
  -21.6841   -6.0748   22.5288 C   0  0  0  0  0  0
  -21.4016   -6.5648   23.8226 C   0  0  0  0  0  0
  -21.3659   -5.6795   24.9182 C   0  0  0  0  0  0
  -21.6038   -4.3058   24.7221 C   0  0  0  0  0  0
  -21.8811   -3.8154   23.4340 C   0  0  0  0  0  0
  -21.9191   -4.6979   22.3404 C   0  0  0  0  0  0
  -22.7842  -13.5229   21.1850 C   0  0  0  0  0  0
  -22.1654   -4.2172   21.0978 F   0  0  0  0  0  0
  -21.5630   -3.4535   25.7728 F   0  0  0  0  0  0
  -30.0077  -13.4386   20.4271 N   0  0  0  0  0  0
  -26.2973  -12.9355   20.3300 N   0  0  0  0  0  0
  -25.9322  -11.6511   20.5745 N   0  0  0  0  0  0
  -22.0469  -12.8251   22.0413 N   0  0  0  0  0  0
  -25.4218  -15.1895   20.4142 N   0  0  0  0  0  0
  -31.7941  -14.8061   20.1611 O   0  0  0  0  0  0
  -21.6625   -6.8886   21.4249 O   0  0  0  0  0  0
  -22.3544  -14.5539   20.6689 O   0  0  0  0  0  0
  -24.6273  -31.8604   23.2037 C   0  0  0  0  0  0
  -25.9120  -32.4790   23.8371 C   0  0  1  0  0  0
  -27.2224  -27.3058   20.1091 C   0  0  0  0  0  0
  -25.5919  -33.8585   24.2304 N   0  0  0  0  0  0
  -23.4220  -30.4876   21.5455 C   0  0  2  0  0  0
  -24.8676  -28.9449   20.1114 C   0  0  0  0  0  0
  -22.7496  -29.4638   22.4915 C   0  0  0  0  0  0
  -18.0290  -28.1407   22.8482 C   0  0  0  0  0  0
  -24.1484  -36.7298   23.2639 C   0  0  0  0  0  0
  -25.9664  -30.7863   21.3784 C   0  0  0  0  0  0
  -26.0373  -29.4120   20.7214 C   0  0  0  0  0  0
  -27.2143  -28.6021   20.7160 C   0  0  0  0  0  0
  -26.0258  -26.9049   19.4668 C   0  0  0  0  0  0
  -24.8637  -27.6960   19.4773 C   0  0  0  0  0  0
  -23.6393  -29.8290   20.1585 C   0  0  0  0  0  0
  -25.4108  -36.3091   24.0334 C   0  0  1  0  0  0
  -20.5891  -28.3712   23.1269 C   0  0  2  0  0  0
  -20.6782  -26.9429   22.5410 C   0  0  0  0  0  0
  -19.5750  -26.6402   21.5220 C   0  0  0  0  0  0
  -18.1927  -26.7944   22.1631 C   0  0  0  0  0  0
  -19.1543  -28.8876   23.2874 C   0  0  0  0  0  0
  -18.9470  -30.1469   23.8905 C   0  0  0  0  0  0
  -17.6469  -30.6598   24.0572 C   0  0  0  0  0  0
  -25.9046  -34.9460   23.5128 C   0  0  0  0  0  0
  -16.5361  -29.9109   23.6318 C   0  0  0  0  0  0
  -16.7279  -28.6530   23.0339 C   0  0  0  0  0  0
  -26.4500  -31.6592   25.0736 C   0  0  0  0  0  0
  -25.3725  -31.3727   26.1459 C   0  0  0  0  0  0
  -27.0335  -30.3014   24.6187 C   0  0  0  0  0  0
  -27.6065  -32.4320   25.7491 C   0  0  0  0  0  0
  -27.5574  -37.1808   24.8473 C   0  0  0  0  0  0
  -21.4205  -29.3060   22.3659 N   0  0  0  0  0  0
  -26.4295  -37.3780   23.9401 N   0  0  0  0  0  0
  -24.6908  -31.0619   22.0990 N   0  0  0  0  0  0
  -23.4224  -28.8163   23.2983 O   0  0  0  0  0  0
  -28.3450  -26.4503   20.1753 O   0  0  0  0  0  0
  -26.5622  -34.8920   22.4695 O   0  0  0  0  0  0
  -23.5432  -32.1404   23.7357 O   0  0  0  0  0  0
  -28.7061  -19.1274   20.3042 C   0  0  0  0  0  0
  -29.7580  -19.9426   20.7954 C   0  0  0  0  0  0
  -30.8531  -19.1604   21.2667 C   0  0  0  0  0  0
  -29.8488  -17.1303   20.7134 C   0  0  0  0  0  0
  -29.5949  -22.1716   18.5267 C   0  0  0  0  0  0
  -32.0685  -19.8194   21.8898 C   0  0  0  0  0  0
  -28.7109  -21.4276   17.5368 C   0  0  0  0  0  0
  -28.5461  -25.1768   18.1635 C   0  0  0  0  0  0
  -29.1650  -23.9159   20.3913 C   0  0  0  0  0  0
  -29.0531  -22.3571   19.9597 C   0  0  2  0  0  0
  -28.2691  -25.0487   19.6755 C   0  0  1  0  0  0
  -28.7522  -17.7629   20.2835 N   0  0  0  0  0  0
  -30.8936  -17.7955   21.2138 N   0  0  0  0  0  0
  -29.7606  -21.3893   20.8678 N   0  0  0  0  0  0
  -29.7692  -15.7229   20.7649 N   0  0  0  0  0  0
  -30.7161  -22.5501   18.1790 O   0  0  0  0  0  0
  -31.4825  -12.5372   19.1598 H   0  0  0  0  0  0
  -30.3767  -11.4192   19.9093 H   0  0  0  0  0  0
  -29.7838  -11.7547   17.4880 H   0  0  0  0  0  0
  -29.6466  -13.4769   17.7400 H   0  0  0  0  0  0
  -27.8767  -11.2885   18.8771 H   0  0  0  0  0  0
  -27.3763  -12.5597   17.7938 H   0  0  0  0  0  0
  -27.6588  -14.2495   19.5050 H   0  0  0  0  0  0
  -28.7119  -12.0678   21.3766 H   0  0  0  0  0  0
  -28.4363  -13.7212   21.8414 H   0  0  0  0  0  0
  -25.2771   -9.5665   22.4765 H   0  0  0  0  0  0
  -24.0000   -7.4621   22.7474 H   0  0  0  0  0  0
  -21.0843   -8.8787   19.8962 H   0  0  0  0  0  0
  -22.3712  -10.9681   19.6174 H   0  0  0  0  0  0
  -21.2010   -7.6156   23.9736 H   0  0  0  0  0  0
  -21.1490   -6.0524   25.9089 H   0  0  0  0  0  0
  -22.0589   -2.7620   23.2826 H   0  0  0  0  0  0
  -22.4069  -11.9931   22.4851 H   0  0  0  0  0  0
  -21.1095  -13.1316   22.2595 H   0  0  0  0  0  0
  -24.6436  -15.8296   20.5281 H   0  0  0  0  0  0
  -26.2592  -15.6471   20.0776 H   0  0  0  0  0  0
  -26.7188  -32.5473   23.1119 H   0  0  0  0  0  0
  -25.0020  -33.9733   25.0420 H   0  0  0  0  0  0
  -22.7146  -31.3067   21.4043 H   0  0  0  0  0  0
  -23.3738  -35.9642   23.3333 H   0  0  0  0  0  0
  -24.3565  -36.8892   22.2047 H   0  0  0  0  0  0
  -23.7263  -37.6519   23.6644 H   0  0  0  0  0  0
  -26.0995  -31.5469   20.6079 H   0  0  0  0  0  0
  -26.8475  -30.8373   22.0061 H   0  0  0  0  0  0
  -28.1091  -28.9550   21.2086 H   0  0  0  0  0  0
  -25.9421  -25.9643   18.9455 H   0  0  0  0  0  0
  -23.9687  -27.3376   18.9876 H   0  0  0  0  0  0
  -23.7651  -30.6095   19.4070 H   0  0  0  0  0  0
  -22.7588  -29.2635   19.8492 H   0  0  0  0  0  0
  -25.1291  -36.1949   25.0830 H   0  0  0  0  0  0
  -20.9982  -28.3302   24.1393 H   0  0  0  0  0  0
  -20.5685  -26.2328   23.3619 H   0  0  0  0  0  0
  -21.6647  -26.7447   22.1203 H   0  0  0  0  0  0
  -19.6901  -25.6316   21.1249 H   0  0  0  0  0  0
  -19.6678  -27.3213   20.6749 H   0  0  0  0  0  0
  -17.4189  -26.6673   21.4048 H   0  0  0  0  0  0
  -18.0327  -26.0107   22.9050 H   0  0  0  0  0  0
  -19.7948  -30.7280   24.2285 H   0  0  0  0  0  0
  -17.5029  -31.6271   24.5186 H   0  0  0  0  0  0
  -15.5365  -30.3022   23.7640 H   0  0  0  0  0  0
  -15.8675  -28.0865   22.7040 H   0  0  0  0  0  0
  -24.5906  -30.7073   25.7790 H   0  0  0  0  0  0
  -24.8900  -32.2887   26.4879 H   0  0  0  0  0  0
  -25.8040  -30.8910   27.0245 H   0  0  0  0  0  0
  -26.2909  -29.6765   24.1215 H   0  0  0  0  0  0
  -27.4045  -29.7269   25.4689 H   0  0  0  0  0  0
  -27.8778  -30.4306   23.9405 H   0  0  0  0  0  0
  -27.2699  -33.3638   26.2046 H   0  0  0  0  0  0
  -28.3872  -32.6855   25.0306 H   0  0  0  0  0  0
  -28.0734  -31.8456   26.5418 H   0  0  0  0  0  0
  -28.2625  -38.0069   24.7476 H   0  0  0  0  0  0
  -28.1033  -36.2606   24.6357 H   0  0  0  0  0  0
  -27.2282  -37.1531   25.8873 H   0  0  0  0  0  0
  -20.9390  -29.8800   21.6876 H   0  0  0  0  0  0
  -26.0183  -38.2863   24.1377 H   0  0  0  0  0  0
  -27.7935  -19.5743   19.9380 H   0  0  0  0  0  0
  -32.7356  -20.1952   21.1138 H   0  0  0  0  0  0
  -32.6236  -19.1161   22.5102 H   0  0  0  0  0  0
  -31.7776  -20.6510   22.5320 H   0  0  0  0  0  0
  -27.6971  -21.8264   17.5518 H   0  0  0  0  0  0
  -28.6723  -20.3678   17.7830 H   0  0  0  0  0  0
  -29.1058  -21.5299   16.5267 H   0  0  0  0  0  0
  -28.2355  -24.2938   17.6095 H   0  0  0  0  0  0
  -29.6052  -25.3498   17.9701 H   0  0  0  0  0  0
  -28.0008  -26.0085   17.7192 H   0  0  0  0  0  0
  -30.2094  -24.2223   20.3246 H   0  0  0  0  0  0
  -28.9303  -23.9679   21.4542 H   0  0  0  0  0  0
  -27.9945  -22.0928   19.9728 H   0  0  0  0  0  0
  -27.2593  -24.6735   19.8277 H   0  0  0  0  0  0
  -30.6065  -21.7863   21.2679 H   0  0  0  0  0  0
  -28.8243  -15.4058   20.8899 H   0  0  0  0  0  0
  1 25  1  0  0  0
  1 30  2  0  0  0
  1 85  1  0  0  0
  2  3  1  0  0  0
  2 25  1  0  0  0
  2 87  1  0  0  0
  2 88  1  0  0  0
  3  4  1  0  0  0
  3 89  1  0  0  0
  3 90  1  0  0  0
  4  5  1  0  0  0
  4 91  1  0  0  0
  4 92  1  0  0  0
  5  6  1  0  0  0
  5 26  1  0  0  0
  5 93  1  0  0  0
  6 25  1  0  0  0
  6 94  1  0  0  0
  6 95  1  0  0  0
  7  8  2  0  0  0
  7 26  1  0  0  0
  7 29  1  0  0  0
  8  9  1  0  0  0
  8 22  1  0  0  0
  9 10  1  0  0  0
  9 27  2  0  0  0
 10 11  2  0  0  0
 10 15  1  0  0  0
 11 12  1  0  0  0
 11 96  1  0  0  0
 12 13  2  0  0  0
 12 97  1  0  0  0
 13 14  1  0  0  0
 13 31  1  0  0  0
 14 15  2  0  0  0
 14 98  1  0  0  0
 15 99  1  0  0  0
 16 17  2  0  0  0
 16 21  1  0  0  0
 16 31  1  0  0  0
 17 18  1  0  0  0
 17100  1  0  0  0
 18 19  2  0  0  0
 18101  1  0  0  0
 19 20  1  0  0  0
 19 24  1  0  0  0
 20 21  2  0  0  0
 20102  1  0  0  0
 21 23  1  0  0  0
 22 28  1  0  0  0
 22 32  2  0  0  0
 26 27  1  0  0  0
 28103  1  0  0  0
 28104  1  0  0  0
 29105  1  0  0  0
 29106  1  0  0  0
 33 34  1  0  0  0
 33 66  1  0  0  0
 33 70  2  0  0  0
 34 36  1  0  0  0
 34 59  1  0  0  0
 34107  1  0  0  0
 35 44  2  0  0  0
 35 45  1  0  0  0
 35 68  1  0  0  0
 36 56  1  0  0  0
 36108  1  0  0  0
 37 39  1  0  0  0
 37 47  1  0  0  0
 37 66  1  0  0  0
 37109  1  0  0  0
 38 43  2  0  0  0
 38 46  1  0  0  0
 38 47  1  0  0  0
 39 64  1  0  0  0
 39 67  2  0  0  0
 40 52  1  0  0  0
 40 53  2  0  0  0
 40 58  1  0  0  0
 41110  1  0  0  0
 41111  1  0  0  0
 41112  1  0  0  0
 41 48  1  0  0  0
 42 43  1  0  0  0
 42 66  1  0  0  0
 42113  1  0  0  0
 42114  1  0  0  0
 43 44  1  0  0  0
 44115  1  0  0  0
 45 46  2  0  0  0
 45116  1  0  0  0
 46117  1  0  0  0
 47118  1  0  0  0
 47119  1  0  0  0
 48 56  1  0  0  0
 48 65  1  0  0  0
 48120  1  0  0  0
 49 50  1  0  0  0
 49 53  1  0  0  0
 49 64  1  0  0  0
 49121  1  0  0  0
 50 51  1  0  0  0
 50122  1  0  0  0
 50123  1  0  0  0
 51 52  1  0  0  0
 51124  1  0  0  0
 51125  1  0  0  0
 52126  1  0  0  0
 52127  1  0  0  0
 53 54  1  0  0  0
 54 55  2  0  0  0
 54128  1  0  0  0
 55 57  1  0  0  0
 55129  1  0  0  0
 56 69  2  0  0  0
 57 58  2  0  0  0
 57130  1  0  0  0
 58131  1  0  0  0
 59 60  1  0  0  0
 59 61  1  0  0  0
 59 62  1  0  0  0
 60132  1  0  0  0
 60133  1  0  0  0
 60134  1  0  0  0
 61135  1  0  0  0
 61136  1  0  0  0
 61137  1  0  0  0
 62138  1  0  0  0
 62139  1  0  0  0
 62140  1  0  0  0
 63 65  1  0  0  0
 63141  1  0  0  0
 63142  1  0  0  0
 63143  1  0  0  0
 64144  1  0  0  0
 65145  1  0  0  0
 68 81  1  0  0  0
 71 72  2  0  0  0
 71 82  1  0  0  0
 71146  1  0  0  0
 72 73  1  0  0  0
 72 84  1  0  0  0
 73 76  1  0  0  0
 73 83  2  0  0  0
 74 82  2  0  0  0
 74 83  1  0  0  0
 74 85  1  0  0  0
 75 77  1  0  0  0
 75 80  1  0  0  0
 75 86  2  0  0  0
 76147  1  0  0  0
 76148  1  0  0  0
 76149  1  0  0  0
 77150  1  0  0  0
 77151  1  0  0  0
 77152  1  0  0  0
 78153  1  0  0  0
 78154  1  0  0  0
 78155  1  0  0  0
 78 81  1  0  0  0
 79 81  1  0  0  0
 79156  1  0  0  0
 79157  1  0  0  0
 79 80  1  0  0  0
 80 84  1  0  0  0
 80158  1  0  0  0
 81159  1  0  0  0
 84160  1  0  0  0
 85161  1  0  0  0
M  ISO  4   1 100  68 101  81 101  85 100
M  END
> <chiral flag>
0

> <version>
0

> <s_m_source_file>
/data/baiqing/PycharmProjects/Reinvent-master-3.2/result/LINK_invent/BTK/process_docking_weight1_custom_product_contain_oxygen_bond_distance_aromatic_linkinvent_7_9_3/rearranged_h_0197.sdf

> <i_m_source_file_index>
12

> <r_mmod_Potential_Energy-OPLS-2005>
-249.844161987305

> <r_mmod_Stretch_Energy-OPLS-2005>
91.0532379150391

> <r_mmod_Bend_Energy-OPLS-2005>
169.76335144043

> <r_mmod_Torsional_Energy-OPLS-2005>
203.156585693359

> <r_mmod_Improper_Torsional_Energy-OPLS-2005>
8.17232799530029

> <r_mmod_Van_der_Waal_Energy-OPLS-2005>
150.820892333984

> <r_mmod_Electrostatic_Energy-OPLS-2005>
-684.825317382812

> <r_mmod_Solvation_Energy-OPLS-2005>
-244.61946105957

> <b_mmod_Minimization_Converged-OPLS-2005>
0

> <r_mmod_RMS_Derivative-OPLS-2005>
2.09908652305603

$$$$
12
                    3D
 Structure written by MMmdl.
162170  0  0  1  0            999 V2000
  -30.6716  -14.5293   20.5025 C   0  0  0  0  0  0
  -30.3995  -12.3161   19.4519 C   0  0  0  0  0  0
  -29.4882  -12.5049   18.2212 C   0  0  0  0  0  0
  -28.0088  -12.3660   18.6269 C   0  0  0  0  0  0
  -27.6463  -13.2176   19.8724 C   0  0  2  0  0  0
  -28.6846  -13.0393   21.0029 C   0  0  0  0  0  0
  -25.2522  -13.8207   20.5719 C   0  0  0  0  0  0
  -24.1789  -13.0450   20.9196 C   0  0  0  0  0  0
  -24.6357  -11.6917   20.8772 C   0  0  0  0  0  0
  -23.9035  -10.4296   21.0446 C   0  0  0  0  0  0
  -24.3609   -9.4206   21.9209 C   0  0  0  0  0  0
  -23.6296   -8.2233   22.0777 C   0  0  0  0  0  0
  -22.4286   -8.0285   21.3553 C   0  0  0  0  0  0
  -21.9905   -9.0252   20.4653 C   0  0  0  0  0  0
  -22.7227  -10.2139   20.3075 C   0  0  0  0  0  0
  -21.6862   -6.0735   22.5277 C   0  0  0  0  0  0
  -21.4019   -6.5642   23.8216 C   0  0  0  0  0  0
  -21.3669   -5.6805   24.9182 C   0  0  0  0  0  0
  -21.6042   -4.3067   24.7231 C   0  0  0  0  0  0
  -21.8818   -3.8147   23.4357 C   0  0  0  0  0  0
  -21.9210   -4.6955   22.3414 C   0  0  0  0  0  0
  -22.7818  -13.5237   21.1855 C   0  0  0  0  0  0
  -22.1675   -4.2137   21.0983 F   0  0  0  0  0  0
  -21.5623   -3.4550   25.7744 F   0  0  0  0  0  0
  -30.0105  -13.3370   20.4447 N   0  0  0  0  0  0
  -26.2926  -12.9372   20.3365 N   0  0  0  0  0  0
  -25.9278  -11.6518   20.5793 N   0  0  0  0  0  0
  -22.0490  -12.8192   22.0414 N   0  0  0  0  0  0
  -25.4245  -15.1933   20.4143 N   0  0  0  0  0  0
  -31.8470  -14.6264   20.1375 O   0  0  0  0  0  0
  -21.6650   -6.8885   21.4248 O   0  0  0  0  0  0
  -22.3488  -14.5560   20.6766 O   0  0  0  0  0  0
  -24.6202  -31.8607   23.2070 C   0  0  0  0  0  0
  -25.9053  -32.4792   23.8361 C   0  0  1  0  0  0
  -27.2225  -27.3757   20.1079 C   0  0  0  0  0  0
  -25.5883  -33.8586   24.2317 N   0  0  0  0  0  0
  -23.4119  -30.4856   21.5466 C   0  0  2  0  0  0
  -24.8569  -28.9390   20.1176 C   0  0  0  0  0  0
  -22.7426  -29.4659   22.4951 C   0  0  0  0  0  0
  -18.0284  -28.1394   22.8483 C   0  0  0  0  0  0
  -24.1475  -36.7316   23.2646 C   0  0  0  0  0  0
  -25.9458  -30.8079   21.3701 C   0  0  0  0  0  0
  -26.0197  -29.4372   20.7186 C   0  0  0  0  0  0
  -27.2101  -28.6626   20.7112 C   0  0  0  0  0  0
  -26.0462  -26.9095   19.4922 C   0  0  0  0  0  0
  -24.8655  -27.6763   19.5000 C   0  0  0  0  0  0
  -23.6223  -29.8128   20.1647 C   0  0  0  0  0  0
  -25.4101  -36.3120   24.0355 C   0  0  1  0  0  0
  -20.5878  -28.3702   23.1285 C   0  0  2  0  0  0
  -20.6772  -26.9425   22.5419 C   0  0  0  0  0  0
  -19.5766  -26.6403   21.5207 C   0  0  0  0  0  0
  -18.1941  -26.7948   22.1620 C   0  0  0  0  0  0
  -19.1531  -28.8867   23.2881 C   0  0  0  0  0  0
  -18.9448  -30.1454   23.8898 C   0  0  0  0  0  0
  -17.6456  -30.6591   24.0579 C   0  0  0  0  0  0
  -25.9020  -34.9472   23.5151 C   0  0  0  0  0  0
  -16.5347  -29.9087   23.6345 C   0  0  0  0  0  0
  -16.7273  -28.6516   23.0350 C   0  0  0  0  0  0
  -26.4473  -31.6574   25.0695 C   0  0  0  0  0  0
  -25.3739  -31.3643   26.1433 C   0  0  0  0  0  0
  -27.0346  -30.3022   24.6143 C   0  0  0  0  0  0
  -27.6058  -32.4273   25.7462 C   0  0  0  0  0  0
  -27.5595  -37.1809   24.8457 C   0  0  0  0  0  0
  -21.4152  -29.3060   22.3679 N   0  0  0  0  0  0
  -26.4296  -37.3802   23.9423 N   0  0  0  0  0  0
  -24.6771  -31.0675   22.0991 N   0  0  0  0  0  0
  -23.4155  -28.8178   23.3017 O   0  0  0  0  0  0
  -28.3453  -26.5657   20.0792 O   0  0  0  0  0  0
  -26.5602  -34.8931   22.4719 O   0  0  0  0  0  0
  -23.5385  -32.1363   23.7466 O   0  0  0  0  0  0
  -30.6485  -18.7556   18.6056 C   0  0  0  0  0  0
  -30.0306  -19.1954   19.7469 C   0  0  0  0  0  0
  -30.0915  -16.9080   20.1268 C   0  0  0  0  0  0
  -28.8452  -21.2398   22.1025 C   0  0  0  0  0  0
  -30.6387  -20.4794   23.7378 C   0  0  0  0  0  0
  -29.3051  -23.1435   18.6831 C   0  0  0  0  0  0
  -30.1261  -21.6155   22.8493 C   0  0  0  0  0  0
  -27.9341  -24.0131   20.6360 C   0  0  0  0  0  0
  -28.3705  -25.4793   21.0449 C   0  0  0  0  0  0
  -28.8466  -21.4402   20.5775 C   0  0  1  0  0  0
  -29.0511  -22.9833   20.1956 C   0  0  1  0  0  0
  -29.6585  -18.1137   20.5971 N   0  0  0  0  0  0
  -29.8975  -20.5974   19.9716 N   0  0  0  0  0  0
  -29.9384  -15.6383   20.7996 N   0  0  0  0  0  0
  -27.8814  -20.7804   22.7186 O   0  0  0  0  0  0
  -30.8357  -17.0342   18.5340 S   0  0  0  0  0  0
  -31.4485  -12.3876   19.1594 H   0  0  0  0  0  0
  -30.2730  -11.3142   19.8665 H   0  0  0  0  0  0
  -29.7281  -11.7733   17.4503 H   0  0  0  0  0  0
  -29.6587  -13.4870   17.7788 H   0  0  0  0  0  0
  -27.8173  -11.3112   18.8315 H   0  0  0  0  0  0
  -27.3651  -12.6364   17.7898 H   0  0  0  0  0  0
  -27.6763  -14.2597   19.5545 H   0  0  0  0  0  0
  -28.6596  -12.0170   21.3844 H   0  0  0  0  0  0
  -28.4476  -13.6752   21.8569 H   0  0  0  0  0  0
  -25.2770   -9.5682   22.4747 H   0  0  0  0  0  0
  -24.0027   -7.4634   22.7480 H   0  0  0  0  0  0
  -21.0859   -8.8776   19.8935 H   0  0  0  0  0  0
  -22.3736  -10.9672   19.6165 H   0  0  0  0  0  0
  -21.2003   -7.6151   23.9711 H   0  0  0  0  0  0
  -21.1491   -6.0537   25.9089 H   0  0  0  0  0  0
  -22.0592   -2.7594   23.2867 H   0  0  0  0  0  0
  -22.4170  -11.9845   22.4702 H   0  0  0  0  0  0
  -21.1119  -13.1188   22.2696 H   0  0  0  0  0  0
  -24.6533  -15.8477   20.5034 H   0  0  0  0  0  0
  -26.2734  -15.6293   20.0759 H   0  0  0  0  0  0
  -26.7114  -32.5494   23.1114 H   0  0  0  0  0  0
  -24.9977  -33.9688   25.0432 H   0  0  0  0  0  0
  -22.7047  -31.3050   21.4007 H   0  0  0  0  0  0
  -23.3760  -35.9612   23.3276 H   0  0  0  0  0  0
  -24.3587  -36.8973   22.2063 H   0  0  0  0  0  0
  -23.7183  -37.6502   23.6667 H   0  0  0  0  0  0
  -26.0660  -31.5733   20.6005 H   0  0  0  0  0  0
  -26.8291  -30.8591   21.9955 H   0  0  0  0  0  0
  -28.1080  -29.0402   21.1798 H   0  0  0  0  0  0
  -26.0403  -25.9439   19.0074 H   0  0  0  0  0  0
  -23.9718  -27.2885   19.0315 H   0  0  0  0  0  0
  -23.7400  -30.5806   19.4003 H   0  0  0  0  0  0
  -22.7439  -29.2343   19.8725 H   0  0  0  0  0  0
  -25.1277  -36.1996   25.0849 H   0  0  0  0  0  0
  -20.9966  -28.3305   24.1408 H   0  0  0  0  0  0
  -20.5692  -26.2303   23.3616 H   0  0  0  0  0  0
  -21.6636  -26.7462   22.1207 H   0  0  0  0  0  0
  -19.6929  -25.6311   21.1242 H   0  0  0  0  0  0
  -19.6724  -27.3213   20.6736 H   0  0  0  0  0  0
  -17.4205  -26.6697   21.4019 H   0  0  0  0  0  0
  -18.0346  -26.0069   22.9000 H   0  0  0  0  0  0
  -19.7910  -30.7279   24.2266 H   0  0  0  0  0  0
  -17.5005  -31.6273   24.5182 H   0  0  0  0  0  0
  -15.5359  -30.2992   23.7663 H   0  0  0  0  0  0
  -15.8682  -28.0855   22.7043 H   0  0  0  0  0  0
  -24.5899  -30.7023   25.7753 H   0  0  0  0  0  0
  -24.8913  -32.2748   26.4968 H   0  0  0  0  0  0
  -25.8061  -30.8729   27.0152 H   0  0  0  0  0  0
  -26.2923  -29.6721   24.1230 H   0  0  0  0  0  0
  -27.4139  -29.7331   25.4647 H   0  0  0  0  0  0
  -27.8728  -30.4363   23.9309 H   0  0  0  0  0  0
  -27.2711  -33.3546   26.2122 H   0  0  0  0  0  0
  -28.3814  -32.6867   25.0245 H   0  0  0  0  0  0
  -28.0774  -31.8322   26.5301 H   0  0  0  0  0  0
  -28.2594  -38.0130   24.7558 H   0  0  0  0  0  0
  -28.1118  -36.2665   24.6217 H   0  0  0  0  0  0
  -27.2308  -37.1385   25.8857 H   0  0  0  0  0  0
  -20.9312  -29.8761   21.6876 H   0  0  0  0  0  0
  -26.0208  -38.2891   24.1423 H   0  0  0  0  0  0
  -31.0287  -19.3459   17.7836 H   0  0  0  0  0  0
  -31.6374  -20.7027   24.1087 H   0  0  0  0  0  0
  -30.6905  -19.5433   23.1801 H   0  0  0  0  0  0
  -29.9859  -20.3295   24.5974 H   0  0  0  0  0  0
  -29.3910  -24.1949   18.4119 H   0  0  0  0  0  0
  -28.4902  -22.7150   18.0973 H   0  0  0  0  0  0
  -30.2320  -22.6658   18.3670 H   0  0  0  0  0  0
  -29.9472  -22.5132   23.4419 H   0  0  0  0  0  0
  -30.8952  -21.8627   22.1163 H   0  0  0  0  0  0
  -27.1318  -24.0495   19.8972 H   0  0  0  0  0  0
  -27.4574  -23.5961   21.5238 H   0  0  0  0  0  0
  -29.3769  -25.4498   21.4619 H   0  0  0  0  0  0
  -27.7548  -25.7836   21.8931 H   0  0  0  0  0  0
  -27.8859  -21.1012   20.1793 H   0  0  0  0  0  0
  -29.9627  -23.3122   20.6944 H   0  0  0  0  0  0
  -30.5206  -21.1521   19.4015 H   0  0  0  0  0  0
  -29.0835  -15.4952   21.3130 H   0  0  0  0  0  0
  1 25  1  0  0  0
  1 30  2  0  0  0
  1 84  1  0  0  0
  2  3  1  0  0  0
  2 25  1  0  0  0
  2 87  1  0  0  0
  2 88  1  0  0  0
  3  4  1  0  0  0
  3 89  1  0  0  0
  3 90  1  0  0  0
  4  5  1  0  0  0
  4 91  1  0  0  0
  4 92  1  0  0  0
  5  6  1  0  0  0
  5 26  1  0  0  0
  5 93  1  0  0  0
  6 25  1  0  0  0
  6 94  1  0  0  0
  6 95  1  0  0  0
  7  8  2  0  0  0
  7 26  1  0  0  0
  7 29  1  0  0  0
  8  9  1  0  0  0
  8 22  1  0  0  0
  9 10  1  0  0  0
  9 27  2  0  0  0
 10 11  2  0  0  0
 10 15  1  0  0  0
 11 12  1  0  0  0
 11 96  1  0  0  0
 12 13  2  0  0  0
 12 97  1  0  0  0
 13 14  1  0  0  0
 13 31  1  0  0  0
 14 15  2  0  0  0
 14 98  1  0  0  0
 15 99  1  0  0  0
 16 17  2  0  0  0
 16 21  1  0  0  0
 16 31  1  0  0  0
 17 18  1  0  0  0
 17100  1  0  0  0
 18 19  2  0  0  0
 18101  1  0  0  0
 19 20  1  0  0  0
 19 24  1  0  0  0
 20 21  2  0  0  0
 20102  1  0  0  0
 21 23  1  0  0  0
 22 28  1  0  0  0
 22 32  2  0  0  0
 26 27  1  0  0  0
 28103  1  0  0  0
 28104  1  0  0  0
 29105  1  0  0  0
 29106  1  0  0  0
 33 34  1  0  0  0
 33 66  1  0  0  0
 33 70  2  0  0  0
 34 36  1  0  0  0
 34 59  1  0  0  0
 34107  1  0  0  0
 35 44  2  0  0  0
 35 45  1  0  0  0
 35 68  1  0  0  0
 36 56  1  0  0  0
 36108  1  0  0  0
 37 39  1  0  0  0
 37 47  1  0  0  0
 37 66  1  0  0  0
 37109  1  0  0  0
 38 43  2  0  0  0
 38 46  1  0  0  0
 38 47  1  0  0  0
 39 64  1  0  0  0
 39 67  2  0  0  0
 40 52  1  0  0  0
 40 53  2  0  0  0
 40 58  1  0  0  0
 41110  1  0  0  0
 41111  1  0  0  0
 41112  1  0  0  0
 41 48  1  0  0  0
 42 43  1  0  0  0
 42 66  1  0  0  0
 42113  1  0  0  0
 42114  1  0  0  0
 43 44  1  0  0  0
 44115  1  0  0  0
 45 46  2  0  0  0
 45116  1  0  0  0
 46117  1  0  0  0
 47118  1  0  0  0
 47119  1  0  0  0
 48 56  1  0  0  0
 48 65  1  0  0  0
 48120  1  0  0  0
 49 50  1  0  0  0
 49 53  1  0  0  0
 49 64  1  0  0  0
 49121  1  0  0  0
 50 51  1  0  0  0
 50122  1  0  0  0
 50123  1  0  0  0
 51 52  1  0  0  0
 51124  1  0  0  0
 51125  1  0  0  0
 52126  1  0  0  0
 52127  1  0  0  0
 53 54  1  0  0  0
 54 55  2  0  0  0
 54128  1  0  0  0
 55 57  1  0  0  0
 55129  1  0  0  0
 56 69  2  0  0  0
 57 58  2  0  0  0
 57130  1  0  0  0
 58131  1  0  0  0
 59 60  1  0  0  0
 59 61  1  0  0  0
 59 62  1  0  0  0
 60132  1  0  0  0
 60133  1  0  0  0
 60134  1  0  0  0
 61135  1  0  0  0
 61136  1  0  0  0
 61137  1  0  0  0
 62138  1  0  0  0
 62139  1  0  0  0
 62140  1  0  0  0
 63 65  1  0  0  0
 63141  1  0  0  0
 63142  1  0  0  0
 63143  1  0  0  0
 64144  1  0  0  0
 65145  1  0  0  0
 68 79  1  0  0  0
 71 72  2  0  0  0
 71 86  1  0  0  0
 71146  1  0  0  0
 72 82  1  0  0  0
 72 83  1  0  0  0
 73 82  2  0  0  0
 73 84  1  0  0  0
 73 86  1  0  0  0
 74 77  1  0  0  0
 74 80  1  0  0  0
 74 85  2  0  0  0
 75 77  1  0  0  0
 75147  1  0  0  0
 75148  1  0  0  0
 75149  1  0  0  0
 76150  1  0  0  0
 76151  1  0  0  0
 76152  1  0  0  0
 76 81  1  0  0  0
 77153  1  0  0  0
 77154  1  0  0  0
 78 79  1  0  0  0
 78 81  1  0  0  0
 78155  1  0  0  0
 78156  1  0  0  0
 79157  1  0  0  0
 79158  1  0  0  0
 80 81  1  0  0  0
 80 83  1  0  0  0
 80159  1  0  0  0
 81160  1  0  0  0
 83161  1  0  0  0
 84162  1  0  0  0
M  ISO  4   1 100  68 101  79 101  84 100
M  END
> <chiral flag>
0

> <version>
0

> <s_m_source_file>
/data/baiqing/PycharmProjects/Reinvent-master-3.2/result/LINK_invent/BTK/process_docking_weight1_custom_product_contain_oxygen_bond_distance_aromatic_linkinvent_7_9_3/rearranged_h_0197.sdf

> <i_m_source_file_index>
13

> <r_mmod_Potential_Energy-OPLS-2005>
-84.4461517333984

> <r_mmod_Stretch_Energy-OPLS-2005>
57.1685485839844

> <r_mmod_Bend_Energy-OPLS-2005>
144.536636352539

> <r_mmod_Torsional_Energy-OPLS-2005>
274.041351318359

> <r_mmod_Improper_Torsional_Energy-OPLS-2005>
6.13053321838379

> <r_mmod_Van_der_Waal_Energy-OPLS-2005>
121.059204101562

> <r_mmod_Electrostatic_Energy-OPLS-2005>
-483.893157958984

> <r_mmod_Solvation_Energy-OPLS-2005>
-228.882751464844

> <b_mmod_Minimization_Converged-OPLS-2005>
0

> <r_mmod_RMS_Derivative-OPLS-2005>
4.07200336456299

$$$$
13
                    3D
 Structure written by MMmdl.
156164  0  0  1  0            999 V2000
  -30.6859  -14.5410   20.4644 C   0  0  0  0  0  0
  -30.4179  -12.3228   19.4445 C   0  0  0  0  0  0
  -29.5043  -12.4912   18.2133 C   0  0  0  0  0  0
  -28.0201  -12.3664   18.6168 C   0  0  0  0  0  0
  -27.6540  -13.2235   19.8607 C   0  0  2  0  0  0
  -28.6995  -13.0687   20.9896 C   0  0  0  0  0  0
  -25.2551  -13.8212   20.5688 C   0  0  0  0  0  0
  -24.1837  -13.0454   20.9199 C   0  0  0  0  0  0
  -24.6414  -11.6933   20.8730 C   0  0  0  0  0  0
  -23.9091  -10.4311   21.0374 C   0  0  0  0  0  0
  -24.3641   -9.4241   21.9164 C   0  0  0  0  0  0
  -23.6323   -8.2266   22.0743 C   0  0  0  0  0  0
  -22.4294   -8.0281   21.3527 C   0  0  0  0  0  0
  -21.9938   -9.0274   20.4639 C   0  0  0  0  0  0
  -22.7257  -10.2149   20.3044 C   0  0  0  0  0  0
  -21.6871   -6.0732   22.5264 C   0  0  0  0  0  0
  -21.4040   -6.5641   23.8190 C   0  0  0  0  0  0
  -21.3662   -5.6781   24.9156 C   0  0  0  0  0  0
  -21.6044   -4.3042   24.7195 C   0  0  0  0  0  0
  -21.8827   -3.8137   23.4317 C   0  0  0  0  0  0
  -21.9218   -4.6968   22.3373 C   0  0  0  0  0  0
  -22.7854  -13.5221   21.1844 C   0  0  0  0  0  0
  -22.1660   -4.2139   21.0962 F   0  0  0  0  0  0
  -21.5633   -3.4527   25.7719 F   0  0  0  0  0  0
  -30.0244  -13.3500   20.4208 N   0  0  0  0  0  0
  -26.3001  -12.9403   20.3320 N   0  0  0  0  0  0
  -25.9361  -11.6553   20.5769 N   0  0  0  0  0  0
  -22.0506  -12.8223   22.0418 N   0  0  0  0  0  0
  -25.4245  -15.1948   20.4098 N   0  0  0  0  0  0
  -31.8710  -14.6380   20.1406 O   0  0  0  0  0  0
  -21.6667   -6.8878   21.4215 O   0  0  0  0  0  0
  -22.3516  -14.5505   20.6672 O   0  0  0  0  0  0
  -24.6154  -31.8673   23.2060 C   0  0  0  0  0  0
  -25.9053  -32.4813   23.8371 C   0  0  1  0  0  0
  -27.2176  -27.4028   20.1182 C   0  0  0  0  0  0
  -25.5889  -33.8617   24.2273 N   0  0  0  0  0  0
  -23.4054  -30.4914   21.5479 C   0  0  2  0  0  0
  -24.8483  -28.9474   20.1172 C   0  0  0  0  0  0
  -22.7423  -29.4685   22.4980 C   0  0  0  0  0  0
  -18.0265  -28.1410   22.8464 C   0  0  0  0  0  0
  -24.1488  -36.7323   23.2638 C   0  0  0  0  0  0
  -25.9374  -30.8214   21.3675 C   0  0  0  0  0  0
  -26.0111  -29.4547   20.7127 C   0  0  0  0  0  0
  -27.2034  -28.6918   20.7032 C   0  0  0  0  0  0
  -26.0392  -26.9100   19.5251 C   0  0  0  0  0  0
  -24.8575  -27.6750   19.5199 C   0  0  0  0  0  0
  -23.6151  -29.8216   20.1628 C   0  0  0  0  0  0
  -25.4113  -36.3113   24.0321 C   0  0  1  0  0  0
  -20.5861  -28.3710   23.1297 C   0  0  2  0  0  0
  -20.6778  -26.9444   22.5418 C   0  0  0  0  0  0
  -19.5755  -26.6401   21.5219 C   0  0  0  0  0  0
  -18.1925  -26.7949   22.1614 C   0  0  0  0  0  0
  -19.1520  -28.8869   23.2873 C   0  0  0  0  0  0
  -18.9458  -30.1474   23.8885 C   0  0  0  0  0  0
  -17.6473  -30.6616   24.0577 C   0  0  0  0  0  0
  -25.9052  -34.9486   23.5099 C   0  0  0  0  0  0
  -16.5353  -29.9127   23.6336 C   0  0  0  0  0  0
  -16.7265  -28.6554   23.0318 C   0  0  0  0  0  0
  -26.4444  -31.6626   25.0745 C   0  0  0  0  0  0
  -25.3682  -31.3800   26.1487 C   0  0  0  0  0  0
  -27.0289  -30.3037   24.6234 C   0  0  0  0  0  0
  -27.5996  -32.4372   25.7512 C   0  0  0  0  0  0
  -27.5587  -37.1814   24.8444 C   0  0  0  0  0  0
  -21.4156  -29.3060   22.3696 N   0  0  0  0  0  0
  -26.4283  -37.3812   23.9410 N   0  0  0  0  0  0
  -24.6712  -31.0751   22.0975 N   0  0  0  0  0  0
  -23.4172  -28.8242   23.3050 O   0  0  0  0  0  0
  -28.3592  -26.6288   20.1074 O   0  0  0  0  0  0
  -26.5651  -34.8944   22.4680 O   0  0  0  0  0  0
  -23.5344  -32.1438   23.7446 O   0  0  0  0  0  0
  -30.9929  -17.2141   19.0812 C   0  0  0  0  0  0
  -30.1462  -16.9860   20.2064 C   0  0  0  0  0  0
  -30.6965  -19.4850   19.2214 C   0  0  0  0  0  0
  -29.8093  -19.3118   20.3169 C   0  0  0  0  0  0
  -28.1982  -24.0693   20.1414 C   0  0  0  0  0  0
  -28.4486  -21.4049   20.3788 C   0  0  0  0  0  0
  -28.3150  -25.4263   20.9129 C   0  0  0  0  0  0
  -28.8099  -22.8373   20.8953 C   0  0  1  0  0  0
  -31.2692  -18.4451   18.5917 N   0  0  0  0  0  0
  -29.5286  -18.0634   20.7921 N   0  0  0  0  0  0
  -31.0596  -20.7429   18.7614 N   0  0  0  0  0  0
  -29.9195  -15.6403   20.6781 N   0  0  0  0  0  0
  -29.3221  -20.4190   21.0399 N   0  0  0  0  0  0
  -30.2311  -22.8979   20.8324 O   0  0  0  0  0  0
  -31.4669  -12.3995   19.1530 H   0  0  0  0  0  0
  -30.2968  -11.3300   19.8780 H   0  0  0  0  0  0
  -29.7533  -11.7441   17.4591 H   0  0  0  0  0  0
  -29.6781  -13.4629   17.7475 H   0  0  0  0  0  0
  -27.8277  -11.3144   18.8234 H   0  0  0  0  0  0
  -27.3755  -12.6275   17.7742 H   0  0  0  0  0  0
  -27.6753  -14.2628   19.5339 H   0  0  0  0  0  0
  -28.6841  -12.0562   21.3948 H   0  0  0  0  0  0
  -28.4707  -13.7334   21.8257 H   0  0  0  0  0  0
  -25.2784   -9.5734   22.4740 H   0  0  0  0  0  0
  -24.0039   -7.4671   22.7479 H   0  0  0  0  0  0
  -21.0848   -8.8780   19.8973 H   0  0  0  0  0  0
  -22.3679  -10.9689   19.6153 H   0  0  0  0  0  0
  -21.2027   -7.6148   23.9684 H   0  0  0  0  0  0
  -21.1479   -6.0516   25.9052 H   0  0  0  0  0  0
  -22.0612   -2.7603   23.2817 H   0  0  0  0  0  0
  -22.4121  -11.9890   22.4797 H   0  0  0  0  0  0
  -21.1125  -13.1215   22.2604 H   0  0  0  0  0  0
  -24.6567  -15.8486   20.5267 H   0  0  0  0  0  0
  -26.2743  -15.6408   20.0864 H   0  0  0  0  0  0
  -26.7142  -32.5503   23.1154 H   0  0  0  0  0  0
  -24.9965  -33.9758   25.0367 H   0  0  0  0  0  0
  -22.6959  -31.3086   21.4053 H   0  0  0  0  0  0
  -23.3760  -35.9643   23.3273 H   0  0  0  0  0  0
  -24.3585  -36.8976   22.2057 H   0  0  0  0  0  0
  -23.7221  -37.6505   23.6691 H   0  0  0  0  0  0
  -26.0624  -31.5899   20.6037 H   0  0  0  0  0  0
  -26.8189  -30.8618   21.9973 H   0  0  0  0  0  0
  -28.1028  -29.0746   21.1675 H   0  0  0  0  0  0
  -26.0346  -25.9281   19.0754 H   0  0  0  0  0  0
  -23.9624  -27.2745   19.0637 H   0  0  0  0  0  0
  -23.7263  -30.5919   19.3989 H   0  0  0  0  0  0
  -22.7378  -29.2459   19.8655 H   0  0  0  0  0  0
  -25.1296  -36.1955   25.0811 H   0  0  0  0  0  0
  -20.9927  -28.3288   24.1428 H   0  0  0  0  0  0
  -20.5686  -26.2339   23.3622 H   0  0  0  0  0  0
  -21.6652  -26.7512   22.1205 H   0  0  0  0  0  0
  -19.6938  -25.6306   21.1262 H   0  0  0  0  0  0
  -19.6687  -27.3202   20.6736 H   0  0  0  0  0  0
  -17.4204  -26.6662   21.4013 H   0  0  0  0  0  0
  -18.0336  -26.0110   22.9019 H   0  0  0  0  0  0
  -19.7950  -30.7287   24.2229 H   0  0  0  0  0  0
  -17.5050  -31.6282   24.5215 H   0  0  0  0  0  0
  -15.5361  -30.3046   23.7702 H   0  0  0  0  0  0
  -15.8647  -28.0925   22.6998 H   0  0  0  0  0  0
  -24.5775  -30.7244   25.7818 H   0  0  0  0  0  0
  -24.8975  -32.3002   26.4964 H   0  0  0  0  0  0
  -25.7975  -30.8904   27.0238 H   0  0  0  0  0  0
  -26.2896  -29.6819   24.1178 H   0  0  0  0  0  0
  -27.3863  -29.7266   25.4775 H   0  0  0  0  0  0
  -27.8803  -30.4283   23.9539 H   0  0  0  0  0  0
  -27.2566  -33.3628   26.2147 H   0  0  0  0  0  0
  -28.3775  -32.7025   25.0343 H   0  0  0  0  0  0
  -28.0722  -31.8499   26.5397 H   0  0  0  0  0  0
  -28.2584  -38.0141   24.7561 H   0  0  0  0  0  0
  -28.1109  -36.2683   24.6177 H   0  0  0  0  0  0
  -27.2329  -37.1341   25.8852 H   0  0  0  0  0  0
  -20.9351  -29.8736   21.6858 H   0  0  0  0  0  0
  -26.0167  -38.2877   24.1453 H   0  0  0  0  0  0
  -31.4749  -16.4112   18.5459 H   0  0  0  0  0  0
  -28.6599  -24.1625   19.1568 H   0  0  0  0  0  0
  -27.1402  -23.8872   19.9511 H   0  0  0  0  0  0
  -28.5277  -21.3548   19.2915 H   0  0  0  0  0  0
  -27.4107  -21.1691   20.6216 H   0  0  0  0  0  0
  -29.2378  -25.4262   21.4938 H   0  0  0  0  0  0
  -27.5223  -25.4882   21.6619 H   0  0  0  0  0  0
  -28.5106  -22.8979   21.9449 H   0  0  0  0  0  0
  -30.7990  -21.5632   19.3082 H   0  0  0  0  0  0
  -31.8178  -20.8609   18.1018 H   0  0  0  0  0  0
  -29.0152  -15.4661   21.0835 H   0  0  0  0  0  0
  -30.1329  -21.0238   21.1951 H   0  0  0  0  0  0
  -30.5211  -23.5915   21.4180 H   0  0  0  0  0  0
  1 25  1  0  0  0
  1 30  2  0  0  0
  1 82  1  0  0  0
  2  3  1  0  0  0
  2 25  1  0  0  0
  2 85  1  0  0  0
  2 86  1  0  0  0
  3  4  1  0  0  0
  3 87  1  0  0  0
  3 88  1  0  0  0
  4  5  1  0  0  0
  4 89  1  0  0  0
  4 90  1  0  0  0
  5  6  1  0  0  0
  5 26  1  0  0  0
  5 91  1  0  0  0
  6 25  1  0  0  0
  6 92  1  0  0  0
  6 93  1  0  0  0
  7  8  2  0  0  0
  7 26  1  0  0  0
  7 29  1  0  0  0
  8  9  1  0  0  0
  8 22  1  0  0  0
  9 10  1  0  0  0
  9 27  2  0  0  0
 10 11  2  0  0  0
 10 15  1  0  0  0
 11 12  1  0  0  0
 11 94  1  0  0  0
 12 13  2  0  0  0
 12 95  1  0  0  0
 13 14  1  0  0  0
 13 31  1  0  0  0
 14 15  2  0  0  0
 14 96  1  0  0  0
 15 97  1  0  0  0
 16 17  2  0  0  0
 16 21  1  0  0  0
 16 31  1  0  0  0
 17 18  1  0  0  0
 17 98  1  0  0  0
 18 19  2  0  0  0
 18 99  1  0  0  0
 19 20  1  0  0  0
 19 24  1  0  0  0
 20 21  2  0  0  0
 20100  1  0  0  0
 21 23  1  0  0  0
 22 28  1  0  0  0
 22 32  2  0  0  0
 26 27  1  0  0  0
 28101  1  0  0  0
 28102  1  0  0  0
 29103  1  0  0  0
 29104  1  0  0  0
 33 34  1  0  0  0
 33 66  1  0  0  0
 33 70  2  0  0  0
 34 36  1  0  0  0
 34 59  1  0  0  0
 34105  1  0  0  0
 35 44  2  0  0  0
 35 45  1  0  0  0
 35 68  1  0  0  0
 36 56  1  0  0  0
 36106  1  0  0  0
 37 39  1  0  0  0
 37 47  1  0  0  0
 37 66  1  0  0  0
 37107  1  0  0  0
 38 43  2  0  0  0
 38 46  1  0  0  0
 38 47  1  0  0  0
 39 64  1  0  0  0
 39 67  2  0  0  0
 40 52  1  0  0  0
 40 53  2  0  0  0
 40 58  1  0  0  0
 41108  1  0  0  0
 41109  1  0  0  0
 41110  1  0  0  0
 41 48  1  0  0  0
 42 43  1  0  0  0
 42 66  1  0  0  0
 42111  1  0  0  0
 42112  1  0  0  0
 43 44  1  0  0  0
 44113  1  0  0  0
 45 46  2  0  0  0
 45114  1  0  0  0
 46115  1  0  0  0
 47116  1  0  0  0
 47117  1  0  0  0
 48 56  1  0  0  0
 48 65  1  0  0  0
 48118  1  0  0  0
 49 50  1  0  0  0
 49 53  1  0  0  0
 49 64  1  0  0  0
 49119  1  0  0  0
 50 51  1  0  0  0
 50120  1  0  0  0
 50121  1  0  0  0
 51 52  1  0  0  0
 51122  1  0  0  0
 51123  1  0  0  0
 52124  1  0  0  0
 52125  1  0  0  0
 53 54  1  0  0  0
 54 55  2  0  0  0
 54126  1  0  0  0
 55 57  1  0  0  0
 55127  1  0  0  0
 56 69  2  0  0  0
 57 58  2  0  0  0
 57128  1  0  0  0
 58129  1  0  0  0
 59 60  1  0  0  0
 59 61  1  0  0  0
 59 62  1  0  0  0
 60130  1  0  0  0
 60131  1  0  0  0
 60132  1  0  0  0
 61133  1  0  0  0
 61134  1  0  0  0
 61135  1  0  0  0
 62136  1  0  0  0
 62137  1  0  0  0
 62138  1  0  0  0
 63 65  1  0  0  0
 63139  1  0  0  0
 63140  1  0  0  0
 63141  1  0  0  0
 64142  1  0  0  0
 65143  1  0  0  0
 68 77  1  0  0  0
 71 72  2  0  0  0
 71 79  1  0  0  0
 71144  1  0  0  0
 72 80  1  0  0  0
 72 82  1  0  0  0
 73 74  1  0  0  0
 73 79  2  0  0  0
 73 81  1  0  0  0
 74 80  2  0  0  0
 74 83  1  0  0  0
 75 77  1  0  0  0
 75 78  1  0  0  0
 75145  1  0  0  0
 75146  1  0  0  0
 76 78  1  0  0  0
 76 83  1  0  0  0
 76147  1  0  0  0
 76148  1  0  0  0
 77149  1  0  0  0
 77150  1  0  0  0
 78 84  1  0  0  0
 78151  1  0  0  0
 81152  1  0  0  0
 81153  1  0  0  0
 82154  1  0  0  0
 83155  1  0  0  0
 84156  1  0  0  0
M  ISO  4   1 100  68 101  77 101  82 100
M  END
> <chiral flag>
0

> <version>
0

> <s_m_source_file>
/data/baiqing/PycharmProjects/Reinvent-master-3.2/result/LINK_invent/BTK/process_docking_weight1_custom_product_contain_oxygen_bond_distance_aromatic_linkinvent_7_9_3/rearranged_h_0197.sdf

> <i_m_source_file_index>
14

> <r_mmod_Potential_Energy-OPLS-2005>
-161.50422668457

> <r_mmod_Stretch_Energy-OPLS-2005>
49.120002746582

> <r_mmod_Bend_Energy-OPLS-2005>
125.407264709473

> <r_mmod_Torsional_Energy-OPLS-2005>
305.007568359375

> <r_mmod_Improper_Torsional_Energy-OPLS-2005>
14.1461296081543

> <r_mmod_Van_der_Waal_Energy-OPLS-2005>
166.659713745117

> <r_mmod_Electrostatic_Energy-OPLS-2005>
-606.204406738281

> <r_mmod_Solvation_Energy-OPLS-2005>
-241.309326171875

> <b_mmod_Minimization_Converged-OPLS-2005>
0

> <r_mmod_RMS_Derivative-OPLS-2005>
3.6685905456543

$$$$
14
                    3D
 Structure written by MMmdl.
155163  0  0  1  0            999 V2000
  -30.5951  -14.8071   20.3920 C   0  0  0  0  0  0
  -30.4277  -12.4756   19.5198 C   0  0  0  0  0  0
  -29.5344  -12.5062   18.2611 C   0  0  0  0  0  0
  -28.0524  -12.3334   18.6554 C   0  0  0  0  0  0
  -27.6375  -13.2436   19.8431 C   0  0  2  0  0  0
  -28.6744  -13.2252   20.9873 C   0  0  0  0  0  0
  -25.2493  -13.8207   20.5653 C   0  0  0  0  0  0
  -24.1804  -13.0466   20.9197 C   0  0  0  0  0  0
  -24.6402  -11.6932   20.8756 C   0  0  0  0  0  0
  -23.9090  -10.4317   21.0411 C   0  0  0  0  0  0
  -24.3639   -9.4214   21.9181 C   0  0  0  0  0  0
  -23.6314   -8.2240   22.0741 C   0  0  0  0  0  0
  -22.4295   -8.0289   21.3527 C   0  0  0  0  0  0
  -21.9935   -9.0268   20.4633 C   0  0  0  0  0  0
  -22.7268  -10.2148   20.3051 C   0  0  0  0  0  0
  -21.6859   -6.0754   22.5285 C   0  0  0  0  0  0
  -21.4026   -6.5651   23.8221 C   0  0  0  0  0  0
  -21.3649   -5.6784   24.9168 C   0  0  0  0  0  0
  -21.6058   -4.3045   24.7199 C   0  0  0  0  0  0
  -21.8806   -3.8152   23.4307 C   0  0  0  0  0  0
  -21.9183   -4.6980   22.3382 C   0  0  0  0  0  0
  -22.7807  -13.5230   21.1828 C   0  0  0  0  0  0
  -22.1650   -4.2163   21.0978 F   0  0  0  0  0  0
  -21.5621   -3.4539   25.7719 F   0  0  0  0  0  0
  -29.9716  -13.5743   20.4006 N   0  0  0  0  0  0
  -26.2932  -12.9445   20.3222 N   0  0  0  0  0  0
  -25.9356  -11.6568   20.5726 N   0  0  0  0  0  0
  -22.0420  -12.8285   22.0389 N   0  0  0  0  0  0
  -25.4208  -15.1927   20.4024 N   0  0  0  0  0  0
  -31.8012  -14.8371   20.1463 O   0  0  0  0  0  0
  -21.6647   -6.8903   21.4256 O   0  0  0  0  0  0
  -22.3493  -14.5537   20.6642 O   0  0  0  0  0  0
  -24.6305  -31.8584   23.2006 C   0  0  0  0  0  0
  -25.9127  -32.4797   23.8358 C   0  0  1  0  0  0
  -27.2203  -27.2878   20.1105 C   0  0  0  0  0  0
  -25.5942  -33.8600   24.2288 N   0  0  0  0  0  0
  -23.4249  -30.4813   21.5447 C   0  0  2  0  0  0
  -24.8711  -28.9308   20.1116 C   0  0  0  0  0  0
  -22.7501  -29.4606   22.4917 C   0  0  0  0  0  0
  -18.0292  -28.1391   22.8493 C   0  0  0  0  0  0
  -24.1476  -36.7291   23.2631 C   0  0  0  0  0  0
  -25.9684  -30.7817   21.3709 C   0  0  0  0  0  0
  -26.0437  -29.4020   20.7180 C   0  0  0  0  0  0
  -27.2240  -28.5929   20.7062 C   0  0  0  0  0  0
  -26.0287  -26.8792   19.4764 C   0  0  0  0  0  0
  -24.8679  -27.6778   19.4796 C   0  0  0  0  0  0
  -23.6435  -29.8216   20.1593 C   0  0  0  0  0  0
  -25.4109  -36.3099   24.0327 C   0  0  1  0  0  0
  -20.5895  -28.3707   23.1295 C   0  0  2  0  0  0
  -20.6786  -26.9424   22.5441 C   0  0  0  0  0  0
  -19.5769  -26.6374   21.5238 C   0  0  0  0  0  0
  -18.1933  -26.7931   22.1630 C   0  0  0  0  0  0
  -19.1540  -28.8866   23.2892 C   0  0  0  0  0  0
  -18.9454  -30.1458   23.8904 C   0  0  0  0  0  0
  -17.6450  -30.6587   24.0566 C   0  0  0  0  0  0
  -25.9050  -34.9467   23.5103 C   0  0  0  0  0  0
  -16.5348  -29.9093   23.6311 C   0  0  0  0  0  0
  -16.7269  -28.6519   23.0329 C   0  0  0  0  0  0
  -26.4487  -31.6603   25.0730 C   0  0  0  0  0  0
  -25.3706  -31.3748   26.1456 C   0  0  0  0  0  0
  -27.0303  -30.3036   24.6123 C   0  0  0  0  0  0
  -27.6056  -32.4320   25.7507 C   0  0  0  0  0  0
  -27.5582  -37.1813   24.8456 C   0  0  0  0  0  0
  -21.4203  -29.3065   22.3706 N   0  0  0  0  0  0
  -26.4281  -37.3808   23.9413 N   0  0  0  0  0  0
  -24.6942  -31.0566   22.0974 N   0  0  0  0  0  0
  -23.4221  -28.8122   23.2973 O   0  0  0  0  0  0
  -28.3242  -26.4111   20.0920 O   0  0  0  0  0  0
  -26.5614  -34.8929   22.4659 O   0  0  0  0  0  0
  -23.5451  -32.1403   23.7303 O   0  0  0  0  0  0
  -31.3486  -17.6508   19.3700 C   0  0  0  0  0  0
  -30.1336  -17.3983   20.0665 C   0  0  0  0  0  0
  -30.9785  -19.9279   19.2615 C   0  0  0  0  0  0
  -29.7144  -19.8081   19.8864 C   0  0  0  0  0  0
  -30.0244  -22.3817   21.6273 C   0  0  0  0  0  0
  -28.7652  -23.7028   19.7770 C   0  0  0  0  0  0
  -28.1336  -24.9924   20.5369 C   0  0  0  0  0  0
  -28.8961  -22.2995   20.5897 C   0  0  1  0  0  0
  -31.7808  -18.8814   19.0009 N   0  0  0  0  0  0
  -29.3069  -18.5223   20.2737 N   0  0  0  0  0  0
  -31.3881  -21.1343   18.7256 N   0  0  0  0  0  0
  -29.8298  -15.9822   20.4664 N   0  0  0  0  0  0
  -28.8206  -20.9537   19.8762 N   0  0  0  0  0  0
  -31.4799  -12.5702   19.2525 H   0  0  0  0  0  0
  -30.3396  -11.5170   20.0317 H   0  0  0  0  0  0
  -29.8450  -11.7254   17.5683 H   0  0  0  0  0  0
  -29.6727  -13.4546   17.7375 H   0  0  0  0  0  0
  -27.9078  -11.2882   18.9312 H   0  0  0  0  0  0
  -27.4087  -12.5153   17.7928 H   0  0  0  0  0  0
  -27.6184  -14.2578   19.4419 H   0  0  0  0  0  0
  -28.7088  -12.2446   21.4638 H   0  0  0  0  0  0
  -28.3969  -13.9362   21.7664 H   0  0  0  0  0  0
  -25.2767   -9.5704   22.4769 H   0  0  0  0  0  0
  -24.0016   -7.4635   22.7489 H   0  0  0  0  0  0
  -21.0834   -8.8801   19.8958 H   0  0  0  0  0  0
  -22.3712  -10.9691   19.6167 H   0  0  0  0  0  0
  -21.2051   -7.6151   23.9739 H   0  0  0  0  0  0
  -21.1490   -6.0506   25.9084 H   0  0  0  0  0  0
  -22.0599   -2.7614   23.2806 H   0  0  0  0  0  0
  -22.3988  -11.9985   22.4895 H   0  0  0  0  0  0
  -21.1039  -13.1365   22.2540 H   0  0  0  0  0  0
  -24.6529  -15.8507   20.4879 H   0  0  0  0  0  0
  -26.2706  -15.6224   20.0623 H   0  0  0  0  0  0
  -26.7204  -32.5463   23.1115 H   0  0  0  0  0  0
  -25.0170  -33.9757   25.0489 H   0  0  0  0  0  0
  -22.7213  -31.3042   21.4023 H   0  0  0  0  0  0
  -23.3770  -35.9597   23.3278 H   0  0  0  0  0  0
  -24.3578  -36.8936   22.2057 H   0  0  0  0  0  0
  -23.7189  -37.6465   23.6667 H   0  0  0  0  0  0
  -26.0847  -31.5386   20.5938 H   0  0  0  0  0  0
  -26.8574  -30.8505   21.9879 H   0  0  0  0  0  0
  -28.1264  -28.9525   21.1824 H   0  0  0  0  0  0
  -25.9938  -25.9244   18.9715 H   0  0  0  0  0  0
  -23.9750  -27.3176   18.9883 H   0  0  0  0  0  0
  -23.7792  -30.6041   19.4108 H   0  0  0  0  0  0
  -22.7606  -29.2636   19.8434 H   0  0  0  0  0  0
  -25.1283  -36.1963   25.0820 H   0  0  0  0  0  0
  -20.9988  -28.3286   24.1414 H   0  0  0  0  0  0
  -20.5694  -26.2317   23.3651 H   0  0  0  0  0  0
  -21.6652  -26.7455   22.1235 H   0  0  0  0  0  0
  -19.6926  -25.6271   21.1299 H   0  0  0  0  0  0
  -19.6703  -27.3167   20.6756 H   0  0  0  0  0  0
  -17.4219  -26.6705   21.4004 H   0  0  0  0  0  0
  -18.0290  -26.0069   22.9020 H   0  0  0  0  0  0
  -19.7915  -30.7281   24.2284 H   0  0  0  0  0  0
  -17.4988  -31.6258   24.5185 H   0  0  0  0  0  0
  -15.5342  -30.2997   23.7590 H   0  0  0  0  0  0
  -15.8683  -28.0840   22.7002 H   0  0  0  0  0  0
  -24.5874  -30.7105   25.7791 H   0  0  0  0  0  0
  -24.8894  -32.2914   26.4871 H   0  0  0  0  0  0
  -25.8020  -30.8938   27.0241 H   0  0  0  0  0  0
  -26.2852  -29.6840   24.1122 H   0  0  0  0  0  0
  -27.4012  -29.7234   25.4575 H   0  0  0  0  0  0
  -27.8713  -30.4356   23.9318 H   0  0  0  0  0  0
  -27.2687  -33.3635   26.2067 H   0  0  0  0  0  0
  -28.3880  -32.6862   25.0345 H   0  0  0  0  0  0
  -28.0701  -31.8451   26.5438 H   0  0  0  0  0  0
  -28.2586  -38.0128   24.7542 H   0  0  0  0  0  0
  -28.1089  -36.2659   24.6222 H   0  0  0  0  0  0
  -27.2311  -37.1399   25.8863 H   0  0  0  0  0  0
  -20.9368  -29.8877   21.7007 H   0  0  0  0  0  0
  -26.0157  -38.2874   24.1467 H   0  0  0  0  0  0
  -32.0063  -16.8675   19.0400 H   0  0  0  0  0  0
  -29.8558  -23.2371   22.2819 H   0  0  0  0  0  0
  -31.0030  -22.5307   21.1709 H   0  0  0  0  0  0
  -30.0651  -21.4995   22.2650 H   0  0  0  0  0  0
  -29.7556  -23.9774   19.4114 H   0  0  0  0  0  0
  -28.1645  -23.5387   18.8813 H   0  0  0  0  0  0
  -28.5161  -24.9860   21.5576 H   0  0  0  0  0  0
  -27.0694  -24.7880   20.6590 H   0  0  0  0  0  0
  -27.9745  -22.2619   21.1690 H   0  0  0  0  0  0
  -30.5892  -21.7644   18.7133 H   0  0  0  0  0  0
  -31.8564  -21.0422   17.8324 H   0  0  0  0  0  0
  -28.8882  -15.8448   20.7984 H   0  0  0  0  0  0
  -27.8606  -20.6296   19.8798 H   0  0  0  0  0  0
  1 25  1  0  0  0
  1 30  2  0  0  0
  1 82  1  0  0  0
  2  3  1  0  0  0
  2 25  1  0  0  0
  2 84  1  0  0  0
  2 85  1  0  0  0
  3  4  1  0  0  0
  3 86  1  0  0  0
  3 87  1  0  0  0
  4  5  1  0  0  0
  4 88  1  0  0  0
  4 89  1  0  0  0
  5  6  1  0  0  0
  5 26  1  0  0  0
  5 90  1  0  0  0
  6 25  1  0  0  0
  6 91  1  0  0  0
  6 92  1  0  0  0
  7  8  2  0  0  0
  7 26  1  0  0  0
  7 29  1  0  0  0
  8  9  1  0  0  0
  8 22  1  0  0  0
  9 10  1  0  0  0
  9 27  2  0  0  0
 10 11  2  0  0  0
 10 15  1  0  0  0
 11 12  1  0  0  0
 11 93  1  0  0  0
 12 13  2  0  0  0
 12 94  1  0  0  0
 13 14  1  0  0  0
 13 31  1  0  0  0
 14 15  2  0  0  0
 14 95  1  0  0  0
 15 96  1  0  0  0
 16 17  2  0  0  0
 16 21  1  0  0  0
 16 31  1  0  0  0
 17 18  1  0  0  0
 17 97  1  0  0  0
 18 19  2  0  0  0
 18 98  1  0  0  0
 19 20  1  0  0  0
 19 24  1  0  0  0
 20 21  2  0  0  0
 20 99  1  0  0  0
 21 23  1  0  0  0
 22 28  1  0  0  0
 22 32  2  0  0  0
 26 27  1  0  0  0
 28100  1  0  0  0
 28101  1  0  0  0
 29102  1  0  0  0
 29103  1  0  0  0
 33 34  1  0  0  0
 33 66  1  0  0  0
 33 70  2  0  0  0
 34 36  1  0  0  0
 34 59  1  0  0  0
 34104  1  0  0  0
 35 44  2  0  0  0
 35 45  1  0  0  0
 35 68  1  0  0  0
 36 56  1  0  0  0
 36105  1  0  0  0
 37 39  1  0  0  0
 37 47  1  0  0  0
 37 66  1  0  0  0
 37106  1  0  0  0
 38 43  2  0  0  0
 38 46  1  0  0  0
 38 47  1  0  0  0
 39 64  1  0  0  0
 39 67  2  0  0  0
 40 52  1  0  0  0
 40 53  2  0  0  0
 40 58  1  0  0  0
 41107  1  0  0  0
 41108  1  0  0  0
 41109  1  0  0  0
 41 48  1  0  0  0
 42 43  1  0  0  0
 42 66  1  0  0  0
 42110  1  0  0  0
 42111  1  0  0  0
 43 44  1  0  0  0
 44112  1  0  0  0
 45 46  2  0  0  0
 45113  1  0  0  0
 46114  1  0  0  0
 47115  1  0  0  0
 47116  1  0  0  0
 48 56  1  0  0  0
 48 65  1  0  0  0
 48117  1  0  0  0
 49 50  1  0  0  0
 49 53  1  0  0  0
 49 64  1  0  0  0
 49118  1  0  0  0
 50 51  1  0  0  0
 50119  1  0  0  0
 50120  1  0  0  0
 51 52  1  0  0  0
 51121  1  0  0  0
 51122  1  0  0  0
 52123  1  0  0  0
 52124  1  0  0  0
 53 54  1  0  0  0
 54 55  2  0  0  0
 54125  1  0  0  0
 55 57  1  0  0  0
 55126  1  0  0  0
 56 69  2  0  0  0
 57 58  2  0  0  0
 57127  1  0  0  0
 58128  1  0  0  0
 59 60  1  0  0  0
 59 61  1  0  0  0
 59 62  1  0  0  0
 60129  1  0  0  0
 60130  1  0  0  0
 60131  1  0  0  0
 61132  1  0  0  0
 61133  1  0  0  0
 61134  1  0  0  0
 62135  1  0  0  0
 62136  1  0  0  0
 62137  1  0  0  0
 63 65  1  0  0  0
 63138  1  0  0  0
 63139  1  0  0  0
 63140  1  0  0  0
 64141  1  0  0  0
 65142  1  0  0  0
 68 77  1  0  0  0
 71 72  2  0  0  0
 71 79  1  0  0  0
 71143  1  0  0  0
 72 80  1  0  0  0
 72 82  1  0  0  0
 73 74  1  0  0  0
 73 79  2  0  0  0
 73 81  1  0  0  0
 74 80  2  0  0  0
 74 83  1  0  0  0
 75144  1  0  0  0
 75145  1  0  0  0
 75146  1  0  0  0
 75 78  1  0  0  0
 76 77  1  0  0  0
 76 78  1  0  0  0
 76147  1  0  0  0
 76148  1  0  0  0
 77149  1  0  0  0
 77150  1  0  0  0
 78 83  1  0  0  0
 78151  1  0  0  0
 81152  1  0  0  0
 81153  1  0  0  0
 82154  1  0  0  0
 83155  1  0  0  0
M  ISO  4   1 100  68 101  77 101  82 100
M  END
> <chiral flag>
0

> <version>
0

> <s_m_source_file>
/data/baiqing/PycharmProjects/Reinvent-master-3.2/result/LINK_invent/BTK/process_docking_weight1_custom_product_contain_oxygen_bond_distance_aromatic_linkinvent_7_9_3/rearranged_h_0197.sdf

> <i_m_source_file_index>
15

> <r_mmod_Potential_Energy-OPLS-2005>
132.520416259766

> <r_mmod_Stretch_Energy-OPLS-2005>
136.201034545898

> <r_mmod_Bend_Energy-OPLS-2005>
202.06510925293

> <r_mmod_Torsional_Energy-OPLS-2005>
269.468200683594

> <r_mmod_Improper_Torsional_Energy-OPLS-2005>
14.9117870330811

> <r_mmod_Van_der_Waal_Energy-OPLS-2005>
149.551834106445

> <r_mmod_Electrostatic_Energy-OPLS-2005>
-505.438629150391

> <r_mmod_Solvation_Energy-OPLS-2005>
-229.699691772461

> <b_mmod_Minimization_Converged-OPLS-2005>
0

> <r_mmod_RMS_Derivative-OPLS-2005>
5.56864976882935

$$$$
15
                    3D
 Structure written by MMmdl.
155163  0  0  1  0            999 V2000
  -30.6773  -14.6427   20.5032 C   0  0  0  0  0  0
  -30.4222  -12.4026   19.4540 C   0  0  0  0  0  0
  -29.4993  -12.5008   18.2220 C   0  0  0  0  0  0
  -28.0250  -12.3404   18.6392 C   0  0  0  0  0  0
  -27.6453  -13.2293   19.8543 C   0  0  2  0  0  0
  -28.6924  -13.1321   20.9853 C   0  0  0  0  0  0
  -25.2519  -13.8202   20.5701 C   0  0  0  0  0  0
  -24.1804  -13.0443   20.9192 C   0  0  0  0  0  0
  -24.6396  -11.6922   20.8742 C   0  0  0  0  0  0
  -23.9073  -10.4297   21.0403 C   0  0  0  0  0  0
  -24.3623   -9.4211   21.9181 C   0  0  0  0  0  0
  -23.6298   -8.2246   22.0752 C   0  0  0  0  0  0
  -22.4279   -8.0284   21.3544 C   0  0  0  0  0  0
  -21.9915   -9.0256   20.4644 C   0  0  0  0  0  0
  -22.7245  -10.2135   20.3052 C   0  0  0  0  0  0
  -21.6854   -6.0737   22.5280 C   0  0  0  0  0  0
  -21.4015   -6.5640   23.8214 C   0  0  0  0  0  0
  -21.3661   -5.6792   24.9176 C   0  0  0  0  0  0
  -21.6044   -4.3055   24.7226 C   0  0  0  0  0  0
  -21.8819   -3.8148   23.4347 C   0  0  0  0  0  0
  -21.9194   -4.6965   22.3404 C   0  0  0  0  0  0
  -22.7825  -13.5221   21.1862 C   0  0  0  0  0  0
  -22.1661   -4.2150   21.0981 F   0  0  0  0  0  0
  -21.5629   -3.4539   25.7739 F   0  0  0  0  0  0
  -30.0012  -13.4544   20.4030 N   0  0  0  0  0  0
  -26.2958  -12.9410   20.3315 N   0  0  0  0  0  0
  -25.9330  -11.6550   20.5764 N   0  0  0  0  0  0
  -22.0477  -12.8205   22.0419 N   0  0  0  0  0  0
  -25.4190  -15.1931   20.4158 N   0  0  0  0  0  0
  -31.8596  -14.7194   20.1637 O   0  0  0  0  0  0
  -21.6643   -6.8882   21.4242 O   0  0  0  0  0  0
  -22.3501  -14.5527   20.6717 O   0  0  0  0  0  0
  -24.6283  -31.8605   23.2045 C   0  0  0  0  0  0
  -25.9129  -32.4779   23.8366 C   0  0  1  0  0  0
  -27.2122  -27.3013   20.1056 C   0  0  0  0  0  0
  -25.5944  -33.8581   24.2289 N   0  0  0  0  0  0
  -23.4211  -30.4883   21.5486 C   0  0  2  0  0  0
  -24.8633  -28.9496   20.1101 C   0  0  0  0  0  0
  -22.7486  -29.4631   22.4933 C   0  0  0  0  0  0
  -18.0292  -28.1382   22.8489 C   0  0  0  0  0  0
  -24.1491  -36.7292   23.2637 C   0  0  0  0  0  0
  -25.9667  -30.7840   21.3810 C   0  0  0  0  0  0
  -26.0365  -29.4127   20.7184 C   0  0  0  0  0  0
  -27.2123  -28.5999   20.7100 C   0  0  0  0  0  0
  -26.0100  -26.9086   19.4660 C   0  0  0  0  0  0
  -24.8531  -27.7025   19.4760 C   0  0  0  0  0  0
  -23.6349  -29.8326   20.1613 C   0  0  0  0  0  0
  -25.4116  -36.3083   24.0329 C   0  0  1  0  0  0
  -20.5894  -28.3689   23.1278 C   0  0  2  0  0  0
  -20.6782  -26.9411   22.5405 C   0  0  0  0  0  0
  -19.5753  -26.6384   21.5211 C   0  0  0  0  0  0
  -18.1935  -26.7926   22.1625 C   0  0  0  0  0  0
  -19.1544  -28.8852   23.2880 C   0  0  0  0  0  0
  -18.9466  -30.1455   23.8894 C   0  0  0  0  0  0
  -17.6466  -30.6584   24.0562 C   0  0  0  0  0  0
  -25.9054  -34.9452   23.5103 C   0  0  0  0  0  0
  -16.5357  -29.9083   23.6330 C   0  0  0  0  0  0
  -16.7279  -28.6500   23.0352 C   0  0  0  0  0  0
  -26.4502  -31.6590   25.0741 C   0  0  0  0  0  0
  -25.3729  -31.3735   26.1463 C   0  0  0  0  0  0
  -27.0346  -30.3010   24.6209 C   0  0  0  0  0  0
  -27.6060  -32.4329   25.7510 C   0  0  0  0  0  0
  -27.5578  -37.1804   24.8466 C   0  0  0  0  0  0
  -21.4198  -29.3047   22.3676 N   0  0  0  0  0  0
  -26.4293  -37.3778   23.9406 N   0  0  0  0  0  0
  -24.6912  -31.0607   22.1008 N   0  0  0  0  0  0
  -23.4209  -28.8158   23.3003 O   0  0  0  0  0  0
  -28.3211  -26.4276   20.1676 O   0  0  0  0  0  0
  -26.5616  -34.8916   22.4666 O   0  0  0  0  0  0
  -23.5445  -32.1413   23.7364 O   0  0  0  0  0  0
  -30.3255  -20.8307   20.3453 C   0  0  0  0  0  0
  -29.9241  -18.5381   20.7955 C   0  0  0  0  0  0
  -28.9575  -21.1742   20.5284 C   0  0  0  0  0  0
  -28.5550  -18.8913   20.9984 C   0  0  0  0  0  0
  -28.3489  -24.8973   18.2681 C   0  0  0  0  0  0
  -30.6029  -17.1351   21.0773 C   0  0  0  0  0  0
  -29.0061  -23.8338   20.4832 C   0  0  0  0  0  0
  -28.1489  -24.9948   19.7919 C   0  0  1  0  0  0
  -30.7902  -19.5446   20.4662 N   0  0  0  0  0  0
  -28.0875  -20.1700   20.8413 N   0  0  0  0  0  0
  -27.6054  -17.9659   21.4143 N   0  0  0  0  0  0
  -28.3759  -22.4759   20.3768 N   0  0  0  0  0  0
  -29.9806  -15.7811   20.8206 N   0  0  0  0  0  0
  -31.4652  -12.5047   19.1494 H   0  0  0  0  0  0
  -30.3431  -11.4189   19.9194 H   0  0  0  0  0  0
  -29.7655  -11.7388   17.4881 H   0  0  0  0  0  0
  -29.6406  -13.4642   17.7294 H   0  0  0  0  0  0
  -27.8679  -11.2900   18.8869 H   0  0  0  0  0  0
  -27.3680  -12.5538   17.7953 H   0  0  0  0  0  0
  -27.6498  -14.2575   19.4916 H   0  0  0  0  0  0
  -28.7069  -12.1297   21.4155 H   0  0  0  0  0  0
  -28.4433  -13.8101   21.8029 H   0  0  0  0  0  0
  -25.2767   -9.5688   22.4756 H   0  0  0  0  0  0
  -24.0008   -7.4637   22.7470 H   0  0  0  0  0  0
  -21.0848   -8.8777   19.8948 H   0  0  0  0  0  0
  -22.3706  -10.9674   19.6162 H   0  0  0  0  0  0
  -21.2006   -7.6148   23.9718 H   0  0  0  0  0  0
  -21.1483   -6.0523   25.9079 H   0  0  0  0  0  0
  -22.0596   -2.7611   23.2848 H   0  0  0  0  0  0
  -22.4101  -11.9867   22.4801 H   0  0  0  0  0  0
  -21.1093  -13.1221   22.2632 H   0  0  0  0  0  0
  -24.6539  -15.8449   20.5496 H   0  0  0  0  0  0
  -26.2799  -15.6547   20.1482 H   0  0  0  0  0  0
  -26.7192  -32.5436   23.1109 H   0  0  0  0  0  0
  -25.0105  -33.9730   25.0442 H   0  0  0  0  0  0
  -22.7155  -31.3100   21.4099 H   0  0  0  0  0  0
  -23.3751  -35.9626   23.3309 H   0  0  0  0  0  0
  -24.3581  -36.8903   22.2049 H   0  0  0  0  0  0
  -23.7247  -37.6498   23.6653 H   0  0  0  0  0  0
  -26.1050  -31.5490   20.6156 H   0  0  0  0  0  0
  -26.8453  -30.8271   22.0130 H   0  0  0  0  0  0
  -28.1096  -28.9493   21.2015 H   0  0  0  0  0  0
  -25.9105  -25.9674   18.9500 H   0  0  0  0  0  0
  -23.9557  -27.3439   18.9905 H   0  0  0  0  0  0
  -23.7587  -30.6136   19.4103 H   0  0  0  0  0  0
  -22.7530  -29.2675   19.8541 H   0  0  0  0  0  0
  -25.1295  -36.1937   25.0821 H   0  0  0  0  0  0
  -20.9988  -28.3260   24.1398 H   0  0  0  0  0  0
  -20.5689  -26.2296   23.3605 H   0  0  0  0  0  0
  -21.6649  -26.7442   22.1192 H   0  0  0  0  0  0
  -19.6916  -25.6295   21.1240 H   0  0  0  0  0  0
  -19.6688  -27.3195   20.6742 H   0  0  0  0  0  0
  -17.4203  -26.6675   21.4028 H   0  0  0  0  0  0
  -18.0334  -26.0064   22.9018 H   0  0  0  0  0  0
  -19.7941  -30.7275   24.2256 H   0  0  0  0  0  0
  -17.5019  -31.6264   24.5166 H   0  0  0  0  0  0
  -15.5357  -30.2984   23.7655 H   0  0  0  0  0  0
  -15.8679  -28.0821   22.7062 H   0  0  0  0  0  0
  -24.5912  -30.7073   25.7797 H   0  0  0  0  0  0
  -24.8909  -32.2902   26.4870 H   0  0  0  0  0  0
  -25.8049  -30.8931   27.0250 H   0  0  0  0  0  0
  -26.2928  -29.6762   24.1221 H   0  0  0  0  0  0
  -27.4023  -29.7266   25.4721 H   0  0  0  0  0  0
  -27.8808  -30.4290   23.9455 H   0  0  0  0  0  0
  -27.2670  -33.3635   26.2073 H   0  0  0  0  0  0
  -28.3874  -32.6881   25.0339 H   0  0  0  0  0  0
  -28.0721  -31.8464   26.5436 H   0  0  0  0  0  0
  -28.2600  -38.0095   24.7506 H   0  0  0  0  0  0
  -28.1071  -36.2628   24.6304 H   0  0  0  0  0  0
  -27.2297  -37.1469   25.8870 H   0  0  0  0  0  0
  -20.9375  -29.8786   21.6900 H   0  0  0  0  0  0
  -26.0175  -38.2854   24.1404 H   0  0  0  0  0  0
  -31.0542  -21.5834   20.0819 H   0  0  0  0  0  0
  -28.1113  -23.8974   17.9042 H   0  0  0  0  0  0
  -29.3851  -25.1059   18.0022 H   0  0  0  0  0  0
  -27.7285  -25.6002   17.7147 H   0  0  0  0  0  0
  -30.8654  -17.1453   22.1355 H   0  0  0  0  0  0
  -31.5618  -17.1652   20.5575 H   0  0  0  0  0  0
  -29.1050  -24.0615   21.5453 H   0  0  0  0  0  0
  -30.0195  -23.8177   20.0800 H   0  0  0  0  0  0
  -27.1299  -24.7113   20.0502 H   0  0  0  0  0  0
  -27.9350  -17.1924   21.9763 H   0  0  0  0  0  0
  -26.7287  -18.3428   21.7539 H   0  0  0  0  0  0
  -27.3665  -22.4839   20.4766 H   0  0  0  0  0  0
  -28.9896  -15.6872   20.9752 H   0  0  0  0  0  0
  1 25  1  0  0  0
  1 30  2  0  0  0
  1 83  1  0  0  0
  2  3  1  0  0  0
  2 25  1  0  0  0
  2 84  1  0  0  0
  2 85  1  0  0  0
  3  4  1  0  0  0
  3 86  1  0  0  0
  3 87  1  0  0  0
  4  5  1  0  0  0
  4 88  1  0  0  0
  4 89  1  0  0  0
  5  6  1  0  0  0
  5 26  1  0  0  0
  5 90  1  0  0  0
  6 25  1  0  0  0
  6 91  1  0  0  0
  6 92  1  0  0  0
  7  8  2  0  0  0
  7 26  1  0  0  0
  7 29  1  0  0  0
  8  9  1  0  0  0
  8 22  1  0  0  0
  9 10  1  0  0  0
  9 27  2  0  0  0
 10 11  2  0  0  0
 10 15  1  0  0  0
 11 12  1  0  0  0
 11 93  1  0  0  0
 12 13  2  0  0  0
 12 94  1  0  0  0
 13 14  1  0  0  0
 13 31  1  0  0  0
 14 15  2  0  0  0
 14 95  1  0  0  0
 15 96  1  0  0  0
 16 17  2  0  0  0
 16 21  1  0  0  0
 16 31  1  0  0  0
 17 18  1  0  0  0
 17 97  1  0  0  0
 18 19  2  0  0  0
 18 98  1  0  0  0
 19 20  1  0  0  0
 19 24  1  0  0  0
 20 21  2  0  0  0
 20 99  1  0  0  0
 21 23  1  0  0  0
 22 28  1  0  0  0
 22 32  2  0  0  0
 26 27  1  0  0  0
 28100  1  0  0  0
 28101  1  0  0  0
 29102  1  0  0  0
 29103  1  0  0  0
 33 34  1  0  0  0
 33 66  1  0  0  0
 33 70  2  0  0  0
 34 36  1  0  0  0
 34 59  1  0  0  0
 34104  1  0  0  0
 35 44  2  0  0  0
 35 45  1  0  0  0
 35 68  1  0  0  0
 36 56  1  0  0  0
 36105  1  0  0  0
 37 39  1  0  0  0
 37 47  1  0  0  0
 37 66  1  0  0  0
 37106  1  0  0  0
 38 43  2  0  0  0
 38 46  1  0  0  0
 38 47  1  0  0  0
 39 64  1  0  0  0
 39 67  2  0  0  0
 40 52  1  0  0  0
 40 53  2  0  0  0
 40 58  1  0  0  0
 41107  1  0  0  0
 41108  1  0  0  0
 41109  1  0  0  0
 41 48  1  0  0  0
 42 43  1  0  0  0
 42 66  1  0  0  0
 42110  1  0  0  0
 42111  1  0  0  0
 43 44  1  0  0  0
 44112  1  0  0  0
 45 46  2  0  0  0
 45113  1  0  0  0
 46114  1  0  0  0
 47115  1  0  0  0
 47116  1  0  0  0
 48 56  1  0  0  0
 48 65  1  0  0  0
 48117  1  0  0  0
 49 50  1  0  0  0
 49 53  1  0  0  0
 49 64  1  0  0  0
 49118  1  0  0  0
 50 51  1  0  0  0
 50119  1  0  0  0
 50120  1  0  0  0
 51 52  1  0  0  0
 51121  1  0  0  0
 51122  1  0  0  0
 52123  1  0  0  0
 52124  1  0  0  0
 53 54  1  0  0  0
 54 55  2  0  0  0
 54125  1  0  0  0
 55 57  1  0  0  0
 55126  1  0  0  0
 56 69  2  0  0  0
 57 58  2  0  0  0
 57127  1  0  0  0
 58128  1  0  0  0
 59 60  1  0  0  0
 59 61  1  0  0  0
 59 62  1  0  0  0
 60129  1  0  0  0
 60130  1  0  0  0
 60131  1  0  0  0
 61132  1  0  0  0
 61133  1  0  0  0
 61134  1  0  0  0
 62135  1  0  0  0
 62136  1  0  0  0
 62137  1  0  0  0
 63 65  1  0  0  0
 63138  1  0  0  0
 63139  1  0  0  0
 63140  1  0  0  0
 64141  1  0  0  0
 65142  1  0  0  0
 68 78  1  0  0  0
 71 73  2  0  0  0
 71 79  1  0  0  0
 71143  1  0  0  0
 72 74  1  0  0  0
 72 76  1  0  0  0
 72 79  2  0  0  0
 73 80  1  0  0  0
 73 82  1  0  0  0
 74 80  2  0  0  0
 74 81  1  0  0  0
 75144  1  0  0  0
 75145  1  0  0  0
 75146  1  0  0  0
 75 78  1  0  0  0
 76 83  1  0  0  0
 76147  1  0  0  0
 76148  1  0  0  0
 77 78  1  0  0  0
 77 82  1  0  0  0
 77149  1  0  0  0
 77150  1  0  0  0
 78151  1  0  0  0
 81152  1  0  0  0
 81153  1  0  0  0
 82154  1  0  0  0
 83155  1  0  0  0
M  ISO  4   1 100  68 101  78 101  83 100
M  END
> <chiral flag>
0

> <version>
0

> <s_m_source_file>
/data/baiqing/PycharmProjects/Reinvent-master-3.2/result/LINK_invent/BTK/process_docking_weight1_custom_product_contain_oxygen_bond_distance_aromatic_linkinvent_7_9_3/rearranged_h_0197.sdf

> <i_m_source_file_index>
16

> <r_mmod_Potential_Energy-OPLS-2005>
50.2946548461914

> <r_mmod_Stretch_Energy-OPLS-2005>
87.5373687744141

> <r_mmod_Bend_Energy-OPLS-2005>
178.708557128906

> <r_mmod_Torsional_Energy-OPLS-2005>
202.585433959961

> <r_mmod_Improper_Torsional_Energy-OPLS-2005>
8.82515144348145

> <r_mmod_Van_der_Waal_Energy-OPLS-2005>
152.685562133789

> <r_mmod_Electrostatic_Energy-OPLS-2005>
-402.689849853516

> <r_mmod_Solvation_Energy-OPLS-2005>
-234.170654296875

> <b_mmod_Minimization_Converged-OPLS-2005>
0

> <r_mmod_RMS_Derivative-OPLS-2005>
0.38448041677475

$$$$
16
                    3D
 Structure written by MMmdl.
156164  0  0  1  0            999 V2000
  -30.6154  -14.6542   20.4880 C   0  0  0  0  0  0
  -30.4376  -12.3971   19.4574 C   0  0  0  0  0  0
  -29.5082  -12.5083   18.2276 C   0  0  0  0  0  0
  -28.0318  -12.3442   18.6382 C   0  0  0  0  0  0
  -27.6529  -13.2169   19.8638 C   0  0  2  0  0  0
  -28.6982  -13.0762   20.9943 C   0  0  0  0  0  0
  -25.2563  -13.8171   20.5693 C   0  0  0  0  0  0
  -24.1832  -13.0438   20.9197 C   0  0  0  0  0  0
  -24.6395  -11.6904   20.8735 C   0  0  0  0  0  0
  -23.9062  -10.4291   21.0392 C   0  0  0  0  0  0
  -24.3621   -9.4208   21.9172 C   0  0  0  0  0  0
  -23.6297   -8.2241   22.0739 C   0  0  0  0  0  0
  -22.4279   -8.0276   21.3537 C   0  0  0  0  0  0
  -21.9911   -9.0250   20.4637 C   0  0  0  0  0  0
  -22.7233  -10.2132   20.3046 C   0  0  0  0  0  0
  -21.6859   -6.0731   22.5276 C   0  0  0  0  0  0
  -21.4018   -6.5629   23.8210 C   0  0  0  0  0  0
  -21.3661   -5.6781   24.9172 C   0  0  0  0  0  0
  -21.6046   -4.3044   24.7221 C   0  0  0  0  0  0
  -21.8819   -3.8135   23.4341 C   0  0  0  0  0  0
  -21.9196   -4.6958   22.3403 C   0  0  0  0  0  0
  -22.7853  -13.5235   21.1852 C   0  0  0  0  0  0
  -22.1663   -4.2141   21.0980 F   0  0  0  0  0  0
  -21.5630   -3.4529   25.7737 F   0  0  0  0  0  0
  -30.0132  -13.4226   20.4320 N   0  0  0  0  0  0
  -26.2988  -12.9349   20.3324 N   0  0  0  0  0  0
  -25.9324  -11.6505   20.5753 N   0  0  0  0  0  0
  -22.0500  -12.8227   22.0415 N   0  0  0  0  0  0
  -25.4277  -15.1889   20.4085 N   0  0  0  0  0  0
  -31.7793  -14.8068   20.1005 O   0  0  0  0  0  0
  -21.6635   -6.8876   21.4239 O   0  0  0  0  0  0
  -22.3540  -14.5538   20.6690 O   0  0  0  0  0  0
  -24.6244  -31.8599   23.2022 C   0  0  0  0  0  0
  -25.9090  -32.4780   23.8362 C   0  0  1  0  0  0
  -27.2287  -27.3305   20.1238 C   0  0  0  0  0  0
  -25.5907  -33.8580   24.2285 N   0  0  0  0  0  0
  -23.4191  -30.4810   21.5438 C   0  0  2  0  0  0
  -24.8684  -28.9320   20.1150 C   0  0  0  0  0  0
  -22.7468  -29.4624   22.4944 C   0  0  0  0  0  0
  -18.0284  -28.1392   22.8477 C   0  0  0  0  0  0
  -24.1484  -36.7299   23.2643 C   0  0  0  0  0  0
  -25.9591  -30.7940   21.3710 C   0  0  0  0  0  0
  -26.0364  -29.4208   20.7166 C   0  0  0  0  0  0
  -27.2230  -28.6315   20.7096 C   0  0  0  0  0  0
  -26.0433  -26.8877   19.5016 C   0  0  0  0  0  0
  -24.8718  -27.6696   19.4996 C   0  0  0  0  0  0
  -23.6350  -29.8103   20.1609 C   0  0  0  0  0  0
  -25.4110  -36.3080   24.0327 C   0  0  1  0  0  0
  -20.5884  -28.3686   23.1287 C   0  0  2  0  0  0
  -20.6768  -26.9410   22.5415 C   0  0  0  0  0  0
  -19.5750  -26.6388   21.5211 C   0  0  0  0  0  0
  -18.1928  -26.7938   22.1619 C   0  0  0  0  0  0
  -19.1537  -28.8855   23.2879 C   0  0  0  0  0  0
  -18.9467  -30.1460   23.8895 C   0  0  0  0  0  0
  -17.6469  -30.6598   24.0565 C   0  0  0  0  0  0
  -25.9040  -34.9449   23.5108 C   0  0  0  0  0  0
  -16.5355  -29.9103   23.6332 C   0  0  0  0  0  0
  -16.7272  -28.6523   23.0342 C   0  0  0  0  0  0
  -26.4468  -31.6586   25.0727 C   0  0  0  0  0  0
  -25.3704  -31.3733   26.1462 C   0  0  0  0  0  0
  -27.0306  -30.3003   24.6179 C   0  0  0  0  0  0
  -27.6035  -32.4319   25.7484 C   0  0  0  0  0  0
  -27.5583  -37.1805   24.8465 C   0  0  0  0  0  0
  -21.4186  -29.3042   22.3683 N   0  0  0  0  0  0
  -26.4294  -37.3770   23.9405 N   0  0  0  0  0  0
  -24.6860  -31.0619   22.0966 N   0  0  0  0  0  0
  -23.4193  -28.8164   23.3025 O   0  0  0  0  0  0
  -28.3380  -26.4752   20.1371 O   0  0  0  0  0  0
  -26.5625  -34.8917   22.4683 O   0  0  0  0  0  0
  -23.5413  -32.1404   23.7352 O   0  0  0  0  0  0
  -28.7812  -17.9367   21.1044 C   0  0  0  0  0  0
  -30.8077  -19.1743   19.8857 C   0  0  0  0  0  0
  -29.8816  -17.1464   20.6439 C   0  0  0  0  0  0
  -29.7076  -19.9538   20.3549 C   0  0  0  0  0  0
  -28.8435  -22.2886   22.3296 C   0  0  0  0  0  0
  -28.5227  -25.5660   22.2951 C   0  0  0  0  0  0
  -29.0429  -23.9267   20.3033 C   0  0  0  0  0  0
  -28.7777  -22.4067   20.7968 C   0  0  1  0  0  0
  -28.1813  -25.1797   20.8408 C   0  0  2  0  0  0
  -30.8985  -17.8118   20.0239 N   0  0  0  0  0  0
  -28.6852  -19.3002   20.9661 N   0  0  0  0  0  0
  -29.8072  -15.6996   20.8527 N   0  0  0  0  0  0
  -29.6865  -21.3828   20.1812 N   0  0  0  0  0  0
  -31.4795  -12.5179   19.1565 H   0  0  0  0  0  0
  -30.3696  -11.4036   19.9028 H   0  0  0  0  0  0
  -29.7757  -11.7558   17.4843 H   0  0  0  0  0  0
  -29.6476  -13.4764   17.7439 H   0  0  0  0  0  0
  -27.8697  -11.2918   18.8727 H   0  0  0  0  0  0
  -27.3782  -12.5710   17.7946 H   0  0  0  0  0  0
  -27.6691  -14.2513   19.5199 H   0  0  0  0  0  0
  -28.7137  -12.0551   21.3780 H   0  0  0  0  0  0
  -28.4431  -13.7075   21.8467 H   0  0  0  0  0  0
  -25.2770   -9.5682   22.4740 H   0  0  0  0  0  0
  -24.0008   -7.4630   22.7455 H   0  0  0  0  0  0
  -21.0838   -8.8759   19.8954 H   0  0  0  0  0  0
  -22.3681  -10.9664   19.6146 H   0  0  0  0  0  0
  -21.2009   -7.6136   23.9714 H   0  0  0  0  0  0
  -21.1487   -6.0509   25.9078 H   0  0  0  0  0  0
  -22.0601   -2.7596   23.2840 H   0  0  0  0  0  0
  -22.4127  -11.9902   22.4822 H   0  0  0  0  0  0
  -21.1113  -13.1239   22.2608 H   0  0  0  0  0  0
  -24.6529  -15.8372   20.5006 H   0  0  0  0  0  0
  -26.2547  -15.6168   20.0141 H   0  0  0  0  0  0
  -26.7165  -32.5455   23.1119 H   0  0  0  0  0  0
  -25.0015  -33.9721   25.0406 H   0  0  0  0  0  0
  -22.7131  -31.3009   21.3970 H   0  0  0  0  0  0
  -23.3738  -35.9641   23.3306 H   0  0  0  0  0  0
  -24.3585  -36.8918   22.2061 H   0  0  0  0  0  0
  -23.7243  -37.6501   23.6670 H   0  0  0  0  0  0
  -26.0872  -31.5532   20.5981 H   0  0  0  0  0  0
  -26.8416  -30.8481   21.9979 H   0  0  0  0  0  0
  -28.1208  -28.9994   21.1882 H   0  0  0  0  0  0
  -26.0176  -25.9168   19.0280 H   0  0  0  0  0  0
  -23.9759  -27.2862   19.0309 H   0  0  0  0  0  0
  -23.7550  -30.5839   19.4013 H   0  0  0  0  0  0
  -22.7564  -29.2370   19.8589 H   0  0  0  0  0  0
  -25.1291  -36.1938   25.0820 H   0  0  0  0  0  0
  -20.9972  -28.3263   24.1410 H   0  0  0  0  0  0
  -20.5660  -26.2300   23.3613 H   0  0  0  0  0  0
  -21.6639  -26.7442   22.1215 H   0  0  0  0  0  0
  -19.6906  -25.6298   21.1244 H   0  0  0  0  0  0
  -19.6692  -27.3195   20.6738 H   0  0  0  0  0  0
  -17.4194  -26.6673   21.4026 H   0  0  0  0  0  0
  -18.0338  -26.0095   22.9030 H   0  0  0  0  0  0
  -19.7940  -30.7275   24.2266 H   0  0  0  0  0  0
  -17.5024  -31.6274   24.5177 H   0  0  0  0  0  0
  -15.5356  -30.3007   23.7664 H   0  0  0  0  0  0
  -15.8665  -28.0852   22.7048 H   0  0  0  0  0  0
  -24.5836  -30.7143   25.7779 H   0  0  0  0  0  0
  -24.8935  -32.2895   26.4960 H   0  0  0  0  0  0
  -25.8018  -30.8851   27.0208 H   0  0  0  0  0  0
  -26.2889  -29.6733   24.1220 H   0  0  0  0  0  0
  -27.4015  -29.7258   25.4674 H   0  0  0  0  0  0
  -27.8737  -30.4312   23.9392 H   0  0  0  0  0  0
  -27.2655  -33.3624   26.2065 H   0  0  0  0  0  0
  -28.3828  -32.6875   25.0295 H   0  0  0  0  0  0
  -28.0708  -31.8462   26.5405 H   0  0  0  0  0  0
  -28.2601  -38.0103   24.7511 H   0  0  0  0  0  0
  -28.1071  -36.2632   24.6280 H   0  0  0  0  0  0
  -27.2308  -37.1458   25.8870 H   0  0  0  0  0  0
  -20.9366  -29.8775   21.6896 H   0  0  0  0  0  0
  -26.0161  -38.2835   24.1405 H   0  0  0  0  0  0
  -27.9466  -17.4635   21.6004 H   0  0  0  0  0  0
  -31.6407  -19.6523   19.3919 H   0  0  0  0  0  0
  -27.9595  -22.7268   22.7875 H   0  0  0  0  0  0
  -29.7273  -22.7825   22.7340 H   0  0  0  0  0  0
  -28.8649  -21.2574   22.6777 H   0  0  0  0  0  0
  -28.2519  -24.8041   23.0180 H   0  0  0  0  0  0
  -27.9834  -26.4616   22.6044 H   0  0  0  0  0  0
  -29.5874  -25.7744   22.4083 H   0  0  0  0  0  0
  -28.9302  -23.9231   19.2191 H   0  0  0  0  0  0
  -30.0947  -24.1597   20.4716 H   0  0  0  0  0  0
  -27.7663  -22.1352   20.4896 H   0  0  0  0  0  0
  -27.1351  -24.8743   20.8084 H   0  0  0  0  0  0
  -28.9287  -15.3901   21.2356 H   0  0  0  0  0  0
  -30.4694  -21.7530   19.6488 H   0  0  0  0  0  0
  1 25  1  0  0  0
  1 30  2  0  0  0
  1 82  1  0  0  0
  2  3  1  0  0  0
  2 25  1  0  0  0
  2 84  1  0  0  0
  2 85  1  0  0  0
  3  4  1  0  0  0
  3 86  1  0  0  0
  3 87  1  0  0  0
  4  5  1  0  0  0
  4 88  1  0  0  0
  4 89  1  0  0  0
  5  6  1  0  0  0
  5 26  1  0  0  0
  5 90  1  0  0  0
  6 25  1  0  0  0
  6 91  1  0  0  0
  6 92  1  0  0  0
  7  8  2  0  0  0
  7 26  1  0  0  0
  7 29  1  0  0  0
  8  9  1  0  0  0
  8 22  1  0  0  0
  9 10  1  0  0  0
  9 27  2  0  0  0
 10 11  2  0  0  0
 10 15  1  0  0  0
 11 12  1  0  0  0
 11 93  1  0  0  0
 12 13  2  0  0  0
 12 94  1  0  0  0
 13 14  1  0  0  0
 13 31  1  0  0  0
 14 15  2  0  0  0
 14 95  1  0  0  0
 15 96  1  0  0  0
 16 17  2  0  0  0
 16 21  1  0  0  0
 16 31  1  0  0  0
 17 18  1  0  0  0
 17 97  1  0  0  0
 18 19  2  0  0  0
 18 98  1  0  0  0
 19 20  1  0  0  0
 19 24  1  0  0  0
 20 21  2  0  0  0
 20 99  1  0  0  0
 21 23  1  0  0  0
 22 28  1  0  0  0
 22 32  2  0  0  0
 26 27  1  0  0  0
 28100  1  0  0  0
 28101  1  0  0  0
 29102  1  0  0  0
 29103  1  0  0  0
 33 34  1  0  0  0
 33 66  1  0  0  0
 33 70  2  0  0  0
 34 36  1  0  0  0
 34 59  1  0  0  0
 34104  1  0  0  0
 35 44  2  0  0  0
 35 45  1  0  0  0
 35 68  1  0  0  0
 36 56  1  0  0  0
 36105  1  0  0  0
 37 39  1  0  0  0
 37 47  1  0  0  0
 37 66  1  0  0  0
 37106  1  0  0  0
 38 43  2  0  0  0
 38 46  1  0  0  0
 38 47  1  0  0  0
 39 64  1  0  0  0
 39 67  2  0  0  0
 40 52  1  0  0  0
 40 53  2  0  0  0
 40 58  1  0  0  0
 41107  1  0  0  0
 41108  1  0  0  0
 41109  1  0  0  0
 41 48  1  0  0  0
 42 43  1  0  0  0
 42 66  1  0  0  0
 42110  1  0  0  0
 42111  1  0  0  0
 43 44  1  0  0  0
 44112  1  0  0  0
 45 46  2  0  0  0
 45113  1  0  0  0
 46114  1  0  0  0
 47115  1  0  0  0
 47116  1  0  0  0
 48 56  1  0  0  0
 48 65  1  0  0  0
 48117  1  0  0  0
 49 50  1  0  0  0
 49 53  1  0  0  0
 49 64  1  0  0  0
 49118  1  0  0  0
 50 51  1  0  0  0
 50119  1  0  0  0
 50120  1  0  0  0
 51 52  1  0  0  0
 51121  1  0  0  0
 51122  1  0  0  0
 52123  1  0  0  0
 52124  1  0  0  0
 53 54  1  0  0  0
 54 55  2  0  0  0
 54125  1  0  0  0
 55 57  1  0  0  0
 55126  1  0  0  0
 56 69  2  0  0  0
 57 58  2  0  0  0
 57127  1  0  0  0
 58128  1  0  0  0
 59 60  1  0  0  0
 59 61  1  0  0  0
 59 62  1  0  0  0
 60129  1  0  0  0
 60130  1  0  0  0
 60131  1  0  0  0
 61132  1  0  0  0
 61133  1  0  0  0
 61134  1  0  0  0
 62135  1  0  0  0
 62136  1  0  0  0
 62137  1  0  0  0
 63 65  1  0  0  0
 63138  1  0  0  0
 63139  1  0  0  0
 63140  1  0  0  0
 64141  1  0  0  0
 65142  1  0  0  0
 68 79  1  0  0  0
 71 73  2  0  0  0
 71 81  1  0  0  0
 71143  1  0  0  0
 72 74  1  0  0  0
 72 80  2  0  0  0
 72144  1  0  0  0
 73 80  1  0  0  0
 73 82  1  0  0  0
 74 81  2  0  0  0
 74 83  1  0  0  0
 75145  1  0  0  0
 75146  1  0  0  0
 75147  1  0  0  0
 75 78  1  0  0  0
 76148  1  0  0  0
 76149  1  0  0  0
 76150  1  0  0  0
 76 79  1  0  0  0
 77 78  1  0  0  0
 77 79  1  0  0  0
 77151  1  0  0  0
 77152  1  0  0  0
 78 83  1  0  0  0
 78153  1  0  0  0
 79154  1  0  0  0
 82155  1  0  0  0
 83156  1  0  0  0
M  ISO  4   1 100  68 101  79 101  82 100
M  END
> <chiral flag>
0

> <version>
0

> <s_m_source_file>
/data/baiqing/PycharmProjects/Reinvent-master-3.2/result/LINK_invent/BTK/process_docking_weight1_custom_product_contain_oxygen_bond_distance_aromatic_linkinvent_7_9_3/rearranged_h_0197.sdf

> <i_m_source_file_index>
17

> <r_mmod_Potential_Energy-OPLS-2005>
71.162841796875

> <r_mmod_Stretch_Energy-OPLS-2005>
88.425910949707

> <r_mmod_Bend_Energy-OPLS-2005>
157.191101074219

> <r_mmod_Torsional_Energy-OPLS-2005>
216.621292114258

> <r_mmod_Improper_Torsional_Energy-OPLS-2005>
4.11170244216919

> <r_mmod_Van_der_Waal_Energy-OPLS-2005>
146.651077270508

> <r_mmod_Electrostatic_Energy-OPLS-2005>
-350.146240234375

> <r_mmod_Solvation_Energy-OPLS-2005>
-240.402893066406

> <b_mmod_Minimization_Converged-OPLS-2005>
0

> <r_mmod_RMS_Derivative-OPLS-2005>
1.73913109302521

$$$$
17
                    3D
 Structure written by MMmdl.
150158  0  0  1  0            999 V2000
  -30.5933  -14.7050   20.4806 C   0  0  0  0  0  0
  -30.4399  -12.4286   19.4663 C   0  0  0  0  0  0
  -29.5119  -12.5145   18.2328 C   0  0  0  0  0  0
  -28.0355  -12.3428   18.6420 C   0  0  0  0  0  0
  -27.6498  -13.2215   19.8609 C   0  0  2  0  0  0
  -28.6931  -13.1029   20.9948 C   0  0  0  0  0  0
  -25.2542  -13.8176   20.5682 C   0  0  0  0  0  0
  -24.1819  -13.0437   20.9194 C   0  0  0  0  0  0
  -24.6393  -11.6909   20.8739 C   0  0  0  0  0  0
  -23.9063  -10.4292   21.0407 C   0  0  0  0  0  0
  -24.3618   -9.4207   21.9182 C   0  0  0  0  0  0
  -23.6294   -8.2242   22.0755 C   0  0  0  0  0  0
  -22.4275   -8.0281   21.3545 C   0  0  0  0  0  0
  -21.9909   -9.0253   20.4647 C   0  0  0  0  0  0
  -22.7237  -10.2132   20.3055 C   0  0  0  0  0  0
  -21.6856   -6.0735   22.5279 C   0  0  0  0  0  0
  -21.4016   -6.5641   23.8211 C   0  0  0  0  0  0
  -21.3659   -5.6794   24.9174 C   0  0  0  0  0  0
  -21.6043   -4.3056   24.7225 C   0  0  0  0  0  0
  -21.8820   -3.8147   23.4348 C   0  0  0  0  0  0
  -21.9193   -4.6962   22.3403 C   0  0  0  0  0  0
  -22.7840  -13.5225   21.1857 C   0  0  0  0  0  0
  -22.1662   -4.2148   21.0980 F   0  0  0  0  0  0
  -21.5628   -3.4540   25.7738 F   0  0  0  0  0  0
  -30.0038  -13.4623   20.4314 N   0  0  0  0  0  0
  -26.2969  -12.9363   20.3301 N   0  0  0  0  0  0
  -25.9322  -11.6516   20.5751 N   0  0  0  0  0  0
  -22.0484  -12.8216   22.0414 N   0  0  0  0  0  0
  -25.4249  -15.1899   20.4092 N   0  0  0  0  0  0
  -31.7560  -14.8565   20.0892 O   0  0  0  0  0  0
  -21.6640   -6.8878   21.4241 O   0  0  0  0  0  0
  -22.3527  -14.5533   20.6708 O   0  0  0  0  0  0
  -24.6283  -31.8558   23.1978 C   0  0  0  0  0  0
  -25.9116  -32.4757   23.8323 C   0  0  1  0  0  0
  -27.2319  -27.2863   20.1186 C   0  0  0  0  0  0
  -25.5918  -33.8558   24.2249 N   0  0  0  0  0  0
  -23.4238  -30.4768   21.5408 C   0  0  2  0  0  0
  -24.8709  -28.9219   20.1098 C   0  0  0  0  0  0
  -22.7483  -29.4605   22.4922 C   0  0  0  0  0  0
  -18.0288  -28.1383   22.8488 C   0  0  0  0  0  0
  -24.1489  -36.7293   23.2640 C   0  0  0  0  0  0
  -25.9659  -30.7761   21.3723 C   0  0  0  0  0  0
  -26.0388  -29.3995   20.7152 C   0  0  0  0  0  0
  -27.2166  -28.5921   20.7100 C   0  0  0  0  0  0
  -26.0349  -26.8589   19.5008 C   0  0  0  0  0  0
  -24.8727  -27.6588   19.4949 C   0  0  0  0  0  0
  -23.6392  -29.8053   20.1579 C   0  0  0  0  0  0
  -25.4117  -36.3075   24.0324 C   0  0  1  0  0  0
  -20.5888  -28.3691   23.1279 C   0  0  2  0  0  0
  -20.6775  -26.9411   22.5412 C   0  0  0  0  0  0
  -19.5752  -26.6379   21.5214 C   0  0  0  0  0  0
  -18.1931  -26.7926   22.1624 C   0  0  0  0  0  0
  -19.1540  -28.8856   23.2877 C   0  0  0  0  0  0
  -18.9460  -30.1457   23.8893 C   0  0  0  0  0  0
  -17.6459  -30.6585   24.0563 C   0  0  0  0  0  0
  -25.9053  -34.9442   23.5091 C   0  0  0  0  0  0
  -16.5351  -29.9082   23.6332 C   0  0  0  0  0  0
  -16.7274  -28.6501   23.0354 C   0  0  0  0  0  0
  -26.4489  -31.6588   25.0715 C   0  0  0  0  0  0
  -25.3711  -31.3739   26.1437 C   0  0  0  0  0  0
  -27.0338  -30.3005   24.6202 C   0  0  0  0  0  0
  -27.6037  -32.4335   25.7492 C   0  0  0  0  0  0
  -27.5580  -37.1803   24.8462 C   0  0  0  0  0  0
  -21.4194  -29.3038   22.3667 N   0  0  0  0  0  0
  -26.4293  -37.3773   23.9403 N   0  0  0  0  0  0
  -24.6915  -31.0542   22.0937 N   0  0  0  0  0  0
  -23.4194  -28.8154   23.3019 O   0  0  0  0  0  0
  -28.3726  -26.4608   20.1959 O   0  0  0  0  0  0
  -26.5631  -34.8917   22.4664 O   0  0  0  0  0  0
  -23.5438  -32.1368   23.7292 O   0  0  0  0  0  0
  -29.8177  -17.2120   20.6330 C   0  0  0  0  0  0
  -29.3969  -19.7096   20.4598 C   0  0  0  0  0  0
  -28.3969  -22.1479   18.3896 C   0  0  0  0  0  0
  -28.4850  -23.7333   20.4400 C   0  0  0  0  0  0
  -28.4965  -25.1043   19.5816 C   0  0  0  0  0  0
  -29.0412  -22.3646   19.7668 C   0  0  1  0  0  0
  -30.5968  -17.8397   19.7257 N   0  0  0  0  0  0
  -30.3481  -19.2449   19.6214 N   0  0  0  0  0  0
  -29.7893  -15.7550   20.8689 N   0  0  0  0  0  0
  -28.9384  -21.0791   20.5540 N   0  0  0  0  0  0
  -28.7164  -18.3756   21.4505 S   0  0  0  0  0  0
  -31.4805  -12.5601   19.1647 H   0  0  0  0  0  0
  -30.3847  -11.4385   19.9216 H   0  0  0  0  0  0
  -29.7866  -11.7561   17.4984 H   0  0  0  0  0  0
  -29.6446  -13.4783   17.7392 H   0  0  0  0  0  0
  -27.8803  -11.2904   18.8820 H   0  0  0  0  0  0
  -27.3813  -12.5607   17.7970 H   0  0  0  0  0  0
  -27.6592  -14.2525   19.5074 H   0  0  0  0  0  0
  -28.7168  -12.0861   21.3897 H   0  0  0  0  0  0
  -28.4262  -13.7414   21.8380 H   0  0  0  0  0  0
  -25.2766   -9.5681   22.4752 H   0  0  0  0  0  0
  -24.0003   -7.4634   22.7473 H   0  0  0  0  0  0
  -21.0842   -8.8772   19.8951 H   0  0  0  0  0  0
  -22.3699  -10.9670   19.6162 H   0  0  0  0  0  0
  -21.2011   -7.6149   23.9714 H   0  0  0  0  0  0
  -21.1479   -6.0525   25.9077 H   0  0  0  0  0  0
  -22.0600   -2.7609   23.2849 H   0  0  0  0  0  0
  -22.4109  -11.9880   22.4799 H   0  0  0  0  0  0
  -21.1100  -13.1235   22.2619 H   0  0  0  0  0  0
  -24.6530  -15.8400   20.5102 H   0  0  0  0  0  0
  -26.2619  -15.6259   20.0451 H   0  0  0  0  0  0
  -26.7181  -32.5410   23.1065 H   0  0  0  0  0  0
  -25.0049  -33.9695   25.0383 H   0  0  0  0  0  0
  -22.7194  -31.2982   21.3942 H   0  0  0  0  0  0
  -23.3747  -35.9629   23.3302 H   0  0  0  0  0  0
  -24.3575  -36.8921   22.2054 H   0  0  0  0  0  0
  -23.7245  -37.6496   23.6667 H   0  0  0  0  0  0
  -26.1006  -31.5376   20.6028 H   0  0  0  0  0  0
  -26.8447  -30.8250   22.0042 H   0  0  0  0  0  0
  -28.1131  -28.9562   21.1918 H   0  0  0  0  0  0
  -25.9569  -25.8851   19.0433 H   0  0  0  0  0  0
  -23.9738  -27.2827   19.0260 H   0  0  0  0  0  0
  -23.7578  -30.5788   19.3980 H   0  0  0  0  0  0
  -22.7587  -29.2337   19.8590 H   0  0  0  0  0  0
  -25.1300  -36.1924   25.0817 H   0  0  0  0  0  0
  -20.9981  -28.3269   24.1398 H   0  0  0  0  0  0
  -20.5675  -26.2301   23.3614 H   0  0  0  0  0  0
  -21.6644  -26.7435   22.1206 H   0  0  0  0  0  0
  -19.6913  -25.6288   21.1250 H   0  0  0  0  0  0
  -19.6691  -27.3186   20.6740 H   0  0  0  0  0  0
  -17.4202  -26.6675   21.4024 H   0  0  0  0  0  0
  -18.0329  -26.0066   22.9018 H   0  0  0  0  0  0
  -19.7934  -30.7277   24.2258 H   0  0  0  0  0  0
  -17.5011  -31.6265   24.5163 H   0  0  0  0  0  0
  -15.5351  -30.2980   23.7658 H   0  0  0  0  0  0
  -15.8675  -28.0817   22.7070 H   0  0  0  0  0  0
  -24.5879  -30.7099   25.7763 H   0  0  0  0  0  0
  -24.8911  -32.2909   26.4859 H   0  0  0  0  0  0
  -25.8023  -30.8913   27.0216 H   0  0  0  0  0  0
  -26.2925  -29.6752   24.1213 H   0  0  0  0  0  0
  -27.4005  -29.7271   25.4726 H   0  0  0  0  0  0
  -27.8804  -30.4283   23.9453 H   0  0  0  0  0  0
  -27.2635  -33.3632   26.2066 H   0  0  0  0  0  0
  -28.3848  -32.6905   25.0325 H   0  0  0  0  0  0
  -28.0704  -31.8467   26.5415 H   0  0  0  0  0  0
  -28.2597  -38.0100   24.7506 H   0  0  0  0  0  0
  -28.1076  -36.2631   24.6292 H   0  0  0  0  0  0
  -27.2296  -37.1459   25.8864 H   0  0  0  0  0  0
  -20.9376  -29.8755   21.6871 H   0  0  0  0  0  0
  -26.0173  -38.2850   24.1393 H   0  0  0  0  0  0
  -28.5847  -22.9899   17.7234 H   0  0  0  0  0  0
  -27.3165  -22.0218   18.4691 H   0  0  0  0  0  0
  -28.7997  -21.2634   17.8951 H   0  0  0  0  0  0
  -27.4622  -23.5688   20.7802 H   0  0  0  0  0  0
  -29.0653  -23.9110   21.3457 H   0  0  0  0  0  0
  -27.8248  -25.0021   18.7325 H   0  0  0  0  0  0
  -29.4799  -25.1371   19.1120 H   0  0  0  0  0  0
  -30.1085  -22.5164   19.5947 H   0  0  0  0  0  0
  -28.9418  -15.4429   21.3143 H   0  0  0  0  0  0
  -28.2926  -21.1706   21.3320 H   0  0  0  0  0  0
  1 25  1  0  0  0
  1 30  2  0  0  0
  1 79  1  0  0  0
  2  3  1  0  0  0
  2 25  1  0  0  0
  2 82  1  0  0  0
  2 83  1  0  0  0
  3  4  1  0  0  0
  3 84  1  0  0  0
  3 85  1  0  0  0
  4  5  1  0  0  0
  4 86  1  0  0  0
  4 87  1  0  0  0
  5  6  1  0  0  0
  5 26  1  0  0  0
  5 88  1  0  0  0
  6 25  1  0  0  0
  6 89  1  0  0  0
  6 90  1  0  0  0
  7  8  2  0  0  0
  7 26  1  0  0  0
  7 29  1  0  0  0
  8  9  1  0  0  0
  8 22  1  0  0  0
  9 10  1  0  0  0
  9 27  2  0  0  0
 10 11  2  0  0  0
 10 15  1  0  0  0
 11 12  1  0  0  0
 11 91  1  0  0  0
 12 13  2  0  0  0
 12 92  1  0  0  0
 13 14  1  0  0  0
 13 31  1  0  0  0
 14 15  2  0  0  0
 14 93  1  0  0  0
 15 94  1  0  0  0
 16 17  2  0  0  0
 16 21  1  0  0  0
 16 31  1  0  0  0
 17 18  1  0  0  0
 17 95  1  0  0  0
 18 19  2  0  0  0
 18 96  1  0  0  0
 19 20  1  0  0  0
 19 24  1  0  0  0
 20 21  2  0  0  0
 20 97  1  0  0  0
 21 23  1  0  0  0
 22 28  1  0  0  0
 22 32  2  0  0  0
 26 27  1  0  0  0
 28 98  1  0  0  0
 28 99  1  0  0  0
 29100  1  0  0  0
 29101  1  0  0  0
 33 34  1  0  0  0
 33 66  1  0  0  0
 33 70  2  0  0  0
 34 36  1  0  0  0
 34 59  1  0  0  0
 34102  1  0  0  0
 35 44  2  0  0  0
 35 45  1  0  0  0
 35 68  1  0  0  0
 36 56  1  0  0  0
 36103  1  0  0  0
 37 39  1  0  0  0
 37 47  1  0  0  0
 37 66  1  0  0  0
 37104  1  0  0  0
 38 43  2  0  0  0
 38 46  1  0  0  0
 38 47  1  0  0  0
 39 64  1  0  0  0
 39 67  2  0  0  0
 40 52  1  0  0  0
 40 53  2  0  0  0
 40 58  1  0  0  0
 41105  1  0  0  0
 41106  1  0  0  0
 41107  1  0  0  0
 41 48  1  0  0  0
 42 43  1  0  0  0
 42 66  1  0  0  0
 42108  1  0  0  0
 42109  1  0  0  0
 43 44  1  0  0  0
 44110  1  0  0  0
 45 46  2  0  0  0
 45111  1  0  0  0
 46112  1  0  0  0
 47113  1  0  0  0
 47114  1  0  0  0
 48 56  1  0  0  0
 48 65  1  0  0  0
 48115  1  0  0  0
 49 50  1  0  0  0
 49 53  1  0  0  0
 49 64  1  0  0  0
 49116  1  0  0  0
 50 51  1  0  0  0
 50117  1  0  0  0
 50118  1  0  0  0
 51 52  1  0  0  0
 51119  1  0  0  0
 51120  1  0  0  0
 52121  1  0  0  0
 52122  1  0  0  0
 53 54  1  0  0  0
 54 55  2  0  0  0
 54123  1  0  0  0
 55 57  1  0  0  0
 55124  1  0  0  0
 56 69  2  0  0  0
 57 58  2  0  0  0
 57125  1  0  0  0
 58126  1  0  0  0
 59 60  1  0  0  0
 59 61  1  0  0  0
 59 62  1  0  0  0
 60127  1  0  0  0
 60128  1  0  0  0
 60129  1  0  0  0
 61130  1  0  0  0
 61131  1  0  0  0
 61132  1  0  0  0
 62133  1  0  0  0
 62134  1  0  0  0
 62135  1  0  0  0
 63 65  1  0  0  0
 63136  1  0  0  0
 63137  1  0  0  0
 63138  1  0  0  0
 64139  1  0  0  0
 65140  1  0  0  0
 68 75  1  0  0  0
 71 77  2  0  0  0
 71 79  1  0  0  0
 71 81  1  0  0  0
 72 78  2  0  0  0
 72 80  1  0  0  0
 72 81  1  0  0  0
 73141  1  0  0  0
 73142  1  0  0  0
 73143  1  0  0  0
 73 76  1  0  0  0
 74 75  1  0  0  0
 74 76  1  0  0  0
 74144  1  0  0  0
 74145  1  0  0  0
 75146  1  0  0  0
 75147  1  0  0  0
 76 80  1  0  0  0
 76148  1  0  0  0
 77 78  1  0  0  0
 79149  1  0  0  0
 80150  1  0  0  0
M  ISO  4   1 100  68 101  75 101  79 100
M  END
> <chiral flag>
0

> <version>
0

> <s_m_source_file>
/data/baiqing/PycharmProjects/Reinvent-master-3.2/result/LINK_invent/BTK/process_docking_weight1_custom_product_contain_oxygen_bond_distance_aromatic_linkinvent_7_9_3/rearranged_h_0197.sdf

> <i_m_source_file_index>
18

> <r_mmod_Potential_Energy-OPLS-2005>
8.14903545379639

> <r_mmod_Stretch_Energy-OPLS-2005>
100.618583679199

> <r_mmod_Bend_Energy-OPLS-2005>
170.551147460938

> <r_mmod_Torsional_Energy-OPLS-2005>
193.016647338867

> <r_mmod_Improper_Torsional_Energy-OPLS-2005>
3.61410427093506

> <r_mmod_Van_der_Waal_Energy-OPLS-2005>
115.214141845703

> <r_mmod_Electrostatic_Energy-OPLS-2005>
-390.158264160156

> <r_mmod_Solvation_Energy-OPLS-2005>
-250.447280883789

> <b_mmod_Minimization_Converged-OPLS-2005>
0

> <r_mmod_RMS_Derivative-OPLS-2005>
0.501936614513397

$$$$
18
                    3D
 Structure written by MMmdl.
149157  0  0  1  0            999 V2000
  -30.5434  -14.7073   20.4945 C   0  0  0  0  0  0
  -30.4446  -12.4295   19.4719 C   0  0  0  0  0  0
  -29.5129  -12.5011   18.2404 C   0  0  0  0  0  0
  -28.0337  -12.3245   18.6489 C   0  0  0  0  0  0
  -27.6412  -13.2108   19.8599 C   0  0  2  0  0  0
  -28.6799  -13.0815   20.9935 C   0  0  0  0  0  0
  -25.2480  -13.8153   20.5668 C   0  0  0  0  0  0
  -24.1767  -13.0435   20.9197 C   0  0  0  0  0  0
  -24.6334  -11.6906   20.8748 C   0  0  0  0  0  0
  -23.9019  -10.4295   21.0407 C   0  0  0  0  0  0
  -24.3588   -9.4218   21.9175 C   0  0  0  0  0  0
  -23.6278   -8.2245   22.0751 C   0  0  0  0  0  0
  -22.4259   -8.0268   21.3536 C   0  0  0  0  0  0
  -21.9887   -9.0242   20.4639 C   0  0  0  0  0  0
  -22.7202  -10.2127   20.3047 C   0  0  0  0  0  0
  -21.6845   -6.0732   22.5278 C   0  0  0  0  0  0
  -21.4020   -6.5641   23.8211 C   0  0  0  0  0  0
  -21.3650   -5.6789   24.9172 C   0  0  0  0  0  0
  -21.6053   -4.3054   24.7220 C   0  0  0  0  0  0
  -21.8806   -3.8141   23.4341 C   0  0  0  0  0  0
  -21.9196   -4.6967   22.3399 C   0  0  0  0  0  0
  -22.7799  -13.5218   21.1919 C   0  0  0  0  0  0
  -22.1653   -4.2171   21.0963 F   0  0  0  0  0  0
  -21.5639   -3.4523   25.7715 F   0  0  0  0  0  0
  -29.9858  -13.4530   20.4335 N   0  0  0  0  0  0
  -26.2887  -12.9314   20.3256 N   0  0  0  0  0  0
  -25.9241  -11.6493   20.5737 N   0  0  0  0  0  0
  -22.0430  -12.8200   22.0443 N   0  0  0  0  0  0
  -25.4220  -15.1885   20.4117 N   0  0  0  0  0  0
  -31.7256  -14.8914   20.1822 O   0  0  0  0  0  0
  -21.6617   -6.8879   21.4230 O   0  0  0  0  0  0
  -22.3490  -14.5529   20.6767 O   0  0  0  0  0  0
  -24.6303  -31.8568   23.1937 C   0  0  0  0  0  0
  -25.9123  -32.4749   23.8304 C   0  0  1  0  0  0
  -27.2564  -27.2924   20.1424 C   0  0  0  0  0  0
  -25.5902  -33.8559   24.2238 N   0  0  0  0  0  0
  -23.4297  -30.4718   21.5363 C   0  0  2  0  0  0
  -24.8836  -28.9019   20.1257 C   0  0  0  0  0  0
  -22.7501  -29.4641   22.4919 C   0  0  0  0  0  0
  -18.0320  -28.1437   22.8517 C   0  0  0  0  0  0
  -24.1468  -36.7268   23.2640 C   0  0  0  0  0  0
  -25.9701  -30.7745   21.3704 C   0  0  0  0  0  0
  -26.0495  -29.3921   20.7287 C   0  0  0  0  0  0
  -27.2391  -28.6010   20.7229 C   0  0  0  0  0  0
  -26.0700  -26.8490   19.5228 C   0  0  0  0  0  0
  -24.8958  -27.6350   19.5131 C   0  0  0  0  0  0
  -23.6520  -29.7892   20.1589 C   0  0  0  0  0  0
  -25.4104  -36.3069   24.0327 C   0  0  1  0  0  0
  -20.5914  -28.3759   23.1279 C   0  0  2  0  0  0
  -20.6812  -26.9478   22.5430 C   0  0  0  0  0  0
  -19.5781  -26.6428   21.5246 C   0  0  0  0  0  0
  -18.1953  -26.7999   22.1636 C   0  0  0  0  0  0
  -19.1577  -28.8910   23.2892 C   0  0  0  0  0  0
  -18.9499  -30.1515   23.8906 C   0  0  0  0  0  0
  -17.6499  -30.6633   24.0606 C   0  0  0  0  0  0
  -25.9048  -34.9442   23.5093 C   0  0  0  0  0  0
  -16.5386  -29.9151   23.6327 C   0  0  0  0  0  0
  -16.7304  -28.6565   23.0335 C   0  0  0  0  0  0
  -26.4504  -31.6553   25.0685 C   0  0  0  0  0  0
  -25.3732  -31.3770   26.1403 C   0  0  0  0  0  0
  -27.0300  -30.2952   24.6148 C   0  0  0  0  0  0
  -27.6075  -32.4285   25.7454 C   0  0  0  0  0  0
  -27.5582  -37.1779   24.8472 C   0  0  0  0  0  0
  -21.4204  -29.3071   22.3622 N   0  0  0  0  0  0
  -26.4298  -37.3768   23.9431 N   0  0  0  0  0  0
  -24.6957  -31.0522   22.0913 N   0  0  0  0  0  0
  -23.4183  -28.8193   23.3062 O   0  0  0  0  0  0
  -28.4109  -26.4934   20.0611 O   0  0  0  0  0  0
  -26.5632  -34.8940   22.4665 O   0  0  0  0  0  0
  -23.5446  -32.1393   23.7187 O   0  0  0  0  0  0
  -30.8070  -17.9668   21.0366 C   0  0  0  0  0  0
  -29.7711  -17.1421   20.6332 C   0  0  0  0  0  0
  -29.3802  -19.7266   20.4588 C   0  0  0  0  0  0
  -29.0948  -22.4575   20.8533 C   0  0  0  0  0  0
  -28.5555  -25.1993   20.7892 C   0  0  0  0  0  0
  -28.6663  -23.7817   20.0151 C   0  0  1  0  0  0
  -30.5663  -19.3745   20.9795 N   0  0  0  0  0  0
  -29.6502  -15.7458   20.6902 N   0  0  0  0  0  0
  -28.8900  -21.0736   20.2659 N   0  0  0  0  0  0
  -29.7028  -23.9355   19.0537 O   0  0  0  0  0  0
  -28.4547  -18.2267   20.0818 S   0  0  0  0  0  0
  -31.4799  -12.5923   19.1731 H   0  0  0  0  0  0
  -30.4182  -11.4380   19.9278 H   0  0  0  0  0  0
  -29.7956  -11.7407   17.5106 H   0  0  0  0  0  0
  -29.6438  -13.4639   17.7447 H   0  0  0  0  0  0
  -27.8870  -11.2737   18.9007 H   0  0  0  0  0  0
  -27.3822  -12.5246   17.7982 H   0  0  0  0  0  0
  -27.6500  -14.2384   19.4971 H   0  0  0  0  0  0
  -28.7007  -12.0577   21.3706 H   0  0  0  0  0  0
  -28.4081  -13.7076   21.8445 H   0  0  0  0  0  0
  -25.2739   -9.5695   22.4780 H   0  0  0  0  0  0
  -24.0003   -7.4606   22.7449 H   0  0  0  0  0  0
  -21.0849   -8.8734   19.8928 H   0  0  0  0  0  0
  -22.3653  -10.9663   19.6168 H   0  0  0  0  0  0
  -21.1995   -7.6147   23.9730 H   0  0  0  0  0  0
  -21.1498   -6.0506   25.9080 H   0  0  0  0  0  0
  -22.0601   -2.7617   23.2803 H   0  0  0  0  0  0
  -22.4010  -11.9823   22.4785 H   0  0  0  0  0  0
  -21.1069  -13.1276   22.2713 H   0  0  0  0  0  0
  -24.6528  -15.8426   20.5163 H   0  0  0  0  0  0
  -26.2670  -15.6292   20.0698 H   0  0  0  0  0  0
  -26.7182  -32.5402   23.1038 H   0  0  0  0  0  0
  -25.0042  -33.9704   25.0377 H   0  0  0  0  0  0
  -22.7304  -31.2943   21.3757 H   0  0  0  0  0  0
  -23.3751  -35.9575   23.3304 H   0  0  0  0  0  0
  -24.3587  -36.8889   22.2062 H   0  0  0  0  0  0
  -23.7208  -37.6470   23.6665 H   0  0  0  0  0  0
  -26.1010  -31.5269   20.5917 H   0  0  0  0  0  0
  -26.8522  -30.8335   21.9966 H   0  0  0  0  0  0
  -28.1448  -28.9894   21.1682 H   0  0  0  0  0  0
  -26.0696  -25.8903   19.0214 H   0  0  0  0  0  0
  -24.0076  -27.2556   19.0281 H   0  0  0  0  0  0
  -23.7821  -30.5577   19.3963 H   0  0  0  0  0  0
  -22.7731  -29.2172   19.8526 H   0  0  0  0  0  0
  -25.1285  -36.1901   25.0824 H   0  0  0  0  0  0
  -21.0017  -28.3343   24.1395 H   0  0  0  0  0  0
  -20.5753  -26.2367   23.3635 H   0  0  0  0  0  0
  -21.6676  -26.7532   22.1193 H   0  0  0  0  0  0
  -19.6956  -25.6333   21.1277 H   0  0  0  0  0  0
  -19.6717  -27.3246   20.6786 H   0  0  0  0  0  0
  -17.4232  -26.6767   21.4020 H   0  0  0  0  0  0
  -18.0328  -26.0165   22.9041 H   0  0  0  0  0  0
  -19.7971  -30.7343   24.2245 H   0  0  0  0  0  0
  -17.5062  -31.6314   24.5235 H   0  0  0  0  0  0
  -15.5383  -30.3068   23.7684 H   0  0  0  0  0  0
  -15.8689  -28.0916   22.7000 H   0  0  0  0  0  0
  -24.5887  -30.7116   25.7780 H   0  0  0  0  0  0
  -24.8943  -32.2968   26.4768 H   0  0  0  0  0  0
  -25.8045  -30.9016   27.0205 H   0  0  0  0  0  0
  -26.2848  -29.6708   24.1193 H   0  0  0  0  0  0
  -27.4004  -29.7207   25.4646 H   0  0  0  0  0  0
  -27.8724  -30.4221   23.9348 H   0  0  0  0  0  0
  -27.2704  -33.3616   26.1974 H   0  0  0  0  0  0
  -28.3914  -32.6757   25.0284 H   0  0  0  0  0  0
  -28.0668  -31.8413   26.5407 H   0  0  0  0  0  0
  -28.2576  -38.0085   24.7513 H   0  0  0  0  0  0
  -28.1079  -36.2623   24.6263 H   0  0  0  0  0  0
  -27.2324  -37.1397   25.8878 H   0  0  0  0  0  0
  -20.9378  -29.8742   21.6763 H   0  0  0  0  0  0
  -26.0147  -38.2829   24.1455 H   0  0  0  0  0  0
  -31.7528  -17.6296   21.4370 H   0  0  0  0  0  0
  -28.5148  -22.4651   21.7783 H   0  0  0  0  0  0
  -30.1316  -22.5589   21.1718 H   0  0  0  0  0  0
  -29.4825  -25.3139   21.3528 H   0  0  0  0  0  0
  -27.7873  -25.1338   21.5604 H   0  0  0  0  0  0
  -27.7173  -23.6006   19.5089 H   0  0  0  0  0  0
  -28.7064  -15.4122   20.8246 H   0  0  0  0  0  0
  -28.0822  -21.0654   19.6511 H   0  0  0  0  0  0
  -29.5357  -24.7439   18.5699 H   0  0  0  0  0  0
  1 25  1  0  0  0
  1 30  2  0  0  0
  1 78  1  0  0  0
  2  3  1  0  0  0
  2 25  1  0  0  0
  2 82  1  0  0  0
  2 83  1  0  0  0
  3  4  1  0  0  0
  3 84  1  0  0  0
  3 85  1  0  0  0
  4  5  1  0  0  0
  4 86  1  0  0  0
  4 87  1  0  0  0
  5  6  1  0  0  0
  5 26  1  0  0  0
  5 88  1  0  0  0
  6 25  1  0  0  0
  6 89  1  0  0  0
  6 90  1  0  0  0
  7  8  2  0  0  0
  7 26  1  0  0  0
  7 29  1  0  0  0
  8  9  1  0  0  0
  8 22  1  0  0  0
  9 10  1  0  0  0
  9 27  2  0  0  0
 10 11  2  0  0  0
 10 15  1  0  0  0
 11 12  1  0  0  0
 11 91  1  0  0  0
 12 13  2  0  0  0
 12 92  1  0  0  0
 13 14  1  0  0  0
 13 31  1  0  0  0
 14 15  2  0  0  0
 14 93  1  0  0  0
 15 94  1  0  0  0
 16 17  2  0  0  0
 16 21  1  0  0  0
 16 31  1  0  0  0
 17 18  1  0  0  0
 17 95  1  0  0  0
 18 19  2  0  0  0
 18 96  1  0  0  0
 19 20  1  0  0  0
 19 24  1  0  0  0
 20 21  2  0  0  0
 20 97  1  0  0  0
 21 23  1  0  0  0
 22 28  1  0  0  0
 22 32  2  0  0  0
 26 27  1  0  0  0
 28 98  1  0  0  0
 28 99  1  0  0  0
 29100  1  0  0  0
 29101  1  0  0  0
 33 34  1  0  0  0
 33 66  1  0  0  0
 33 70  2  0  0  0
 34 36  1  0  0  0
 34 59  1  0  0  0
 34102  1  0  0  0
 35 44  2  0  0  0
 35 45  1  0  0  0
 35 68  1  0  0  0
 36 56  1  0  0  0
 36103  1  0  0  0
 37 39  1  0  0  0
 37 47  1  0  0  0
 37 66  1  0  0  0
 37104  1  0  0  0
 38 43  2  0  0  0
 38 46  1  0  0  0
 38 47  1  0  0  0
 39 64  1  0  0  0
 39 67  2  0  0  0
 40 52  1  0  0  0
 40 53  2  0  0  0
 40 58  1  0  0  0
 41105  1  0  0  0
 41106  1  0  0  0
 41107  1  0  0  0
 41 48  1  0  0  0
 42 43  1  0  0  0
 42 66  1  0  0  0
 42108  1  0  0  0
 42109  1  0  0  0
 43 44  1  0  0  0
 44110  1  0  0  0
 45 46  2  0  0  0
 45111  1  0  0  0
 46112  1  0  0  0
 47113  1  0  0  0
 47114  1  0  0  0
 48 56  1  0  0  0
 48 65  1  0  0  0
 48115  1  0  0  0
 49 50  1  0  0  0
 49 53  1  0  0  0
 49 64  1  0  0  0
 49116  1  0  0  0
 50 51  1  0  0  0
 50117  1  0  0  0
 50118  1  0  0  0
 51 52  1  0  0  0
 51119  1  0  0  0
 51120  1  0  0  0
 52121  1  0  0  0
 52122  1  0  0  0
 53 54  1  0  0  0
 54 55  2  0  0  0
 54123  1  0  0  0
 55 57  1  0  0  0
 55124  1  0  0  0
 56 69  2  0  0  0
 57 58  2  0  0  0
 57125  1  0  0  0
 58126  1  0  0  0
 59 60  1  0  0  0
 59 61  1  0  0  0
 59 62  1  0  0  0
 60127  1  0  0  0
 60128  1  0  0  0
 60129  1  0  0  0
 61130  1  0  0  0
 61131  1  0  0  0
 61132  1  0  0  0
 62133  1  0  0  0
 62134  1  0  0  0
 62135  1  0  0  0
 63 65  1  0  0  0
 63136  1  0  0  0
 63137  1  0  0  0
 63138  1  0  0  0
 64139  1  0  0  0
 65140  1  0  0  0
 68 75  1  0  0  0
 71 72  2  0  0  0
 71 77  1  0  0  0
 71141  1  0  0  0
 72 78  1  0  0  0
 72 81  1  0  0  0
 73 77  2  0  0  0
 73 79  1  0  0  0
 73 81  1  0  0  0
 74 76  1  0  0  0
 74 79  1  0  0  0
 74142  1  0  0  0
 74143  1  0  0  0
 75 76  1  0  0  0
 75144  1  0  0  0
 75145  1  0  0  0
 76 80  1  0  0  0
 76146  1  0  0  0
 78147  1  0  0  0
 79148  1  0  0  0
 80149  1  0  0  0
M  ISO  4   1 100  68 101  75 101  78 100
M  END
> <chiral flag>
0

> <version>
0

> <s_m_source_file>
/data/baiqing/PycharmProjects/Reinvent-master-3.2/result/LINK_invent/BTK/process_docking_weight1_custom_product_contain_oxygen_bond_distance_aromatic_linkinvent_7_9_3/rearranged_h_0197.sdf

> <i_m_source_file_index>
19

> <r_mmod_Potential_Energy-OPLS-2005>
43.4306716918945

> <r_mmod_Stretch_Energy-OPLS-2005>
100.596496582031

> <r_mmod_Bend_Energy-OPLS-2005>
158.287322998047

> <r_mmod_Torsional_Energy-OPLS-2005>
270.701049804688

> <r_mmod_Improper_Torsional_Energy-OPLS-2005>
6.27221393585205

> <r_mmod_Van_der_Waal_Energy-OPLS-2005>
109.772605895996

> <r_mmod_Electrostatic_Energy-OPLS-2005>
-411.720275878906

> <r_mmod_Solvation_Energy-OPLS-2005>
-256.704681396484

> <b_mmod_Minimization_Converged-OPLS-2005>
0

> <r_mmod_RMS_Derivative-OPLS-2005>
5.14324283599854

$$$$
19
                    3D
 Structure written by MMmdl.
155163  0  0  1  0            999 V2000
  -30.6973  -14.4611   20.6071 C   0  0  0  0  0  0
  -30.4334  -12.3108   19.4114 C   0  0  0  0  0  0
  -29.4942  -12.5121   18.2027 C   0  0  0  0  0  0
  -28.0150  -12.3697   18.6160 C   0  0  0  0  0  0
  -27.6661  -13.1988   19.8793 C   0  0  2  0  0  0
  -28.7093  -12.9502   20.9930 C   0  0  0  0  0  0
  -25.2618  -13.8142   20.5668 C   0  0  0  0  0  0
  -24.1852  -13.0433   20.9171 C   0  0  0  0  0  0
  -24.6391  -11.6897   20.8731 C   0  0  0  0  0  0
  -23.9052  -10.4289   21.0405 C   0  0  0  0  0  0
  -24.3612   -9.4205   21.9181 C   0  0  0  0  0  0
  -23.6290   -8.2240   22.0752 C   0  0  0  0  0  0
  -22.4270   -8.0281   21.3545 C   0  0  0  0  0  0
  -21.9907   -9.0252   20.4644 C   0  0  0  0  0  0
  -22.7230  -10.2131   20.3053 C   0  0  0  0  0  0
  -21.6854   -6.0732   22.5279 C   0  0  0  0  0  0
  -21.4012   -6.5639   23.8210 C   0  0  0  0  0  0
  -21.3660   -5.6793   24.9174 C   0  0  0  0  0  0
  -21.6043   -4.3056   24.7224 C   0  0  0  0  0  0
  -21.8822   -3.8146   23.4347 C   0  0  0  0  0  0
  -21.9191   -4.6960   22.3402 C   0  0  0  0  0  0
  -22.7877  -13.5244   21.1827 C   0  0  0  0  0  0
  -22.1662   -4.2147   21.0980 F   0  0  0  0  0  0
  -21.5629   -3.4542   25.7738 F   0  0  0  0  0  0
  -30.0447  -13.2749   20.4522 N   0  0  0  0  0  0
  -26.3049  -12.9292   20.3382 N   0  0  0  0  0  0
  -25.9321  -11.6462   20.5774 N   0  0  0  0  0  0
  -22.0522  -12.8234   22.0391 N   0  0  0  0  0  0
  -25.4362  -15.1855   20.4062 N   0  0  0  0  0  0
  -31.7992  -14.6890   20.0949 O   0  0  0  0  0  0
  -21.6639   -6.8873   21.4239 O   0  0  0  0  0  0
  -22.3569  -14.5556   20.6685 O   0  0  0  0  0  0
  -24.6158  -31.8709   23.2132 C   0  0  0  0  0  0
  -25.9046  -32.4846   23.8414 C   0  0  1  0  0  0
  -27.2191  -27.4170   20.0872 C   0  0  0  0  0  0
  -25.5897  -33.8644   24.2335 N   0  0  0  0  0  0
  -23.4023  -30.5015   21.5556 C   0  0  2  0  0  0
  -24.8444  -28.9775   20.1121 C   0  0  0  0  0  0
  -22.7424  -29.4685   22.4981 C   0  0  0  0  0  0
  -18.0278  -28.1376   22.8491 C   0  0  0  0  0  0
  -24.1495  -36.7314   23.2636 C   0  0  0  0  0  0
  -25.9379  -30.8293   21.3736 C   0  0  0  0  0  0
  -26.0101  -29.4662   20.7147 C   0  0  0  0  0  0
  -27.2000  -28.6940   20.7024 C   0  0  0  0  0  0
  -26.0303  -26.9712   19.4530 C   0  0  0  0  0  0
  -24.8507  -27.7291   19.4780 C   0  0  0  0  0  0
  -23.6099  -29.8473   20.1665 C   0  0  0  0  0  0
  -25.4113  -36.3122   24.0337 C   0  0  1  0  0  0
  -20.5872  -28.3656   23.1324 C   0  0  2  0  0  0
  -20.6777  -26.9392   22.5418 C   0  0  0  0  0  0
  -19.5748  -26.6372   21.5223 C   0  0  0  0  0  0
  -18.1923  -26.7916   22.1626 C   0  0  0  0  0  0
  -19.1530  -28.8828   23.2906 C   0  0  0  0  0  0
  -18.9456  -30.1439   23.8901 C   0  0  0  0  0  0
  -17.6463  -30.6584   24.0562 C   0  0  0  0  0  0
  -25.9035  -34.9492   23.5127 C   0  0  0  0  0  0
  -16.5348  -29.9082   23.6341 C   0  0  0  0  0  0
  -16.7265  -28.6509   23.0340 C   0  0  0  0  0  0
  -26.4457  -31.6622   25.0740 C   0  0  0  0  0  0
  -25.3712  -31.3753   26.1476 C   0  0  0  0  0  0
  -27.0273  -30.3059   24.6120 C   0  0  0  0  0  0
  -27.6027  -32.4332   25.7504 C   0  0  0  0  0  0
  -27.5588  -37.1806   24.8459 C   0  0  0  0  0  0
  -21.4146  -29.3038   22.3729 N   0  0  0  0  0  0
  -26.4294  -37.3807   23.9413 N   0  0  0  0  0  0
  -24.6706  -31.0806   22.1050 N   0  0  0  0  0  0
  -23.4209  -28.8212   23.3001 O   0  0  0  0  0  0
  -28.3612  -26.6225   20.1333 O   0  0  0  0  0  0
  -26.5602  -34.8938   22.4689 O   0  0  0  0  0  0
  -23.5347  -32.1451   23.7531 O   0  0  0  0  0  0
  -29.6073  -19.2354   21.3701 C   0  0  0  0  0  0
  -30.9475  -18.9085   21.2519 C   0  0  0  0  0  0
  -30.0685  -16.7999   21.2568 C   0  0  0  0  0  0
  -28.9101  -20.5155   21.4779 C   0  0  0  0  0  0
  -28.4412  -22.8154   20.5630 C   0  0  0  0  0  0
  -28.1339  -25.2126   19.9013 C   0  0  0  0  0  0
  -29.1745  -24.1764   20.4099 C   0  0  2  0  0  0
  -31.1930  -17.5267   21.1744 N   0  0  0  0  0  0
  -32.0325  -19.7888   21.2149 N   0  0  0  0  0  0
  -27.8172  -20.5772   22.2593 N   0  0  0  0  0  0
  -29.9979  -15.3798   21.2954 N   0  0  0  0  0  0
  -29.2924  -21.6254   20.7974 N   0  3  0  0  0  0
  -30.2070  -24.0344   19.4455 O   0  0  0  0  0  0
  -28.6236  -17.7810   21.4114 S   0  0  0  0  0  0
  -31.4745  -12.4276   19.1043 H   0  0  0  0  0  0
  -30.3517  -11.2934   19.7976 H   0  0  0  0  0  0
  -29.7322  -11.7917   17.4185 H   0  0  0  0  0  0
  -29.6569  -13.4997   17.7682 H   0  0  0  0  0  0
  -27.8227  -11.3121   18.8026 H   0  0  0  0  0  0
  -27.3636  -12.6536   17.7887 H   0  0  0  0  0  0
  -27.7178  -14.2502   19.5960 H   0  0  0  0  0  0
  -28.6888  -11.9021   21.2958 H   0  0  0  0  0  0
  -28.4601  -13.5074   21.8967 H   0  0  0  0  0  0
  -25.2761   -9.5681   22.4752 H   0  0  0  0  0  0
  -24.0004   -7.4631   22.7472 H   0  0  0  0  0  0
  -21.0838   -8.8762   19.8953 H   0  0  0  0  0  0
  -22.3689  -10.9664   19.6162 H   0  0  0  0  0  0
  -21.2006   -7.6148   23.9711 H   0  0  0  0  0  0
  -21.1480   -6.0524   25.9073 H   0  0  0  0  0  0
  -22.0600   -2.7609   23.2847 H   0  0  0  0  0  0
  -22.4143  -11.9889   22.4757 H   0  0  0  0  0  0
  -21.1144  -13.1256   22.2605 H   0  0  0  0  0  0
  -24.6679  -15.8410   20.5009 H   0  0  0  0  0  0
  -26.2822  -15.6173   20.0567 H   0  0  0  0  0  0
  -26.7110  -32.5555   23.1175 H   0  0  0  0  0  0
  -25.0057  -33.9817   25.0488 H   0  0  0  0  0  0
  -22.6903  -31.3197   21.4270 H   0  0  0  0  0  0
  -23.3763  -35.9639   23.3299 H   0  0  0  0  0  0
  -24.3601  -36.8926   22.2050 H   0  0  0  0  0  0
  -23.7239  -37.6518   23.6646 H   0  0  0  0  0  0
  -26.0608  -31.5973   20.6085 H   0  0  0  0  0  0
  -26.8233  -30.8748   21.9965 H   0  0  0  0  0  0
  -28.0939  -29.0649   21.1842 H   0  0  0  0  0  0
  -25.9738  -26.0295   18.9288 H   0  0  0  0  0  0
  -23.9574  -27.3544   18.9975 H   0  0  0  0  0  0
  -23.7231  -30.6292   19.4148 H   0  0  0  0  0  0
  -22.7320  -29.2737   19.8634 H   0  0  0  0  0  0
  -25.1297  -36.1979   25.0829 H   0  0  0  0  0  0
  -20.9973  -28.3206   24.1441 H   0  0  0  0  0  0
  -20.5705  -26.2250   23.3596 H   0  0  0  0  0  0
  -21.6645  -26.7448   22.1194 H   0  0  0  0  0  0
  -19.6915  -25.6294   21.1228 H   0  0  0  0  0  0
  -19.6690  -27.3208   20.6776 H   0  0  0  0  0  0
  -17.4200  -26.6667   21.4019 H   0  0  0  0  0  0
  -18.0320  -26.0058   22.9019 H   0  0  0  0  0  0
  -19.7939  -30.7256   24.2257 H   0  0  0  0  0  0
  -17.5023  -31.6269   24.5155 H   0  0  0  0  0  0
  -15.5354  -30.2983   23.7672 H   0  0  0  0  0  0
  -15.8659  -28.0844   22.7031 H   0  0  0  0  0  0
  -24.5883  -30.7102   25.7813 H   0  0  0  0  0  0
  -24.8902  -32.2927   26.4883 H   0  0  0  0  0  0
  -25.8041  -30.8948   27.0255 H   0  0  0  0  0  0
  -26.2821  -29.6857   24.1120 H   0  0  0  0  0  0
  -27.3990  -29.7261   25.4578 H   0  0  0  0  0  0
  -27.8690  -30.4390   23.9316 H   0  0  0  0  0  0
  -27.2641  -33.3621   26.2109 H   0  0  0  0  0  0
  -28.3823  -32.6899   25.0319 H   0  0  0  0  0  0
  -28.0697  -31.8430   26.5402 H   0  0  0  0  0  0
  -28.2587  -38.0123   24.7538 H   0  0  0  0  0  0
  -28.1103  -36.2654   24.6242 H   0  0  0  0  0  0
  -27.2311  -37.1410   25.8863 H   0  0  0  0  0  0
  -20.9285  -29.8772   21.6975 H   0  0  0  0  0  0
  -26.0184  -38.2882   24.1427 H   0  0  0  0  0  0
  -27.8554  -22.6096   19.6660 H   0  0  0  0  0  0
  -27.7193  -22.9154   21.3727 H   0  0  0  0  0  0
  -27.9460  -25.0410   18.8396 H   0  0  0  0  0  0
  -27.2125  -24.9527   20.4270 H   0  0  0  0  0  0
  -29.5841  -24.4899   21.3719 H   0  0  0  0  0  0
  -31.9271  -20.7160   21.6100 H   0  0  0  0  0  0
  -32.9556  -19.3986   21.3709 H   0  0  0  0  0  0
  -27.5117  -19.7570   22.7603 H   0  0  0  0  0  0
  -27.3072  -21.4278   22.4280 H   0  0  0  0  0  0
  -29.1283  -15.0172   21.6528 H   0  0  0  0  0  0
  -30.1138  -21.5781   20.2081 H   0  0  0  0  0  0
  -30.6096  -24.8925   19.3417 H   0  0  0  0  0  0
  1 25  1  0  0  0
  1 30  2  0  0  0
  1 81  1  0  0  0
  2  3  1  0  0  0
  2 25  1  0  0  0
  2 85  1  0  0  0
  2 86  1  0  0  0
  3  4  1  0  0  0
  3 87  1  0  0  0
  3 88  1  0  0  0
  4  5  1  0  0  0
  4 89  1  0  0  0
  4 90  1  0  0  0
  5  6  1  0  0  0
  5 26  1  0  0  0
  5 91  1  0  0  0
  6 25  1  0  0  0
  6 92  1  0  0  0
  6 93  1  0  0  0
  7  8  2  0  0  0
  7 26  1  0  0  0
  7 29  1  0  0  0
  8  9  1  0  0  0
  8 22  1  0  0  0
  9 10  1  0  0  0
  9 27  2  0  0  0
 10 11  2  0  0  0
 10 15  1  0  0  0
 11 12  1  0  0  0
 11 94  1  0  0  0
 12 13  2  0  0  0
 12 95  1  0  0  0
 13 14  1  0  0  0
 13 31  1  0  0  0
 14 15  2  0  0  0
 14 96  1  0  0  0
 15 97  1  0  0  0
 16 17  2  0  0  0
 16 21  1  0  0  0
 16 31  1  0  0  0
 17 18  1  0  0  0
 17 98  1  0  0  0
 18 19  2  0  0  0
 18 99  1  0  0  0
 19 20  1  0  0  0
 19 24  1  0  0  0
 20 21  2  0  0  0
 20100  1  0  0  0
 21 23  1  0  0  0
 22 28  1  0  0  0
 22 32  2  0  0  0
 26 27  1  0  0  0
 28101  1  0  0  0
 28102  1  0  0  0
 29103  1  0  0  0
 29104  1  0  0  0
 33 34  1  0  0  0
 33 66  1  0  0  0
 33 70  2  0  0  0
 34 36  1  0  0  0
 34 59  1  0  0  0
 34105  1  0  0  0
 35 44  2  0  0  0
 35 45  1  0  0  0
 35 68  1  0  0  0
 36 56  1  0  0  0
 36106  1  0  0  0
 37 39  1  0  0  0
 37 47  1  0  0  0
 37 66  1  0  0  0
 37107  1  0  0  0
 38 43  2  0  0  0
 38 46  1  0  0  0
 38 47  1  0  0  0
 39 64  1  0  0  0
 39 67  2  0  0  0
 40 52  1  0  0  0
 40 53  2  0  0  0
 40 58  1  0  0  0
 41108  1  0  0  0
 41109  1  0  0  0
 41110  1  0  0  0
 41 48  1  0  0  0
 42 43  1  0  0  0
 42 66  1  0  0  0
 42111  1  0  0  0
 42112  1  0  0  0
 43 44  1  0  0  0
 44113  1  0  0  0
 45 46  2  0  0  0
 45114  1  0  0  0
 46115  1  0  0  0
 47116  1  0  0  0
 47117  1  0  0  0
 48 56  1  0  0  0
 48 65  1  0  0  0
 48118  1  0  0  0
 49 50  1  0  0  0
 49 53  1  0  0  0
 49 64  1  0  0  0
 49119  1  0  0  0
 50 51  1  0  0  0
 50120  1  0  0  0
 50121  1  0  0  0
 51 52  1  0  0  0
 51122  1  0  0  0
 51123  1  0  0  0
 52124  1  0  0  0
 52125  1  0  0  0
 53 54  1  0  0  0
 54 55  2  0  0  0
 54126  1  0  0  0
 55 57  1  0  0  0
 55127  1  0  0  0
 56 69  2  0  0  0
 57 58  2  0  0  0
 57128  1  0  0  0
 58129  1  0  0  0
 59 60  1  0  0  0
 59 61  1  0  0  0
 59 62  1  0  0  0
 60130  1  0  0  0
 60131  1  0  0  0
 60132  1  0  0  0
 61133  1  0  0  0
 61134  1  0  0  0
 61135  1  0  0  0
 62136  1  0  0  0
 62137  1  0  0  0
 62138  1  0  0  0
 63 65  1  0  0  0
 63139  1  0  0  0
 63140  1  0  0  0
 63141  1  0  0  0
 64142  1  0  0  0
 65143  1  0  0  0
 68 76  1  0  0  0
 71 72  2  0  0  0
 71 74  1  0  0  0
 71 84  1  0  0  0
 72 78  1  0  0  0
 72 79  1  0  0  0
 73 78  2  0  0  0
 73 81  1  0  0  0
 73 84  1  0  0  0
 74 80  1  0  0  0
 74 82  2  0  0  0
 75 77  1  0  0  0
 75 82  1  0  0  0
 75144  1  0  0  0
 75145  1  0  0  0
 76 77  1  0  0  0
 76146  1  0  0  0
 76147  1  0  0  0
 77 83  1  0  0  0
 77148  1  0  0  0
 79149  1  0  0  0
 79150  1  0  0  0
 80151  1  0  0  0
 80152  1  0  0  0
 81153  1  0  0  0
 82154  1  0  0  0
 83155  1  0  0  0
M  CHG  1  82   1
M  ISO  4   1 100  68 101  76 101  81 100
M  END
> <chiral flag>
0

> <version>
0

> <s_m_source_file>
/data/baiqing/PycharmProjects/Reinvent-master-3.2/result/LINK_invent/BTK/process_docking_weight1_custom_product_contain_oxygen_bond_distance_aromatic_linkinvent_7_9_3/rearranged_h_0197.sdf

> <i_m_source_file_index>
20

> <r_mmod_Potential_Energy-OPLS-2005>
-237.381729125977

> <r_mmod_Stretch_Energy-OPLS-2005>
39.1817169189453

> <r_mmod_Bend_Energy-OPLS-2005>
115.33211517334

> <r_mmod_Torsional_Energy-OPLS-2005>
240.843063354492

> <r_mmod_Improper_Torsional_Energy-OPLS-2005>
7.57201528549194

> <r_mmod_Van_der_Waal_Energy-OPLS-2005>
147.614608764648

> <r_mmod_Electrostatic_Energy-OPLS-2005>
-302.529388427734

> <r_mmod_Solvation_Energy-OPLS-2005>
-500.421203613281

> <b_mmod_Minimization_Converged-OPLS-2005>
0

> <r_mmod_RMS_Derivative-OPLS-2005>
1.42952156066895

$$$$
20
                    3D
 Structure written by MMmdl.
147155  0  0  1  0            999 V2000
  -30.4930  -15.0273   20.4018 C   0  0  0  0  0  0
  -30.4484  -12.6381   19.5032 C   0  0  0  0  0  0
  -29.5275  -12.5368   18.2629 C   0  0  0  0  0  0
  -28.0637  -12.3063   18.6845 C   0  0  0  0  0  0
  -27.6281  -13.2491   19.8353 C   0  0  2  0  0  0
  -28.6697  -13.3005   20.9732 C   0  0  0  0  0  0
  -25.2462  -13.8209   20.5707 C   0  0  0  0  0  0
  -24.1786  -13.0434   20.9243 C   0  0  0  0  0  0
  -24.6400  -11.6920   20.8762 C   0  0  0  0  0  0
  -23.9085  -10.4291   21.0418 C   0  0  0  0  0  0
  -24.3632   -9.4201   21.9194 C   0  0  0  0  0  0
  -23.6302   -8.2238   22.0756 C   0  0  0  0  0  0
  -22.4284   -8.0282   21.3547 C   0  0  0  0  0  0
  -21.9924   -9.0259   20.4648 C   0  0  0  0  0  0
  -22.7257  -10.2136   20.3063 C   0  0  0  0  0  0
  -21.6853   -6.0743   22.5282 C   0  0  0  0  0  0
  -21.4012   -6.5645   23.8216 C   0  0  0  0  0  0
  -21.3656   -5.6796   24.9177 C   0  0  0  0  0  0
  -21.6045   -4.3060   24.7227 C   0  0  0  0  0  0
  -21.8817   -3.8153   23.4347 C   0  0  0  0  0  0
  -21.9194   -4.6970   22.3404 C   0  0  0  0  0  0
  -22.7804  -13.5207   21.1894 C   0  0  0  0  0  0
  -22.1664   -4.2158   21.0982 F   0  0  0  0  0  0
  -21.5628   -3.4540   25.7738 F   0  0  0  0  0  0
  -29.9363  -13.7411   20.3722 N   0  0  0  0  0  0
  -26.2881  -12.9440   20.3228 N   0  0  0  0  0  0
  -25.9332  -11.6572   20.5736 N   0  0  0  0  0  0
  -22.0453  -12.8192   22.0442 N   0  0  0  0  0  0
  -25.4116  -15.1935   20.4098 N   0  0  0  0  0  0
  -31.7014  -15.1004   20.1409 O   0  0  0  0  0  0
  -21.6640   -6.8886   21.4245 O   0  0  0  0  0  0
  -22.3488  -14.5511   20.6733 O   0  0  0  0  0  0
  -24.6484  -31.8386   23.1840 C   0  0  0  0  0  0
  -25.9234  -32.4667   23.8244 C   0  0  1  0  0  0
  -27.2165  -27.0789   20.1595 C   0  0  0  0  0  0
  -25.5964  -33.8475   24.2163 N   0  0  0  0  0  0
  -23.4555  -30.4563   21.5300 C   0  0  2  0  0  0
  -24.9060  -28.8724   20.1114 C   0  0  0  0  0  0
  -22.7594  -29.4516   22.4834 C   0  0  0  0  0  0
  -18.0309  -28.1408   22.8480 C   0  0  0  0  0  0
  -24.1486  -36.7233   23.2644 C   0  0  0  0  0  0
  -26.0154  -30.6943   21.3911 C   0  0  0  0  0  0
  -26.0859  -29.2998   20.7331 C   0  0  0  0  0  0
  -27.2408  -28.4206   20.7372 C   0  0  0  0  0  0
  -26.0083  -26.7680   19.4961 C   0  0  0  0  0  0
  -24.8832  -27.6226   19.4757 C   0  0  0  0  0  0
  -23.6859  -29.7826   20.1513 C   0  0  0  0  0  0
  -25.4125  -36.3011   24.0311 C   0  0  1  0  0  0
  -20.5925  -28.3734   23.1223 C   0  0  2  0  0  0
  -20.6790  -26.9431   22.5404 C   0  0  0  0  0  0
  -19.5761  -26.6389   21.5212 C   0  0  0  0  0  0
  -18.1943  -26.7944   22.1628 C   0  0  0  0  0  0
  -19.1570  -28.8891   23.2842 C   0  0  0  0  0  0
  -18.9484  -30.1489   23.8869 C   0  0  0  0  0  0
  -17.6480  -30.6602   24.0566 C   0  0  0  0  0  0
  -25.9079  -34.9389   23.5049 C   0  0  0  0  0  0
  -16.5369  -29.9095   23.6347 C   0  0  0  0  0  0
  -16.7296  -28.6514   23.0368 C   0  0  0  0  0  0
  -26.4540  -31.6559   25.0709 C   0  0  0  0  0  0
  -25.3711  -31.3776   26.1397 C   0  0  0  0  0  0
  -27.0417  -30.2946   24.6334 C   0  0  0  0  0  0
  -27.6059  -32.4338   25.7498 C   0  0  0  0  0  0
  -27.5569  -37.1776   24.8469 C   0  0  0  0  0  0
  -21.4276  -29.3051   22.3587 N   0  0  0  0  0  0
  -26.4281  -37.3733   23.9406 N   0  0  0  0  0  0
  -24.7265  -31.0193   22.0897 N   0  0  0  0  0  0
  -23.4205  -28.8069   23.3010 O   0  0  0  0  0  0
  -28.2524  -26.0571   20.2357 O   0  0  0  0  0  0
  -26.5667  -34.8898   22.4629 O   0  0  0  0  0  0
  -23.5589  -32.1289   23.7028 O   0  0  0  0  0  0
  -28.6926  -18.7023   20.5122 C   0  0  0  0  0  0
  -29.7326  -17.7367   20.4212 C   0  0  0  0  0  0
  -28.4074  -21.4868   20.2688 C   0  0  0  0  0  0
  -27.9698  -24.5086   20.0488 C   0  0  0  0  0  0
  -28.9607  -23.1140   20.2836 C   0  0  2  0  0  0
  -30.8461  -18.5746   20.1926 N   0  0  0  0  0  0
  -30.5231  -19.8786   20.1404 N   0  0  0  0  0  0
  -29.1782  -20.0662   20.3434 N   0  0  0  0  0  0
  -29.6488  -16.1850   20.5347 N   0  0  0  0  0  0
  -29.9443  -23.1820   19.2631 O   0  0  0  0  0  0
  -31.4762  -12.8181   19.1842 H   0  0  0  0  0  0
  -30.4690  -11.6944   20.0507 H   0  0  0  0  0  0
  -29.8603  -11.7296   17.6088 H   0  0  0  0  0  0
  -29.5996  -13.4553   17.6781 H   0  0  0  0  0  0
  -27.9772  -11.2691   19.0104 H   0  0  0  0  0  0
  -27.3976  -12.4134   17.8275 H   0  0  0  0  0  0
  -27.5824  -14.2440   19.3918 H   0  0  0  0  0  0
  -28.7761  -12.3271   21.4540 H   0  0  0  0  0  0
  -28.3538  -13.9963   21.7523 H   0  0  0  0  0  0
  -25.2774   -9.5676   22.4773 H   0  0  0  0  0  0
  -24.0011   -7.4626   22.7471 H   0  0  0  0  0  0
  -21.0857   -8.8783   19.8949 H   0  0  0  0  0  0
  -22.3719  -10.9682   19.6174 H   0  0  0  0  0  0
  -21.2000   -7.6152   23.9723 H   0  0  0  0  0  0
  -21.1480   -6.0525   25.9081 H   0  0  0  0  0  0
  -22.0598   -2.7617   23.2844 H   0  0  0  0  0  0
  -22.4073  -11.9850   22.4822 H   0  0  0  0  0  0
  -21.1070  -13.1215   22.2658 H   0  0  0  0  0  0
  -24.6321  -15.8361   20.5014 H   0  0  0  0  0  0
  -26.2326  -15.6260   20.0082 H   0  0  0  0  0  0
  -26.7299  -32.5255   23.0965 H   0  0  0  0  0  0
  -25.0092  -33.9575   25.0301 H   0  0  0  0  0  0
  -22.7614  -31.2842   21.3715 H   0  0  0  0  0  0
  -23.3752  -35.9560   23.3299 H   0  0  0  0  0  0
  -24.3567  -36.8877   22.2059 H   0  0  0  0  0  0
  -23.7237  -37.6425   23.6690 H   0  0  0  0  0  0
  -26.1787  -31.4454   20.6172 H   0  0  0  0  0  0
  -26.8823  -30.7460   22.0381 H   0  0  0  0  0  0
  -28.1383  -28.7430   21.2466 H   0  0  0  0  0  0
  -25.8946  -25.8133   19.0064 H   0  0  0  0  0  0
  -23.9827  -27.2912   18.9762 H   0  0  0  0  0  0
  -23.8297  -30.5552   19.3953 H   0  0  0  0  0  0
  -22.7989  -29.2291   19.8377 H   0  0  0  0  0  0
  -25.1315  -36.1827   25.0802 H   0  0  0  0  0  0
  -21.0028  -28.3333   24.1341 H   0  0  0  0  0  0
  -20.5680  -26.2349   23.3630 H   0  0  0  0  0  0
  -21.6653  -26.7431   22.1205 H   0  0  0  0  0  0
  -19.6914  -25.6290   21.1267 H   0  0  0  0  0  0
  -19.6697  -27.3183   20.6725 H   0  0  0  0  0  0
  -17.4214  -26.6699   21.4031 H   0  0  0  0  0  0
  -18.0342  -26.0090   22.9030 H   0  0  0  0  0  0
  -19.7960  -30.7321   24.2216 H   0  0  0  0  0  0
  -17.5033  -31.6277   24.5180 H   0  0  0  0  0  0
  -15.5373  -30.2993   23.7681 H   0  0  0  0  0  0
  -15.8693  -28.0826   22.7097 H   0  0  0  0  0  0
  -24.5890  -30.7121   25.7725 H   0  0  0  0  0  0
  -24.8898  -32.2970   26.4743 H   0  0  0  0  0  0
  -25.7981  -30.9006   27.0228 H   0  0  0  0  0  0
  -26.3053  -29.6655   24.1322 H   0  0  0  0  0  0
  -27.3990  -29.7263   25.4933 H   0  0  0  0  0  0
  -27.8977  -30.4167   23.9692 H   0  0  0  0  0  0
  -27.2649  -33.3669   26.1991 H   0  0  0  0  0  0
  -28.3917  -32.6853   25.0363 H   0  0  0  0  0  0
  -28.0674  -31.8519   26.5487 H   0  0  0  0  0  0
  -28.2590  -38.0070   24.7508 H   0  0  0  0  0  0
  -28.1063  -36.2601   24.6309 H   0  0  0  0  0  0
  -27.2286  -37.1442   25.8872 H   0  0  0  0  0  0
  -20.9494  -29.8760   21.6757 H   0  0  0  0  0  0
  -26.0138  -38.2793   24.1421 H   0  0  0  0  0  0
  -27.6332  -18.5401   20.6690 H   0  0  0  0  0  0
  -27.7975  -21.4093   19.3687 H   0  0  0  0  0  0
  -27.6745  -21.4386   21.0745 H   0  0  0  0  0  0
  -27.1032  -24.3322   20.6872 H   0  0  0  0  0  0
  -27.5833  -24.4103   19.0345 H   0  0  0  0  0  0
  -29.4678  -23.2545   21.2392 H   0  0  0  0  0  0
  -28.7073  -15.8786   20.7202 H   0  0  0  0  0  0
  -30.6459  -22.5803   19.4957 H   0  0  0  0  0  0
  1 25  1  0  0  0
  1 30  2  0  0  0
  1 79  1  0  0  0
  2  3  1  0  0  0
  2 25  1  0  0  0
  2 81  1  0  0  0
  2 82  1  0  0  0
  3  4  1  0  0  0
  3 83  1  0  0  0
  3 84  1  0  0  0
  4  5  1  0  0  0
  4 85  1  0  0  0
  4 86  1  0  0  0
  5  6  1  0  0  0
  5 26  1  0  0  0
  5 87  1  0  0  0
  6 25  1  0  0  0
  6 88  1  0  0  0
  6 89  1  0  0  0
  7  8  2  0  0  0
  7 26  1  0  0  0
  7 29  1  0  0  0
  8  9  1  0  0  0
  8 22  1  0  0  0
  9 10  1  0  0  0
  9 27  2  0  0  0
 10 11  2  0  0  0
 10 15  1  0  0  0
 11 12  1  0  0  0
 11 90  1  0  0  0
 12 13  2  0  0  0
 12 91  1  0  0  0
 13 14  1  0  0  0
 13 31  1  0  0  0
 14 15  2  0  0  0
 14 92  1  0  0  0
 15 93  1  0  0  0
 16 17  2  0  0  0
 16 21  1  0  0  0
 16 31  1  0  0  0
 17 18  1  0  0  0
 17 94  1  0  0  0
 18 19  2  0  0  0
 18 95  1  0  0  0
 19 20  1  0  0  0
 19 24  1  0  0  0
 20 21  2  0  0  0
 20 96  1  0  0  0
 21 23  1  0  0  0
 22 28  1  0  0  0
 22 32  2  0  0  0
 26 27  1  0  0  0
 28 97  1  0  0  0
 28 98  1  0  0  0
 29 99  1  0  0  0
 29100  1  0  0  0
 33 34  1  0  0  0
 33 66  1  0  0  0
 33 70  2  0  0  0
 34 36  1  0  0  0
 34 59  1  0  0  0
 34101  1  0  0  0
 35 44  2  0  0  0
 35 45  1  0  0  0
 35 68  1  0  0  0
 36 56  1  0  0  0
 36102  1  0  0  0
 37 39  1  0  0  0
 37 47  1  0  0  0
 37 66  1  0  0  0
 37103  1  0  0  0
 38 43  2  0  0  0
 38 46  1  0  0  0
 38 47  1  0  0  0
 39 64  1  0  0  0
 39 67  2  0  0  0
 40 52  1  0  0  0
 40 53  2  0  0  0
 40 58  1  0  0  0
 41104  1  0  0  0
 41105  1  0  0  0
 41106  1  0  0  0
 41 48  1  0  0  0
 42 43  1  0  0  0
 42 66  1  0  0  0
 42107  1  0  0  0
 42108  1  0  0  0
 43 44  1  0  0  0
 44109  1  0  0  0
 45 46  2  0  0  0
 45110  1  0  0  0
 46111  1  0  0  0
 47112  1  0  0  0
 47113  1  0  0  0
 48 56  1  0  0  0
 48 65  1  0  0  0
 48114  1  0  0  0
 49 50  1  0  0  0
 49 53  1  0  0  0
 49 64  1  0  0  0
 49115  1  0  0  0
 50 51  1  0  0  0
 50116  1  0  0  0
 50117  1  0  0  0
 51 52  1  0  0  0
 51118  1  0  0  0
 51119  1  0  0  0
 52120  1  0  0  0
 52121  1  0  0  0
 53 54  1  0  0  0
 54 55  2  0  0  0
 54122  1  0  0  0
 55 57  1  0  0  0
 55123  1  0  0  0
 56 69  2  0  0  0
 57 58  2  0  0  0
 57124  1  0  0  0
 58125  1  0  0  0
 59 60  1  0  0  0
 59 61  1  0  0  0
 59 62  1  0  0  0
 60126  1  0  0  0
 60127  1  0  0  0
 60128  1  0  0  0
 61129  1  0  0  0
 61130  1  0  0  0
 61131  1  0  0  0
 62132  1  0  0  0
 62133  1  0  0  0
 62134  1  0  0  0
 63 65  1  0  0  0
 63135  1  0  0  0
 63136  1  0  0  0
 63137  1  0  0  0
 64138  1  0  0  0
 65139  1  0  0  0
 68 74  1  0  0  0
 71 72  2  0  0  0
 71 78  1  0  0  0
 71140  1  0  0  0
 72 76  1  0  0  0
 72 79  1  0  0  0
 73 75  1  0  0  0
 73 78  1  0  0  0
 73141  1  0  0  0
 73142  1  0  0  0
 74 75  1  0  0  0
 74143  1  0  0  0
 74144  1  0  0  0
 75 80  1  0  0  0
 75145  1  0  0  0
 76 77  2  0  0  0
 77 78  1  0  0  0
 79146  1  0  0  0
 80147  1  0  0  0
M  ISO  4   1 100  68 101  74 101  79 100
M  END
> <chiral flag>
0

> <version>
0

> <s_m_source_file>
/data/baiqing/PycharmProjects/Reinvent-master-3.2/result/LINK_invent/BTK/process_docking_weight1_custom_product_contain_oxygen_bond_distance_aromatic_linkinvent_7_9_3/rearranged_h_0197.sdf

> <i_m_source_file_index>
21

> <r_mmod_Potential_Energy-OPLS-2005>
604.127197265625

> <r_mmod_Stretch_Energy-OPLS-2005>
320.256500244141

> <r_mmod_Bend_Energy-OPLS-2005>
312.911285400391

> <r_mmod_Torsional_Energy-OPLS-2005>
211.451202392578

> <r_mmod_Improper_Torsional_Energy-OPLS-2005>
4.55001831054688

> <r_mmod_Van_der_Waal_Energy-OPLS-2005>
107.483978271484

> <r_mmod_Electrostatic_Energy-OPLS-2005>
-328.7900390625

> <r_mmod_Solvation_Energy-OPLS-2005>
-274.628082275391

> <b_mmod_Minimization_Converged-OPLS-2005>
0

> <r_mmod_RMS_Derivative-OPLS-2005>
0.815779387950897

$$$$
21
                    3D
 Structure written by MMmdl.
162170  0  0  1  0            999 V2000
  -30.6295  -14.6420   20.5033 C   0  0  0  0  0  0
  -30.4357  -12.3924   19.4626 C   0  0  0  0  0  0
  -29.5112  -12.5152   18.2309 C   0  0  0  0  0  0
  -28.0330  -12.3550   18.6368 C   0  0  0  0  0  0
  -27.6546  -13.2202   19.8677 C   0  0  2  0  0  0
  -28.6962  -13.0805   21.0009 C   0  0  0  0  0  0
  -25.2560  -13.8180   20.5682 C   0  0  0  0  0  0
  -24.1836  -13.0441   20.9190 C   0  0  0  0  0  0
  -24.6414  -11.6912   20.8737 C   0  0  0  0  0  0
  -23.9077  -10.4295   21.0400 C   0  0  0  0  0  0
  -24.3625   -9.4212   21.9183 C   0  0  0  0  0  0
  -23.6292   -8.2252   22.0766 C   0  0  0  0  0  0
  -22.4278   -8.0287   21.3545 C   0  0  0  0  0  0
  -21.9904   -9.0265   20.4652 C   0  0  0  0  0  0
  -22.7242  -10.2138   20.3055 C   0  0  0  0  0  0
  -21.6851   -6.0731   22.5270 C   0  0  0  0  0  0
  -21.4016   -6.5638   23.8204 C   0  0  0  0  0  0
  -21.3666   -5.6794   24.9169 C   0  0  0  0  0  0
  -21.6051   -4.3056   24.7220 C   0  0  0  0  0  0
  -21.8821   -3.8144   23.4340 C   0  0  0  0  0  0
  -21.9193   -4.6959   22.3394 C   0  0  0  0  0  0
  -22.7856  -13.5230   21.1847 C   0  0  0  0  0  0
  -22.1660   -4.2144   21.0970 F   0  0  0  0  0  0
  -21.5635   -3.4542   25.7733 F   0  0  0  0  0  0
  -30.0146  -13.4170   20.4400 N   0  0  0  0  0  0
  -26.2997  -12.9367   20.3327 N   0  0  0  0  0  0
  -25.9345  -11.6519   20.5756 N   0  0  0  0  0  0
  -22.0498  -12.8230   22.0408 N   0  0  0  0  0  0
  -25.4274  -15.1902   20.4074 N   0  0  0  0  0  0
  -31.7901  -14.7886   20.1066 O   0  0  0  0  0  0
  -21.6642   -6.8880   21.4236 O   0  0  0  0  0  0
  -22.3538  -14.5537   20.6694 O   0  0  0  0  0  0
  -24.6265  -31.8611   23.2018 C   0  0  0  0  0  0
  -25.9115  -32.4793   23.8345 C   0  0  1  0  0  0
  -27.2190  -27.3163   20.1155 C   0  0  0  0  0  0
  -25.5936  -33.8596   24.2264 N   0  0  0  0  0  0
  -23.4198  -30.4852   21.5448 C   0  0  2  0  0  0
  -24.8671  -28.9483   20.1049 C   0  0  0  0  0  0
  -22.7499  -29.4618   22.4926 C   0  0  0  0  0  0
  -18.0299  -28.1384   22.8499 C   0  0  0  0  0  0
  -24.1487  -36.7275   23.2630 C   0  0  0  0  0  0
  -25.9629  -30.7915   21.3751 C   0  0  0  0  0  0
  -26.0371  -29.4216   20.7123 C   0  0  0  0  0  0
  -27.2173  -28.6182   20.7065 C   0  0  0  0  0  0
  -26.0298  -26.9097   19.4664 C   0  0  0  0  0  0
  -24.8658  -27.6987   19.4722 C   0  0  0  0  0  0
  -23.6349  -29.8275   20.1566 C   0  0  0  0  0  0
  -25.4119  -36.3086   24.0320 C   0  0  1  0  0  0
  -20.5907  -28.3683   23.1288 C   0  0  2  0  0  0
  -20.6790  -26.9405   22.5414 C   0  0  0  0  0  0
  -19.5758  -26.6383   21.5221 C   0  0  0  0  0  0
  -18.1936  -26.7930   22.1629 C   0  0  0  0  0  0
  -19.1555  -28.8857   23.2887 C   0  0  0  0  0  0
  -18.9471  -30.1462   23.8905 C   0  0  0  0  0  0
  -17.6469  -30.6592   24.0568 C   0  0  0  0  0  0
  -25.9061  -34.9465   23.5091 C   0  0  0  0  0  0
  -16.5363  -29.9085   23.6334 C   0  0  0  0  0  0
  -16.7287  -28.6498   23.0368 C   0  0  0  0  0  0
  -26.4495  -31.6607   25.0722 C   0  0  0  0  0  0
  -25.3719  -31.3757   26.1433 C   0  0  0  0  0  0
  -27.0311  -30.3023   24.6158 C   0  0  0  0  0  0
  -27.6054  -32.4327   25.7513 C   0  0  0  0  0  0
  -27.5575  -37.1803   24.8471 C   0  0  0  0  0  0
  -21.4205  -29.3037   22.3684 N   0  0  0  0  0  0
  -26.4296  -37.3784   23.9412 N   0  0  0  0  0  0
  -24.6880  -31.0636   22.0965 N   0  0  0  0  0  0
  -23.4235  -28.8163   23.2996 O   0  0  0  0  0  0
  -28.3073  -26.4257   20.2110 O   0  0  0  0  0  0
  -26.5620  -34.8931   22.4649 O   0  0  0  0  0  0
  -23.5424  -32.1406   23.7342 O   0  0  0  0  0  0
  -28.9317  -17.9584   21.2740 C   0  0  0  0  0  0
  -30.8781  -19.1394   19.8740 C   0  0  0  0  0  0
  -29.9538  -17.1382   20.7035 C   0  0  0  0  0  0
  -29.8596  -19.9498   20.4589 C   0  0  0  0  0  0
  -30.1952  -23.2404   23.2607 C   0  0  0  0  0  0
  -27.9841  -21.9843   23.4082 C   0  0  0  0  0  0
  -27.1981  -24.9063   21.7830 C   0  0  0  0  0  0
  -29.2149  -23.9153   20.4782 C   0  0  0  0  0  0
  -29.2675  -22.2134   22.5888 C   0  0  0  0  0  0
  -29.0361  -22.3945   21.0383 C   0  0  2  0  0  0
  -28.0106  -24.9824   20.4811 C   0  0  2  0  0  0
  -30.9300  -17.7738   19.9929 N   0  0  0  0  0  0
  -28.8744  -19.3252   21.1587 N   0  0  0  0  0  0
  -29.8432  -15.6936   20.8933 N   0  0  0  0  0  0
  -29.8776  -21.3822   20.3205 N   0  0  0  0  0  0
  -31.4798  -12.5077   19.1650 H   0  0  0  0  0  0
  -30.3624  -11.3963   19.9018 H   0  0  0  0  0  0
  -29.7795  -11.7675   17.4823 H   0  0  0  0  0  0
  -29.6586  -13.4877   17.7585 H   0  0  0  0  0  0
  -27.8679  -11.3002   18.8607 H   0  0  0  0  0  0
  -27.3821  -12.5963   17.7965 H   0  0  0  0  0  0
  -27.6723  -14.2568   19.5307 H   0  0  0  0  0  0
  -28.7035  -12.0649   21.3992 H   0  0  0  0  0  0
  -28.4375  -13.7218   21.8453 H   0  0  0  0  0  0
  -25.2773   -9.5688   22.4755 H   0  0  0  0  0  0
  -24.0002   -7.4645   22.7488 H   0  0  0  0  0  0
  -21.0835   -8.8787   19.8953 H   0  0  0  0  0  0
  -22.3708  -10.9680   19.6167 H   0  0  0  0  0  0
  -21.2014   -7.6147   23.9705 H   0  0  0  0  0  0
  -21.1485   -6.0522   25.9070 H   0  0  0  0  0  0
  -22.0595   -2.7606   23.2833 H   0  0  0  0  0  0
  -22.4096  -11.9882   22.4781 H   0  0  0  0  0  0
  -21.1124  -13.1273   22.2628 H   0  0  0  0  0  0
  -24.6540  -15.8391   20.5074 H   0  0  0  0  0  0
  -26.2597  -15.6221   20.0289 H   0  0  0  0  0  0
  -26.7193  -32.5458   23.1104 H   0  0  0  0  0  0
  -25.0162  -33.9750   25.0459 H   0  0  0  0  0  0
  -22.7114  -31.3038   21.4056 H   0  0  0  0  0  0
  -23.3764  -35.9592   23.3305 H   0  0  0  0  0  0
  -24.3575  -36.8874   22.2039 H   0  0  0  0  0  0
  -23.7227  -37.6477   23.6641 H   0  0  0  0  0  0
  -26.0987  -31.5573   20.6104 H   0  0  0  0  0  0
  -26.8426  -30.8357   22.0063 H   0  0  0  0  0  0
  -28.1098  -28.9724   21.2029 H   0  0  0  0  0  0
  -25.9605  -25.9583   18.9644 H   0  0  0  0  0  0
  -23.9711  -27.3324   18.9865 H   0  0  0  0  0  0
  -23.7559  -30.6076   19.4043 H   0  0  0  0  0  0
  -22.7544  -29.2595   19.8511 H   0  0  0  0  0  0
  -25.1300  -36.1928   25.0813 H   0  0  0  0  0  0
  -21.0003  -28.3247   24.1405 H   0  0  0  0  0  0
  -20.5683  -26.2290   23.3610 H   0  0  0  0  0  0
  -21.6654  -26.7430   22.1203 H   0  0  0  0  0  0
  -19.6907  -25.6290   21.1248 H   0  0  0  0  0  0
  -19.6696  -27.3198   20.6749 H   0  0  0  0  0  0
  -17.4209  -26.6708   21.4017 H   0  0  0  0  0  0
  -18.0316  -26.0061   22.9007 H   0  0  0  0  0  0
  -19.7944  -30.7283   24.2260 H   0  0  0  0  0  0
  -17.5021  -31.6269   24.5162 H   0  0  0  0  0  0
  -15.5362  -30.2994   23.7638 H   0  0  0  0  0  0
  -15.8686  -28.0811   22.7091 H   0  0  0  0  0  0
  -24.5947  -30.7036   25.7782 H   0  0  0  0  0  0
  -24.8845  -32.2924   26.4764 H   0  0  0  0  0  0
  -25.8043  -30.9037   27.0265 H   0  0  0  0  0  0
  -26.2871  -29.6825   24.1150 H   0  0  0  0  0  0
  -27.3965  -29.7234   25.4655 H   0  0  0  0  0  0
  -27.8769  -30.4307   23.9401 H   0  0  0  0  0  0
  -27.2673  -33.3651   26.2052 H   0  0  0  0  0  0
  -28.3911  -32.6839   25.0376 H   0  0  0  0  0  0
  -28.0669  -31.8468   26.5465 H   0  0  0  0  0  0
  -28.2612  -38.0087   24.7521 H   0  0  0  0  0  0
  -28.1059  -36.2625   24.6310 H   0  0  0  0  0  0
  -27.2290  -37.1457   25.8872 H   0  0  0  0  0  0
  -20.9366  -29.8744   21.6893 H   0  0  0  0  0  0
  -26.0167  -38.2854   24.1426 H   0  0  0  0  0  0
  -28.1314  -17.5067   21.8427 H   0  0  0  0  0  0
  -31.6729  -19.5912   19.2981 H   0  0  0  0  0  0
  -31.1518  -23.3101   22.7419 H   0  0  0  0  0  0
  -30.4076  -22.9484   24.2904 H   0  0  0  0  0  0
  -29.7550  -24.2357   23.2949 H   0  0  0  0  0  0
  -28.2147  -21.4606   24.3372 H   0  0  0  0  0  0
  -27.2682  -21.3623   22.8695 H   0  0  0  0  0  0
  -27.4933  -22.9105   23.6975 H   0  0  0  0  0  0
  -26.8200  -23.8984   21.9260 H   0  0  0  0  0  0
  -26.3125  -25.5403   21.7714 H   0  0  0  0  0  0
  -27.7936  -25.1969   22.6469 H   0  0  0  0  0  0
  -29.5113  -23.8307   19.4320 H   0  0  0  0  0  0
  -30.0845  -24.3803   20.9395 H   0  0  0  0  0  0
  -29.8042  -21.2759   22.7360 H   0  0  0  0  0  0
  -28.0117  -22.0951   20.8125 H   0  0  0  0  0  0
  -27.3662  -24.6192   19.6835 H   0  0  0  0  0  0
  -28.9611  -15.3981   21.2804 H   0  0  0  0  0  0
  -30.6569  -21.7516   19.7835 H   0  0  0  0  0  0
  1 25  1  0  0  0
  1 30  2  0  0  0
  1 84  1  0  0  0
  2  3  1  0  0  0
  2 25  1  0  0  0
  2 86  1  0  0  0
  2 87  1  0  0  0
  3  4  1  0  0  0
  3 88  1  0  0  0
  3 89  1  0  0  0
  4  5  1  0  0  0
  4 90  1  0  0  0
  4 91  1  0  0  0
  5  6  1  0  0  0
  5 26  1  0  0  0
  5 92  1  0  0  0
  6 25  1  0  0  0
  6 93  1  0  0  0
  6 94  1  0  0  0
  7  8  2  0  0  0
  7 26  1  0  0  0
  7 29  1  0  0  0
  8  9  1  0  0  0
  8 22  1  0  0  0
  9 10  1  0  0  0
  9 27  2  0  0  0
 10 11  2  0  0  0
 10 15  1  0  0  0
 11 12  1  0  0  0
 11 95  1  0  0  0
 12 13  2  0  0  0
 12 96  1  0  0  0
 13 14  1  0  0  0
 13 31  1  0  0  0
 14 15  2  0  0  0
 14 97  1  0  0  0
 15 98  1  0  0  0
 16 17  2  0  0  0
 16 21  1  0  0  0
 16 31  1  0  0  0
 17 18  1  0  0  0
 17 99  1  0  0  0
 18 19  2  0  0  0
 18100  1  0  0  0
 19 20  1  0  0  0
 19 24  1  0  0  0
 20 21  2  0  0  0
 20101  1  0  0  0
 21 23  1  0  0  0
 22 28  1  0  0  0
 22 32  2  0  0  0
 26 27  1  0  0  0
 28102  1  0  0  0
 28103  1  0  0  0
 29104  1  0  0  0
 29105  1  0  0  0
 33 34  1  0  0  0
 33 66  1  0  0  0
 33 70  2  0  0  0
 34 36  1  0  0  0
 34 59  1  0  0  0
 34106  1  0  0  0
 35 44  2  0  0  0
 35 45  1  0  0  0
 35 68  1  0  0  0
 36 56  1  0  0  0
 36107  1  0  0  0
 37 39  1  0  0  0
 37 47  1  0  0  0
 37 66  1  0  0  0
 37108  1  0  0  0
 38 43  2  0  0  0
 38 46  1  0  0  0
 38 47  1  0  0  0
 39 64  1  0  0  0
 39 67  2  0  0  0
 40 52  1  0  0  0
 40 53  2  0  0  0
 40 58  1  0  0  0
 41109  1  0  0  0
 41110  1  0  0  0
 41111  1  0  0  0
 41 48  1  0  0  0
 42 43  1  0  0  0
 42 66  1  0  0  0
 42112  1  0  0  0
 42113  1  0  0  0
 43 44  1  0  0  0
 44114  1  0  0  0
 45 46  2  0  0  0
 45115  1  0  0  0
 46116  1  0  0  0
 47117  1  0  0  0
 47118  1  0  0  0
 48 56  1  0  0  0
 48 65  1  0  0  0
 48119  1  0  0  0
 49 50  1  0  0  0
 49 53  1  0  0  0
 49 64  1  0  0  0
 49120  1  0  0  0
 50 51  1  0  0  0
 50121  1  0  0  0
 50122  1  0  0  0
 51 52  1  0  0  0
 51123  1  0  0  0
 51124  1  0  0  0
 52125  1  0  0  0
 52126  1  0  0  0
 53 54  1  0  0  0
 54 55  2  0  0  0
 54127  1  0  0  0
 55 57  1  0  0  0
 55128  1  0  0  0
 56 69  2  0  0  0
 57 58  2  0  0  0
 57129  1  0  0  0
 58130  1  0  0  0
 59 60  1  0  0  0
 59 61  1  0  0  0
 59 62  1  0  0  0
 60131  1  0  0  0
 60132  1  0  0  0
 60133  1  0  0  0
 61134  1  0  0  0
 61135  1  0  0  0
 61136  1  0  0  0
 62137  1  0  0  0
 62138  1  0  0  0
 62139  1  0  0  0
 63 65  1  0  0  0
 63140  1  0  0  0
 63141  1  0  0  0
 63142  1  0  0  0
 64143  1  0  0  0
 65144  1  0  0  0
 68 81  1  0  0  0
 71 73  2  0  0  0
 71 83  1  0  0  0
 71145  1  0  0  0
 72 74  1  0  0  0
 72 82  2  0  0  0
 72146  1  0  0  0
 73 82  1  0  0  0
 73 84  1  0  0  0
 74 83  2  0  0  0
 74 85  1  0  0  0
 75147  1  0  0  0
 75148  1  0  0  0
 75149  1  0  0  0
 75 79  1  0  0  0
 76 79  1  0  0  0
 76150  1  0  0  0
 76151  1  0  0  0
 76152  1  0  0  0
 77153  1  0  0  0
 77154  1  0  0  0
 77155  1  0  0  0
 77 81  1  0  0  0
 78 81  1  0  0  0
 78156  1  0  0  0
 78157  1  0  0  0
 78 80  1  0  0  0
 79 80  1  0  0  0
 79158  1  0  0  0
 80 85  1  0  0  0
 80159  1  0  0  0
 81160  1  0  0  0
 84161  1  0  0  0
 85162  1  0  0  0
M  ISO  4   1 100  68 101  81 101  84 100
M  END
> <chiral flag>
0

> <version>
0

> <s_m_source_file>
/data/baiqing/PycharmProjects/Reinvent-master-3.2/result/LINK_invent/BTK/process_docking_weight1_custom_product_contain_oxygen_bond_distance_aromatic_linkinvent_7_9_3/rearranged_h_0197.sdf

> <i_m_source_file_index>
22

> <r_mmod_Potential_Energy-OPLS-2005>
91.8569717407227

> <r_mmod_Stretch_Energy-OPLS-2005>
96.8367462158203

> <r_mmod_Bend_Energy-OPLS-2005>
165.81120300293

> <r_mmod_Torsional_Energy-OPLS-2005>
236.447830200195

> <r_mmod_Improper_Torsional_Energy-OPLS-2005>
4.05909013748169

> <r_mmod_Van_der_Waal_Energy-OPLS-2005>
157.873870849609

> <r_mmod_Electrostatic_Energy-OPLS-2005>
-387.188110351562

> <r_mmod_Solvation_Energy-OPLS-2005>
-235.398696899414

> <b_mmod_Minimization_Converged-OPLS-2005>
0

> <r_mmod_RMS_Derivative-OPLS-2005>
2.17617177963257

$$$$
22
                    3D
 Structure written by MMmdl.
153161  0  0  1  0            999 V2000
  -30.6813  -14.5337   20.5218 C   0  0  0  0  0  0
  -30.4217  -12.3272   19.4394 C   0  0  0  0  0  0
  -29.5034  -12.5057   18.2139 C   0  0  0  0  0  0
  -28.0204  -12.3658   18.6177 C   0  0  0  0  0  0
  -27.6543  -13.2168   19.8639 C   0  0  2  0  0  0
  -28.6976  -13.0405   20.9905 C   0  0  0  0  0  0
  -25.2561  -13.8175   20.5662 C   0  0  0  0  0  0
  -24.1844  -13.0425   20.9185 C   0  0  0  0  0  0
  -24.6419  -11.6896   20.8711 C   0  0  0  0  0  0
  -23.9083  -10.4287   21.0380 C   0  0  0  0  0  0
  -24.3619   -9.4214   21.9172 C   0  0  0  0  0  0
  -23.6301   -8.2249   22.0753 C   0  0  0  0  0  0
  -22.4285   -8.0282   21.3543 C   0  0  0  0  0  0
  -21.9910   -9.0256   20.4650 C   0  0  0  0  0  0
  -22.7240  -10.2137   20.3055 C   0  0  0  0  0  0
  -21.6867   -6.0739   22.5281 C   0  0  0  0  0  0
  -21.4028   -6.5643   23.8212 C   0  0  0  0  0  0
  -21.3663   -5.6794   24.9171 C   0  0  0  0  0  0
  -21.6043   -4.3056   24.7223 C   0  0  0  0  0  0
  -21.8814   -3.8147   23.4345 C   0  0  0  0  0  0
  -21.9205   -4.6966   22.3403 C   0  0  0  0  0  0
  -22.7857  -13.5214   21.1847 C   0  0  0  0  0  0
  -22.1663   -4.2150   21.0977 F   0  0  0  0  0  0
  -21.5631   -3.4536   25.7732 F   0  0  0  0  0  0
  -30.0240  -13.3426   20.4289 N   0  0  0  0  0  0
  -26.2999  -12.9356   20.3309 N   0  0  0  0  0  0
  -25.9350  -11.6501   20.5730 N   0  0  0  0  0  0
  -22.0510  -12.8205   22.0406 N   0  0  0  0  0  0
  -25.4224  -15.1905   20.4071 N   0  0  0  0  0  0
  -31.8516  -14.6624   20.1495 O   0  0  0  0  0  0
  -21.6656   -6.8874   21.4240 O   0  0  0  0  0  0
  -22.3528  -14.5517   20.6698 O   0  0  0  0  0  0
  -24.6189  -31.8684   23.2112 C   0  0  0  0  0  0
  -25.9086  -32.4812   23.8398 C   0  0  1  0  0  0
  -27.2221  -27.3939   20.1001 C   0  0  0  0  0  0
  -25.5950  -33.8614   24.2332 N   0  0  0  0  0  0
  -23.4066  -30.4977   21.5531 C   0  0  2  0  0  0
  -24.8501  -28.9690   20.1094 C   0  0  0  0  0  0
  -22.7422  -29.4688   22.4966 C   0  0  0  0  0  0
  -18.0280  -28.1391   22.8481 C   0  0  0  0  0  0
  -24.1505  -36.7313   23.2626 C   0  0  0  0  0  0
  -25.9421  -30.8185   21.3760 C   0  0  0  0  0  0
  -26.0137  -29.4531   20.7186 C   0  0  0  0  0  0
  -27.1990  -28.6721   20.7163 C   0  0  0  0  0  0
  -26.0359  -26.9556   19.4568 C   0  0  0  0  0  0
  -24.8586  -27.7199   19.4749 C   0  0  0  0  0  0
  -23.6160  -29.8413   20.1641 C   0  0  0  0  0  0
  -25.4121  -36.3107   24.0330 C   0  0  1  0  0  0
  -20.5875  -28.3698   23.1293 C   0  0  2  0  0  0
  -20.6793  -26.9430   22.5401 C   0  0  0  0  0  0
  -19.5774  -26.6398   21.5209 C   0  0  0  0  0  0
  -18.1946  -26.7933   22.1612 C   0  0  0  0  0  0
  -19.1528  -28.8856   23.2888 C   0  0  0  0  0  0
  -18.9451  -30.1455   23.8904 C   0  0  0  0  0  0
  -17.6455  -30.6590   24.0574 C   0  0  0  0  0  0
  -25.9046  -34.9469   23.5118 C   0  0  0  0  0  0
  -16.5349  -29.9094   23.6328 C   0  0  0  0  0  0
  -16.7266  -28.6518   23.0335 C   0  0  0  0  0  0
  -26.4498  -31.6566   25.0718 C   0  0  0  0  0  0
  -25.3745  -31.3684   26.1450 C   0  0  0  0  0  0
  -27.0321  -30.2990   24.6124 C   0  0  0  0  0  0
  -27.6077  -32.4261   25.7501 C   0  0  0  0  0  0
  -27.5591  -37.1815   24.8456 C   0  0  0  0  0  0
  -21.4148  -29.3071   22.3695 N   0  0  0  0  0  0
  -26.4304  -37.3795   23.9409 N   0  0  0  0  0  0
  -24.6739  -31.0754   22.1041 N   0  0  0  0  0  0
  -23.4174  -28.8216   23.3010 O   0  0  0  0  0  0
  -28.3646  -26.5955   20.1551 O   0  0  0  0  0  0
  -26.5590  -34.8924   22.4666 O   0  0  0  0  0  0
  -23.5378  -32.1463   23.7483 O   0  0  0  0  0  0
  -29.8058  -19.1397   20.4231 C   0  0  0  0  0  0
  -30.2346  -16.9910   20.7864 C   0  0  0  0  0  0
  -29.1451  -20.4158   19.9347 C   0  0  0  0  0  0
  -29.6281  -22.8605   18.0257 C   0  0  0  0  0  0
  -29.2752  -24.1498   20.1892 C   0  0  0  0  0  0
  -28.1979  -25.2033   19.7765 C   0  0  0  0  0  0
  -29.0514  -22.7783   19.4547 C   0  0  2  0  0  0
  -29.3039  -17.8929   20.3952 N   0  0  0  0  0  0
  -31.4424  -17.4589   21.1699 N   0  0  0  0  0  0
  -29.6553  -21.6058   20.1314 N   0  0  0  0  0  0
  -27.9932  -20.1379   19.2253 N   0  0  0  0  0  0
  -29.9031  -15.6001   20.8269 N   0  0  0  0  0  0
  -31.4535  -19.1520   20.9935 S   0  0  0  0  0  0
  -31.4686  -12.4160   19.1461 H   0  0  0  0  0  0
  -30.3113  -11.3257   19.8601 H   0  0  0  0  0  0
  -29.7539  -11.7750   17.4443 H   0  0  0  0  0  0
  -29.6725  -13.4876   17.7717 H   0  0  0  0  0  0
  -27.8299  -11.3108   18.8177 H   0  0  0  0  0  0
  -27.3782  -12.6365   17.7789 H   0  0  0  0  0  0
  -27.6787  -14.2573   19.5431 H   0  0  0  0  0  0
  -28.6781  -12.0194   21.3725 H   0  0  0  0  0  0
  -28.4595  -13.6784   21.8436 H   0  0  0  0  0  0
  -25.2759   -9.5692   22.4747 H   0  0  0  0  0  0
  -24.0013   -7.4641   22.7480 H   0  0  0  0  0  0
  -21.0845   -8.8776   19.8956 H   0  0  0  0  0  0
  -22.3697  -10.9669   19.6166 H   0  0  0  0  0  0
  -21.2023   -7.6153   23.9704 H   0  0  0  0  0  0
  -21.1486   -6.0534   25.9075 H   0  0  0  0  0  0
  -22.0597   -2.7608   23.2849 H   0  0  0  0  0  0
  -22.4141  -11.9865   22.4770 H   0  0  0  0  0  0
  -21.1137  -13.1230   22.2621 H   0  0  0  0  0  0
  -24.6449  -15.8348   20.5110 H   0  0  0  0  0  0
  -26.2654  -15.6381   20.0679 H   0  0  0  0  0  0
  -26.7147  -32.5512   23.1147 H   0  0  0  0  0  0
  -25.0176  -33.9780   25.0532 H   0  0  0  0  0  0
  -22.6982  -31.3173   21.4184 H   0  0  0  0  0  0
  -23.3765  -35.9642   23.3272 H   0  0  0  0  0  0
  -24.3612  -36.8944   22.2042 H   0  0  0  0  0  0
  -23.7248  -37.6515   23.6641 H   0  0  0  0  0  0
  -26.0661  -31.5837   20.6089 H   0  0  0  0  0  0
  -26.8256  -30.8639   22.0003 H   0  0  0  0  0  0
  -28.0879  -29.0384   21.2106 H   0  0  0  0  0  0
  -25.9799  -26.0155   18.9293 H   0  0  0  0  0  0
  -23.9694  -27.3476   18.9853 H   0  0  0  0  0  0
  -23.7313  -30.6238   19.4133 H   0  0  0  0  0  0
  -22.7370  -29.2704   19.8587 H   0  0  0  0  0  0
  -25.1293  -36.1979   25.0821 H   0  0  0  0  0  0
  -20.9964  -28.3283   24.1417 H   0  0  0  0  0  0
  -20.5743  -26.2302   23.3596 H   0  0  0  0  0  0
  -21.6660  -26.7517   22.1166 H   0  0  0  0  0  0
  -19.6954  -25.6312   21.1242 H   0  0  0  0  0  0
  -19.6712  -27.3205   20.6740 H   0  0  0  0  0  0
  -17.4221  -26.6669   21.4016 H   0  0  0  0  0  0
  -18.0352  -26.0069   22.9002 H   0  0  0  0  0  0
  -19.7932  -30.7268   24.2274 H   0  0  0  0  0  0
  -17.5018  -31.6271   24.5175 H   0  0  0  0  0  0
  -15.5353  -30.3005   23.7651 H   0  0  0  0  0  0
  -15.8667  -28.0853   22.7029 H   0  0  0  0  0  0
  -24.5939  -30.7012   25.7782 H   0  0  0  0  0  0
  -24.8908  -32.2836   26.4868 H   0  0  0  0  0  0
  -25.8075  -30.8873   27.0226 H   0  0  0  0  0  0
  -26.2877  -29.6762   24.1149 H   0  0  0  0  0  0
  -27.4039  -29.7222   25.4605 H   0  0  0  0  0  0
  -27.8743  -30.4282   23.9321 H   0  0  0  0  0  0
  -27.2705  -33.3544   26.2128 H   0  0  0  0  0  0
  -28.3881  -32.6834   25.0322 H   0  0  0  0  0  0
  -28.0750  -31.8336   26.5383 H   0  0  0  0  0  0
  -28.2589  -38.0135   24.7522 H   0  0  0  0  0  0
  -28.1109  -36.2660   24.6250 H   0  0  0  0  0  0
  -27.2307  -37.1429   25.8860 H   0  0  0  0  0  0
  -20.9300  -29.8772   21.6902 H   0  0  0  0  0  0
  -26.0191  -38.2875   24.1403 H   0  0  0  0  0  0
  -29.2154  -23.6959   17.4604 H   0  0  0  0  0  0
  -29.4199  -21.9589   17.4501 H   0  0  0  0  0  0
  -30.7112  -22.9932   18.0490 H   0  0  0  0  0  0
  -29.2253  -24.0076   21.2697 H   0  0  0  0  0  0
  -30.2756  -24.5304   19.9793 H   0  0  0  0  0  0
  -27.2668  -24.8271   20.2042 H   0  0  0  0  0  0
  -28.0819  -25.1880   18.6927 H   0  0  0  0  0  0
  -27.9682  -22.6534   19.3822 H   0  0  0  0  0  0
  -27.6617  -19.1877   19.1047 H   0  0  0  0  0  0
  -27.3444  -20.8090   18.8403 H   0  0  0  0  0  0
  -28.9267  -15.3934   20.9546 H   0  0  0  0  0  0
  1 25  1  0  0  0
  1 30  2  0  0  0
  1 82  1  0  0  0
  2  3  1  0  0  0
  2 25  1  0  0  0
  2 84  1  0  0  0
  2 85  1  0  0  0
  3  4  1  0  0  0
  3 86  1  0  0  0
  3 87  1  0  0  0
  4  5  1  0  0  0
  4 88  1  0  0  0
  4 89  1  0  0  0
  5  6  1  0  0  0
  5 26  1  0  0  0
  5 90  1  0  0  0
  6 25  1  0  0  0
  6 91  1  0  0  0
  6 92  1  0  0  0
  7  8  2  0  0  0
  7 26  1  0  0  0
  7 29  1  0  0  0
  8  9  1  0  0  0
  8 22  1  0  0  0
  9 10  1  0  0  0
  9 27  2  0  0  0
 10 11  2  0  0  0
 10 15  1  0  0  0
 11 12  1  0  0  0
 11 93  1  0  0  0
 12 13  2  0  0  0
 12 94  1  0  0  0
 13 14  1  0  0  0
 13 31  1  0  0  0
 14 15  2  0  0  0
 14 95  1  0  0  0
 15 96  1  0  0  0
 16 17  2  0  0  0
 16 21  1  0  0  0
 16 31  1  0  0  0
 17 18  1  0  0  0
 17 97  1  0  0  0
 18 19  2  0  0  0
 18 98  1  0  0  0
 19 20  1  0  0  0
 19 24  1  0  0  0
 20 21  2  0  0  0
 20 99  1  0  0  0
 21 23  1  0  0  0
 22 28  1  0  0  0
 22 32  2  0  0  0
 26 27  1  0  0  0
 28100  1  0  0  0
 28101  1  0  0  0
 29102  1  0  0  0
 29103  1  0  0  0
 33 34  1  0  0  0
 33 66  1  0  0  0
 33 70  2  0  0  0
 34 36  1  0  0  0
 34 59  1  0  0  0
 34104  1  0  0  0
 35 44  2  0  0  0
 35 45  1  0  0  0
 35 68  1  0  0  0
 36 56  1  0  0  0
 36105  1  0  0  0
 37 39  1  0  0  0
 37 47  1  0  0  0
 37 66  1  0  0  0
 37106  1  0  0  0
 38 43  2  0  0  0
 38 46  1  0  0  0
 38 47  1  0  0  0
 39 64  1  0  0  0
 39 67  2  0  0  0
 40 52  1  0  0  0
 40 53  2  0  0  0
 40 58  1  0  0  0
 41107  1  0  0  0
 41108  1  0  0  0
 41109  1  0  0  0
 41 48  1  0  0  0
 42 43  1  0  0  0
 42 66  1  0  0  0
 42110  1  0  0  0
 42111  1  0  0  0
 43 44  1  0  0  0
 44112  1  0  0  0
 45 46  2  0  0  0
 45113  1  0  0  0
 46114  1  0  0  0
 47115  1  0  0  0
 47116  1  0  0  0
 48 56  1  0  0  0
 48 65  1  0  0  0
 48117  1  0  0  0
 49 50  1  0  0  0
 49 53  1  0  0  0
 49 64  1  0  0  0
 49118  1  0  0  0
 50 51  1  0  0  0
 50119  1  0  0  0
 50120  1  0  0  0
 51 52  1  0  0  0
 51121  1  0  0  0
 51122  1  0  0  0
 52123  1  0  0  0
 52124  1  0  0  0
 53 54  1  0  0  0
 54 55  2  0  0  0
 54125  1  0  0  0
 55 57  1  0  0  0
 55126  1  0  0  0
 56 69  2  0  0  0
 57 58  2  0  0  0
 57127  1  0  0  0
 58128  1  0  0  0
 59 60  1  0  0  0
 59 61  1  0  0  0
 59 62  1  0  0  0
 60129  1  0  0  0
 60130  1  0  0  0
 60131  1  0  0  0
 61132  1  0  0  0
 61133  1  0  0  0
 61134  1  0  0  0
 62135  1  0  0  0
 62136  1  0  0  0
 62137  1  0  0  0
 63 65  1  0  0  0
 63138  1  0  0  0
 63139  1  0  0  0
 63140  1  0  0  0
 64141  1  0  0  0
 65142  1  0  0  0
 68 76  1  0  0  0
 71 73  1  0  0  0
 71 78  2  0  0  0
 71 83  1  0  0  0
 72 78  1  0  0  0
 72 79  2  0  0  0
 72 82  1  0  0  0
 73 80  2  0  0  0
 73 81  1  0  0  0
 74143  1  0  0  0
 74144  1  0  0  0
 74145  1  0  0  0
 74 77  1  0  0  0
 75 76  1  0  0  0
 75 77  1  0  0  0
 75146  1  0  0  0
 75147  1  0  0  0
 76148  1  0  0  0
 76149  1  0  0  0
 77 80  1  0  0  0
 77150  1  0  0  0
 79 83  1  0  0  0
 81151  1  0  0  0
 81152  1  0  0  0
 82153  1  0  0  0
M  ISO  4   1 100  68 101  76 101  82 100
M  END
> <chiral flag>
0

> <version>
0

> <s_m_source_file>
/data/baiqing/PycharmProjects/Reinvent-master-3.2/result/LINK_invent/BTK/process_docking_weight1_custom_product_contain_oxygen_bond_distance_aromatic_linkinvent_7_9_3/rearranged_h_0197.sdf

> <i_m_source_file_index>
23

> <r_mmod_Potential_Energy-OPLS-2005>
-151.847213745117

> <r_mmod_Stretch_Energy-OPLS-2005>
49.4624862670898

> <r_mmod_Bend_Energy-OPLS-2005>
123.014099121094

> <r_mmod_Torsional_Energy-OPLS-2005>
225.361785888672

> <r_mmod_Improper_Torsional_Energy-OPLS-2005>
5.93681526184082

> <r_mmod_Van_der_Waal_Energy-OPLS-2005>
149.656021118164

> <r_mmod_Electrostatic_Energy-OPLS-2005>
-489.359283447266

> <r_mmod_Solvation_Energy-OPLS-2005>
-240.859039306641

> <b_mmod_Minimization_Converged-OPLS-2005>
0

> <r_mmod_RMS_Derivative-OPLS-2005>
2.59394240379333

$$$$
23
                    3D
 Structure written by MMmdl.
154162  0  0  1  0            999 V2000
  -30.6974  -14.4584   20.5770 C   0  0  0  0  0  0
  -30.4184  -12.2956   19.4229 C   0  0  0  0  0  0
  -29.4934  -12.5075   18.2060 C   0  0  0  0  0  0
  -28.0128  -12.3665   18.6142 C   0  0  0  0  0  0
  -27.6579  -13.2070   19.8705 C   0  0  2  0  0  0
  -28.6960  -12.9727   20.9916 C   0  0  0  0  0  0
  -25.2540  -13.8165   20.5650 C   0  0  0  0  0  0
  -24.1792  -13.0442   20.9166 C   0  0  0  0  0  0
  -24.6345  -11.6910   20.8704 C   0  0  0  0  0  0
  -23.9014  -10.4293   21.0376 C   0  0  0  0  0  0
  -24.3576   -9.4225   21.9159 C   0  0  0  0  0  0
  -23.6275   -8.2251   22.0746 C   0  0  0  0  0  0
  -22.4257   -8.0265   21.3537 C   0  0  0  0  0  0
  -21.9885   -9.0215   20.4620 C   0  0  0  0  0  0
  -22.7194  -10.2107   20.3018 C   0  0  0  0  0  0
  -21.6844   -6.0728   22.5280 C   0  0  0  0  0  0
  -21.4003   -6.5635   23.8209 C   0  0  0  0  0  0
  -21.3666   -5.6788   24.9177 C   0  0  0  0  0  0
  -21.6052   -4.3056   24.7230 C   0  0  0  0  0  0
  -21.8811   -3.8135   23.4348 C   0  0  0  0  0  0
  -21.9192   -4.6954   22.3406 C   0  0  0  0  0  0
  -22.7813  -13.5228   21.1866 C   0  0  0  0  0  0
  -22.1656   -4.2148   21.0979 F   0  0  0  0  0  0
  -21.5640   -3.4533   25.7740 F   0  0  0  0  0  0
  -30.0350  -13.2753   20.4506 N   0  0  0  0  0  0
  -26.2977  -12.9337   20.3316 N   0  0  0  0  0  0
  -25.9268  -11.6495   20.5717 N   0  0  0  0  0  0
  -22.0447  -12.8181   22.0399 N   0  0  0  0  0  0
  -25.4263  -15.1883   20.4065 N   0  0  0  0  0  0
  -31.8126  -14.6470   20.0778 O   0  0  0  0  0  0
  -21.6630   -6.8854   21.4234 O   0  0  0  0  0  0
  -22.3501  -14.5558   20.6765 O   0  0  0  0  0  0
  -24.6150  -31.8705   23.2117 C   0  0  0  0  0  0
  -25.9048  -32.4832   23.8399 C   0  0  1  0  0  0
  -27.2151  -27.4338   20.0827 C   0  0  0  0  0  0
  -25.5937  -33.8629   24.2347 N   0  0  0  0  0  0
  -23.4003  -30.4988   21.5523 C   0  0  2  0  0  0
  -24.8439  -28.9740   20.1075 C   0  0  0  0  0  0
  -22.7417  -29.4682   22.4979 C   0  0  0  0  0  0
  -18.0274  -28.1422   22.8510 C   0  0  0  0  0  0
  -24.1502  -36.7276   23.2635 C   0  0  0  0  0  0
  -25.9329  -30.8342   21.3671 C   0  0  0  0  0  0
  -26.0066  -29.4712   20.7108 C   0  0  0  0  0  0
  -27.1979  -28.7054   20.7018 C   0  0  0  0  0  0
  -26.0433  -26.9729   19.4453 C   0  0  0  0  0  0
  -24.8578  -27.7239   19.4707 C   0  0  0  0  0  0
  -23.6058  -29.8400   20.1633 C   0  0  0  0  0  0
  -25.4110  -36.3092   24.0349 C   0  0  1  0  0  0
  -20.5877  -28.3687   23.1335 C   0  0  2  0  0  0
  -20.6786  -26.9433   22.5397 C   0  0  0  0  0  0
  -19.5732  -26.6411   21.5242 C   0  0  0  0  0  0
  -18.1906  -26.7986   22.1635 C   0  0  0  0  0  0
  -19.1534  -28.8856   23.2937 C   0  0  0  0  0  0
  -18.9470  -30.1477   23.8933 C   0  0  0  0  0  0
  -17.6475  -30.6623   24.0576 C   0  0  0  0  0  0
  -25.9035  -34.9474   23.5126 C   0  0  0  0  0  0
  -16.5350  -29.9128   23.6359 C   0  0  0  0  0  0
  -16.7271  -28.6552   23.0361 C   0  0  0  0  0  0
  -26.4469  -31.6600   25.0716 C   0  0  0  0  0  0
  -25.3729  -31.3697   26.1446 C   0  0  0  0  0  0
  -27.0337  -30.3077   24.6043 C   0  0  0  0  0  0
  -27.6029  -32.4322   25.7512 C   0  0  0  0  0  0
  -27.5598  -37.1782   24.8450 C   0  0  0  0  0  0
  -21.4132  -29.3077   22.3761 N   0  0  0  0  0  0
  -26.4277  -37.3799   23.9436 N   0  0  0  0  0  0
  -24.6675  -31.0827   22.1011 N   0  0  0  0  0  0
  -23.4225  -28.8201   23.2969 O   0  0  0  0  0  0
  -28.3462  -26.6411   20.0999 O   0  0  0  0  0  0
  -26.5574  -34.8922   22.4675 O   0  0  0  0  0  0
  -23.5337  -32.1430   23.7510 O   0  0  0  0  0  0
  -30.8978  -18.8901   20.4580 C   0  0  0  0  0  0
  -29.8249  -19.3004   21.2206 C   0  0  0  0  0  0
  -30.1425  -16.8420   21.1354 C   0  0  0  0  0  0
  -31.2472  -22.1319   21.5451 C   0  0  0  0  0  0
  -29.2107  -24.2913   20.3538 C   0  0  0  0  0  0
  -28.8819  -22.9546   21.0630 C   0  0  0  0  0  0
  -28.1103  -25.3311   20.6482 C   0  0  0  0  0  0
  -29.8944  -21.7964   20.8923 C   0  0  2  0  0  0
  -31.0685  -17.4958   20.4182 N   0  0  0  0  0  0
  -29.3251  -20.5848   21.4828 N   0  0  0  0  0  0
  -30.0152  -15.4237   21.2198 N   0  0  0  0  0  0
  -29.0063  -17.9267   21.9336 S   0  0  0  0  0  0
  -31.4656  -12.3835   19.1284 H   0  0  0  0  0  0
  -30.3064  -11.2827   19.8148 H   0  0  0  0  0  0
  -29.7355  -11.7898   17.4210 H   0  0  0  0  0  0
  -29.6666  -13.4971   17.7805 H   0  0  0  0  0  0
  -27.8238  -11.3116   18.8120 H   0  0  0  0  0  0
  -27.3650  -12.6369   17.7798 H   0  0  0  0  0  0
  -27.7036  -14.2555   19.5768 H   0  0  0  0  0  0
  -28.6618  -11.9300   21.3123 H   0  0  0  0  0  0
  -28.4491  -13.5538   21.8804 H   0  0  0  0  0  0
  -25.2707   -9.5737   22.4742 H   0  0  0  0  0  0
  -23.9999   -7.4645   22.7459 H   0  0  0  0  0  0
  -21.0834   -8.8686   19.8900 H   0  0  0  0  0  0
  -22.3624  -10.9625   19.6115 H   0  0  0  0  0  0
  -21.1969   -7.6137   23.9719 H   0  0  0  0  0  0
  -21.1504   -6.0514   25.9085 H   0  0  0  0  0  0
  -22.0585   -2.7599   23.2841 H   0  0  0  0  0  0
  -22.4026  -11.9801   22.4741 H   0  0  0  0  0  0
  -21.1053  -13.1178   22.2595 H   0  0  0  0  0  0
  -24.6544  -15.8416   20.4890 H   0  0  0  0  0  0
  -26.2768  -15.6250   20.0738 H   0  0  0  0  0  0
  -26.7127  -32.5532   23.1158 H   0  0  0  0  0  0
  -25.0183  -33.9815   25.0559 H   0  0  0  0  0  0
  -22.6883  -31.3166   21.4170 H   0  0  0  0  0  0
  -23.3810  -35.9565   23.3218 H   0  0  0  0  0  0
  -24.3615  -36.8956   22.2068 H   0  0  0  0  0  0
  -23.7201  -37.6439   23.6672 H   0  0  0  0  0  0
  -26.0479  -31.6052   20.6052 H   0  0  0  0  0  0
  -26.8219  -30.8801   21.9847 H   0  0  0  0  0  0
  -28.0894  -29.0767   21.1868 H   0  0  0  0  0  0
  -26.0291  -26.0311   18.9169 H   0  0  0  0  0  0
  -23.9691  -27.3420   18.9881 H   0  0  0  0  0  0
  -23.7122  -30.6183   19.4061 H   0  0  0  0  0  0
  -22.7278  -29.2632   19.8640 H   0  0  0  0  0  0
  -25.1292  -36.1931   25.0849 H   0  0  0  0  0  0
  -20.9978  -28.3225   24.1454 H   0  0  0  0  0  0
  -20.5780  -26.2279   23.3562 H   0  0  0  0  0  0
  -21.6634  -26.7532   22.1104 H   0  0  0  0  0  0
  -19.6879  -25.6339   21.1221 H   0  0  0  0  0  0
  -19.6668  -27.3261   20.6817 H   0  0  0  0  0  0
  -17.4189  -26.6811   21.4008 H   0  0  0  0  0  0
  -18.0234  -26.0120   22.9002 H   0  0  0  0  0  0
  -19.7953  -30.7303   24.2276 H   0  0  0  0  0  0
  -17.5039  -31.6325   24.5164 H   0  0  0  0  0  0
  -15.5363  -30.3048   23.7687 H   0  0  0  0  0  0
  -15.8662  -28.0898   22.7055 H   0  0  0  0  0  0
  -24.5908  -30.7044   25.7769 H   0  0  0  0  0  0
  -24.8902  -32.2857   26.4867 H   0  0  0  0  0  0
  -25.8058  -30.8867   27.0212 H   0  0  0  0  0  0
  -26.2904  -29.6831   24.1066 H   0  0  0  0  0  0
  -27.4176  -29.7288   25.4455 H   0  0  0  0  0  0
  -27.8687  -30.4485   23.9179 H   0  0  0  0  0  0
  -27.2637  -33.3641   26.2046 H   0  0  0  0  0  0
  -28.3872  -32.6831   25.0364 H   0  0  0  0  0  0
  -28.0630  -31.8451   26.5471 H   0  0  0  0  0  0
  -28.2484  -38.0204   24.7637 H   0  0  0  0  0  0
  -28.1228  -36.2732   24.6084 H   0  0  0  0  0  0
  -27.2321  -37.1179   25.8848 H   0  0  0  0  0  0
  -20.9258  -29.8893   21.7080 H   0  0  0  0  0  0
  -26.0149  -38.2857   24.1509 H   0  0  0  0  0  0
  -31.5805  -19.5166   19.9011 H   0  0  0  0  0  0
  -31.7454  -22.9529   21.0279 H   0  0  0  0  0  0
  -31.9379  -21.2885   21.5245 H   0  0  0  0  0  0
  -31.1231  -22.4239   22.5892 H   0  0  0  0  0  0
  -29.2884  -24.1288   19.2772 H   0  0  0  0  0  0
  -30.1766  -24.6736   20.6804 H   0  0  0  0  0  0
  -27.9026  -22.6221   20.7141 H   0  0  0  0  0  0
  -28.7526  -23.1582   22.1281 H   0  0  0  0  0  0
  -27.9922  -25.4393   21.7273 H   0  0  0  0  0  0
  -27.1756  -24.8920   20.2996 H   0  0  0  0  0  0
  -30.0489  -21.6184   19.8259 H   0  0  0  0  0  0
  -28.4004  -20.6745   21.8988 H   0  0  0  0  0  0
  -29.1772  -15.1030   21.6796 H   0  0  0  0  0  0
  1 25  1  0  0  0
  1 30  2  0  0  0
  1 81  1  0  0  0
  2  3  1  0  0  0
  2 25  1  0  0  0
  2 83  1  0  0  0
  2 84  1  0  0  0
  3  4  1  0  0  0
  3 85  1  0  0  0
  3 86  1  0  0  0
  4  5  1  0  0  0
  4 87  1  0  0  0
  4 88  1  0  0  0
  5  6  1  0  0  0
  5 26  1  0  0  0
  5 89  1  0  0  0
  6 25  1  0  0  0
  6 90  1  0  0  0
  6 91  1  0  0  0
  7  8  2  0  0  0
  7 26  1  0  0  0
  7 29  1  0  0  0
  8  9  1  0  0  0
  8 22  1  0  0  0
  9 10  1  0  0  0
  9 27  2  0  0  0
 10 11  2  0  0  0
 10 15  1  0  0  0
 11 12  1  0  0  0
 11 92  1  0  0  0
 12 13  2  0  0  0
 12 93  1  0  0  0
 13 14  1  0  0  0
 13 31  1  0  0  0
 14 15  2  0  0  0
 14 94  1  0  0  0
 15 95  1  0  0  0
 16 17  2  0  0  0
 16 21  1  0  0  0
 16 31  1  0  0  0
 17 18  1  0  0  0
 17 96  1  0  0  0
 18 19  2  0  0  0
 18 97  1  0  0  0
 19 20  1  0  0  0
 19 24  1  0  0  0
 20 21  2  0  0  0
 20 98  1  0  0  0
 21 23  1  0  0  0
 22 28  1  0  0  0
 22 32  2  0  0  0
 26 27  1  0  0  0
 28 99  1  0  0  0
 28100  1  0  0  0
 29101  1  0  0  0
 29102  1  0  0  0
 33 34  1  0  0  0
 33 66  1  0  0  0
 33 70  2  0  0  0
 34 36  1  0  0  0
 34 59  1  0  0  0
 34103  1  0  0  0
 35 44  2  0  0  0
 35 45  1  0  0  0
 35 68  1  0  0  0
 36 56  1  0  0  0
 36104  1  0  0  0
 37 39  1  0  0  0
 37 47  1  0  0  0
 37 66  1  0  0  0
 37105  1  0  0  0
 38 43  2  0  0  0
 38 46  1  0  0  0
 38 47  1  0  0  0
 39 64  1  0  0  0
 39 67  2  0  0  0
 40 52  1  0  0  0
 40 53  2  0  0  0
 40 58  1  0  0  0
 41106  1  0  0  0
 41107  1  0  0  0
 41108  1  0  0  0
 41 48  1  0  0  0
 42 43  1  0  0  0
 42 66  1  0  0  0
 42109  1  0  0  0
 42110  1  0  0  0
 43 44  1  0  0  0
 44111  1  0  0  0
 45 46  2  0  0  0
 45112  1  0  0  0
 46113  1  0  0  0
 47114  1  0  0  0
 47115  1  0  0  0
 48 56  1  0  0  0
 48 65  1  0  0  0
 48116  1  0  0  0
 49 50  1  0  0  0
 49 53  1  0  0  0
 49 64  1  0  0  0
 49117  1  0  0  0
 50 51  1  0  0  0
 50118  1  0  0  0
 50119  1  0  0  0
 51 52  1  0  0  0
 51120  1  0  0  0
 51121  1  0  0  0
 52122  1  0  0  0
 52123  1  0  0  0
 53 54  1  0  0  0
 54 55  2  0  0  0
 54124  1  0  0  0
 55 57  1  0  0  0
 55125  1  0  0  0
 56 69  2  0  0  0
 57 58  2  0  0  0
 57126  1  0  0  0
 58127  1  0  0  0
 59 60  1  0  0  0
 59 61  1  0  0  0
 59 62  1  0  0  0
 60128  1  0  0  0
 60129  1  0  0  0
 60130  1  0  0  0
 61131  1  0  0  0
 61132  1  0  0  0
 61133  1  0  0  0
 62134  1  0  0  0
 62135  1  0  0  0
 62136  1  0  0  0
 63 65  1  0  0  0
 63137  1  0  0  0
 63138  1  0  0  0
 63139  1  0  0  0
 64140  1  0  0  0
 65141  1  0  0  0
 68 77  1  0  0  0
 71 72  2  0  0  0
 71 79  1  0  0  0
 71142  1  0  0  0
 72 80  1  0  0  0
 72 82  1  0  0  0
 73 79  2  0  0  0
 73 81  1  0  0  0
 73 82  1  0  0  0
 74143  1  0  0  0
 74144  1  0  0  0
 74145  1  0  0  0
 74 78  1  0  0  0
 75 76  1  0  0  0
 75 77  1  0  0  0
 75146  1  0  0  0
 75147  1  0  0  0
 76 78  1  0  0  0
 76148  1  0  0  0
 76149  1  0  0  0
 77150  1  0  0  0
 77151  1  0  0  0
 78 80  1  0  0  0
 78152  1  0  0  0
 80153  1  0  0  0
 81154  1  0  0  0
M  ISO  4   1 100  68 101  77 101  81 100
M  END
> <chiral flag>
0

> <version>
0

> <s_m_source_file>
/data/baiqing/PycharmProjects/Reinvent-master-3.2/result/LINK_invent/BTK/process_docking_weight1_custom_product_contain_oxygen_bond_distance_aromatic_linkinvent_7_9_3/rearranged_h_0197.sdf

> <i_m_source_file_index>
24

> <r_mmod_Potential_Energy-OPLS-2005>
-86.6501693725586

> <r_mmod_Stretch_Energy-OPLS-2005>
34.7436752319336

> <r_mmod_Bend_Energy-OPLS-2005>
104.741775512695

> <r_mmod_Torsional_Energy-OPLS-2005>
214.943908691406

> <r_mmod_Improper_Torsional_Energy-OPLS-2005>
3.62551331520081

> <r_mmod_Van_der_Waal_Energy-OPLS-2005>
135.987686157227

> <r_mmod_Electrostatic_Energy-OPLS-2005>
-361.847961425781

> <r_mmod_Solvation_Energy-OPLS-2005>
-232.625213623047

> <b_mmod_Minimization_Converged-OPLS-2005>
0

> <r_mmod_RMS_Derivative-OPLS-2005>
3.02009654045105

$$$$
24
                    3D
 Structure written by MMmdl.
154162  0  0  1  0            999 V2000
  -30.6460  -14.5795   20.5165 C   0  0  0  0  0  0
  -30.4345  -12.3585   19.4413 C   0  0  0  0  0  0
  -29.5066  -12.4995   18.2156 C   0  0  0  0  0  0
  -28.0259  -12.3511   18.6225 C   0  0  0  0  0  0
  -27.6532  -13.2126   19.8596 C   0  0  2  0  0  0
  -28.6983  -13.0436   20.9856 C   0  0  0  0  0  0
  -25.2541  -13.8165   20.5656 C   0  0  0  0  0  0
  -24.1810  -13.0431   20.9165 C   0  0  0  0  0  0
  -24.6381  -11.6892   20.8709 C   0  0  0  0  0  0
  -23.9044  -10.4278   21.0383 C   0  0  0  0  0  0
  -24.3595   -9.4200   21.9169 C   0  0  0  0  0  0
  -23.6264   -8.2248   22.0767 C   0  0  0  0  0  0
  -22.4252   -8.0279   21.3550 C   0  0  0  0  0  0
  -21.9881   -9.0243   20.4659 C   0  0  0  0  0  0
  -22.7215  -10.2114   20.3043 C   0  0  0  0  0  0
  -21.6843   -6.0718   22.5257 C   0  0  0  0  0  0
  -21.4020   -6.5625   23.8195 C   0  0  0  0  0  0
  -21.3658   -5.6776   24.9164 C   0  0  0  0  0  0
  -21.6048   -4.3044   24.7213 C   0  0  0  0  0  0
  -21.8821   -3.8126   23.4340 C   0  0  0  0  0  0
  -21.9192   -4.6940   22.3391 C   0  0  0  0  0  0
  -22.7837  -13.5229   21.1831 C   0  0  0  0  0  0
  -22.1654   -4.2122   21.0964 F   0  0  0  0  0  0
  -21.5630   -3.4535   25.7732 F   0  0  0  0  0  0
  -30.0175  -13.3721   20.4241 N   0  0  0  0  0  0
  -26.2966  -12.9333   20.3271 N   0  0  0  0  0  0
  -25.9301  -11.6494   20.5721 N   0  0  0  0  0  0
  -22.0470  -12.8222   22.0397 N   0  0  0  0  0  0
  -25.4252  -15.1904   20.4095 N   0  0  0  0  0  0
  -31.8165  -14.7285   20.1473 O   0  0  0  0  0  0
  -21.6631   -6.8864   21.4225 O   0  0  0  0  0  0
  -22.3513  -14.5519   20.6673 O   0  0  0  0  0  0
  -24.6142  -31.8636   23.2054 C   0  0  0  0  0  0
  -25.9019  -32.4782   23.8363 C   0  0  1  0  0  0
  -27.2397  -27.3957   20.0954 C   0  0  0  0  0  0
  -25.5878  -33.8587   24.2275 N   0  0  0  0  0  0
  -23.4066  -30.4831   21.5466 C   0  0  2  0  0  0
  -24.8523  -28.9397   20.1135 C   0  0  0  0  0  0
  -22.7411  -29.4600   22.4938 C   0  0  0  0  0  0
  -18.0273  -28.1382   22.8424 C   0  0  0  0  0  0
  -24.1503  -36.7318   23.2638 C   0  0  0  0  0  0
  -25.9377  -30.8123   21.3672 C   0  0  0  0  0  0
  -26.0119  -29.4451   20.7127 C   0  0  0  0  0  0
  -27.2023  -28.6777   20.7042 C   0  0  0  0  0  0
  -26.0533  -26.9065   19.5009 C   0  0  0  0  0  0
  -24.8675  -27.6685   19.5076 C   0  0  0  0  0  0
  -23.6196  -29.8142   20.1609 C   0  0  0  0  0  0
  -25.4124  -36.3079   24.0327 C   0  0  1  0  0  0
  -20.5854  -28.3639   23.1273 C   0  0  2  0  0  0
  -20.6749  -26.9358   22.5391 C   0  0  0  0  0  0
  -19.5747  -26.6359   21.5175 C   0  0  0  0  0  0
  -18.1922  -26.7898   22.1592 C   0  0  0  0  0  0
  -19.1527  -28.8825   23.2838 C   0  0  0  0  0  0
  -18.9461  -30.1424   23.8848 C   0  0  0  0  0  0
  -17.6467  -30.6556   24.0543 C   0  0  0  0  0  0
  -25.9056  -34.9448   23.5102 C   0  0  0  0  0  0
  -16.5357  -29.9067   23.6318 C   0  0  0  0  0  0
  -16.7263  -28.6518   23.0277 C   0  0  0  0  0  0
  -26.4423  -31.6605   25.0724 C   0  0  0  0  0  0
  -25.3662  -31.3790   26.1469 C   0  0  0  0  0  0
  -27.0253  -30.3031   24.6154 C   0  0  0  0  0  0
  -27.5980  -32.4348   25.7501 C   0  0  0  0  0  0
  -27.5592  -37.1815   24.8453 C   0  0  0  0  0  0
  -21.4128  -29.3027   22.3701 N   0  0  0  0  0  0
  -26.4306  -37.3772   23.9392 N   0  0  0  0  0  0
  -24.6709  -31.0674   22.0991 N   0  0  0  0  0  0
  -23.4173  -28.8091   23.2955 O   0  0  0  0  0  0
  -28.4229  -26.6714   20.1399 O   0  0  0  0  0  0
  -26.5628  -34.8903   22.4667 O   0  0  0  0  0  0
  -23.5320  -32.1417   23.7418 O   0  0  0  0  0  0
  -30.0562  -19.5514   20.9758 C   0  0  0  0  0  0
  -31.2747  -18.9678   21.2632 C   0  0  0  0  0  0
  -30.0911  -17.0418   20.8692 C   0  0  0  0  0  0
  -29.6406  -20.9905   21.0341 C   0  0  0  0  0  0
  -32.5437  -19.6750   21.6424 C   0  0  0  0  0  0
  -29.7104  -23.1220   19.6714 C   0  0  0  0  0  0
  -28.6464  -25.5078   19.3116 C   0  0  0  0  0  0
  -28.5237  -24.0957   19.9970 C   0  0  1  0  0  0
  -31.2834  -17.5615   21.1878 N   0  0  0  0  0  0
  -29.8279  -15.6270   20.8131 N   0  0  0  0  0  0
  -29.4852  -21.6649   19.8778 N   0  0  0  0  0  0
  -29.5618  -21.5642   22.1224 O   0  0  0  0  0  0
  -27.3380  -23.4589   19.5516 O   0  0  0  0  0  0
  -28.8594  -18.3055   20.6252 S   0  0  0  0  0  0
  -31.4790  -12.4698   19.1430 H   0  0  0  0  0  0
  -30.3550  -11.3622   19.8787 H   0  0  0  0  0  0
  -29.7685  -11.7557   17.4626 H   0  0  0  0  0  0
  -29.6604  -13.4738   17.7485 H   0  0  0  0  0  0
  -27.8449  -11.2976   18.8382 H   0  0  0  0  0  0
  -27.3796  -12.6022   17.7808 H   0  0  0  0  0  0
  -27.6763  -14.2511   19.5287 H   0  0  0  0  0  0
  -28.7015  -12.0156   21.3512 H   0  0  0  0  0  0
  -28.4546  -13.6658   21.8472 H   0  0  0  0  0  0
  -25.2751   -9.5666   22.4729 H   0  0  0  0  0  0
  -23.9952   -7.4651   22.7505 H   0  0  0  0  0  0
  -21.0805   -8.8762   19.8974 H   0  0  0  0  0  0
  -22.3677  -10.9641   19.6133 H   0  0  0  0  0  0
  -21.2028   -7.6136   23.9682 H   0  0  0  0  0  0
  -21.1478   -6.0518   25.9055 H   0  0  0  0  0  0
  -22.0611   -2.7583   23.2844 H   0  0  0  0  0  0
  -22.4061  -11.9860   22.4751 H   0  0  0  0  0  0
  -21.1110  -13.1275   22.2642 H   0  0  0  0  0  0
  -24.6587  -15.8427   20.5407 H   0  0  0  0  0  0
  -26.2634  -15.6345   20.0591 H   0  0  0  0  0  0
  -26.7072  -32.5471   23.1111 H   0  0  0  0  0  0
  -24.9951  -33.9777   25.0359 H   0  0  0  0  0  0
  -22.7007  -31.3038   21.4042 H   0  0  0  0  0  0
  -23.3749  -35.9672   23.3283 H   0  0  0  0  0  0
  -24.3570  -36.8939   22.2050 H   0  0  0  0  0  0
  -23.7279  -37.6523   23.6667 H   0  0  0  0  0  0
  -26.0597  -31.5774   20.5995 H   0  0  0  0  0  0
  -26.8220  -30.8596   21.9912 H   0  0  0  0  0  0
  -28.0978  -29.0612   21.1721 H   0  0  0  0  0  0
  -26.0283  -25.9278   19.0428 H   0  0  0  0  0  0
  -23.9714  -27.2683   19.0511 H   0  0  0  0  0  0
  -23.7381  -30.5956   19.4099 H   0  0  0  0  0  0
  -22.7434  -29.2412   19.8473 H   0  0  0  0  0  0
  -25.1298  -36.1951   25.0828 H   0  0  0  0  0  0
  -20.9939  -28.3219   24.1404 H   0  0  0  0  0  0
  -20.5659  -26.2228   23.3565 H   0  0  0  0  0  0
  -21.6622  -26.7397   22.1192 H   0  0  0  0  0  0
  -19.6925  -25.6290   21.1181 H   0  0  0  0  0  0
  -19.6723  -27.3188   20.6719 H   0  0  0  0  0  0
  -17.4177  -26.6558   21.4017 H   0  0  0  0  0  0
  -18.0364  -26.0092   22.9057 H   0  0  0  0  0  0
  -19.7969  -30.7197   24.2226 H   0  0  0  0  0  0
  -17.5060  -31.6254   24.5125 H   0  0  0  0  0  0
  -15.5365  -30.2949   23.7713 H   0  0  0  0  0  0
  -15.8648  -28.0869   22.6944 H   0  0  0  0  0  0
  -24.5893  -30.7025   25.7866 H   0  0  0  0  0  0
  -24.8770  -32.2965   26.4762 H   0  0  0  0  0  0
  -25.8011  -30.9125   27.0325 H   0  0  0  0  0  0
  -26.2829  -29.6821   24.1113 H   0  0  0  0  0  0
  -27.3862  -29.7238   25.4665 H   0  0  0  0  0  0
  -27.8728  -30.4276   23.9404 H   0  0  0  0  0  0
  -27.2580  -33.3678   26.2014 H   0  0  0  0  0  0
  -28.3838  -32.6866   25.0365 H   0  0  0  0  0  0
  -28.0570  -31.8505   26.5482 H   0  0  0  0  0  0
  -28.2593  -38.0143   24.7491 H   0  0  0  0  0  0
  -28.1110  -36.2649   24.6284 H   0  0  0  0  0  0
  -27.2278  -37.1445   25.8854 H   0  0  0  0  0  0
  -20.9287  -29.8815   21.6989 H   0  0  0  0  0  0
  -26.0185  -38.2838   24.1438 H   0  0  0  0  0  0
  -32.4975  -20.0690   22.6586 H   0  0  0  0  0  0
  -32.7452  -20.5169   20.9798 H   0  0  0  0  0  0
  -33.4023  -19.0062   21.5843 H   0  0  0  0  0  0
  -30.6024  -23.4315   20.2231 H   0  0  0  0  0  0
  -29.9816  -23.2350   18.6190 H   0  0  0  0  0  0
  -28.0933  -25.5565   18.3728 H   0  0  0  0  0  0
  -29.6848  -25.6267   19.0032 H   0  0  0  0  0  0
  -28.4751  -24.2347   21.0811 H   0  0  0  0  0  0
  -28.8612  -15.3737   20.9261 H   0  0  0  0  0  0
  -29.5431  -21.1004   19.0414 H   0  0  0  0  0  0
  -27.4523  -22.5312   19.7393 H   0  0  0  0  0  0
  1 25  1  0  0  0
  1 30  2  0  0  0
  1 80  1  0  0  0
  2  3  1  0  0  0
  2 25  1  0  0  0
  2 85  1  0  0  0
  2 86  1  0  0  0
  3  4  1  0  0  0
  3 87  1  0  0  0
  3 88  1  0  0  0
  4  5  1  0  0  0
  4 89  1  0  0  0
  4 90  1  0  0  0
  5  6  1  0  0  0
  5 26  1  0  0  0
  5 91  1  0  0  0
  6 25  1  0  0  0
  6 92  1  0  0  0
  6 93  1  0  0  0
  7  8  2  0  0  0
  7 26  1  0  0  0
  7 29  1  0  0  0
  8  9  1  0  0  0
  8 22  1  0  0  0
  9 10  1  0  0  0
  9 27  2  0  0  0
 10 11  2  0  0  0
 10 15  1  0  0  0
 11 12  1  0  0  0
 11 94  1  0  0  0
 12 13  2  0  0  0
 12 95  1  0  0  0
 13 14  1  0  0  0
 13 31  1  0  0  0
 14 15  2  0  0  0
 14 96  1  0  0  0
 15 97  1  0  0  0
 16 17  2  0  0  0
 16 21  1  0  0  0
 16 31  1  0  0  0
 17 18  1  0  0  0
 17 98  1  0  0  0
 18 19  2  0  0  0
 18 99  1  0  0  0
 19 20  1  0  0  0
 19 24  1  0  0  0
 20 21  2  0  0  0
 20100  1  0  0  0
 21 23  1  0  0  0
 22 28  1  0  0  0
 22 32  2  0  0  0
 26 27  1  0  0  0
 28101  1  0  0  0
 28102  1  0  0  0
 29103  1  0  0  0
 29104  1  0  0  0
 33 34  1  0  0  0
 33 66  1  0  0  0
 33 70  2  0  0  0
 34 36  1  0  0  0
 34 59  1  0  0  0
 34105  1  0  0  0
 35 44  2  0  0  0
 35 45  1  0  0  0
 35 68  1  0  0  0
 36 56  1  0  0  0
 36106  1  0  0  0
 37 39  1  0  0  0
 37 47  1  0  0  0
 37 66  1  0  0  0
 37107  1  0  0  0
 38 43  2  0  0  0
 38 46  1  0  0  0
 38 47  1  0  0  0
 39 64  1  0  0  0
 39 67  2  0  0  0
 40 52  1  0  0  0
 40 53  2  0  0  0
 40 58  1  0  0  0
 41108  1  0  0  0
 41109  1  0  0  0
 41110  1  0  0  0
 41 48  1  0  0  0
 42 43  1  0  0  0
 42 66  1  0  0  0
 42111  1  0  0  0
 42112  1  0  0  0
 43 44  1  0  0  0
 44113  1  0  0  0
 45 46  2  0  0  0
 45114  1  0  0  0
 46115  1  0  0  0
 47116  1  0  0  0
 47117  1  0  0  0
 48 56  1  0  0  0
 48 65  1  0  0  0
 48118  1  0  0  0
 49 50  1  0  0  0
 49 53  1  0  0  0
 49 64  1  0  0  0
 49119  1  0  0  0
 50 51  1  0  0  0
 50120  1  0  0  0
 50121  1  0  0  0
 51 52  1  0  0  0
 51122  1  0  0  0
 51123  1  0  0  0
 52124  1  0  0  0
 52125  1  0  0  0
 53 54  1  0  0  0
 54 55  2  0  0  0
 54126  1  0  0  0
 55 57  1  0  0  0
 55127  1  0  0  0
 56 69  2  0  0  0
 57 58  2  0  0  0
 57128  1  0  0  0
 58129  1  0  0  0
 59 60  1  0  0  0
 59 61  1  0  0  0
 59 62  1  0  0  0
 60130  1  0  0  0
 60131  1  0  0  0
 60132  1  0  0  0
 61133  1  0  0  0
 61134  1  0  0  0
 61135  1  0  0  0
 62136  1  0  0  0
 62137  1  0  0  0
 62138  1  0  0  0
 63 65  1  0  0  0
 63139  1  0  0  0
 63140  1  0  0  0
 63141  1  0  0  0
 64142  1  0  0  0
 65143  1  0  0  0
 68 77  1  0  0  0
 71 72  2  0  0  0
 71 74  1  0  0  0
 71 84  1  0  0  0
 72 75  1  0  0  0
 72 79  1  0  0  0
 73 79  2  0  0  0
 73 80  1  0  0  0
 73 84  1  0  0  0
 74 81  1  0  0  0
 74 82  2  0  0  0
 75144  1  0  0  0
 75145  1  0  0  0
 75146  1  0  0  0
 76 78  1  0  0  0
 76 81  1  0  0  0
 76147  1  0  0  0
 76148  1  0  0  0
 77 78  1  0  0  0
 77149  1  0  0  0
 77150  1  0  0  0
 78 83  1  0  0  0
 78151  1  0  0  0
 80152  1  0  0  0
 81153  1  0  0  0
 83154  1  0  0  0
M  ISO  4   1 100  68 101  77 101  80 100
M  END
> <chiral flag>
0

> <version>
0

> <s_m_source_file>
/data/baiqing/PycharmProjects/Reinvent-master-3.2/result/LINK_invent/BTK/process_docking_weight1_custom_product_contain_oxygen_bond_distance_aromatic_linkinvent_7_9_3/rearranged_h_0197.sdf

> <i_m_source_file_index>
25

> <r_mmod_Potential_Energy-OPLS-2005>
-167.002029418945

> <r_mmod_Stretch_Energy-OPLS-2005>
46.7941703796387

> <r_mmod_Bend_Energy-OPLS-2005>
123.333465576172

> <r_mmod_Torsional_Energy-OPLS-2005>
269.414581298828

> <r_mmod_Improper_Torsional_Energy-OPLS-2005>
8.0449104309082

> <r_mmod_Van_der_Waal_Energy-OPLS-2005>
121.005615234375

> <r_mmod_Electrostatic_Energy-OPLS-2005>
-494.311218261719

> <r_mmod_Solvation_Energy-OPLS-2005>
-268.509490966797

> <b_mmod_Minimization_Converged-OPLS-2005>
0

> <r_mmod_RMS_Derivative-OPLS-2005>
3.90711545944214

$$$$
25
                    3D
 Structure written by MMmdl.
160168  0  0  1  0            999 V2000
  -30.7077  -14.5422   20.5374 C   0  0  0  0  0  0
  -30.4164  -12.3394   19.4408 C   0  0  0  0  0  0
  -29.4932  -12.4845   18.2138 C   0  0  0  0  0  0
  -28.0179  -12.3385   18.6319 C   0  0  0  0  0  0
  -27.6515  -13.2156   19.8594 C   0  0  2  0  0  0
  -28.6967  -13.0709   20.9890 C   0  0  0  0  0  0
  -25.2552  -13.8181   20.5684 C   0  0  0  0  0  0
  -24.1823  -13.0447   20.9197 C   0  0  0  0  0  0
  -24.6390  -11.6915   20.8753 C   0  0  0  0  0  0
  -23.9063  -10.4297   21.0420 C   0  0  0  0  0  0
  -24.3615   -9.4209   21.9197 C   0  0  0  0  0  0
  -23.6292   -8.2243   22.0759 C   0  0  0  0  0  0
  -22.4274   -8.0285   21.3543 C   0  0  0  0  0  0
  -21.9910   -9.0262   20.4645 C   0  0  0  0  0  0
  -22.7239  -10.2142   20.3064 C   0  0  0  0  0  0
  -21.6850   -6.0738   22.5282 C   0  0  0  0  0  0
  -21.4011   -6.5642   23.8214 C   0  0  0  0  0  0
  -21.3660   -5.6795   24.9177 C   0  0  0  0  0  0
  -21.6045   -4.3056   24.7227 C   0  0  0  0  0  0
  -21.8817   -3.8147   23.4346 C   0  0  0  0  0  0
  -21.9192   -4.6968   22.3404 C   0  0  0  0  0  0
  -22.7839  -13.5238   21.1865 C   0  0  0  0  0  0
  -22.1658   -4.2152   21.0980 F   0  0  0  0  0  0
  -21.5633   -3.4540   25.7738 F   0  0  0  0  0  0
  -30.0179  -13.3689   20.4174 N   0  0  0  0  0  0
  -26.2982  -12.9363   20.3320 N   0  0  0  0  0  0
  -25.9322  -11.6520   20.5774 N   0  0  0  0  0  0
  -22.0480  -12.8230   22.0411 N   0  0  0  0  0  0
  -25.4253  -15.1899   20.4076 N   0  0  0  0  0  0
  -31.8648  -14.6404   20.1150 O   0  0  0  0  0  0
  -21.6633   -6.8881   21.4239 O   0  0  0  0  0  0
  -22.3529  -14.5550   20.6715 O   0  0  0  0  0  0
  -24.6192  -31.8649   23.2074 C   0  0  0  0  0  0
  -25.9068  -32.4806   23.8385 C   0  0  1  0  0  0
  -27.2234  -27.3876   20.1072 C   0  0  0  0  0  0
  -25.5888  -33.8601   24.2305 N   0  0  0  0  0  0
  -23.4096  -30.4886   21.5490 C   0  0  2  0  0  0
  -24.8574  -28.9542   20.1116 C   0  0  0  0  0  0
  -22.7449  -29.4637   22.4961 C   0  0  0  0  0  0
  -18.0282  -28.1363   22.8485 C   0  0  0  0  0  0
  -24.1485  -36.7310   23.2640 C   0  0  0  0  0  0
  -25.9444  -30.8158   21.3716 C   0  0  0  0  0  0
  -26.0216  -29.4494   20.7136 C   0  0  0  0  0  0
  -27.2114  -28.6744   20.7077 C   0  0  0  0  0  0
  -26.0470  -26.9330   19.4730 C   0  0  0  0  0  0
  -24.8667  -27.6969   19.4860 C   0  0  0  0  0  0
  -23.6217  -29.8246   20.1628 C   0  0  0  0  0  0
  -25.4106  -36.3096   24.0337 C   0  0  1  0  0  0
  -20.5877  -28.3665   23.1281 C   0  0  2  0  0  0
  -20.6767  -26.9393   22.5399 C   0  0  0  0  0  0
  -19.5749  -26.6366   21.5200 C   0  0  0  0  0  0
  -18.1923  -26.7904   22.1612 C   0  0  0  0  0  0
  -19.1535  -28.8829   23.2877 C   0  0  0  0  0  0
  -18.9467  -30.1431   23.8893 C   0  0  0  0  0  0
  -17.6469  -30.6568   24.0553 C   0  0  0  0  0  0
  -25.9041  -34.9463   23.5124 C   0  0  0  0  0  0
  -16.5358  -29.9063   23.6325 C   0  0  0  0  0  0
  -16.7272  -28.6481   23.0348 C   0  0  0  0  0  0
  -26.4483  -31.6597   25.0735 C   0  0  0  0  0  0
  -25.3739  -31.3706   26.1480 C   0  0  0  0  0  0
  -27.0339  -30.3029   24.6151 C   0  0  0  0  0  0
  -27.6046  -32.4335   25.7498 C   0  0  0  0  0  0
  -27.5580  -37.1800   24.8464 C   0  0  0  0  0  0
  -21.4171  -29.3031   22.3696 N   0  0  0  0  0  0
  -26.4294  -37.3777   23.9415 N   0  0  0  0  0  0
  -24.6759  -31.0712   22.1001 N   0  0  0  0  0  0
  -23.4204  -28.8189   23.3021 O   0  0  0  0  0  0
  -28.3394  -26.5634   20.1391 O   0  0  0  0  0  0
  -26.5611  -34.8928   22.4688 O   0  0  0  0  0  0
  -23.5376  -32.1416   23.7440 O   0  0  0  0  0  0
  -31.1555  -19.3754   22.1700 C   0  0  0  0  0  0
  -31.9558  -18.2311   22.3577 C   0  0  0  0  0  0
  -29.9517  -19.1908   21.4603 C   0  0  0  0  0  0
  -30.4155  -16.9137   21.2679 C   0  0  0  0  0  0
  -31.5853  -20.7188   22.7524 C   0  0  0  0  0  0
  -33.2768  -18.2607   23.1052 C   0  0  0  0  0  0
  -29.0048  -24.0602   20.3020 C   0  0  0  0  0  0
  -29.3875  -21.4017   20.4384 C   0  0  0  0  0  0
  -28.1070  -25.2617   20.7564 C   0  0  0  0  0  0
  -28.5806  -22.6660   20.8953 C   0  0  1  0  0  0
  -31.5690  -17.0231   21.9195 N   0  0  0  0  0  0
  -29.5927  -17.9532   21.0277 N   0  0  0  0  0  0
  -29.0191  -20.2304   21.2565 N   0  0  0  0  0  0
  -29.9912  -15.6333   20.9247 N   0  0  0  0  0  0
  -28.6850  -22.6961   22.3114 O   0  0  0  0  0  0
  -31.4625  -12.4214   19.1389 H   0  0  0  0  0  0
  -30.3135  -11.3465   19.8820 H   0  0  0  0  0  0
  -29.7430  -11.7295   17.4669 H   0  0  0  0  0  0
  -29.6513  -13.4535   17.7380 H   0  0  0  0  0  0
  -27.8504  -11.2863   18.8690 H   0  0  0  0  0  0
  -27.3614  -12.5682   17.7921 H   0  0  0  0  0  0
  -27.6720  -14.2492   19.5152 H   0  0  0  0  0  0
  -28.6866  -12.0581   21.3939 H   0  0  0  0  0  0
  -28.4568  -13.7282   21.8259 H   0  0  0  0  0  0
  -25.2761   -9.5685   22.4774 H   0  0  0  0  0  0
  -24.0004   -7.4629   22.7475 H   0  0  0  0  0  0
  -21.0847   -8.8784   19.8941 H   0  0  0  0  0  0
  -22.3709  -10.9685   19.6173 H   0  0  0  0  0  0
  -21.1994   -7.6148   23.9719 H   0  0  0  0  0  0
  -21.1487   -6.0524   25.9082 H   0  0  0  0  0  0
  -22.0595   -2.7611   23.2846 H   0  0  0  0  0  0
  -22.4087  -11.9893   22.4806 H   0  0  0  0  0  0
  -21.1098  -13.1255   22.2620 H   0  0  0  0  0  0
  -24.6548  -15.8415   20.5103 H   0  0  0  0  0  0
  -26.2707  -15.6314   20.0686 H   0  0  0  0  0  0
  -26.7152  -32.5506   23.1157 H   0  0  0  0  0  0
  -25.0030  -33.9760   25.0443 H   0  0  0  0  0  0
  -22.6990  -31.3058   21.4096 H   0  0  0  0  0  0
  -23.3741  -35.9647   23.3308 H   0  0  0  0  0  0
  -24.3578  -36.8923   22.2053 H   0  0  0  0  0  0
  -23.7249  -37.6520   23.6664 H   0  0  0  0  0  0
  -26.0686  -31.5848   20.6084 H   0  0  0  0  0  0
  -26.8263  -30.8614   21.9983 H   0  0  0  0  0  0
  -28.1061  -29.0448   21.1889 H   0  0  0  0  0  0
  -26.0321  -25.9729   18.9760 H   0  0  0  0  0  0
  -23.9748  -27.3115   19.0115 H   0  0  0  0  0  0
  -23.7378  -30.6009   19.4058 H   0  0  0  0  0  0
  -22.7444  -29.2488   19.8625 H   0  0  0  0  0  0
  -25.1274  -36.1962   25.0827 H   0  0  0  0  0  0
  -20.9959  -28.3248   24.1406 H   0  0  0  0  0  0
  -20.5641  -26.2284   23.3599 H   0  0  0  0  0  0
  -21.6637  -26.7409   22.1211 H   0  0  0  0  0  0
  -19.6905  -25.6276   21.1230 H   0  0  0  0  0  0
  -19.6685  -27.3170   20.6724 H   0  0  0  0  0  0
  -17.4185  -26.6653   21.4020 H   0  0  0  0  0  0
  -18.0344  -26.0034   22.8999 H   0  0  0  0  0  0
  -19.7954  -30.7238   24.2258 H   0  0  0  0  0  0
  -17.5034  -31.6256   24.5148 H   0  0  0  0  0  0
  -15.5354  -30.2960   23.7656 H   0  0  0  0  0  0
  -15.8682  -28.0797   22.7057 H   0  0  0  0  0  0
  -24.5900  -30.7067   25.7811 H   0  0  0  0  0  0
  -24.8954  -32.2871   26.4944 H   0  0  0  0  0  0
  -25.8085  -30.8859   27.0230 H   0  0  0  0  0  0
  -26.2908  -29.6762   24.1206 H   0  0  0  0  0  0
  -27.4094  -29.7289   25.4631 H   0  0  0  0  0  0
  -27.8745  -30.4329   23.9332 H   0  0  0  0  0  0
  -27.2645  -33.3618   26.2096 H   0  0  0  0  0  0
  -28.3842  -32.6915   25.0319 H   0  0  0  0  0  0
  -28.0739  -31.8456   26.5402 H   0  0  0  0  0  0
  -28.2578  -38.0109   24.7500 H   0  0  0  0  0  0
  -28.1088  -36.2633   24.6292 H   0  0  0  0  0  0
  -27.2301  -37.1445   25.8866 H   0  0  0  0  0  0
  -20.9339  -29.8773   21.6932 H   0  0  0  0  0  0
  -26.0183  -38.2855   24.1411 H   0  0  0  0  0  0
  -32.2105  -21.2599   22.0421 H   0  0  0  0  0  0
  -32.1536  -20.5958   23.6738 H   0  0  0  0  0  0
  -30.7332  -21.3431   23.0084 H   0  0  0  0  0  0
  -33.0972  -18.3247   24.1786 H   0  0  0  0  0  0
  -33.8839  -19.1141   22.8037 H   0  0  0  0  0  0
  -33.8599  -17.3590   22.9148 H   0  0  0  0  0  0
  -30.0457  -24.2678   20.5512 H   0  0  0  0  0  0
  -28.9653  -23.9954   19.2140 H   0  0  0  0  0  0
  -30.4591  -21.5904   20.4963 H   0  0  0  0  0  0
  -29.1736  -21.1848   19.3910 H   0  0  0  0  0  0
  -28.2404  -25.4070   21.8289 H   0  0  0  0  0  0
  -27.0717  -24.9388   20.6489 H   0  0  0  0  0  0
  -27.5303  -22.4988   20.6448 H   0  0  0  0  0  0
  -28.8073  -20.6760   22.1487 H   0  0  0  0  0  0
  -29.0000  -15.4877   20.9955 H   0  0  0  0  0  0
  -28.0630  -23.3357   22.6417 H   0  0  0  0  0  0
  1 25  1  0  0  0
  1 30  2  0  0  0
  1 84  1  0  0  0
  2  3  1  0  0  0
  2 25  1  0  0  0
  2 86  1  0  0  0
  2 87  1  0  0  0
  3  4  1  0  0  0
  3 88  1  0  0  0
  3 89  1  0  0  0
  4  5  1  0  0  0
  4 90  1  0  0  0
  4 91  1  0  0  0
  5  6  1  0  0  0
  5 26  1  0  0  0
  5 92  1  0  0  0
  6 25  1  0  0  0
  6 93  1  0  0  0
  6 94  1  0  0  0
  7  8  2  0  0  0
  7 26  1  0  0  0
  7 29  1  0  0  0
  8  9  1  0  0  0
  8 22  1  0  0  0
  9 10  1  0  0  0
  9 27  2  0  0  0
 10 11  2  0  0  0
 10 15  1  0  0  0
 11 12  1  0  0  0
 11 95  1  0  0  0
 12 13  2  0  0  0
 12 96  1  0  0  0
 13 14  1  0  0  0
 13 31  1  0  0  0
 14 15  2  0  0  0
 14 97  1  0  0  0
 15 98  1  0  0  0
 16 17  2  0  0  0
 16 21  1  0  0  0
 16 31  1  0  0  0
 17 18  1  0  0  0
 17 99  1  0  0  0
 18 19  2  0  0  0
 18100  1  0  0  0
 19 20  1  0  0  0
 19 24  1  0  0  0
 20 21  2  0  0  0
 20101  1  0  0  0
 21 23  1  0  0  0
 22 28  1  0  0  0
 22 32  2  0  0  0
 26 27  1  0  0  0
 28102  1  0  0  0
 28103  1  0  0  0
 29104  1  0  0  0
 29105  1  0  0  0
 33 34  1  0  0  0
 33 66  1  0  0  0
 33 70  2  0  0  0
 34 36  1  0  0  0
 34 59  1  0  0  0
 34106  1  0  0  0
 35 44  2  0  0  0
 35 45  1  0  0  0
 35 68  1  0  0  0
 36 56  1  0  0  0
 36107  1  0  0  0
 37 39  1  0  0  0
 37 47  1  0  0  0
 37 66  1  0  0  0
 37108  1  0  0  0
 38 43  2  0  0  0
 38 46  1  0  0  0
 38 47  1  0  0  0
 39 64  1  0  0  0
 39 67  2  0  0  0
 40 52  1  0  0  0
 40 53  2  0  0  0
 40 58  1  0  0  0
 41109  1  0  0  0
 41110  1  0  0  0
 41111  1  0  0  0
 41 48  1  0  0  0
 42 43  1  0  0  0
 42 66  1  0  0  0
 42112  1  0  0  0
 42113  1  0  0  0
 43 44  1  0  0  0
 44114  1  0  0  0
 45 46  2  0  0  0
 45115  1  0  0  0
 46116  1  0  0  0
 47117  1  0  0  0
 47118  1  0  0  0
 48 56  1  0  0  0
 48 65  1  0  0  0
 48119  1  0  0  0
 49 50  1  0  0  0
 49 53  1  0  0  0
 49 64  1  0  0  0
 49120  1  0  0  0
 50 51  1  0  0  0
 50121  1  0  0  0
 50122  1  0  0  0
 51 52  1  0  0  0
 51123  1  0  0  0
 51124  1  0  0  0
 52125  1  0  0  0
 52126  1  0  0  0
 53 54  1  0  0  0
 54 55  2  0  0  0
 54127  1  0  0  0
 55 57  1  0  0  0
 55128  1  0  0  0
 56 69  2  0  0  0
 57 58  2  0  0  0
 57129  1  0  0  0
 58130  1  0  0  0
 59 60  1  0  0  0
 59 61  1  0  0  0
 59 62  1  0  0  0
 60131  1  0  0  0
 60132  1  0  0  0
 60133  1  0  0  0
 61134  1  0  0  0
 61135  1  0  0  0
 61136  1  0  0  0
 62137  1  0  0  0
 62138  1  0  0  0
 62139  1  0  0  0
 63 65  1  0  0  0
 63140  1  0  0  0
 63141  1  0  0  0
 63142  1  0  0  0
 64143  1  0  0  0
 65144  1  0  0  0
 68 79  1  0  0  0
 71 72  2  0  0  0
 71 73  1  0  0  0
 71 75  1  0  0  0
 72 76  1  0  0  0
 72 81  1  0  0  0
 73 82  2  0  0  0
 73 83  1  0  0  0
 74 81  2  0  0  0
 74 82  1  0  0  0
 74 84  1  0  0  0
 75145  1  0  0  0
 75146  1  0  0  0
 75147  1  0  0  0
 76148  1  0  0  0
 76149  1  0  0  0
 76150  1  0  0  0
 77 79  1  0  0  0
 77 80  1  0  0  0
 77151  1  0  0  0
 77152  1  0  0  0
 78 80  1  0  0  0
 78 83  1  0  0  0
 78153  1  0  0  0
 78154  1  0  0  0
 79155  1  0  0  0
 79156  1  0  0  0
 80 85  1  0  0  0
 80157  1  0  0  0
 83158  1  0  0  0
 84159  1  0  0  0
 85160  1  0  0  0
M  ISO  4   1 100  68 101  79 101  84 100
M  END
> <chiral flag>
0

> <version>
0

> <s_m_source_file>
/data/baiqing/PycharmProjects/Reinvent-master-3.2/result/LINK_invent/BTK/process_docking_weight1_custom_product_contain_oxygen_bond_distance_aromatic_linkinvent_7_9_3/rearranged_h_0197.sdf

> <i_m_source_file_index>
26

> <r_mmod_Potential_Energy-OPLS-2005>
-553.3994140625

> <r_mmod_Stretch_Energy-OPLS-2005>
49.0482788085938

> <r_mmod_Bend_Energy-OPLS-2005>
119.834197998047

> <r_mmod_Torsional_Energy-OPLS-2005>
280.316375732422

> <r_mmod_Improper_Torsional_Energy-OPLS-2005>
12.3116178512573

> <r_mmod_Van_der_Waal_Energy-OPLS-2005>
168.497299194336

> <r_mmod_Electrostatic_Energy-OPLS-2005>
-958.347900390625

> <r_mmod_Solvation_Energy-OPLS-2005>
-252.076919555664

> <b_mmod_Minimization_Converged-OPLS-2005>
0

> <r_mmod_RMS_Derivative-OPLS-2005>
1.52527117729187

$$$$
26
                    3D
 Structure written by MMmdl.
153161  0  0  1  0            999 V2000
  -30.7124  -14.4556   20.5699 C   0  0  0  0  0  0
  -30.4214  -12.2900   19.4262 C   0  0  0  0  0  0
  -29.4956  -12.4954   18.2091 C   0  0  0  0  0  0
  -28.0164  -12.3604   18.6216 C   0  0  0  0  0  0
  -27.6632  -13.2042   19.8753 C   0  0  2  0  0  0
  -28.7037  -12.9817   20.9974 C   0  0  0  0  0  0
  -25.2595  -13.8156   20.5672 C   0  0  0  0  0  0
  -24.1846  -13.0437   20.9174 C   0  0  0  0  0  0
  -24.6392  -11.6905   20.8732 C   0  0  0  0  0  0
  -23.9057  -10.4293   21.0403 C   0  0  0  0  0  0
  -24.3610   -9.4212   21.9183 C   0  0  0  0  0  0
  -23.6287   -8.2244   22.0755 C   0  0  0  0  0  0
  -22.4271   -8.0276   21.3547 C   0  0  0  0  0  0
  -21.9909   -9.0247   20.4640 C   0  0  0  0  0  0
  -22.7234  -10.2127   20.3050 C   0  0  0  0  0  0
  -21.6849   -6.0736   22.5282 C   0  0  0  0  0  0
  -21.4002   -6.5640   23.8214 C   0  0  0  0  0  0
  -21.3656   -5.6793   24.9176 C   0  0  0  0  0  0
  -21.6044   -4.3055   24.7228 C   0  0  0  0  0  0
  -21.8821   -3.8148   23.4346 C   0  0  0  0  0  0
  -21.9195   -4.6966   22.3405 C   0  0  0  0  0  0
  -22.7869  -13.5239   21.1845 C   0  0  0  0  0  0
  -22.1666   -4.2156   21.0979 F   0  0  0  0  0  0
  -21.5632   -3.4536   25.7737 F   0  0  0  0  0  0
  -30.0413  -13.2763   20.4499 N   0  0  0  0  0  0
  -26.3031  -12.9320   20.3363 N   0  0  0  0  0  0
  -25.9317  -11.6483   20.5771 N   0  0  0  0  0  0
  -22.0503  -12.8231   22.0393 N   0  0  0  0  0  0
  -25.4315  -15.1869   20.4063 N   0  0  0  0  0  0
  -31.8315  -14.6295   20.0771 O   0  0  0  0  0  0
  -21.6635   -6.8876   21.4240 O   0  0  0  0  0  0
  -22.3562  -14.5559   20.6708 O   0  0  0  0  0  0
  -24.6149  -31.8680   23.2105 C   0  0  0  0  0  0
  -25.9039  -32.4828   23.8401 C   0  0  1  0  0  0
  -27.2317  -27.4326   20.0952 C   0  0  0  0  0  0
  -25.5889  -33.8624   24.2332 N   0  0  0  0  0  0
  -23.4036  -30.4925   21.5506 C   0  0  2  0  0  0
  -24.8498  -28.9615   20.1141 C   0  0  0  0  0  0
  -22.7423  -29.4656   22.4980 C   0  0  0  0  0  0
  -18.0275  -28.1399   22.8502 C   0  0  0  0  0  0
  -24.1466  -36.7283   23.2650 C   0  0  0  0  0  0
  -25.9342  -30.8315   21.3662 C   0  0  0  0  0  0
  -26.0110  -29.4662   20.7138 C   0  0  0  0  0  0
  -27.2056  -28.7090   20.7032 C   0  0  0  0  0  0
  -26.0570  -26.9545   19.4711 C   0  0  0  0  0  0
  -24.8680  -27.7037   19.4899 C   0  0  0  0  0  0
  -23.6129  -29.8288   20.1639 C   0  0  0  0  0  0
  -25.4090  -36.3103   24.0352 C   0  0  1  0  0  0
  -20.5874  -28.3664   23.1311 C   0  0  2  0  0  0
  -20.6759  -26.9396   22.5415 C   0  0  0  0  0  0
  -19.5724  -26.6389   21.5225 C   0  0  0  0  0  0
  -18.1907  -26.7949   22.1635 C   0  0  0  0  0  0
  -19.1533  -28.8848   23.2909 C   0  0  0  0  0  0
  -18.9468  -30.1460   23.8912 C   0  0  0  0  0  0
  -17.6470  -30.6602   24.0577 C   0  0  0  0  0  0
  -25.9027  -34.9476   23.5134 C   0  0  0  0  0  0
  -16.5351  -29.9102   23.6356 C   0  0  0  0  0  0
  -16.7266  -28.6523   23.0369 C   0  0  0  0  0  0
  -26.4460  -31.6606   25.0728 C   0  0  0  0  0  0
  -25.3725  -31.3699   26.1474 C   0  0  0  0  0  0
  -27.0292  -30.3060   24.6078 C   0  0  0  0  0  0
  -27.6028  -32.4329   25.7499 C   0  0  0  0  0  0
  -27.5562  -37.1791   24.8482 C   0  0  0  0  0  0
  -21.4151  -29.3023   22.3708 N   0  0  0  0  0  0
  -26.4268  -37.3796   23.9433 N   0  0  0  0  0  0
  -24.6689  -31.0787   22.1005 N   0  0  0  0  0  0
  -23.4198  -28.8213   23.3029 O   0  0  0  0  0  0
  -28.3798  -26.6670   20.1073 O   0  0  0  0  0  0
  -26.5596  -34.8931   22.4704 O   0  0  0  0  0  0
  -23.5336  -32.1423   23.7491 O   0  0  0  0  0  0
  -30.1779  -16.8491   21.0681 C   0  0  0  0  0  0
  -29.9845  -19.2560   21.0768 C   0  0  0  0  0  0
  -31.4547  -22.2123   21.5231 C   0  0  0  0  0  0
  -29.3783  -24.3883   20.4259 C   0  0  0  0  0  0
  -29.0690  -22.9801   20.9973 C   0  0  0  0  0  0
  -28.1964  -25.3520   20.6622 C   0  0  0  0  0  0
  -30.1433  -21.8820   20.7931 C   0  0  2  0  0  0
  -31.1546  -17.4479   20.3610 N   0  0  0  0  0  0
  -31.0416  -18.8383   20.3678 N   0  0  0  0  0  0
  -30.0297  -15.4349   21.1904 N   0  0  0  0  0  0
  -29.6230  -20.5931   21.2446 N   0  0  0  0  0  0
  -29.0313  -17.9655   21.8075 S   0  0  0  0  0  0
  -31.4675  -12.3755   19.1270 H   0  0  0  0  0  0
  -30.3102  -11.2795   19.8231 H   0  0  0  0  0  0
  -29.7317  -11.7665   17.4323 H   0  0  0  0  0  0
  -29.6708  -13.4789   17.7702 H   0  0  0  0  0  0
  -27.8277  -11.3057   18.8238 H   0  0  0  0  0  0
  -27.3659  -12.6282   17.7889 H   0  0  0  0  0  0
  -27.7098  -14.2516   19.5767 H   0  0  0  0  0  0
  -28.6722  -11.9460   21.3402 H   0  0  0  0  0  0
  -28.4612  -13.5798   21.8767 H   0  0  0  0  0  0
  -25.2748   -9.5694   22.4765 H   0  0  0  0  0  0
  -23.9999   -7.4637   22.7473 H   0  0  0  0  0  0
  -21.0849   -8.8754   19.8937 H   0  0  0  0  0  0
  -22.3689  -10.9663   19.6158 H   0  0  0  0  0  0
  -21.1977   -7.6147   23.9722 H   0  0  0  0  0  0
  -21.1474   -6.0517   25.9081 H   0  0  0  0  0  0
  -22.0602   -2.7611   23.2841 H   0  0  0  0  0  0
  -22.4097  -11.9874   22.4768 H   0  0  0  0  0  0
  -21.1126  -13.1263   22.2603 H   0  0  0  0  0  0
  -24.6572  -15.8370   20.4933 H   0  0  0  0  0  0
  -26.2770  -15.6247   20.0626 H   0  0  0  0  0  0
  -26.7115  -32.5534   23.1169 H   0  0  0  0  0  0
  -25.0027  -33.9786   25.0467 H   0  0  0  0  0  0
  -22.6924  -31.3092   21.4122 H   0  0  0  0  0  0
  -23.3748  -35.9599   23.3325 H   0  0  0  0  0  0
  -24.3549  -36.8882   22.2062 H   0  0  0  0  0  0
  -23.7196  -37.6481   23.6648 H   0  0  0  0  0  0
  -26.0461  -31.5947   20.5954 H   0  0  0  0  0  0
  -26.8239  -30.8854   21.9817 H   0  0  0  0  0  0
  -28.1004  -29.0889   21.1775 H   0  0  0  0  0  0
  -26.0495  -26.0033   18.9590 H   0  0  0  0  0  0
  -23.9794  -27.3123   19.0140 H   0  0  0  0  0  0
  -23.7271  -30.6054   19.4070 H   0  0  0  0  0  0
  -22.7360  -29.2521   19.8631 H   0  0  0  0  0  0
  -25.1268  -36.1955   25.0845 H   0  0  0  0  0  0
  -20.9968  -28.3225   24.1431 H   0  0  0  0  0  0
  -20.5675  -26.2266   23.3603 H   0  0  0  0  0  0
  -21.6622  -26.7438   22.1184 H   0  0  0  0  0  0
  -19.6874  -25.6309   21.1228 H   0  0  0  0  0  0
  -19.6671  -27.3223   20.6779 H   0  0  0  0  0  0
  -17.4174  -26.6724   21.4036 H   0  0  0  0  0  0
  -18.0286  -26.0092   22.9028 H   0  0  0  0  0  0
  -19.7951  -30.7277   24.2264 H   0  0  0  0  0  0
  -17.5038  -31.6289   24.5177 H   0  0  0  0  0  0
  -15.5360  -30.3013   23.7703 H   0  0  0  0  0  0
  -15.8658  -28.0856   22.7084 H   0  0  0  0  0  0
  -24.5891  -30.7062   25.7800 H   0  0  0  0  0  0
  -24.8924  -32.2853   26.4946 H   0  0  0  0  0  0
  -25.8078  -30.8839   27.0216 H   0  0  0  0  0  0
  -26.2816  -29.6820   24.1163 H   0  0  0  0  0  0
  -27.4127  -29.7292   25.4505 H   0  0  0  0  0  0
  -27.8624  -30.4412   23.9180 H   0  0  0  0  0  0
  -27.2639  -33.3629   26.2079 H   0  0  0  0  0  0
  -28.3837  -32.6889   25.0328 H   0  0  0  0  0  0
  -28.0688  -31.8452   26.5418 H   0  0  0  0  0  0
  -28.2587  -38.0081   24.7526 H   0  0  0  0  0  0
  -28.1045  -36.2610   24.6303 H   0  0  0  0  0  0
  -27.2279  -37.1435   25.8887 H   0  0  0  0  0  0
  -20.9315  -29.8707   21.6894 H   0  0  0  0  0  0
  -26.0152  -38.2865   24.1475 H   0  0  0  0  0  0
  -31.8793  -23.1544   21.1764 H   0  0  0  0  0  0
  -32.2093  -21.4433   21.3517 H   0  0  0  0  0  0
  -31.3042  -22.2948   22.6003 H   0  0  0  0  0  0
  -29.5783  -24.3126   19.3565 H   0  0  0  0  0  0
  -30.2751  -24.8018   20.8855 H   0  0  0  0  0  0
  -28.1399  -22.6373   20.5381 H   0  0  0  0  0  0
  -28.8548  -23.0801   22.0630 H   0  0  0  0  0  0
  -28.0294  -25.4599   21.7353 H   0  0  0  0  0  0
  -27.3055  -24.8654   20.2680 H   0  0  0  0  0  0
  -30.3556  -21.7927   19.7256 H   0  0  0  0  0  0
  -29.1859  -15.1338   21.6501 H   0  0  0  0  0  0
  -28.7857  -20.6809   21.8098 H   0  0  0  0  0  0
  1 25  1  0  0  0
  1 30  2  0  0  0
  1 80  1  0  0  0
  2  3  1  0  0  0
  2 25  1  0  0  0
  2 83  1  0  0  0
  2 84  1  0  0  0
  3  4  1  0  0  0
  3 85  1  0  0  0
  3 86  1  0  0  0
  4  5  1  0  0  0
  4 87  1  0  0  0
  4 88  1  0  0  0
  5  6  1  0  0  0
  5 26  1  0  0  0
  5 89  1  0  0  0
  6 25  1  0  0  0
  6 90  1  0  0  0
  6 91  1  0  0  0
  7  8  2  0  0  0
  7 26  1  0  0  0
  7 29  1  0  0  0
  8  9  1  0  0  0
  8 22  1  0  0  0
  9 10  1  0  0  0
  9 27  2  0  0  0
 10 11  2  0  0  0
 10 15  1  0  0  0
 11 12  1  0  0  0
 11 92  1  0  0  0
 12 13  2  0  0  0
 12 93  1  0  0  0
 13 14  1  0  0  0
 13 31  1  0  0  0
 14 15  2  0  0  0
 14 94  1  0  0  0
 15 95  1  0  0  0
 16 17  2  0  0  0
 16 21  1  0  0  0
 16 31  1  0  0  0
 17 18  1  0  0  0
 17 96  1  0  0  0
 18 19  2  0  0  0
 18 97  1  0  0  0
 19 20  1  0  0  0
 19 24  1  0  0  0
 20 21  2  0  0  0
 20 98  1  0  0  0
 21 23  1  0  0  0
 22 28  1  0  0  0
 22 32  2  0  0  0
 26 27  1  0  0  0
 28 99  1  0  0  0
 28100  1  0  0  0
 29101  1  0  0  0
 29102  1  0  0  0
 33 34  1  0  0  0
 33 66  1  0  0  0
 33 70  2  0  0  0
 34 36  1  0  0  0
 34 59  1  0  0  0
 34103  1  0  0  0
 35 44  2  0  0  0
 35 45  1  0  0  0
 35 68  1  0  0  0
 36 56  1  0  0  0
 36104  1  0  0  0
 37 39  1  0  0  0
 37 47  1  0  0  0
 37 66  1  0  0  0
 37105  1  0  0  0
 38 43  2  0  0  0
 38 46  1  0  0  0
 38 47  1  0  0  0
 39 64  1  0  0  0
 39 67  2  0  0  0
 40 52  1  0  0  0
 40 53  2  0  0  0
 40 58  1  0  0  0
 41106  1  0  0  0
 41107  1  0  0  0
 41108  1  0  0  0
 41 48  1  0  0  0
 42 43  1  0  0  0
 42 66  1  0  0  0
 42109  1  0  0  0
 42110  1  0  0  0
 43 44  1  0  0  0
 44111  1  0  0  0
 45 46  2  0  0  0
 45112  1  0  0  0
 46113  1  0  0  0
 47114  1  0  0  0
 47115  1  0  0  0
 48 56  1  0  0  0
 48 65  1  0  0  0
 48116  1  0  0  0
 49 50  1  0  0  0
 49 53  1  0  0  0
 49 64  1  0  0  0
 49117  1  0  0  0
 50 51  1  0  0  0
 50118  1  0  0  0
 50119  1  0  0  0
 51 52  1  0  0  0
 51120  1  0  0  0
 51121  1  0  0  0
 52122  1  0  0  0
 52123  1  0  0  0
 53 54  1  0  0  0
 54 55  2  0  0  0
 54124  1  0  0  0
 55 57  1  0  0  0
 55125  1  0  0  0
 56 69  2  0  0  0
 57 58  2  0  0  0
 57126  1  0  0  0
 58127  1  0  0  0
 59 60  1  0  0  0
 59 61  1  0  0  0
 59 62  1  0  0  0
 60128  1  0  0  0
 60129  1  0  0  0
 60130  1  0  0  0
 61131  1  0  0  0
 61132  1  0  0  0
 61133  1  0  0  0
 62134  1  0  0  0
 62135  1  0  0  0
 62136  1  0  0  0
 63 65  1  0  0  0
 63137  1  0  0  0
 63138  1  0  0  0
 63139  1  0  0  0
 64140  1  0  0  0
 65141  1  0  0  0
 68 76  1  0  0  0
 71 78  2  0  0  0
 71 80  1  0  0  0
 71 82  1  0  0  0
 72 79  2  0  0  0
 72 81  1  0  0  0
 72 82  1  0  0  0
 73142  1  0  0  0
 73143  1  0  0  0
 73144  1  0  0  0
 73 77  1  0  0  0
 74 75  1  0  0  0
 74 76  1  0  0  0
 74145  1  0  0  0
 74146  1  0  0  0
 75 77  1  0  0  0
 75147  1  0  0  0
 75148  1  0  0  0
 76149  1  0  0  0
 76150  1  0  0  0
 77 81  1  0  0  0
 77151  1  0  0  0
 78 79  1  0  0  0
 80152  1  0  0  0
 81153  1  0  0  0
M  ISO  4   1 100  68 101  76 101  80 100
M  END
> <chiral flag>
0

> <version>
0

> <s_m_source_file>
/data/baiqing/PycharmProjects/Reinvent-master-3.2/result/LINK_invent/BTK/process_docking_weight1_custom_product_contain_oxygen_bond_distance_aromatic_linkinvent_7_9_3/rearranged_h_0197.sdf

> <i_m_source_file_index>
27

> <r_mmod_Potential_Energy-OPLS-2005>
-182.415222167969

> <r_mmod_Stretch_Energy-OPLS-2005>
34.6309509277344

> <r_mmod_Bend_Energy-OPLS-2005>
98.4809722900391

> <r_mmod_Torsional_Energy-OPLS-2005>
204.144088745117

> <r_mmod_Improper_Torsional_Energy-OPLS-2005>
3.05687761306763

> <r_mmod_Van_der_Waal_Energy-OPLS-2005>
132.413955688477

> <r_mmod_Electrostatic_Energy-OPLS-2005>
-420.768737792969

> <r_mmod_Solvation_Energy-OPLS-2005>
-246.891189575195

> <b_mmod_Minimization_Converged-OPLS-2005>
0

> <r_mmod_RMS_Derivative-OPLS-2005>
1.35039556026459

$$$$
27
                    3D
 Structure written by MMmdl.
153161  0  0  1  0            999 V2000
  -30.5727  -14.6998   20.5098 C   0  0  0  0  0  0
  -30.4511  -12.4346   19.4571 C   0  0  0  0  0  0
  -29.5145  -12.5297   18.2301 C   0  0  0  0  0  0
  -28.0371  -12.3514   18.6389 C   0  0  0  0  0  0
  -27.6537  -13.2157   19.8695 C   0  0  2  0  0  0
  -28.6995  -13.0634   20.9975 C   0  0  0  0  0  0
  -25.2552  -13.8158   20.5693 C   0  0  0  0  0  0
  -24.1819  -13.0428   20.9198 C   0  0  0  0  0  0
  -24.6393  -11.6898   20.8742 C   0  0  0  0  0  0
  -23.9062  -10.4282   21.0398 C   0  0  0  0  0  0
  -24.3623   -9.4200   21.9174 C   0  0  0  0  0  0
  -23.6303   -8.2231   22.0740 C   0  0  0  0  0  0
  -22.4279   -8.0273   21.3539 C   0  0  0  0  0  0
  -21.9911   -9.0243   20.4638 C   0  0  0  0  0  0
  -22.7234  -10.2126   20.3043 C   0  0  0  0  0  0
  -21.6854   -6.0738   22.5283 C   0  0  0  0  0  0
  -21.4014   -6.5637   23.8221 C   0  0  0  0  0  0
  -21.3663   -5.6789   24.9178 C   0  0  0  0  0  0
  -21.6051   -4.3056   24.7228 C   0  0  0  0  0  0
  -21.8817   -3.8146   23.4349 C   0  0  0  0  0  0
  -21.9191   -4.6965   22.3408 C   0  0  0  0  0  0
  -22.7843  -13.5224   21.1861 C   0  0  0  0  0  0
  -22.1657   -4.2154   21.0984 F   0  0  0  0  0  0
  -21.5635   -3.4537   25.7741 F   0  0  0  0  0  0
  -30.0101  -13.4457   20.4418 N   0  0  0  0  0  0
  -26.2987  -12.9341   20.3343 N   0  0  0  0  0  0
  -25.9324  -11.6493   20.5762 N   0  0  0  0  0  0
  -22.0494  -12.8209   22.0427 N   0  0  0  0  0  0
  -25.4255  -15.1882   20.4123 N   0  0  0  0  0  0
  -31.7167  -14.9055   20.0908 O   0  0  0  0  0  0
  -21.6642   -6.8872   21.4240 O   0  0  0  0  0  0
  -22.3524  -14.5525   20.6704 O   0  0  0  0  0  0
  -24.6292  -31.8550   23.2002 C   0  0  0  0  0  0
  -25.9123  -32.4751   23.8344 C   0  0  1  0  0  0
  -27.2314  -27.2921   20.1386 C   0  0  0  0  0  0
  -25.5921  -33.8559   24.2247 N   0  0  0  0  0  0
  -23.4262  -30.4769   21.5437 C   0  0  2  0  0  0
  -24.8765  -28.9256   20.1110 C   0  0  0  0  0  0
  -22.7491  -29.4602   22.4936 C   0  0  0  0  0  0
  -18.0287  -28.1385   22.8480 C   0  0  0  0  0  0
  -24.1485  -36.7292   23.2640 C   0  0  0  0  0  0
  -25.9692  -30.7783   21.3764 C   0  0  0  0  0  0
  -26.0455  -29.4039   20.7182 C   0  0  0  0  0  0
  -27.2286  -28.6024   20.7146 C   0  0  0  0  0  0
  -26.0441  -26.8707   19.5034 C   0  0  0  0  0  0
  -24.8801  -27.6661   19.4886 C   0  0  0  0  0  0
  -23.6424  -29.8071   20.1602 C   0  0  0  0  0  0
  -25.4111  -36.3069   24.0322 C   0  0  1  0  0  0
  -20.5886  -28.3688   23.1272 C   0  0  2  0  0  0
  -20.6768  -26.9404   22.5412 C   0  0  0  0  0  0
  -19.5752  -26.6374   21.5209 C   0  0  0  0  0  0
  -18.1932  -26.7926   22.1618 C   0  0  0  0  0  0
  -19.1541  -28.8856   23.2870 C   0  0  0  0  0  0
  -18.9462  -30.1458   23.8885 C   0  0  0  0  0  0
  -17.6462  -30.6587   24.0563 C   0  0  0  0  0  0
  -25.9054  -34.9440   23.5086 C   0  0  0  0  0  0
  -16.5351  -29.9082   23.6334 C   0  0  0  0  0  0
  -16.7272  -28.6502   23.0346 C   0  0  0  0  0  0
  -26.4481  -31.6589   25.0747 C   0  0  0  0  0  0
  -25.3714  -31.3754   26.1483 C   0  0  0  0  0  0
  -27.0330  -30.3000   24.6240 C   0  0  0  0  0  0
  -27.6022  -32.4351   25.7524 C   0  0  0  0  0  0
  -27.5579  -37.1791   24.8449 C   0  0  0  0  0  0
  -21.4202  -29.3034   22.3664 N   0  0  0  0  0  0
  -26.4272  -37.3778   23.9416 N   0  0  0  0  0  0
  -24.6939  -31.0535   22.0968 N   0  0  0  0  0  0
  -23.4191  -28.8144   23.3038 O   0  0  0  0  0  0
  -28.3289  -26.4073   20.1788 O   0  0  0  0  0  0
  -26.5642  -34.8914   22.4667 O   0  0  0  0  0  0
  -23.5444  -32.1357   23.7310 O   0  0  0  0  0  0
  -29.6349  -17.1536   20.8934 C   0  0  0  0  0  0
  -29.4368  -19.6753   20.6762 C   0  0  0  0  0  0
  -29.1352  -22.2991   22.5703 C   0  0  0  0  0  0
  -28.2582  -25.4409   22.3416 C   0  0  0  0  0  0
  -29.0390  -23.7923   20.4202 C   0  0  0  0  0  0
  -28.8084  -22.3073   21.0648 C   0  0  1  0  0  0
  -28.1295  -25.0805   20.8469 C   0  0  2  0  0  0
  -28.6048  -17.7010   21.5684 N   0  0  0  0  0  0
  -28.4991  -19.1055   21.4540 N   0  0  0  0  0  0
  -29.7346  -15.6869   20.9697 N   0  0  0  0  0  0
  -29.5018  -21.1046   20.4559 N   0  0  0  0  0  0
  -30.5734  -18.4196   20.0163 S   0  0  0  0  0  0
  -31.4880  -12.5899   19.1536 H   0  0  0  0  0  0
  -30.4125  -11.4354   19.8931 H   0  0  0  0  0  0
  -29.7905  -11.7833   17.4840 H   0  0  0  0  0  0
  -29.6441  -13.5018   17.7507 H   0  0  0  0  0  0
  -27.8785  -11.2960   18.8627 H   0  0  0  0  0  0
  -27.3824  -12.5831   17.7982 H   0  0  0  0  0  0
  -27.6699  -14.2530   19.5361 H   0  0  0  0  0  0
  -28.7279  -12.0316   21.3506 H   0  0  0  0  0  0
  -28.4284  -13.6595   21.8700 H   0  0  0  0  0  0
  -25.2773   -9.5690   22.4745 H   0  0  0  0  0  0
  -24.0034   -7.4615   22.7446 H   0  0  0  0  0  0
  -21.0850   -8.8746   19.8940 H   0  0  0  0  0  0
  -22.3681  -10.9661   19.6156 H   0  0  0  0  0  0
  -21.1998   -7.6144   23.9729 H   0  0  0  0  0  0
  -21.1494   -6.0515   25.9086 H   0  0  0  0  0  0
  -22.0595   -2.7608   23.2850 H   0  0  0  0  0  0
  -22.4132  -11.9897   22.4845 H   0  0  0  0  0  0
  -21.1092  -13.1195   22.2606 H   0  0  0  0  0  0
  -24.6581  -15.8406   20.5324 H   0  0  0  0  0  0
  -26.2779  -15.6384   20.1046 H   0  0  0  0  0  0
  -26.7201  -32.5394   23.1101 H   0  0  0  0  0  0
  -25.0050  -33.9693   25.0371 H   0  0  0  0  0  0
  -22.7235  -31.3000   21.3980 H   0  0  0  0  0  0
  -23.3751  -35.9619   23.3278 H   0  0  0  0  0  0
  -24.3575  -36.8949   22.2060 H   0  0  0  0  0  0
  -23.7229  -37.6478   23.6689 H   0  0  0  0  0  0
  -26.1083  -31.5410   20.6089 H   0  0  0  0  0  0
  -26.8464  -30.8230   22.0111 H   0  0  0  0  0  0
  -28.1260  -28.9654   21.1953 H   0  0  0  0  0  0
  -26.0094  -25.9020   19.0262 H   0  0  0  0  0  0
  -23.9875  -27.2943   19.0043 H   0  0  0  0  0  0
  -23.7604  -30.5829   19.4032 H   0  0  0  0  0  0
  -22.7624  -29.2369   19.8573 H   0  0  0  0  0  0
  -25.1290  -36.1911   25.0810 H   0  0  0  0  0  0
  -20.9970  -28.3264   24.1396 H   0  0  0  0  0  0
  -20.5649  -26.2302   23.3617 H   0  0  0  0  0  0
  -21.6639  -26.7426   22.1216 H   0  0  0  0  0  0
  -19.6914  -25.6279   21.1252 H   0  0  0  0  0  0
  -19.6691  -27.3174   20.6731 H   0  0  0  0  0  0
  -17.4195  -26.6668   21.4022 H   0  0  0  0  0  0
  -18.0338  -26.0064   22.9014 H   0  0  0  0  0  0
  -19.7939  -30.7285   24.2228 H   0  0  0  0  0  0
  -17.5016  -31.6262   24.5178 H   0  0  0  0  0  0
  -15.5350  -30.2987   23.7661 H   0  0  0  0  0  0
  -15.8668  -28.0829   22.7054 H   0  0  0  0  0  0
  -24.5842  -30.7151   25.7818 H   0  0  0  0  0  0
  -24.8965  -32.2939   26.4947 H   0  0  0  0  0  0
  -25.8030  -30.8892   27.0242 H   0  0  0  0  0  0
  -26.2924  -29.6773   24.1205 H   0  0  0  0  0  0
  -27.3936  -29.7237   25.4770 H   0  0  0  0  0  0
  -27.8832  -30.4270   23.9536 H   0  0  0  0  0  0
  -27.2585  -33.3623   26.2126 H   0  0  0  0  0  0
  -28.3813  -32.6972   25.0356 H   0  0  0  0  0  0
  -28.0719  -31.8490   26.5431 H   0  0  0  0  0  0
  -28.2559  -38.0125   24.7547 H   0  0  0  0  0  0
  -28.1110  -36.2660   24.6200 H   0  0  0  0  0  0
  -27.2312  -37.1354   25.8852 H   0  0  0  0  0  0
  -20.9389  -29.8750   21.6861 H   0  0  0  0  0  0
  -26.0149  -38.2838   24.1466 H   0  0  0  0  0  0
  -28.3235  -22.7135   23.1605 H   0  0  0  0  0  0
  -30.0463  -22.8576   22.7870 H   0  0  0  0  0  0
  -29.2749  -21.2923   22.9634 H   0  0  0  0  0  0
  -27.8045  -24.6974   22.9877 H   0  0  0  0  0  0
  -27.7342  -26.3652   22.5853 H   0  0  0  0  0  0
  -29.3000  -25.5740   22.6341 H   0  0  0  0  0  0
  -28.9225  -23.6891   19.3411 H   0  0  0  0  0  0
  -30.0854  -24.0673   20.5630 H   0  0  0  0  0  0
  -27.7435  -22.0896   20.9666 H   0  0  0  0  0  0
  -27.0983  -24.7678   20.6850 H   0  0  0  0  0  0
  -28.9147  -15.2815   21.3897 H   0  0  0  0  0  0
  -30.2260  -21.3501   19.7879 H   0  0  0  0  0  0
  1 25  1  0  0  0
  1 30  2  0  0  0
  1 80  1  0  0  0
  2  3  1  0  0  0
  2 25  1  0  0  0
  2 83  1  0  0  0
  2 84  1  0  0  0
  3  4  1  0  0  0
  3 85  1  0  0  0
  3 86  1  0  0  0
  4  5  1  0  0  0
  4 87  1  0  0  0
  4 88  1  0  0  0
  5  6  1  0  0  0
  5 26  1  0  0  0
  5 89  1  0  0  0
  6 25  1  0  0  0
  6 90  1  0  0  0
  6 91  1  0  0  0
  7  8  2  0  0  0
  7 26  1  0  0  0
  7 29  1  0  0  0
  8  9  1  0  0  0
  8 22  1  0  0  0
  9 10  1  0  0  0
  9 27  2  0  0  0
 10 11  2  0  0  0
 10 15  1  0  0  0
 11 12  1  0  0  0
 11 92  1  0  0  0
 12 13  2  0  0  0
 12 93  1  0  0  0
 13 14  1  0  0  0
 13 31  1  0  0  0
 14 15  2  0  0  0
 14 94  1  0  0  0
 15 95  1  0  0  0
 16 17  2  0  0  0
 16 21  1  0  0  0
 16 31  1  0  0  0
 17 18  1  0  0  0
 17 96  1  0  0  0
 18 19  2  0  0  0
 18 97  1  0  0  0
 19 20  1  0  0  0
 19 24  1  0  0  0
 20 21  2  0  0  0
 20 98  1  0  0  0
 21 23  1  0  0  0
 22 28  1  0  0  0
 22 32  2  0  0  0
 26 27  1  0  0  0
 28 99  1  0  0  0
 28100  1  0  0  0
 29101  1  0  0  0
 29102  1  0  0  0
 33 34  1  0  0  0
 33 66  1  0  0  0
 33 70  2  0  0  0
 34 36  1  0  0  0
 34 59  1  0  0  0
 34103  1  0  0  0
 35 44  2  0  0  0
 35 45  1  0  0  0
 35 68  1  0  0  0
 36 56  1  0  0  0
 36104  1  0  0  0
 37 39  1  0  0  0
 37 47  1  0  0  0
 37 66  1  0  0  0
 37105  1  0  0  0
 38 43  2  0  0  0
 38 46  1  0  0  0
 38 47  1  0  0  0
 39 64  1  0  0  0
 39 67  2  0  0  0
 40 52  1  0  0  0
 40 53  2  0  0  0
 40 58  1  0  0  0
 41106  1  0  0  0
 41107  1  0  0  0
 41108  1  0  0  0
 41 48  1  0  0  0
 42 43  1  0  0  0
 42 66  1  0  0  0
 42109  1  0  0  0
 42110  1  0  0  0
 43 44  1  0  0  0
 44111  1  0  0  0
 45 46  2  0  0  0
 45112  1  0  0  0
 46113  1  0  0  0
 47114  1  0  0  0
 47115  1  0  0  0
 48 56  1  0  0  0
 48 65  1  0  0  0
 48116  1  0  0  0
 49 50  1  0  0  0
 49 53  1  0  0  0
 49 64  1  0  0  0
 49117  1  0  0  0
 50 51  1  0  0  0
 50118  1  0  0  0
 50119  1  0  0  0
 51 52  1  0  0  0
 51120  1  0  0  0
 51121  1  0  0  0
 52122  1  0  0  0
 52123  1  0  0  0
 53 54  1  0  0  0
 54 55  2  0  0  0
 54124  1  0  0  0
 55 57  1  0  0  0
 55125  1  0  0  0
 56 69  2  0  0  0
 57 58  2  0  0  0
 57126  1  0  0  0
 58127  1  0  0  0
 59 60  1  0  0  0
 59 61  1  0  0  0
 59 62  1  0  0  0
 60128  1  0  0  0
 60129  1  0  0  0
 60130  1  0  0  0
 61131  1  0  0  0
 61132  1  0  0  0
 61133  1  0  0  0
 62134  1  0  0  0
 62135  1  0  0  0
 62136  1  0  0  0
 63 65  1  0  0  0
 63137  1  0  0  0
 63138  1  0  0  0
 63139  1  0  0  0
 64140  1  0  0  0
 65141  1  0  0  0
 68 77  1  0  0  0
 71 78  2  0  0  0
 71 80  1  0  0  0
 71 82  1  0  0  0
 72 79  2  0  0  0
 72 81  1  0  0  0
 72 82  1  0  0  0
 73142  1  0  0  0
 73143  1  0  0  0
 73144  1  0  0  0
 73 76  1  0  0  0
 74145  1  0  0  0
 74146  1  0  0  0
 74147  1  0  0  0
 74 77  1  0  0  0
 75 76  1  0  0  0
 75 77  1  0  0  0
 75148  1  0  0  0
 75149  1  0  0  0
 76 81  1  0  0  0
 76150  1  0  0  0
 77151  1  0  0  0
 78 79  1  0  0  0
 80152  1  0  0  0
 81153  1  0  0  0
M  ISO  4   1 100  68 101  77 101  80 100
M  END
> <chiral flag>
0

> <version>
0

> <s_m_source_file>
/data/baiqing/PycharmProjects/Reinvent-master-3.2/result/LINK_invent/BTK/process_docking_weight1_custom_product_contain_oxygen_bond_distance_aromatic_linkinvent_7_9_3/rearranged_h_0197.sdf

> <i_m_source_file_index>
28

> <r_mmod_Potential_Energy-OPLS-2005>
46.7221755981445

> <r_mmod_Stretch_Energy-OPLS-2005>
107.387916564941

> <r_mmod_Bend_Energy-OPLS-2005>
179.918838500977

> <r_mmod_Torsional_Energy-OPLS-2005>
216.743194580078

> <r_mmod_Improper_Torsional_Energy-OPLS-2005>
3.11108422279358

> <r_mmod_Van_der_Waal_Energy-OPLS-2005>
118.813980102539

> <r_mmod_Electrostatic_Energy-OPLS-2005>
-423.654632568359

> <r_mmod_Solvation_Energy-OPLS-2005>
-223.409973144531

> <b_mmod_Minimization_Converged-OPLS-2005>
0

> <r_mmod_RMS_Derivative-OPLS-2005>
1.64308154582977

$$$$
28
                    3D
 Structure written by MMmdl.
160168  0  0  1  0            999 V2000
  -30.7195  -14.4590   20.5698 C   0  0  0  0  0  0
  -30.4190  -12.3032   19.4203 C   0  0  0  0  0  0
  -29.4931  -12.5108   18.2039 C   0  0  0  0  0  0
  -28.0130  -12.3750   18.6133 C   0  0  0  0  0  0
  -27.6626  -13.2045   19.8794 C   0  0  2  0  0  0
  -28.7064  -12.9654   20.9929 C   0  0  0  0  0  0
  -25.2597  -13.8159   20.5683 C   0  0  0  0  0  0
  -24.1842  -13.0441   20.9169 C   0  0  0  0  0  0
  -24.6391  -11.6904   20.8721 C   0  0  0  0  0  0
  -23.9052  -10.4296   21.0392 C   0  0  0  0  0  0
  -24.3608   -9.4217   21.9173 C   0  0  0  0  0  0
  -23.6289   -8.2250   22.0747 C   0  0  0  0  0  0
  -22.4271   -8.0280   21.3539 C   0  0  0  0  0  0
  -21.9900   -9.0251   20.4642 C   0  0  0  0  0  0
  -22.7223  -10.2135   20.3047 C   0  0  0  0  0  0
  -21.6853   -6.0730   22.5276 C   0  0  0  0  0  0
  -21.4017   -6.5635   23.8212 C   0  0  0  0  0  0
  -21.3662   -5.6788   24.9173 C   0  0  0  0  0  0
  -21.6045   -4.3049   24.7224 C   0  0  0  0  0  0
  -21.8822   -3.8144   23.4345 C   0  0  0  0  0  0
  -21.9198   -4.6959   22.3402 C   0  0  0  0  0  0
  -22.7869  -13.5241   21.1839 C   0  0  0  0  0  0
  -22.1659   -4.2147   21.0980 F   0  0  0  0  0  0
  -21.5634   -3.4537   25.7737 F   0  0  0  0  0  0
  -30.0302  -13.2902   20.4411 N   0  0  0  0  0  0
  -26.3030  -12.9321   20.3394 N   0  0  0  0  0  0
  -25.9316  -11.6482   20.5757 N   0  0  0  0  0  0
  -22.0511  -12.8237   22.0396 N   0  0  0  0  0  0
  -25.4348  -15.1874   20.4105 N   0  0  0  0  0  0
  -31.8514  -14.6158   20.1111 O   0  0  0  0  0  0
  -21.6642   -6.8872   21.4237 O   0  0  0  0  0  0
  -22.3559  -14.5555   20.6693 O   0  0  0  0  0  0
  -24.6158  -31.8689   23.2109 C   0  0  0  0  0  0
  -25.9052  -32.4827   23.8398 C   0  0  1  0  0  0
  -27.2274  -27.4305   20.0932 C   0  0  0  0  0  0
  -25.5909  -33.8628   24.2334 N   0  0  0  0  0  0
  -23.4023  -30.4948   21.5525 C   0  0  2  0  0  0
  -24.8465  -28.9657   20.1137 C   0  0  0  0  0  0
  -22.7414  -29.4669   22.4996 C   0  0  0  0  0  0
  -18.0272  -28.1382   22.8492 C   0  0  0  0  0  0
  -24.1490  -36.7317   23.2638 C   0  0  0  0  0  0
  -25.9330  -30.8348   21.3638 C   0  0  0  0  0  0
  -26.0097  -29.4706   20.7080 C   0  0  0  0  0  0
  -27.2044  -28.7122   20.6926 C   0  0  0  0  0  0
  -26.0425  -26.9485   19.4857 C   0  0  0  0  0  0
  -24.8579  -27.7042   19.4992 C   0  0  0  0  0  0
  -23.6099  -29.8327   20.1653 C   0  0  0  0  0  0
  -25.4109  -36.3115   24.0340 C   0  0  1  0  0  0
  -20.5864  -28.3666   23.1326 C   0  0  2  0  0  0
  -20.6769  -26.9406   22.5418 C   0  0  0  0  0  0
  -19.5745  -26.6390   21.5220 C   0  0  0  0  0  0
  -18.1921  -26.7927   22.1629 C   0  0  0  0  0  0
  -19.1521  -28.8842   23.2904 C   0  0  0  0  0  0
  -18.9453  -30.1450   23.8913 C   0  0  0  0  0  0
  -17.6456  -30.6588   24.0568 C   0  0  0  0  0  0
  -25.9035  -34.9479   23.5128 C   0  0  0  0  0  0
  -16.5344  -29.9092   23.6332 C   0  0  0  0  0  0
  -16.7262  -28.6512   23.0347 C   0  0  0  0  0  0
  -26.4470  -31.6604   25.0726 C   0  0  0  0  0  0
  -25.3742  -31.3715   26.1481 C   0  0  0  0  0  0
  -27.0289  -30.3046   24.6091 C   0  0  0  0  0  0
  -27.6049  -32.4320   25.7486 C   0  0  0  0  0  0
  -27.5576  -37.1815   24.8465 C   0  0  0  0  0  0
  -21.4142  -29.3035   22.3737 N   0  0  0  0  0  0
  -26.4290  -37.3800   23.9408 N   0  0  0  0  0  0
  -24.6689  -31.0795   22.1012 N   0  0  0  0  0  0
  -23.4187  -28.8208   23.3036 O   0  0  0  0  0  0
  -28.3843  -26.6720   20.1216 O   0  0  0  0  0  0
  -26.5593  -34.8931   22.4686 O   0  0  0  0  0  0
  -23.5353  -32.1437   23.7508 O   0  0  0  0  0  0
  -29.2954  -17.8873   23.7369 C   0  0  0  0  0  0
  -29.5339  -17.3778   22.4827 C   0  0  0  0  0  0
  -29.8264  -19.8309   22.6861 C   0  0  0  0  0  0
  -28.2124  -22.2199   20.2624 C   0  0  0  0  0  0
  -31.6018  -22.9760   22.0151 C   0  0  0  0  0  0
  -29.3752  -15.9282   22.0982 C   0  0  0  0  0  0
  -29.4460  -24.4489   20.5996 C   0  0  0  0  0  0
  -28.1770  -25.2534   20.2419 C   0  0  0  0  0  0
  -29.1400  -23.0342   21.1855 C   0  0  2  0  0  0
  -30.3845  -22.1647   21.5446 C   0  0  1  0  0  0
  -29.4712  -19.2717   23.8395 N   0  0  0  0  0  0
  -30.0394  -21.2001   22.5839 N   0  0  0  0  0  0
  -30.0089  -15.5686   20.8333 N   0  0  0  0  0  0
  -29.9845  -18.6653   21.3680 S   0  0  0  0  0  0
  -31.4645  -12.3935   19.1196 H   0  0  0  0  0  0
  -30.3134  -11.2906   19.8138 H   0  0  0  0  0  0
  -29.7330  -11.7926   17.4189 H   0  0  0  0  0  0
  -29.6640  -13.5005   17.7775 H   0  0  0  0  0  0
  -27.8180  -11.3178   18.7966 H   0  0  0  0  0  0
  -27.3659  -12.6636   17.7840 H   0  0  0  0  0  0
  -27.7125  -14.2559   19.5962 H   0  0  0  0  0  0
  -28.6880  -11.9199   21.3042 H   0  0  0  0  0  0
  -28.4682  -13.5229   21.8944 H   0  0  0  0  0  0
  -25.2755   -9.5700   22.4744 H   0  0  0  0  0  0
  -24.0008   -7.4640   22.7459 H   0  0  0  0  0  0
  -21.0833   -8.8760   19.8942 H   0  0  0  0  0  0
  -22.3673  -10.9669   19.6156 H   0  0  0  0  0  0
  -21.2001   -7.6145   23.9713 H   0  0  0  0  0  0
  -21.1483   -6.0519   25.9077 H   0  0  0  0  0  0
  -22.0597   -2.7610   23.2847 H   0  0  0  0  0  0
  -22.4125  -11.9901   22.4792 H   0  0  0  0  0  0
  -21.1123  -13.1256   22.2585 H   0  0  0  0  0  0
  -24.6735  -15.8481   20.5199 H   0  0  0  0  0  0
  -26.2964  -15.6225   20.1057 H   0  0  0  0  0  0
  -26.7123  -32.5539   23.1161 H   0  0  0  0  0  0
  -25.0081  -33.9788   25.0493 H   0  0  0  0  0  0
  -22.6904  -31.3116   21.4153 H   0  0  0  0  0  0
  -23.3747  -35.9653   23.3315 H   0  0  0  0  0  0
  -24.3582  -36.8914   22.2047 H   0  0  0  0  0  0
  -23.7247  -37.6530   23.6641 H   0  0  0  0  0  0
  -26.0451  -31.6033   20.5976 H   0  0  0  0  0  0
  -26.8217  -30.8873   21.9808 H   0  0  0  0  0  0
  -28.1006  -29.0957   21.1607 H   0  0  0  0  0  0
  -26.0081  -25.9893   18.9909 H   0  0  0  0  0  0
  -23.9643  -27.3123   19.0323 H   0  0  0  0  0  0
  -23.7197  -30.6102   19.4079 H   0  0  0  0  0  0
  -22.7342  -29.2536   19.8673 H   0  0  0  0  0  0
  -25.1286  -36.1977   25.0833 H   0  0  0  0  0  0
  -20.9946  -28.3230   24.1452 H   0  0  0  0  0  0
  -20.5701  -26.2268   23.3600 H   0  0  0  0  0  0
  -21.6639  -26.7470   22.1197 H   0  0  0  0  0  0
  -19.6913  -25.6310   21.1234 H   0  0  0  0  0  0
  -19.6688  -27.3218   20.6766 H   0  0  0  0  0  0
  -17.4195  -26.6678   21.4025 H   0  0  0  0  0  0
  -18.0320  -26.0067   22.9025 H   0  0  0  0  0  0
  -19.7931  -30.7256   24.2289 H   0  0  0  0  0  0
  -17.5016  -31.6271   24.5163 H   0  0  0  0  0  0
  -15.5349  -30.3002   23.7649 H   0  0  0  0  0  0
  -15.8659  -28.0839   22.7050 H   0  0  0  0  0  0
  -24.5908  -30.7063   25.7830 H   0  0  0  0  0  0
  -24.8942  -32.2874   26.4944 H   0  0  0  0  0  0
  -25.8107  -30.8878   27.0228 H   0  0  0  0  0  0
  -26.2826  -29.6827   24.1130 H   0  0  0  0  0  0
  -27.4048  -29.7262   25.4540 H   0  0  0  0  0  0
  -27.8669  -30.4368   23.9243 H   0  0  0  0  0  0
  -27.2661  -33.3601   26.2108 H   0  0  0  0  0  0
  -28.3832  -32.6915   25.0299 H   0  0  0  0  0  0
  -28.0745  -31.8418   26.5366 H   0  0  0  0  0  0
  -28.2609  -38.0097   24.7501 H   0  0  0  0  0  0
  -28.1053  -36.2628   24.6302 H   0  0  0  0  0  0
  -27.2291  -37.1485   25.8867 H   0  0  0  0  0  0
  -20.9305  -29.8756   21.6959 H   0  0  0  0  0  0
  -26.0180  -38.2877   24.1409 H   0  0  0  0  0  0
  -28.9841  -17.3350   24.6122 H   0  0  0  0  0  0
  -27.2353  -22.6888   20.1491 H   0  0  0  0  0  0
  -28.0325  -21.2208   20.6602 H   0  0  0  0  0  0
  -28.6468  -22.1029   19.2687 H   0  0  0  0  0  0
  -32.4216  -22.3205   22.3131 H   0  0  0  0  0  0
  -31.3605  -23.6132   22.8674 H   0  0  0  0  0  0
  -31.9870  -23.6155   21.2200 H   0  0  0  0  0  0
  -28.3087  -15.7148   22.0227 H   0  0  0  0  0  0
  -29.7649  -15.2981   22.9010 H   0  0  0  0  0  0
  -30.0051  -25.0257   21.3367 H   0  0  0  0  0  0
  -30.0877  -24.3690   19.7215 H   0  0  0  0  0  0
  -27.7833  -24.8542   19.3073 H   0  0  0  0  0  0
  -27.4254  -25.0764   21.0143 H   0  0  0  0  0  0
  -28.5940  -23.2198   22.1124 H   0  0  0  0  0  0
  -30.6933  -21.6088   20.6575 H   0  0  0  0  0  0
  -29.8883  -21.6521   23.4784 H   0  0  0  0  0  0
  -30.4409  -16.3727   20.4046 H   0  0  0  0  0  0
  1 25  1  0  0  0
  1 30  2  0  0  0
  1 83  1  0  0  0
  2  3  1  0  0  0
  2 25  1  0  0  0
  2 85  1  0  0  0
  2 86  1  0  0  0
  3  4  1  0  0  0
  3 87  1  0  0  0
  3 88  1  0  0  0
  4  5  1  0  0  0
  4 89  1  0  0  0
  4 90  1  0  0  0
  5  6  1  0  0  0
  5 26  1  0  0  0
  5 91  1  0  0  0
  6 25  1  0  0  0
  6 92  1  0  0  0
  6 93  1  0  0  0
  7  8  2  0  0  0
  7 26  1  0  0  0
  7 29  1  0  0  0
  8  9  1  0  0  0
  8 22  1  0  0  0
  9 10  1  0  0  0
  9 27  2  0  0  0
 10 11  2  0  0  0
 10 15  1  0  0  0
 11 12  1  0  0  0
 11 94  1  0  0  0
 12 13  2  0  0  0
 12 95  1  0  0  0
 13 14  1  0  0  0
 13 31  1  0  0  0
 14 15  2  0  0  0
 14 96  1  0  0  0
 15 97  1  0  0  0
 16 17  2  0  0  0
 16 21  1  0  0  0
 16 31  1  0  0  0
 17 18  1  0  0  0
 17 98  1  0  0  0
 18 19  2  0  0  0
 18 99  1  0  0  0
 19 20  1  0  0  0
 19 24  1  0  0  0
 20 21  2  0  0  0
 20100  1  0  0  0
 21 23  1  0  0  0
 22 28  1  0  0  0
 22 32  2  0  0  0
 26 27  1  0  0  0
 28101  1  0  0  0
 28102  1  0  0  0
 29103  1  0  0  0
 29104  1  0  0  0
 33 34  1  0  0  0
 33 66  1  0  0  0
 33 70  2  0  0  0
 34 36  1  0  0  0
 34 59  1  0  0  0
 34105  1  0  0  0
 35 44  2  0  0  0
 35 45  1  0  0  0
 35 68  1  0  0  0
 36 56  1  0  0  0
 36106  1  0  0  0
 37 39  1  0  0  0
 37 47  1  0  0  0
 37 66  1  0  0  0
 37107  1  0  0  0
 38 43  2  0  0  0
 38 46  1  0  0  0
 38 47  1  0  0  0
 39 64  1  0  0  0
 39 67  2  0  0  0
 40 52  1  0  0  0
 40 53  2  0  0  0
 40 58  1  0  0  0
 41108  1  0  0  0
 41109  1  0  0  0
 41110  1  0  0  0
 41 48  1  0  0  0
 42 43  1  0  0  0
 42 66  1  0  0  0
 42111  1  0  0  0
 42112  1  0  0  0
 43 44  1  0  0  0
 44113  1  0  0  0
 45 46  2  0  0  0
 45114  1  0  0  0
 46115  1  0  0  0
 47116  1  0  0  0
 47117  1  0  0  0
 48 56  1  0  0  0
 48 65  1  0  0  0
 48118  1  0  0  0
 49 50  1  0  0  0
 49 53  1  0  0  0
 49 64  1  0  0  0
 49119  1  0  0  0
 50 51  1  0  0  0
 50120  1  0  0  0
 50121  1  0  0  0
 51 52  1  0  0  0
 51122  1  0  0  0
 51123  1  0  0  0
 52124  1  0  0  0
 52125  1  0  0  0
 53 54  1  0  0  0
 54 55  2  0  0  0
 54126  1  0  0  0
 55 57  1  0  0  0
 55127  1  0  0  0
 56 69  2  0  0  0
 57 58  2  0  0  0
 57128  1  0  0  0
 58129  1  0  0  0
 59 60  1  0  0  0
 59 61  1  0  0  0
 59 62  1  0  0  0
 60130  1  0  0  0
 60131  1  0  0  0
 60132  1  0  0  0
 61133  1  0  0  0
 61134  1  0  0  0
 61135  1  0  0  0
 62136  1  0  0  0
 62137  1  0  0  0
 62138  1  0  0  0
 63 65  1  0  0  0
 63139  1  0  0  0
 63140  1  0  0  0
 63141  1  0  0  0
 64142  1  0  0  0
 65143  1  0  0  0
 68 78  1  0  0  0
 71 72  2  0  0  0
 71 81  1  0  0  0
 71144  1  0  0  0
 72 76  1  0  0  0
 72 84  1  0  0  0
 73 81  2  0  0  0
 73 82  1  0  0  0
 73 84  1  0  0  0
 74145  1  0  0  0
 74146  1  0  0  0
 74147  1  0  0  0
 74 79  1  0  0  0
 75148  1  0  0  0
 75149  1  0  0  0
 75150  1  0  0  0
 75 80  1  0  0  0
 76 83  1  0  0  0
 76151  1  0  0  0
 76152  1  0  0  0
 77 78  1  0  0  0
 77 79  1  0  0  0
 77153  1  0  0  0
 77154  1  0  0  0
 78155  1  0  0  0
 78156  1  0  0  0
 79 80  1  0  0  0
 79157  1  0  0  0
 80 82  1  0  0  0
 80158  1  0  0  0
 82159  1  0  0  0
 83160  1  0  0  0
M  ISO  4   1 100  68 101  78 101  83 100
M  END
> <chiral flag>
0

> <version>
0

> <s_m_source_file>
/data/baiqing/PycharmProjects/Reinvent-master-3.2/result/LINK_invent/BTK/process_docking_weight1_custom_product_contain_oxygen_bond_distance_aromatic_linkinvent_7_9_3/rearranged_h_0197.sdf

> <i_m_source_file_index>
29

> <r_mmod_Potential_Energy-OPLS-2005>
-121.334190368652

> <r_mmod_Stretch_Energy-OPLS-2005>
35.5668144226074

> <r_mmod_Bend_Energy-OPLS-2005>
116.467735290527

> <r_mmod_Torsional_Energy-OPLS-2005>
263.479125976562

> <r_mmod_Improper_Torsional_Energy-OPLS-2005>
14.8677282333374

> <r_mmod_Van_der_Waal_Energy-OPLS-2005>
131.601364135742

> <r_mmod_Electrostatic_Energy-OPLS-2005>
-485.511688232422

> <r_mmod_Solvation_Energy-OPLS-2005>
-211.370315551758

> <b_mmod_Minimization_Converged-OPLS-2005>
0

> <r_mmod_RMS_Derivative-OPLS-2005>
1.12295591831207

$$$$
29
                    3D
 Structure written by MMmdl.
149157  0  0  1  0            999 V2000
  -30.5855  -14.7470   20.4687 C   0  0  0  0  0  0
  -30.4284  -12.4570   19.4875 C   0  0  0  0  0  0
  -29.5166  -12.5233   18.2403 C   0  0  0  0  0  0
  -28.0383  -12.3418   18.6424 C   0  0  0  0  0  0
  -27.6374  -13.2306   19.8482 C   0  0  2  0  0  0
  -28.6735  -13.1510   20.9912 C   0  0  0  0  0  0
  -25.2494  -13.8175   20.5689 C   0  0  0  0  0  0
  -24.1774  -13.0425   20.9161 C   0  0  0  0  0  0
  -24.6358  -11.6893   20.8683 C   0  0  0  0  0  0
  -23.9014  -10.4279   21.0381 C   0  0  0  0  0  0
  -24.3592   -9.4211   21.9169 C   0  0  0  0  0  0
  -23.6276   -8.2235   22.0751 C   0  0  0  0  0  0
  -22.4263   -8.0266   21.3539 C   0  0  0  0  0  0
  -21.9874   -9.0233   20.4641 C   0  0  0  0  0  0
  -22.7188  -10.2106   20.3043 C   0  0  0  0  0  0
  -21.6846   -6.0718   22.5281 C   0  0  0  0  0  0
  -21.4024   -6.5634   23.8211 C   0  0  0  0  0  0
  -21.3663   -5.6782   24.9171 C   0  0  0  0  0  0
  -21.6037   -4.3050   24.7222 C   0  0  0  0  0  0
  -21.8808   -3.8132   23.4347 C   0  0  0  0  0  0
  -21.9195   -4.6957   22.3400 C   0  0  0  0  0  0
  -22.7804  -13.5233   21.1847 C   0  0  0  0  0  0
  -22.1663   -4.2144   21.0976 F   0  0  0  0  0  0
  -21.5629   -3.4536   25.7739 F   0  0  0  0  0  0
  -29.9829  -13.5089   20.4271 N   0  0  0  0  0  0
  -26.2896  -12.9373   20.3214 N   0  0  0  0  0  0
  -25.9280  -11.6512   20.5657 N   0  0  0  0  0  0
  -22.0433  -12.8252   22.0403 N   0  0  0  0  0  0
  -25.4174  -15.1903   20.4164 N   0  0  0  0  0  0
  -31.7636  -14.8562   20.1085 O   0  0  0  0  0  0
  -21.6632   -6.8861   21.4234 O   0  0  0  0  0  0
  -22.3498  -14.5533   20.6696 O   0  0  0  0  0  0
  -24.6311  -31.8576   23.2014 C   0  0  0  0  0  0
  -25.9140  -32.4771   23.8362 C   0  0  1  0  0  0
  -27.2036  -27.2557   20.1325 C   0  0  0  0  0  0
  -25.5940  -33.8578   24.2285 N   0  0  0  0  0  0
  -23.4278  -30.4834   21.5438 C   0  0  2  0  0  0
  -24.8735  -28.9388   20.1040 C   0  0  0  0  0  0
  -22.7516  -29.4618   22.4899 C   0  0  0  0  0  0
  -18.0307  -28.1373   22.8483 C   0  0  0  0  0  0
  -24.1489  -36.7295   23.2638 C   0  0  0  0  0  0
  -25.9757  -30.7677   21.3867 C   0  0  0  0  0  0
  -26.0440  -29.3929   20.7238 C   0  0  0  0  0  0
  -27.2118  -28.5630   20.7300 C   0  0  0  0  0  0
  -26.0195  -26.8927   19.4478 C   0  0  0  0  0  0
  -24.8672  -27.6977   19.4529 C   0  0  0  0  0  0
  -23.6456  -29.8264   20.1565 C   0  0  0  0  0  0
  -25.4113  -36.3091   24.0331 C   0  0  1  0  0  0
  -20.5911  -28.3702   23.1241 C   0  0  2  0  0  0
  -20.6783  -26.9410   22.5397 C   0  0  0  0  0  0
  -19.5759  -26.6370   21.5196 C   0  0  0  0  0  0
  -18.1941  -26.7915   22.1616 C   0  0  0  0  0  0
  -19.1556  -28.8847   23.2859 C   0  0  0  0  0  0
  -18.9481  -30.1443   23.8884 C   0  0  0  0  0  0
  -17.6477  -30.6570   24.0552 C   0  0  0  0  0  0
  -25.9058  -34.9453   23.5110 C   0  0  0  0  0  0
  -16.5370  -29.9064   23.6325 C   0  0  0  0  0  0
  -16.7291  -28.6480   23.0353 C   0  0  0  0  0  0
  -26.4492  -31.6601   25.0756 C   0  0  0  0  0  0
  -25.3707  -31.3749   26.1473 C   0  0  0  0  0  0
  -27.0334  -30.3013   24.6250 C   0  0  0  0  0  0
  -27.6049  -32.4337   25.7524 C   0  0  0  0  0  0
  -27.5581  -37.1806   24.8460 C   0  0  0  0  0  0
  -21.4219  -29.3058   22.3642 N   0  0  0  0  0  0
  -26.4296  -37.3776   23.9399 N   0  0  0  0  0  0
  -24.6974  -31.0541   22.0998 N   0  0  0  0  0  0
  -23.4214  -28.8152   23.2988 O   0  0  0  0  0  0
  -28.2701  -26.3288   20.2346 O   0  0  0  0  0  0
  -26.5629  -34.8913   22.4680 O   0  0  0  0  0  0
  -23.5465  -32.1415   23.7299 O   0  0  0  0  0  0
  -30.3725  -19.4588   19.2220 C   0  0  0  0  0  0
  -29.5905  -19.6410   20.3362 C   0  0  0  0  0  0
  -29.9642  -17.2686   20.3788 C   0  0  0  0  0  0
  -28.7914  -22.1746   20.0011 C   0  0  0  0  0  0
  -27.9947  -24.8630   19.9903 C   0  0  0  0  0  0
  -28.7834  -23.6378   20.7104 C   0  0  1  0  0  0
  -29.3590  -18.3588   20.9669 N   0  0  0  0  0  0
  -29.1181  -20.9376   20.8198 N   0  0  0  0  0  0
  -29.8164  -15.8525   20.7923 N   0  0  0  0  0  0
  -28.1642  -23.4269   21.9730 O   0  0  0  0  0  0
  -30.8740  -17.7889   18.9602 S   0  0  0  0  0  0
  -31.4737  -12.5769   19.2011 H   0  0  0  0  0  0
  -30.3622  -11.4761   19.9614 H   0  0  0  0  0  0
  -29.8085  -11.7602   17.5174 H   0  0  0  0  0  0
  -29.6466  -13.4819   17.7335 H   0  0  0  0  0  0
  -27.8882  -11.2908   18.8905 H   0  0  0  0  0  0
  -27.3892  -12.5503   17.7922 H   0  0  0  0  0  0
  -27.6342  -14.2545   19.4753 H   0  0  0  0  0  0
  -28.7003  -12.1441   21.4149 H   0  0  0  0  0  0
  -28.3981  -13.8175   21.8116 H   0  0  0  0  0  0
  -25.2730   -9.5721   22.4747 H   0  0  0  0  0  0
  -24.0004   -7.4624   22.7474 H   0  0  0  0  0  0
  -21.0805   -8.8703   19.8956 H   0  0  0  0  0  0
  -22.3608  -10.9633   19.6155 H   0  0  0  0  0  0
  -21.2017   -7.6144   23.9713 H   0  0  0  0  0  0
  -21.1505   -6.0521   25.9073 H   0  0  0  0  0  0
  -22.0590   -2.7605   23.2837 H   0  0  0  0  0  0
  -22.4041  -11.9961   22.4863 H   0  0  0  0  0  0
  -21.1047  -13.1301   22.2556 H   0  0  0  0  0  0
  -24.6433  -15.8394   20.5229 H   0  0  0  0  0  0
  -26.2669  -15.6358   20.0950 H   0  0  0  0  0  0
  -26.7207  -32.5404   23.1100 H   0  0  0  0  0  0
  -25.0065  -33.9735   25.0414 H   0  0  0  0  0  0
  -22.7234  -31.3058   21.4034 H   0  0  0  0  0  0
  -23.3752  -35.9628   23.3303 H   0  0  0  0  0  0
  -24.3576  -36.8916   22.2052 H   0  0  0  0  0  0
  -23.7247  -37.6495   23.6660 H   0  0  0  0  0  0
  -26.1224  -31.5277   20.6190 H   0  0  0  0  0  0
  -26.8504  -30.8109   22.0230 H   0  0  0  0  0  0
  -28.1002  -28.9030   21.2436 H   0  0  0  0  0  0
  -25.9365  -25.9588   18.9120 H   0  0  0  0  0  0
  -23.9763  -27.3520   18.9446 H   0  0  0  0  0  0
  -23.7697  -30.6083   19.4060 H   0  0  0  0  0  0
  -22.7635  -29.2617   19.8495 H   0  0  0  0  0  0
  -25.1291  -36.1948   25.0823 H   0  0  0  0  0  0
  -21.0008  -28.3272   24.1353 H   0  0  0  0  0  0
  -20.5652  -26.2316   23.3614 H   0  0  0  0  0  0
  -21.6656  -26.7399   22.1216 H   0  0  0  0  0  0
  -19.6918  -25.6269   21.1243 H   0  0  0  0  0  0
  -19.6685  -27.3159   20.6705 H   0  0  0  0  0  0
  -17.4213  -26.6667   21.4014 H   0  0  0  0  0  0
  -18.0339  -26.0047   22.9005 H   0  0  0  0  0  0
  -19.7951  -30.7261   24.2252 H   0  0  0  0  0  0
  -17.5028  -31.6252   24.5154 H   0  0  0  0  0  0
  -15.5365  -30.2964   23.7632 H   0  0  0  0  0  0
  -15.8702  -28.0782   22.7080 H   0  0  0  0  0  0
  -24.5874  -30.7110   25.7789 H   0  0  0  0  0  0
  -24.8907  -32.2924   26.4896 H   0  0  0  0  0  0
  -25.8019  -30.8919   27.0257 H   0  0  0  0  0  0
  -26.2924  -29.6767   24.1248 H   0  0  0  0  0  0
  -27.3977  -29.7263   25.4774 H   0  0  0  0  0  0
  -27.8822  -30.4271   23.9523 H   0  0  0  0  0  0
  -27.2661  -33.3636   26.2098 H   0  0  0  0  0  0
  -28.3858  -32.6907   25.0354 H   0  0  0  0  0  0
  -28.0725  -31.8475   26.5445 H   0  0  0  0  0  0
  -28.2605  -38.0096   24.7504 H   0  0  0  0  0  0
  -28.1080  -36.2636   24.6297 H   0  0  0  0  0  0
  -27.2306  -37.1460   25.8865 H   0  0  0  0  0  0
  -20.9406  -29.8810   21.6874 H   0  0  0  0  0  0
  -26.0186  -38.2858   24.1377 H   0  0  0  0  0  0
  -30.7294  -20.2189   18.5433 H   0  0  0  0  0  0
  -29.4616  -22.2111   19.1412 H   0  0  0  0  0  0
  -27.8000  -22.0065   19.5757 H   0  0  0  0  0  0
  -26.9465  -24.6512   20.2001 H   0  0  0  0  0  0
  -28.0949  -24.7252   18.9155 H   0  0  0  0  0  0
  -29.8157  -23.9442   20.8832 H   0  0  0  0  0  0
  -28.6386  -20.9136   21.7160 H   0  0  0  0  0  0
  -28.9367  -15.6344   21.2330 H   0  0  0  0  0  0
  -28.8078  -23.0107   22.5363 H   0  0  0  0  0  0
  1 25  1  0  0  0
  1 30  2  0  0  0
  1 79  1  0  0  0
  2  3  1  0  0  0
  2 25  1  0  0  0
  2 82  1  0  0  0
  2 83  1  0  0  0
  3  4  1  0  0  0
  3 84  1  0  0  0
  3 85  1  0  0  0
  4  5  1  0  0  0
  4 86  1  0  0  0
  4 87  1  0  0  0
  5  6  1  0  0  0
  5 26  1  0  0  0
  5 88  1  0  0  0
  6 25  1  0  0  0
  6 89  1  0  0  0
  6 90  1  0  0  0
  7  8  2  0  0  0
  7 26  1  0  0  0
  7 29  1  0  0  0
  8  9  1  0  0  0
  8 22  1  0  0  0
  9 10  1  0  0  0
  9 27  2  0  0  0
 10 11  2  0  0  0
 10 15  1  0  0  0
 11 12  1  0  0  0
 11 91  1  0  0  0
 12 13  2  0  0  0
 12 92  1  0  0  0
 13 14  1  0  0  0
 13 31  1  0  0  0
 14 15  2  0  0  0
 14 93  1  0  0  0
 15 94  1  0  0  0
 16 17  2  0  0  0
 16 21  1  0  0  0
 16 31  1  0  0  0
 17 18  1  0  0  0
 17 95  1  0  0  0
 18 19  2  0  0  0
 18 96  1  0  0  0
 19 20  1  0  0  0
 19 24  1  0  0  0
 20 21  2  0  0  0
 20 97  1  0  0  0
 21 23  1  0  0  0
 22 28  1  0  0  0
 22 32  2  0  0  0
 26 27  1  0  0  0
 28 98  1  0  0  0
 28 99  1  0  0  0
 29100  1  0  0  0
 29101  1  0  0  0
 33 34  1  0  0  0
 33 66  1  0  0  0
 33 70  2  0  0  0
 34 36  1  0  0  0
 34 59  1  0  0  0
 34102  1  0  0  0
 35 44  2  0  0  0
 35 45  1  0  0  0
 35 68  1  0  0  0
 36 56  1  0  0  0
 36103  1  0  0  0
 37 39  1  0  0  0
 37 47  1  0  0  0
 37 66  1  0  0  0
 37104  1  0  0  0
 38 43  2  0  0  0
 38 46  1  0  0  0
 38 47  1  0  0  0
 39 64  1  0  0  0
 39 67  2  0  0  0
 40 52  1  0  0  0
 40 53  2  0  0  0
 40 58  1  0  0  0
 41105  1  0  0  0
 41106  1  0  0  0
 41107  1  0  0  0
 41 48  1  0  0  0
 42 43  1  0  0  0
 42 66  1  0  0  0
 42108  1  0  0  0
 42109  1  0  0  0
 43 44  1  0  0  0
 44110  1  0  0  0
 45 46  2  0  0  0
 45111  1  0  0  0
 46112  1  0  0  0
 47113  1  0  0  0
 47114  1  0  0  0
 48 56  1  0  0  0
 48 65  1  0  0  0
 48115  1  0  0  0
 49 50  1  0  0  0
 49 53  1  0  0  0
 49 64  1  0  0  0
 49116  1  0  0  0
 50 51  1  0  0  0
 50117  1  0  0  0
 50118  1  0  0  0
 51 52  1  0  0  0
 51119  1  0  0  0
 51120  1  0  0  0
 52121  1  0  0  0
 52122  1  0  0  0
 53 54  1  0  0  0
 54 55  2  0  0  0
 54123  1  0  0  0
 55 57  1  0  0  0
 55124  1  0  0  0
 56 69  2  0  0  0
 57 58  2  0  0  0
 57125  1  0  0  0
 58126  1  0  0  0
 59 60  1  0  0  0
 59 61  1  0  0  0
 59 62  1  0  0  0
 60127  1  0  0  0
 60128  1  0  0  0
 60129  1  0  0  0
 61130  1  0  0  0
 61131  1  0  0  0
 61132  1  0  0  0
 62133  1  0  0  0
 62134  1  0  0  0
 62135  1  0  0  0
 63 65  1  0  0  0
 63136  1  0  0  0
 63137  1  0  0  0
 63138  1  0  0  0
 64139  1  0  0  0
 65140  1  0  0  0
 68 75  1  0  0  0
 71 72  2  0  0  0
 71 81  1  0  0  0
 71141  1  0  0  0
 72 77  1  0  0  0
 72 78  1  0  0  0
 73 77  2  0  0  0
 73 79  1  0  0  0
 73 81  1  0  0  0
 74 76  1  0  0  0
 74 78  1  0  0  0
 74142  1  0  0  0
 74143  1  0  0  0
 75 76  1  0  0  0
 75144  1  0  0  0
 75145  1  0  0  0
 76 80  1  0  0  0
 76146  1  0  0  0
 78147  1  0  0  0
 79148  1  0  0  0
 80149  1  0  0  0
M  ISO  4   1 100  68 101  75 101  79 100
M  END
> <chiral flag>
0

> <version>
0

> <s_m_source_file>
/data/baiqing/PycharmProjects/Reinvent-master-3.2/result/LINK_invent/BTK/process_docking_weight1_custom_product_contain_oxygen_bond_distance_aromatic_linkinvent_7_9_3/rearranged_h_0197.sdf

> <i_m_source_file_index>
30

> <r_mmod_Potential_Energy-OPLS-2005>
-6.59037351608276

> <r_mmod_Stretch_Energy-OPLS-2005>
116.508125305176

> <r_mmod_Bend_Energy-OPLS-2005>
158.94921875

> <r_mmod_Torsional_Energy-OPLS-2005>
251.554046630859

> <r_mmod_Improper_Torsional_Energy-OPLS-2005>
5.01828861236572

> <r_mmod_Van_der_Waal_Energy-OPLS-2005>
126.147369384766

> <r_mmod_Electrostatic_Energy-OPLS-2005>
-508.361053466797

> <r_mmod_Solvation_Energy-OPLS-2005>
-248.41242980957

> <b_mmod_Minimization_Converged-OPLS-2005>
0

> <r_mmod_RMS_Derivative-OPLS-2005>
4.05585193634033

$$$$
30
                    3D
 Structure written by MMmdl.
151159  0  0  1  0            999 V2000
  -30.7076  -14.4472   20.5850 C   0  0  0  0  0  0
  -30.4238  -12.2934   19.4200 C   0  0  0  0  0  0
  -29.4951  -12.5084   18.2067 C   0  0  0  0  0  0
  -28.0156  -12.3712   18.6171 C   0  0  0  0  0  0
  -27.6654  -13.2035   19.8795 C   0  0  2  0  0  0
  -28.7053  -12.9648   20.9985 C   0  0  0  0  0  0
  -25.2605  -13.8156   20.5681 C   0  0  0  0  0  0
  -24.1848  -13.0439   20.9174 C   0  0  0  0  0  0
  -24.6395  -11.6904   20.8731 C   0  0  0  0  0  0
  -23.9059  -10.4291   21.0400 C   0  0  0  0  0  0
  -24.3612   -9.4208   21.9180 C   0  0  0  0  0  0
  -23.6288   -8.2244   22.0753 C   0  0  0  0  0  0
  -22.4271   -8.0280   21.3544 C   0  0  0  0  0  0
  -21.9905   -9.0253   20.4647 C   0  0  0  0  0  0
  -22.7231  -10.2133   20.3053 C   0  0  0  0  0  0
  -21.6851   -6.0735   22.5279 C   0  0  0  0  0  0
  -21.4013   -6.5639   23.8213 C   0  0  0  0  0  0
  -21.3660   -5.6791   24.9174 C   0  0  0  0  0  0
  -21.6044   -4.3054   24.7225 C   0  0  0  0  0  0
  -21.8819   -3.8148   23.4346 C   0  0  0  0  0  0
  -21.9193   -4.6965   22.3402 C   0  0  0  0  0  0
  -22.7872  -13.5243   21.1837 C   0  0  0  0  0  0
  -22.1660   -4.2151   21.0979 F   0  0  0  0  0  0
  -21.5629   -3.4538   25.7738 F   0  0  0  0  0  0
  -30.0429  -13.2665   20.4558 N   0  0  0  0  0  0
  -26.3042  -12.9319   20.3379 N   0  0  0  0  0  0
  -25.9322  -11.6481   20.5768 N   0  0  0  0  0  0
  -22.0508  -12.8238   22.0393 N   0  0  0  0  0  0
  -25.4345  -15.1873   20.4092 N   0  0  0  0  0  0
  -31.8190  -14.6407   20.0805 O   0  0  0  0  0  0
  -21.6637   -6.8877   21.4241 O   0  0  0  0  0  0
  -22.3561  -14.5551   20.6688 O   0  0  0  0  0  0
  -24.6137  -31.8688   23.2108 C   0  0  0  0  0  0
  -25.9034  -32.4828   23.8402 C   0  0  1  0  0  0
  -27.2338  -27.4480   20.0982 C   0  0  0  0  0  0
  -25.5893  -33.8625   24.2335 N   0  0  0  0  0  0
  -23.4014  -30.4925   21.5508 C   0  0  2  0  0  0
  -24.8492  -28.9622   20.1125 C   0  0  0  0  0  0
  -22.7406  -29.4663   22.4990 C   0  0  0  0  0  0
  -18.0271  -28.1376   22.8493 C   0  0  0  0  0  0
  -24.1487  -36.7322   23.2637 C   0  0  0  0  0  0
  -25.9289  -30.8403   21.3612 C   0  0  0  0  0  0
  -26.0090  -29.4765   20.7071 C   0  0  0  0  0  0
  -27.2079  -28.7278   20.6944 C   0  0  0  0  0  0
  -26.0615  -26.9496   19.4893 C   0  0  0  0  0  0
  -24.8699  -27.6976   19.4991 C   0  0  0  0  0  0
  -23.6091  -29.8255   20.1648 C   0  0  0  0  0  0
  -25.4107  -36.3117   24.0339 C   0  0  1  0  0  0
  -20.5861  -28.3662   23.1319 C   0  0  2  0  0  0
  -20.6761  -26.9399   22.5417 C   0  0  0  0  0  0
  -19.5740  -26.6387   21.5212 C   0  0  0  0  0  0
  -18.1919  -26.7923   22.1624 C   0  0  0  0  0  0
  -19.1520  -28.8835   23.2905 C   0  0  0  0  0  0
  -18.9448  -30.1443   23.8913 C   0  0  0  0  0  0
  -17.6450  -30.6582   24.0566 C   0  0  0  0  0  0
  -25.9032  -34.9479   23.5135 C   0  0  0  0  0  0
  -16.5342  -29.9085   23.6323 C   0  0  0  0  0  0
  -16.7261  -28.6502   23.0344 C   0  0  0  0  0  0
  -26.4468  -31.6597   25.0721 C   0  0  0  0  0  0
  -25.3743  -31.3694   26.1475 C   0  0  0  0  0  0
  -27.0294  -30.3043   24.6080 C   0  0  0  0  0  0
  -27.6049  -32.4310   25.7481 C   0  0  0  0  0  0
  -27.5582  -37.1815   24.8464 C   0  0  0  0  0  0
  -21.4133  -29.3033   22.3729 N   0  0  0  0  0  0
  -26.4297  -37.3798   23.9407 N   0  0  0  0  0  0
  -24.6662  -31.0804   22.0999 N   0  0  0  0  0  0
  -23.4181  -28.8204   23.3029 O   0  0  0  0  0  0
  -28.3807  -26.6867   20.1152 O   0  0  0  0  0  0
  -26.5594  -34.8928   22.4696 O   0  0  0  0  0  0
  -23.5333  -32.1426   23.7513 O   0  0  0  0  0  0
  -30.1002  -16.8160   21.0701 C   0  0  0  0  0  0
  -29.7834  -19.2046   21.0138 C   0  0  0  0  0  0
  -28.8620  -22.9655   20.9478 C   0  0  0  0  0  0
  -29.6588  -21.7543   20.4101 C   0  0  0  0  0  0
  -28.2319  -25.4379   20.8113 C   0  0  0  0  0  0
  -29.0023  -24.2813   20.1358 C   0  0  2  0  0  0
  -30.8695  -17.4153   20.1430 N   0  0  0  0  0  0
  -30.6825  -18.7950   20.1102 N   0  0  0  0  0  0
  -30.0364  -15.4038   21.2497 N   0  0  0  0  0  0
  -29.3871  -20.5310   21.1648 N   0  0  0  0  0  0
  -28.4264  -24.0795   18.8563 O   0  0  0  0  0  0
  -29.0874  -17.9201   22.0002 S   0  0  0  0  0  0
  -31.4686  -12.3881   19.1186 H   0  0  0  0  0  0
  -30.3202  -11.2783   19.8064 H   0  0  0  0  0  0
  -29.7319  -11.7912   17.4195 H   0  0  0  0  0  0
  -29.6679  -13.4980   17.7804 H   0  0  0  0  0  0
  -27.8210  -11.3148   18.8051 H   0  0  0  0  0  0
  -27.3668  -12.6550   17.7877 H   0  0  0  0  0  0
  -27.7164  -14.2544   19.5932 H   0  0  0  0  0  0
  -28.6747  -11.9239   21.3242 H   0  0  0  0  0  0
  -28.4618  -13.5477   21.8874 H   0  0  0  0  0  0
  -25.2759   -9.5685   22.4752 H   0  0  0  0  0  0
  -24.0001   -7.4635   22.7470 H   0  0  0  0  0  0
  -21.0838   -8.8769   19.8951 H   0  0  0  0  0  0
  -22.3688  -10.9671   19.6161 H   0  0  0  0  0  0
  -21.2003   -7.6147   23.9718 H   0  0  0  0  0  0
  -21.1484   -6.0521   25.9077 H   0  0  0  0  0  0
  -22.0599   -2.7612   23.2845 H   0  0  0  0  0  0
  -22.4115  -11.9894   22.4778 H   0  0  0  0  0  0
  -21.1129  -13.1273   22.2599 H   0  0  0  0  0  0
  -24.6682  -15.8437   20.5121 H   0  0  0  0  0  0
  -26.2851  -15.6233   20.0764 H   0  0  0  0  0  0
  -26.7108  -32.5551   23.1174 H   0  0  0  0  0  0
  -25.0049  -33.9789   25.0483 H   0  0  0  0  0  0
  -22.6898  -31.3091   21.4123 H   0  0  0  0  0  0
  -23.3741  -35.9663   23.3314 H   0  0  0  0  0  0
  -24.3580  -36.8920   22.2049 H   0  0  0  0  0  0
  -23.7247  -37.6536   23.6639 H   0  0  0  0  0  0
  -26.0381  -31.6082   20.5941 H   0  0  0  0  0  0
  -26.8178  -30.8942   21.9781 H   0  0  0  0  0  0
  -28.1032  -29.1186   21.1578 H   0  0  0  0  0  0
  -26.0668  -25.9779   19.0155 H   0  0  0  0  0  0
  -23.9795  -27.2963   19.0350 H   0  0  0  0  0  0
  -23.7140  -30.6007   19.4048 H   0  0  0  0  0  0
  -22.7342  -29.2430   19.8704 H   0  0  0  0  0  0
  -25.1283  -36.1988   25.0832 H   0  0  0  0  0  0
  -20.9954  -28.3226   24.1438 H   0  0  0  0  0  0
  -20.5664  -26.2269   23.3602 H   0  0  0  0  0  0
  -21.6633  -26.7444   22.1208 H   0  0  0  0  0  0
  -19.6902  -25.6302   21.1228 H   0  0  0  0  0  0
  -19.6679  -27.3209   20.6752 H   0  0  0  0  0  0
  -17.4189  -26.6673   21.4025 H   0  0  0  0  0  0
  -18.0321  -26.0061   22.9017 H   0  0  0  0  0  0
  -19.7925  -30.7256   24.2286 H   0  0  0  0  0  0
  -17.5005  -31.6263   24.5167 H   0  0  0  0  0  0
  -15.5343  -30.2993   23.7636 H   0  0  0  0  0  0
  -15.8662  -28.0830   22.7045 H   0  0  0  0  0  0
  -24.5913  -30.7044   25.7811 H   0  0  0  0  0  0
  -24.8940  -32.2847   26.4944 H   0  0  0  0  0  0
  -25.8107  -30.8847   27.0217 H   0  0  0  0  0  0
  -26.2832  -29.6809   24.1141 H   0  0  0  0  0  0
  -27.4078  -29.7270   25.4527 H   0  0  0  0  0  0
  -27.8660  -30.4365   23.9215 H   0  0  0  0  0  0
  -27.2670  -33.3592   26.2100 H   0  0  0  0  0  0
  -28.3838  -32.6897   25.0297 H   0  0  0  0  0  0
  -28.0740  -31.8408   26.5364 H   0  0  0  0  0  0
  -28.2608  -38.0105   24.7507 H   0  0  0  0  0  0
  -28.1071  -36.2637   24.6296 H   0  0  0  0  0  0
  -27.2300  -37.1473   25.8868 H   0  0  0  0  0  0
  -20.9288  -29.8761   21.6960 H   0  0  0  0  0  0
  -26.0189  -38.2879   24.1402 H   0  0  0  0  0  0
  -29.1801  -23.1584   21.9737 H   0  0  0  0  0  0
  -27.8042  -22.7039   21.0097 H   0  0  0  0  0  0
  -30.7286  -21.9672   20.4406 H   0  0  0  0  0  0
  -29.4055  -21.5797   19.3630 H   0  0  0  0  0  0
  -28.6282  -25.5884   21.8165 H   0  0  0  0  0  0
  -27.1905  -25.1443   20.9563 H   0  0  0  0  0  0
  -30.0552  -24.5492   20.0303 H   0  0  0  0  0  0
  -29.2364  -15.0772   21.7667 H   0  0  0  0  0  0
  -28.7152  -20.6491   21.9164 H   0  0  0  0  0  0
  -28.4624  -24.9191   18.4055 H   0  0  0  0  0  0
  1 25  1  0  0  0
  1 30  2  0  0  0
  1 79  1  0  0  0
  2  3  1  0  0  0
  2 25  1  0  0  0
  2 83  1  0  0  0
  2 84  1  0  0  0
  3  4  1  0  0  0
  3 85  1  0  0  0
  3 86  1  0  0  0
  4  5  1  0  0  0
  4 87  1  0  0  0
  4 88  1  0  0  0
  5  6  1  0  0  0
  5 26  1  0  0  0
  5 89  1  0  0  0
  6 25  1  0  0  0
  6 90  1  0  0  0
  6 91  1  0  0  0
  7  8  2  0  0  0
  7 26  1  0  0  0
  7 29  1  0  0  0
  8  9  1  0  0  0
  8 22  1  0  0  0
  9 10  1  0  0  0
  9 27  2  0  0  0
 10 11  2  0  0  0
 10 15  1  0  0  0
 11 12  1  0  0  0
 11 92  1  0  0  0
 12 13  2  0  0  0
 12 93  1  0  0  0
 13 14  1  0  0  0
 13 31  1  0  0  0
 14 15  2  0  0  0
 14 94  1  0  0  0
 15 95  1  0  0  0
 16 17  2  0  0  0
 16 21  1  0  0  0
 16 31  1  0  0  0
 17 18  1  0  0  0
 17 96  1  0  0  0
 18 19  2  0  0  0
 18 97  1  0  0  0
 19 20  1  0  0  0
 19 24  1  0  0  0
 20 21  2  0  0  0
 20 98  1  0  0  0
 21 23  1  0  0  0
 22 28  1  0  0  0
 22 32  2  0  0  0
 26 27  1  0  0  0
 28 99  1  0  0  0
 28100  1  0  0  0
 29101  1  0  0  0
 29102  1  0  0  0
 33 34  1  0  0  0
 33 66  1  0  0  0
 33 70  2  0  0  0
 34 36  1  0  0  0
 34 59  1  0  0  0
 34103  1  0  0  0
 35 44  2  0  0  0
 35 45  1  0  0  0
 35 68  1  0  0  0
 36 56  1  0  0  0
 36104  1  0  0  0
 37 39  1  0  0  0
 37 47  1  0  0  0
 37 66  1  0  0  0
 37105  1  0  0  0
 38 43  2  0  0  0
 38 46  1  0  0  0
 38 47  1  0  0  0
 39 64  1  0  0  0
 39 67  2  0  0  0
 40 52  1  0  0  0
 40 53  2  0  0  0
 40 58  1  0  0  0
 41106  1  0  0  0
 41107  1  0  0  0
 41108  1  0  0  0
 41 48  1  0  0  0
 42 43  1  0  0  0
 42 66  1  0  0  0
 42109  1  0  0  0
 42110  1  0  0  0
 43 44  1  0  0  0
 44111  1  0  0  0
 45 46  2  0  0  0
 45112  1  0  0  0
 46113  1  0  0  0
 47114  1  0  0  0
 47115  1  0  0  0
 48 56  1  0  0  0
 48 65  1  0  0  0
 48116  1  0  0  0
 49 50  1  0  0  0
 49 53  1  0  0  0
 49 64  1  0  0  0
 49117  1  0  0  0
 50 51  1  0  0  0
 50118  1  0  0  0
 50119  1  0  0  0
 51 52  1  0  0  0
 51120  1  0  0  0
 51121  1  0  0  0
 52122  1  0  0  0
 52123  1  0  0  0
 53 54  1  0  0  0
 54 55  2  0  0  0
 54124  1  0  0  0
 55 57  1  0  0  0
 55125  1  0  0  0
 56 69  2  0  0  0
 57 58  2  0  0  0
 57126  1  0  0  0
 58127  1  0  0  0
 59 60  1  0  0  0
 59 61  1  0  0  0
 59 62  1  0  0  0
 60128  1  0  0  0
 60129  1  0  0  0
 60130  1  0  0  0
 61131  1  0  0  0
 61132  1  0  0  0
 61133  1  0  0  0
 62134  1  0  0  0
 62135  1  0  0  0
 62136  1  0  0  0
 63 65  1  0  0  0
 63137  1  0  0  0
 63138  1  0  0  0
 63139  1  0  0  0
 64140  1  0  0  0
 65141  1  0  0  0
 68 75  1  0  0  0
 71 77  2  0  0  0
 71 79  1  0  0  0
 71 82  1  0  0  0
 72 78  2  0  0  0
 72 80  1  0  0  0
 72 82  1  0  0  0
 73 74  1  0  0  0
 73 76  1  0  0  0
 73142  1  0  0  0
 73143  1  0  0  0
 74 80  1  0  0  0
 74144  1  0  0  0
 74145  1  0  0  0
 75 76  1  0  0  0
 75146  1  0  0  0
 75147  1  0  0  0
 76 81  1  0  0  0
 76148  1  0  0  0
 77 78  1  0  0  0
 79149  1  0  0  0
 80150  1  0  0  0
 81151  1  0  0  0
M  ISO  4   1 100  68 101  75 101  79 100
M  END
> <chiral flag>
0

> <version>
0

> <s_m_source_file>
/data/baiqing/PycharmProjects/Reinvent-master-3.2/result/LINK_invent/BTK/process_docking_weight1_custom_product_contain_oxygen_bond_distance_aromatic_linkinvent_7_9_3/rearranged_h_0197.sdf

> <i_m_source_file_index>
31

> <r_mmod_Potential_Energy-OPLS-2005>
-152.178482055664

> <r_mmod_Stretch_Energy-OPLS-2005>
33.8143997192383

> <r_mmod_Bend_Energy-OPLS-2005>
92.9654693603516

> <r_mmod_Torsional_Energy-OPLS-2005>
222.987976074219

> <r_mmod_Improper_Torsional_Energy-OPLS-2005>
3.18416881561279

> <r_mmod_Van_der_Waal_Energy-OPLS-2005>
131.099456787109

> <r_mmod_Electrostatic_Energy-OPLS-2005>
-380.813751220703

> <r_mmod_Solvation_Energy-OPLS-2005>
-266.042724609375

> <b_mmod_Minimization_Converged-OPLS-2005>
0

> <r_mmod_RMS_Derivative-OPLS-2005>
0.307497888803482

$$$$
31
                    3D
 Structure written by MMmdl.
175183  0  0  1  0            999 V2000
  -30.2528  -15.2348   20.3571 C   0  0  0  0  0  0
  -30.4105  -12.7479   19.4671 C   0  0  0  0  0  0
  -29.4557  -12.4022   18.2693 C   0  0  0  0  0  0
  -28.0561  -12.0756   18.7662 C   0  0  0  0  0  0
  -27.5744  -13.1589   19.7544 C   0  0  2  0  0  0
  -28.5896  -13.3392   20.8962 C   0  0  0  0  0  0
  -25.2368  -13.7919   20.5622 C   0  0  0  0  0  0
  -24.1600  -13.0265   20.9296 C   0  0  0  0  0  0
  -24.6097  -11.6733   20.8718 C   0  0  0  0  0  0
  -23.8757  -10.4140   21.0453 C   0  0  0  0  0  0
  -24.3376   -9.4076   21.9239 C   0  0  0  0  0  0
  -23.6126   -8.2078   22.0769 C   0  0  0  0  0  0
  -22.4134   -8.0116   21.3539 C   0  0  0  0  0  0
  -21.9691   -9.0031   20.4653 C   0  0  0  0  0  0
  -22.6937  -10.1948   20.3087 C   0  0  0  0  0  0
  -21.6761   -6.0618   22.5289 C   0  0  0  0  0  0
  -21.3961   -6.5567   23.8216 C   0  0  0  0  0  0
  -21.3653   -5.6754   24.9202 C   0  0  0  0  0  0
  -21.6054   -4.3017   24.7270 C   0  0  0  0  0  0
  -21.8810   -3.8074   23.4400 C   0  0  0  0  0  0
  -21.9160   -4.6861   22.3438 C   0  0  0  0  0  0
  -22.7686  -13.5199   21.1941 C   0  0  0  0  0  0
  -22.1633   -4.2058   21.1013 F   0  0  0  0  0  0
  -21.5648   -3.4514   25.7789 F   0  0  0  0  0  0
  -29.7902  -13.8819   20.2863 N   0  0  0  0  0  0
  -26.2559  -12.8925   20.2948 N   0  0  0  0  0  0
  -25.8978  -11.6125   20.5602 N   0  0  0  0  0  0
  -22.0308  -12.8204   22.0523 N   0  0  0  0  0  0
  -25.4250  -15.1551   20.3965 N   0  0  0  0  0  0
  -31.4613  -15.3089   20.1618 O   0  0  0  0  0  0
  -21.6525   -6.8715   21.4229 O   0  0  0  0  0  0
  -22.3441  -14.5538   20.6840 O   0  0  0  0  0  0
  -24.6891  -31.8682   23.2152 C   0  0  0  0  0  0
  -25.9607  -32.4855   23.8163 C   0  0  1  0  0  0
  -26.8834  -27.0798   19.8081 C   0  0  0  0  0  0
  -25.6288  -33.8660   24.2374 N   0  0  0  0  0  0
  -23.4344  -30.5802   21.5874 C   0  0  2  0  0  0
  -24.7744  -28.9935   20.0832 C   0  0  0  0  0  0
  -22.7598  -29.5055   22.5089 C   0  0  0  0  0  0
  -18.0373  -28.1300   22.8407 C   0  0  0  0  0  0
  -24.1429  -36.7345   23.2658 C   0  0  0  0  0  0
  -26.0380  -30.7671   21.2832 C   0  0  0  0  0  0
  -26.0147  -29.3644   20.5267 C   0  0  0  0  0  0
  -27.1170  -28.4660   20.2246 C   0  0  0  0  0  0
  -25.5434  -26.8524   20.0118 C   0  0  0  0  0  0
  -24.5053  -27.6658   19.6769 C   0  0  0  0  0  0
  -23.6411  -29.9854   20.1714 C   0  0  0  0  0  0
  -25.4056  -36.2966   24.0273 C   0  0  1  0  0  0
  -20.6026  -28.3854   23.1300 C   0  0  2  0  0  0
  -20.6739  -26.9372   22.5459 C   0  0  0  0  0  0
  -19.5911  -26.6403   21.5110 C   0  0  0  0  0  0
  -18.2066  -26.7918   22.1428 C   0  0  0  0  0  0
  -19.1638  -28.8831   23.2799 C   0  0  0  0  0  0
  -18.9604  -30.1358   23.8825 C   0  0  0  0  0  0
  -17.6621  -30.6490   24.0519 C   0  0  0  0  0  0
  -25.9124  -34.9589   23.5017 C   0  0  0  0  0  0
  -16.5452  -29.9021   23.6275 C   0  0  0  0  0  0
  -16.7368  -28.6385   23.0323 C   0  0  0  0  0  0
  -26.4607  -31.6329   25.0528 C   0  0  0  0  0  0
  -25.3717  -31.3425   26.1165 C   0  0  0  0  0  0
  -27.0132  -30.2737   24.5433 C   0  0  0  0  0  0
  -27.6199  -32.4000   25.7278 C   0  0  0  0  0  0
  -27.5575  -37.1731   24.8475 C   0  0  0  0  0  0
  -21.4256  -29.3439   22.3949 N   0  0  0  0  0  0
  -26.4272  -37.3700   23.9444 N   0  0  0  0  0  0
  -24.7632  -31.0847   22.1014 N   0  0  0  0  0  0
  -23.4388  -28.8052   23.2625 O   0  0  0  0  0  0
  -27.6735  -25.8959   19.5184 O   0  0  0  0  0  0
  -26.5679  -34.9065   22.4577 O   0  0  0  0  0  0
  -23.6219  -32.1702   23.7527 O   0  0  0  0  0  0
  -27.6996  -18.8285   20.2209 C   0  0  0  0  0  0
  -29.2428  -20.2086   20.6586 C   0  0  0  0  0  0
  -28.9550  -18.0172   20.3913 C   0  0  0  0  0  0
  -21.6613  -23.3695   22.2563 C   0  0  0  0  0  0
  -23.5705  -22.7207   23.6883 C   0  0  0  0  0  0
  -26.2708  -23.2630   20.6936 C   0  0  0  0  0  0
  -26.4716  -23.2433   17.9757 C   0  0  0  0  0  0
  -23.7433  -21.8506   21.1472 C   0  0  0  0  0  0
  -27.2902  -21.7845   20.8094 C   0  0  0  0  0  0
  -24.8633  -24.0385   19.9273 C   0  0  0  0  0  0
  -27.3704  -24.7374   18.4406 C   0  0  0  0  0  0
  -22.7235  -22.2514   22.3918 C   0  0  0  0  0  0
  -23.8603  -21.9114   19.4556 C   0  0  1  0  0  0
  -25.1560  -22.1070   18.3740 C   0  0  1  0  0  0
  -29.8414  -19.0395   20.8473 N   0  0  0  0  0  0
  -27.9083  -20.2894   20.4054 N   0  0  0  0  0  0
  -29.3354  -16.4315   20.2392 N   0  0  0  0  0  0
  -23.5688  -23.3353   19.3648 N   0  3  0  0  0  0
  -24.2723  -22.2030   17.1635 O   0  0  0  0  0  0
  -31.4073  -13.0161   19.0712 H   0  0  0  0  0  0
  -30.5687  -11.8506   20.1018 H   0  0  0  0  0  0
  -29.8428  -11.5296   17.7378 H   0  0  0  0  0  0
  -29.4132  -13.2071   17.5509 H   0  0  0  0  0  0
  -28.0973  -11.1160   19.2904 H   0  0  0  0  0  0
  -27.3566  -11.9063   17.9620 H   0  0  0  0  0  0
  -27.5083  -14.0796   19.1746 H   0  0  0  0  0  0
  -28.7831  -12.3744   21.3689 H   0  0  0  0  0  0
  -28.2034  -14.0133   21.6750 H   0  0  0  0  0  0
  -25.2492   -9.5563   22.4846 H   0  0  0  0  0  0
  -23.9827   -7.4437   22.7449 H   0  0  0  0  0  0
  -21.0644   -8.8489   19.8949 H   0  0  0  0  0  0
  -22.3363  -10.9480   19.6211 H   0  0  0  0  0  0
  -21.1931   -7.6076   23.9696 H   0  0  0  0  0  0
  -21.1513   -6.0494   25.9099 H   0  0  0  0  0  0
  -22.0611   -2.7539   23.2932 H   0  0  0  0  0  0
  -22.3759  -11.9809   22.4903 H   0  0  0  0  0  0
  -21.0962  -13.1311   22.2779 H   0  0  0  0  0  0
  -24.6725  -15.8173   20.5462 H   0  0  0  0  0  0
  -26.2818  -15.5768   20.0649 H   0  0  0  0  0  0
  -26.7767  -32.5387   23.0929 H   0  0  0  0  0  0
  -24.9803  -33.9317   24.9992 H   0  0  0  0  0  0
  -22.7634  -31.4506   21.4583 H   0  0  0  0  0  0
  -23.3648  -35.9719   23.3123 H   0  0  0  0  0  0
  -24.3677  -36.9137   22.2149 H   0  0  0  0  0  0
  -23.7256  -37.6514   23.6860 H   0  0  0  0  0  0
  -26.1201  -31.4595   20.4536 H   0  0  0  0  0  0
  -26.9879  -30.9728   21.7446 H   0  0  0  0  0  0
  -28.1162  -28.7436   20.2239 H   0  0  0  0  0  0
  -25.3836  -26.3275   20.9303 H   0  0  0  0  0  0
  -23.4962  -27.3820   19.8270 H   0  0  0  0  0  0
  -24.1102  -30.7680   19.6015 H   0  0  0  0  0  0
  -22.7576  -29.7122   19.5921 H   0  0  0  0  0  0
  -25.1201  -36.1737   25.0782 H   0  0  0  0  0  0
  -21.0291  -28.3345   24.1351 H   0  0  0  0  0  0
  -20.5149  -26.2460   23.3683 H   0  0  0  0  0  0
  -21.6758  -26.7200   22.1719 H   0  0  0  0  0  0
  -19.7178  -25.6424   21.0889 H   0  0  0  0  0  0
  -19.6907  -27.3442   20.6928 H   0  0  0  0  0  0
  -17.4238  -26.6656   21.3757 H   0  0  0  0  0  0
  -18.0507  -25.9909   22.8801 H   0  0  0  0  0  0
  -19.8101  -30.7191   24.2129 H   0  0  0  0  0  0
  -17.5164  -31.6255   24.5203 H   0  0  0  0  0  0
  -15.5465  -30.2902   23.7809 H   0  0  0  0  0  0
  -15.8656  -28.0734   22.7147 H   0  0  0  0  0  0
  -24.5963  -30.6677   25.7440 H   0  0  0  0  0  0
  -24.8781  -32.2531   26.4516 H   0  0  0  0  0  0
  -25.8056  -30.8625   26.9842 H   0  0  0  0  0  0
  -26.2521  -29.6815   24.0223 H   0  0  0  0  0  0
  -27.4001  -29.6711   25.3556 H   0  0  0  0  0  0
  -27.8270  -30.4142   23.8427 H   0  0  0  0  0  0
  -27.2716  -33.3301   26.1698 H   0  0  0  0  0  0
  -28.3864  -32.6352   24.9968 H   0  0  0  0  0  0
  -28.0719  -31.8001   26.5008 H   0  0  0  0  0  0
  -28.2406  -38.0126   24.7463 H   0  0  0  0  0  0
  -28.1129  -36.2652   24.6198 H   0  0  0  0  0  0
  -27.2359  -37.1332   25.8873 H   0  0  0  0  0  0
  -20.9375  -29.9458   21.7243 H   0  0  0  0  0  0
  -26.0030  -38.2752   24.1373 H   0  0  0  0  0  0
  -26.6983  -18.4877   20.1244 H   0  0  0  0  0  0
  -29.7592  -21.1098   21.0307 H   0  0  0  0  0  0
  -20.8375  -23.2498   22.9606 H   0  0  0  0  0  0
  -21.2102  -23.4828   21.2858 H   0  0  0  0  0  0
  -21.9976  -24.3801   22.5379 H   0  0  0  0  0  0
  -23.0529  -22.5897   24.6631 H   0  0  0  0  0  0
  -23.8051  -23.7951   23.7096 H   0  0  0  0  0  0
  -24.5068  -22.2124   23.8178 H   0  0  0  0  0  0
  -27.0202  -24.0241   20.6990 H   0  0  0  0  0  0
  -26.1183  -23.6676   21.7828 H   0  0  0  0  0  0
  -26.1967  -23.7058   17.0675 H   0  0  0  0  0  0
  -27.1350  -22.5782   17.5369 H   0  0  0  0  0  0
  -24.2953  -20.9978   21.3967 H   0  0  0  0  0  0
  -24.3185  -22.5841   21.4922 H   0  0  0  0  0  0
  -28.1477  -22.2179   20.3366 H   0  0  0  0  0  0
  -27.3657  -21.8841   21.8483 H   0  0  0  0  0  0
  -25.2171  -24.6216   19.1131 H   0  0  0  0  0  0
  -24.3540  -24.8340   20.4842 H   0  0  0  0  0  0
  -27.2519  -25.4416   17.5517 H   0  0  0  0  0  0
  -28.4304  -24.3756   18.3946 H   0  0  0  0  0  0
  -22.1978  -21.3320   22.7512 H   0  0  0  0  0  0
  -23.2468  -21.1368   18.9094 H   0  0  0  0  0  0
  -25.3979  -21.0251   18.4452 H   0  0  0  0  0  0
  -30.2616  -16.7505   19.8643 H   0  0  0  0  0  0
  -23.6883  -23.5077   18.3806 H   0  0  0  0  0  0
  -22.6294  -23.6836   19.3136 H   0  0  0  0  0  0
  -23.9838  -21.3812   16.7678 H   0  0  0  0  0  0
  1 25  1  0  0  0
  1 30  2  0  0  0
  1 87  1  0  0  0
  2  3  1  0  0  0
  2 25  1  0  0  0
  2 90  1  0  0  0
  2 91  1  0  0  0
  3  4  1  0  0  0
  3 92  1  0  0  0
  3 93  1  0  0  0
  4  5  1  0  0  0
  4 94  1  0  0  0
  4 95  1  0  0  0
  5  6  1  0  0  0
  5 26  1  0  0  0
  5 96  1  0  0  0
  6 25  1  0  0  0
  6 97  1  0  0  0
  6 98  1  0  0  0
  7  8  2  0  0  0
  7 26  1  0  0  0
  7 29  1  0  0  0
  8  9  1  0  0  0
  8 22  1  0  0  0
  9 10  1  0  0  0
  9 27  2  0  0  0
 10 11  2  0  0  0
 10 15  1  0  0  0
 11 12  1  0  0  0
 11 99  1  0  0  0
 12 13  2  0  0  0
 12100  1  0  0  0
 13 14  1  0  0  0
 13 31  1  0  0  0
 14 15  2  0  0  0
 14101  1  0  0  0
 15102  1  0  0  0
 16 17  2  0  0  0
 16 21  1  0  0  0
 16 31  1  0  0  0
 17 18  1  0  0  0
 17103  1  0  0  0
 18 19  2  0  0  0
 18104  1  0  0  0
 19 20  1  0  0  0
 19 24  1  0  0  0
 20 21  2  0  0  0
 20105  1  0  0  0
 21 23  1  0  0  0
 22 28  1  0  0  0
 22 32  2  0  0  0
 26 27  1  0  0  0
 28106  1  0  0  0
 28107  1  0  0  0
 29108  1  0  0  0
 29109  1  0  0  0
 33 34  1  0  0  0
 33 66  1  0  0  0
 33 70  2  0  0  0
 34 36  1  0  0  0
 34 59  1  0  0  0
 34110  1  0  0  0
 35 44  2  0  0  0
 35 45  1  0  0  0
 35 68  1  0  0  0
 36 56  1  0  0  0
 36111  1  0  0  0
 37 39  1  0  0  0
 37 47  1  0  0  0
 37 66  1  0  0  0
 37112  1  0  0  0
 38 43  2  0  0  0
 38 46  1  0  0  0
 38 47  1  0  0  0
 39 64  1  0  0  0
 39 67  2  0  0  0
 40 52  1  0  0  0
 40 53  2  0  0  0
 40 58  1  0  0  0
 41113  1  0  0  0
 41114  1  0  0  0
 41115  1  0  0  0
 41 48  1  0  0  0
 42 43  1  0  0  0
 42 66  1  0  0  0
 42116  1  0  0  0
 42117  1  0  0  0
 43 44  1  0  0  0
 44118  1  0  0  0
 45 46  2  0  0  0
 45119  1  0  0  0
 46120  1  0  0  0
 47121  1  0  0  0
 47122  1  0  0  0
 48 56  1  0  0  0
 48 65  1  0  0  0
 48123  1  0  0  0
 49 50  1  0  0  0
 49 53  1  0  0  0
 49 64  1  0  0  0
 49124  1  0  0  0
 50 51  1  0  0  0
 50125  1  0  0  0
 50126  1  0  0  0
 51 52  1  0  0  0
 51127  1  0  0  0
 51128  1  0  0  0
 52129  1  0  0  0
 52130  1  0  0  0
 53 54  1  0  0  0
 54 55  2  0  0  0
 54131  1  0  0  0
 55 57  1  0  0  0
 55132  1  0  0  0
 56 69  2  0  0  0
 57 58  2  0  0  0
 57133  1  0  0  0
 58134  1  0  0  0
 59 60  1  0  0  0
 59 61  1  0  0  0
 59 62  1  0  0  0
 60135  1  0  0  0
 60136  1  0  0  0
 60137  1  0  0  0
 61138  1  0  0  0
 61139  1  0  0  0
 61140  1  0  0  0
 62141  1  0  0  0
 62142  1  0  0  0
 62143  1  0  0  0
 63 65  1  0  0  0
 63144  1  0  0  0
 63145  1  0  0  0
 63146  1  0  0  0
 64147  1  0  0  0
 65148  1  0  0  0
 68 81  1  0  0  0
 71 73  2  0  0  0
 71 86  1  0  0  0
 71149  1  0  0  0
 72 85  2  0  0  0
 72 86  1  0  0  0
 72150  1  0  0  0
 73 85  1  0  0  0
 73 87  1  0  0  0
 74151  1  0  0  0
 74152  1  0  0  0
 74153  1  0  0  0
 74 82  1  0  0  0
 75 82  1  0  0  0
 75154  1  0  0  0
 75155  1  0  0  0
 75156  1  0  0  0
 76 79  1  0  0  0
 76 80  1  0  0  0
 76157  1  0  0  0
 76158  1  0  0  0
 77 81  1  0  0  0
 77 84  1  0  0  0
 77159  1  0  0  0
 77160  1  0  0  0
 78 82  1  0  0  0
 78161  1  0  0  0
 78162  1  0  0  0
 78 83  1  0  0  0
 79 86  1  0  0  0
 79163  1  0  0  0
 79164  1  0  0  0
 80 88  1  0  0  0
 80165  1  0  0  0
 80166  1  0  0  0
 81167  1  0  0  0
 81168  1  0  0  0
 82169  1  0  0  0
 83 84  1  0  0  0
 83 88  1  0  0  0
 83170  1  0  0  0
 84 89  1  0  0  0
 84171  1  0  0  0
 87172  1  0  0  0
 88173  1  0  0  0
 88174  1  0  0  0
 89175  1  0  0  0
M  CHG  1  88   1
M  ISO  4   1 100  68 101  81 101  87 100
M  END
> <chiral flag>
0

> <version>
0

> <s_m_source_file>
/data/baiqing/PycharmProjects/Reinvent-master-3.2/result/LINK_invent/BTK/process_docking_weight1_custom_product_contain_oxygen_bond_distance_aromatic_linkinvent_7_9_3/rearranged_h_0197.sdf

> <i_m_source_file_index>
32

> <r_mmod_Potential_Energy-OPLS-2005>
3349.97021484375

> <r_mmod_Stretch_Energy-OPLS-2005>
937.313903808594

> <r_mmod_Bend_Energy-OPLS-2005>
1694.94494628906

> <r_mmod_Torsional_Energy-OPLS-2005>
546.649841308594

> <r_mmod_Improper_Torsional_Energy-OPLS-2005>
35.5443916320801

> <r_mmod_Van_der_Waal_Energy-OPLS-2005>
365.260314941406

> <r_mmod_Electrostatic_Energy-OPLS-2005>
-382.962341308594

> <r_mmod_Solvation_Energy-OPLS-2005>
-452.210235595703

> <b_mmod_Minimization_Converged-OPLS-2005>
0

> <r_mmod_RMS_Derivative-OPLS-2005>
99.9990005493164

$$$$
32
                    3D
 Structure written by MMmdl.
156164  0  0  1  0            999 V2000
  -30.6860  -14.4847   20.6528 C   0  0  0  0  0  0
  -30.4358  -12.3448   19.4214 C   0  0  0  0  0  0
  -29.4993  -12.5179   18.2085 C   0  0  0  0  0  0
  -28.0218  -12.3601   18.6208 C   0  0  0  0  0  0
  -27.6611  -13.2020   19.8729 C   0  0  2  0  0  0
  -28.6967  -12.9733   20.9950 C   0  0  0  0  0  0
  -25.2584  -13.8157   20.5645 C   0  0  0  0  0  0
  -24.1826  -13.0426   20.9149 C   0  0  0  0  0  0
  -24.6389  -11.6896   20.8714 C   0  0  0  0  0  0
  -23.9058  -10.4279   21.0397 C   0  0  0  0  0  0
  -24.3610   -9.4199   21.9180 C   0  0  0  0  0  0
  -23.6278   -8.2237   22.0761 C   0  0  0  0  0  0
  -22.4269   -8.0272   21.3544 C   0  0  0  0  0  0
  -21.9911   -9.0238   20.4635 C   0  0  0  0  0  0
  -22.7243  -10.2118   20.3035 C   0  0  0  0  0  0
  -21.6846   -6.0733   22.5273 C   0  0  0  0  0  0
  -21.4014   -6.5636   23.8210 C   0  0  0  0  0  0
  -21.3662   -5.6785   24.9168 C   0  0  0  0  0  0
  -21.6041   -4.3047   24.7215 C   0  0  0  0  0  0
  -21.8826   -3.8144   23.4339 C   0  0  0  0  0  0
  -21.9189   -4.6959   22.3394 C   0  0  0  0  0  0
  -22.7856  -13.5224   21.1816 C   0  0  0  0  0  0
  -22.1655   -4.2146   21.0969 F   0  0  0  0  0  0
  -21.5632   -3.4534   25.7731 F   0  0  0  0  0  0
  -30.0243  -13.3111   20.4547 N   0  0  0  0  0  0
  -26.3007  -12.9305   20.3316 N   0  0  0  0  0  0
  -25.9304  -11.6473   20.5733 N   0  0  0  0  0  0
  -22.0486  -12.8186   22.0356 N   0  0  0  0  0  0
  -25.4324  -15.1872   20.4070 N   0  0  0  0  0  0
  -31.7949  -14.7116   20.1603 O   0  0  0  0  0  0
  -21.6633   -6.8875   21.4244 O   0  0  0  0  0  0
  -22.3527  -14.5531   20.6687 O   0  0  0  0  0  0
  -24.6190  -31.8666   23.2081 C   0  0  0  0  0  0
  -25.9084  -32.4807   23.8371 C   0  0  1  0  0  0
  -27.2142  -27.3774   20.1149 C   0  0  0  0  0  0
  -25.5937  -33.8608   24.2306 N   0  0  0  0  0  0
  -23.4058  -30.4870   21.5531 C   0  0  2  0  0  0
  -24.8443  -28.9507   20.1167 C   0  0  0  0  0  0
  -22.7460  -29.4610   22.5035 C   0  0  0  0  0  0
  -18.0277  -28.1277   22.8505 C   0  0  0  0  0  0
  -24.1493  -36.7282   23.2641 C   0  0  0  0  0  0
  -25.9400  -30.8135   21.3742 C   0  0  0  0  0  0
  -26.0101  -29.4492   20.7112 C   0  0  0  0  0  0
  -27.1968  -28.6726   20.6999 C   0  0  0  0  0  0
  -26.0193  -26.9076   19.5189 C   0  0  0  0  0  0
  -24.8457  -27.6815   19.5177 C   0  0  0  0  0  0
  -23.6092  -29.8211   20.1667 C   0  0  0  0  0  0
  -25.4126  -36.3106   24.0322 C   0  0  1  0  0  0
  -20.5879  -28.3601   23.1298 C   0  0  2  0  0  0
  -20.6769  -26.9344   22.5386 C   0  0  0  0  0  0
  -19.5731  -26.6342   21.5174 C   0  0  0  0  0  0
  -18.1908  -26.7838   22.1606 C   0  0  0  0  0  0
  -19.1530  -28.8762   23.2889 C   0  0  0  0  0  0
  -18.9469  -30.1367   23.8909 C   0  0  0  0  0  0
  -17.6473  -30.6536   24.0514 C   0  0  0  0  0  0
  -25.9043  -34.9467   23.5103 C   0  0  0  0  0  0
  -16.5354  -29.9014   23.6322 C   0  0  0  0  0  0
  -16.7268  -28.6389   23.0419 C   0  0  0  0  0  0
  -26.4498  -31.6644   25.0756 C   0  0  0  0  0  0
  -25.3702  -31.3799   26.1481 C   0  0  0  0  0  0
  -27.0393  -30.3086   24.6188 C   0  0  0  0  0  0
  -27.6037  -32.4423   25.7546 C   0  0  0  0  0  0
  -27.5579  -37.1804   24.8464 C   0  0  0  0  0  0
  -21.4196  -29.2986   22.3761 N   0  0  0  0  0  0
  -26.4319  -37.3784   23.9380 N   0  0  0  0  0  0
  -24.6719  -31.0717   22.1003 N   0  0  0  0  0  0
  -23.4230  -28.8152   23.3084 O   0  0  0  0  0  0
  -28.3852  -26.6310   20.1562 O   0  0  0  0  0  0
  -26.5607  -34.8940   22.4664 O   0  0  0  0  0  0
  -23.5386  -32.1466   23.7463 O   0  0  0  0  0  0
  -29.2549  -18.5000   20.7332 C   0  0  0  0  0  0
  -29.8356  -18.8744   22.9980 C   0  0  0  0  0  0
  -29.8441  -17.9857   21.9048 C   0  0  0  0  0  0
  -28.7840  -20.4980   21.7732 C   0  0  0  0  0  0
  -26.8688  -22.3538   19.7972 C   0  0  0  0  0  0
  -30.5855  -16.6275   22.0138 C   0  0  0  0  0  0
  -28.1857  -24.2124   20.9899 C   0  0  0  0  0  0
  -28.3984  -25.2199   19.8068 C   0  0  0  0  0  0
  -28.1425  -22.6878   20.5978 C   0  0  1  0  0  0
  -28.7444  -19.7582   20.6710 N   0  0  0  0  0  0
  -29.2901  -20.1111   22.9318 N   0  0  0  0  0  0
  -28.2577  -21.7880   21.7617 N   0  0  0  0  0  0
  -30.0194  -15.4143   21.3836 N   0  0  0  0  0  0
  -31.4742  -12.4847   19.1153 H   0  0  0  0  0  0
  -30.3762  -11.3291   19.8143 H   0  0  0  0  0  0
  -29.7508  -11.7951   17.4299 H   0  0  0  0  0  0
  -29.6532  -13.5049   17.7699 H   0  0  0  0  0  0
  -27.8435  -11.3025   18.8206 H   0  0  0  0  0  0
  -27.3718  -12.6254   17.7861 H   0  0  0  0  0  0
  -27.7092  -14.2505   19.5767 H   0  0  0  0  0  0
  -28.6892  -11.9296   21.3126 H   0  0  0  0  0  0
  -28.4349  -13.5460   21.8848 H   0  0  0  0  0  0
  -25.2764   -9.5667   22.4743 H   0  0  0  0  0  0
  -23.9979   -7.4640   22.7498 H   0  0  0  0  0  0
  -21.0843   -8.8757   19.8929 H   0  0  0  0  0  0
  -22.3723  -10.9644   19.6119 H   0  0  0  0  0  0
  -21.2016   -7.6145   23.9710 H   0  0  0  0  0  0
  -21.1480   -6.0517   25.9072 H   0  0  0  0  0  0
  -22.0609   -2.7606   23.2836 H   0  0  0  0  0  0
  -22.4097  -11.9828   22.4700 H   0  0  0  0  0  0
  -21.1097  -13.1201   22.2545 H   0  0  0  0  0  0
  -24.6739  -15.8493   20.5235 H   0  0  0  0  0  0
  -26.2862  -15.6233   20.0817 H   0  0  0  0  0  0
  -26.7134  -32.5479   23.1119 H   0  0  0  0  0  0
  -25.0183  -33.9765   25.0511 H   0  0  0  0  0  0
  -22.6941  -31.3033   21.4177 H   0  0  0  0  0  0
  -23.3770  -35.9599   23.3337 H   0  0  0  0  0  0
  -24.3569  -36.8870   22.2046 H   0  0  0  0  0  0
  -23.7229  -37.6475   23.6651 H   0  0  0  0  0  0
  -26.0784  -31.5894   20.6205 H   0  0  0  0  0  0
  -26.8161  -30.8423   22.0087 H   0  0  0  0  0  0
  -28.0981  -29.0494   21.1624 H   0  0  0  0  0  0
  -25.9423  -25.9378   19.0564 H   0  0  0  0  0  0
  -23.9463  -27.2858   19.0628 H   0  0  0  0  0  0
  -23.7089  -30.5936   19.4036 H   0  0  0  0  0  0
  -22.7336  -29.2323   19.8834 H   0  0  0  0  0  0
  -25.1312  -36.1972   25.0809 H   0  0  0  0  0  0
  -20.9933  -28.3145   24.1428 H   0  0  0  0  0  0
  -20.5665  -26.2227   23.3583 H   0  0  0  0  0  0
  -21.6641  -26.7394   22.1157 H   0  0  0  0  0  0
  -19.6913  -25.6263   21.1167 H   0  0  0  0  0  0
  -19.6618  -27.3205   20.6722 H   0  0  0  0  0  0
  -17.4189  -26.6618   21.3981 H   0  0  0  0  0  0
  -18.0265  -25.9937   22.8951 H   0  0  0  0  0  0
  -19.7966  -30.7110   24.2339 H   0  0  0  0  0  0
  -17.5046  -31.6242   24.5073 H   0  0  0  0  0  0
  -15.5349  -30.2903   23.7632 H   0  0  0  0  0  0
  -15.8668  -28.0642   22.7234 H   0  0  0  0  0  0
  -24.5848  -30.7199   25.7782 H   0  0  0  0  0  0
  -24.8943  -32.2993   26.4902 H   0  0  0  0  0  0
  -25.7992  -30.8962   27.0265 H   0  0  0  0  0  0
  -26.3000  -29.6811   24.1197 H   0  0  0  0  0  0
  -27.4117  -29.7381   25.4701 H   0  0  0  0  0  0
  -27.8842  -30.4425   23.9431 H   0  0  0  0  0  0
  -27.2596  -33.3714   26.2111 H   0  0  0  0  0  0
  -28.3849  -32.7002   25.0382 H   0  0  0  0  0  0
  -28.0687  -31.8564   26.5482 H   0  0  0  0  0  0
  -28.2618  -38.0090   24.7535 H   0  0  0  0  0  0
  -28.1073  -36.2624   24.6302 H   0  0  0  0  0  0
  -27.2287  -37.1442   25.8869 H   0  0  0  0  0  0
  -20.9401  -29.8783   21.7012 H   0  0  0  0  0  0
  -26.0221  -38.2873   24.1353 H   0  0  0  0  0  0
  -29.2150  -17.9102   19.8296 H   0  0  0  0  0  0
  -30.2915  -18.6028   23.9397 H   0  0  0  0  0  0
  -26.7753  -22.9742   18.9068 H   0  0  0  0  0  0
  -25.9655  -22.4945   20.3952 H   0  0  0  0  0  0
  -26.8793  -21.3192   19.4500 H   0  0  0  0  0  0
  -30.6599  -16.3885   23.0763 H   0  0  0  0  0  0
  -31.6150  -16.7831   21.6848 H   0  0  0  0  0  0
  -27.2766  -24.4766   21.5336 H   0  0  0  0  0  0
  -29.0017  -24.3646   21.6980 H   0  0  0  0  0  0
  -27.7355  -24.9989   18.9751 H   0  0  0  0  0  0
  -29.3881  -25.0329   19.3892 H   0  0  0  0  0  0
  -29.0122  -22.4764   19.9718 H   0  0  0  0  0  0
  -28.1970  -22.2203   22.6775 H   0  0  0  0  0  0
  -29.1167  -15.1092   21.7203 H   0  0  0  0  0  0
  1 25  1  0  0  0
  1 30  2  0  0  0
  1 83  1  0  0  0
  2  3  1  0  0  0
  2 25  1  0  0  0
  2 84  1  0  0  0
  2 85  1  0  0  0
  3  4  1  0  0  0
  3 86  1  0  0  0
  3 87  1  0  0  0
  4  5  1  0  0  0
  4 88  1  0  0  0
  4 89  1  0  0  0
  5  6  1  0  0  0
  5 26  1  0  0  0
  5 90  1  0  0  0
  6 25  1  0  0  0
  6 91  1  0  0  0
  6 92  1  0  0  0
  7  8  2  0  0  0
  7 26  1  0  0  0
  7 29  1  0  0  0
  8  9  1  0  0  0
  8 22  1  0  0  0
  9 10  1  0  0  0
  9 27  2  0  0  0
 10 11  2  0  0  0
 10 15  1  0  0  0
 11 12  1  0  0  0
 11 93  1  0  0  0
 12 13  2  0  0  0
 12 94  1  0  0  0
 13 14  1  0  0  0
 13 31  1  0  0  0
 14 15  2  0  0  0
 14 95  1  0  0  0
 15 96  1  0  0  0
 16 17  2  0  0  0
 16 21  1  0  0  0
 16 31  1  0  0  0
 17 18  1  0  0  0
 17 97  1  0  0  0
 18 19  2  0  0  0
 18 98  1  0  0  0
 19 20  1  0  0  0
 19 24  1  0  0  0
 20 21  2  0  0  0
 20 99  1  0  0  0
 21 23  1  0  0  0
 22 28  1  0  0  0
 22 32  2  0  0  0
 26 27  1  0  0  0
 28100  1  0  0  0
 28101  1  0  0  0
 29102  1  0  0  0
 29103  1  0  0  0
 33 34  1  0  0  0
 33 66  1  0  0  0
 33 70  2  0  0  0
 34 36  1  0  0  0
 34 59  1  0  0  0
 34104  1  0  0  0
 35 44  2  0  0  0
 35 45  1  0  0  0
 35 68  1  0  0  0
 36 56  1  0  0  0
 36105  1  0  0  0
 37 39  1  0  0  0
 37 47  1  0  0  0
 37 66  1  0  0  0
 37106  1  0  0  0
 38 43  2  0  0  0
 38 46  1  0  0  0
 38 47  1  0  0  0
 39 64  1  0  0  0
 39 67  2  0  0  0
 40 52  1  0  0  0
 40 53  2  0  0  0
 40 58  1  0  0  0
 41107  1  0  0  0
 41108  1  0  0  0
 41109  1  0  0  0
 41 48  1  0  0  0
 42 43  1  0  0  0
 42 66  1  0  0  0
 42110  1  0  0  0
 42111  1  0  0  0
 43 44  1  0  0  0
 44112  1  0  0  0
 45 46  2  0  0  0
 45113  1  0  0  0
 46114  1  0  0  0
 47115  1  0  0  0
 47116  1  0  0  0
 48 56  1  0  0  0
 48 65  1  0  0  0
 48117  1  0  0  0
 49 50  1  0  0  0
 49 53  1  0  0  0
 49 64  1  0  0  0
 49118  1  0  0  0
 50 51  1  0  0  0
 50119  1  0  0  0
 50120  1  0  0  0
 51 52  1  0  0  0
 51121  1  0  0  0
 51122  1  0  0  0
 52123  1  0  0  0
 52124  1  0  0  0
 53 54  1  0  0  0
 54 55  2  0  0  0
 54125  1  0  0  0
 55 57  1  0  0  0
 55126  1  0  0  0
 56 69  2  0  0  0
 57 58  2  0  0  0
 57127  1  0  0  0
 58128  1  0  0  0
 59 60  1  0  0  0
 59 61  1  0  0  0
 59 62  1  0  0  0
 60129  1  0  0  0
 60130  1  0  0  0
 60131  1  0  0  0
 61132  1  0  0  0
 61133  1  0  0  0
 61134  1  0  0  0
 62135  1  0  0  0
 62136  1  0  0  0
 62137  1  0  0  0
 63 65  1  0  0  0
 63138  1  0  0  0
 63139  1  0  0  0
 63140  1  0  0  0
 64141  1  0  0  0
 65142  1  0  0  0
 68 78  1  0  0  0
 71 73  2  0  0  0
 71 80  1  0  0  0
 71143  1  0  0  0
 72 73  1  0  0  0
 72 81  2  0  0  0
 72144  1  0  0  0
 73 76  1  0  0  0
 74 80  2  0  0  0
 74 81  1  0  0  0
 74 82  1  0  0  0
 75145  1  0  0  0
 75146  1  0  0  0
 75147  1  0  0  0
 75 79  1  0  0  0
 76 83  1  0  0  0
 76148  1  0  0  0
 76149  1  0  0  0
 77 78  1  0  0  0
 77 79  1  0  0  0
 77150  1  0  0  0
 77151  1  0  0  0
 78152  1  0  0  0
 78153  1  0  0  0
 79 82  1  0  0  0
 79154  1  0  0  0
 82155  1  0  0  0
 83156  1  0  0  0
M  ISO  4   1 100  68 101  78 101  83 100
M  END
> <chiral flag>
0

> <version>
0

> <s_m_source_file>
/data/baiqing/PycharmProjects/Reinvent-master-3.2/result/LINK_invent/BTK/process_docking_weight1_custom_product_contain_oxygen_bond_distance_aromatic_linkinvent_7_9_3/rearranged_h_0197.sdf

> <i_m_source_file_index>
33

> <r_mmod_Potential_Energy-OPLS-2005>
-483.446533203125

> <r_mmod_Stretch_Energy-OPLS-2005>
46.7921104431152

> <r_mmod_Bend_Energy-OPLS-2005>
127.778450012207

> <r_mmod_Torsional_Energy-OPLS-2005>
186.487869262695

> <r_mmod_Improper_Torsional_Energy-OPLS-2005>
3.77354335784912

> <r_mmod_Van_der_Waal_Energy-OPLS-2005>
158.17268371582

> <r_mmod_Electrostatic_Energy-OPLS-2005>
-787.461242675781

> <r_mmod_Solvation_Energy-OPLS-2005>
-238.46614074707

> <b_mmod_Minimization_Converged-OPLS-2005>
0

> <r_mmod_RMS_Derivative-OPLS-2005>
3.96673464775085

$$$$
33
                    3D
 Structure written by MMmdl.
148156  0  0  1  0            999 V2000
  -30.6221  -14.7353   20.4524 C   0  0  0  0  0  0
  -30.4275  -12.4451   19.4830 C   0  0  0  0  0  0
  -29.5114  -12.5061   18.2414 C   0  0  0  0  0  0
  -28.0369  -12.3317   18.6522 C   0  0  0  0  0  0
  -27.6420  -13.2334   19.8527 C   0  0  2  0  0  0
  -28.6842  -13.1714   20.9913 C   0  0  0  0  0  0
  -25.2506  -13.8203   20.5707 C   0  0  0  0  0  0
  -24.1798  -13.0444   20.9210 C   0  0  0  0  0  0
  -24.6391  -11.6926   20.8747 C   0  0  0  0  0  0
  -23.9073  -10.4297   21.0402 C   0  0  0  0  0  0
  -24.3623   -9.4212   21.9177 C   0  0  0  0  0  0
  -23.6298   -8.2245   22.0749 C   0  0  0  0  0  0
  -22.4279   -8.0279   21.3541 C   0  0  0  0  0  0
  -21.9915   -9.0253   20.4643 C   0  0  0  0  0  0
  -22.7244  -10.2133   20.3052 C   0  0  0  0  0  0
  -21.6856   -6.0734   22.5281 C   0  0  0  0  0  0
  -21.4014   -6.5640   23.8212 C   0  0  0  0  0  0
  -21.3660   -5.6790   24.9176 C   0  0  0  0  0  0
  -21.6044   -4.3052   24.7225 C   0  0  0  0  0  0
  -21.8820   -3.8148   23.4344 C   0  0  0  0  0  0
  -21.9192   -4.6963   22.3403 C   0  0  0  0  0  0
  -22.7822  -13.5222   21.1867 C   0  0  0  0  0  0
  -22.1665   -4.2151   21.0978 F   0  0  0  0  0  0
  -21.5628   -3.4535   25.7736 F   0  0  0  0  0  0
  -29.9893  -13.5124   20.4133 N   0  0  0  0  0  0
  -26.2937  -12.9414   20.3290 N   0  0  0  0  0  0
  -25.9323  -11.6555   20.5758 N   0  0  0  0  0  0
  -22.0468  -12.8213   22.0424 N   0  0  0  0  0  0
  -25.4179  -15.1929   20.4125 N   0  0  0  0  0  0
  -31.8053  -14.8185   20.1124 O   0  0  0  0  0  0
  -21.6642   -6.8878   21.4242 O   0  0  0  0  0  0
  -22.3510  -14.5524   20.6705 O   0  0  0  0  0  0
  -24.6310  -31.8554   23.1984 C   0  0  0  0  0  0
  -25.9133  -32.4754   23.8334 C   0  0  1  0  0  0
  -27.2169  -27.2578   20.1275 C   0  0  0  0  0  0
  -25.5924  -33.8559   24.2254 N   0  0  0  0  0  0
  -23.4282  -30.4787   21.5418 C   0  0  2  0  0  0
  -24.8747  -28.9278   20.1073 C   0  0  0  0  0  0
  -22.7502  -29.4607   22.4908 C   0  0  0  0  0  0
  -18.0288  -28.1393   22.8487 C   0  0  0  0  0  0
  -24.1488  -36.7283   23.2643 C   0  0  0  0  0  0
  -25.9752  -30.7660   21.3810 C   0  0  0  0  0  0
  -26.0457  -29.3890   20.7217 C   0  0  0  0  0  0
  -27.2176  -28.5650   20.7240 C   0  0  0  0  0  0
  -26.0266  -26.8759   19.4666 C   0  0  0  0  0  0
  -24.8708  -27.6794   19.4690 C   0  0  0  0  0  0
  -23.6460  -29.8151   20.1570 C   0  0  0  0  0  0
  -25.4118  -36.3072   24.0327 C   0  0  1  0  0  0
  -20.5895  -28.3705   23.1265 C   0  0  2  0  0  0
  -20.6784  -26.9421   22.5405 C   0  0  0  0  0  0
  -19.5757  -26.6388   21.5212 C   0  0  0  0  0  0
  -18.1937  -26.7935   22.1625 C   0  0  0  0  0  0
  -19.1543  -28.8864   23.2873 C   0  0  0  0  0  0
  -18.9467  -30.1465   23.8891 C   0  0  0  0  0  0
  -17.6467  -30.6596   24.0562 C   0  0  0  0  0  0
  -25.9057  -34.9441   23.5096 C   0  0  0  0  0  0
  -16.5357  -29.9093   23.6334 C   0  0  0  0  0  0
  -16.7274  -28.6510   23.0357 C   0  0  0  0  0  0
  -26.4501  -31.6584   25.0725 C   0  0  0  0  0  0
  -25.3714  -31.3741   26.1436 C   0  0  0  0  0  0
  -27.0358  -30.2999   24.6228 C   0  0  0  0  0  0
  -27.6057  -32.4329   25.7494 C   0  0  0  0  0  0
  -27.5580  -37.1800   24.8467 C   0  0  0  0  0  0
  -21.4207  -29.3051   22.3654 N   0  0  0  0  0  0
  -26.4294  -37.3770   23.9409 N   0  0  0  0  0  0
  -24.6971  -31.0518   22.0960 N   0  0  0  0  0  0
  -23.4198  -28.8148   23.3010 O   0  0  0  0  0  0
  -28.3062  -26.3551   20.2118 O   0  0  0  0  0  0
  -26.5637  -34.8920   22.4668 O   0  0  0  0  0  0
  -23.5459  -32.1379   23.7275 O   0  0  0  0  0  0
  -29.0798  -18.8401   21.9158 C   0  0  0  0  0  0
  -29.6014  -18.6185   20.6633 C   0  0  0  0  0  0
  -29.1258  -20.9713   20.5788 C   0  0  0  0  0  0
  -30.2338  -17.2787   20.1104 C   0  0  0  0  0  0
  -29.0310  -23.7429   20.6083 C   0  0  0  0  0  0
  -28.1053  -24.8865   19.9305 C   0  0  0  0  0  0
  -29.5837  -19.8604   19.9216 N   0  0  0  0  0  0
  -29.0193  -22.3198   20.0690 N   0  0  0  0  0  0
  -29.8686  -15.8861   20.6224 N   0  0  0  0  0  0
  -28.6384  -20.5274   22.2133 S   0  0  0  0  0  0
  -31.4711  -12.5550   19.1839 H   0  0  0  0  0  0
  -30.3593  -11.4687   19.9659 H   0  0  0  0  0  0
  -29.7957  -11.7353   17.5234 H   0  0  0  0  0  0
  -29.6423  -13.4629   17.7332 H   0  0  0  0  0  0
  -27.8937  -11.2835   18.9161 H   0  0  0  0  0  0
  -27.3808  -12.5230   17.8022 H   0  0  0  0  0  0
  -27.6364  -14.2543   19.4703 H   0  0  0  0  0  0
  -28.7136  -12.1771   21.4397 H   0  0  0  0  0  0
  -28.4217  -13.8614   21.7942 H   0  0  0  0  0  0
  -25.2765   -9.5690   22.4754 H   0  0  0  0  0  0
  -24.0009   -7.4638   22.7468 H   0  0  0  0  0  0
  -21.0844   -8.8769   19.8950 H   0  0  0  0  0  0
  -22.3696  -10.9670   19.6163 H   0  0  0  0  0  0
  -21.2007   -7.6146   23.9720 H   0  0  0  0  0  0
  -21.1483   -6.0518   25.9079 H   0  0  0  0  0  0
  -22.0597   -2.7609   23.2843 H   0  0  0  0  0  0
  -22.4092  -11.9884   22.4825 H   0  0  0  0  0  0
  -21.1081  -13.1232   22.2613 H   0  0  0  0  0  0
  -24.6461  -15.8424   20.5186 H   0  0  0  0  0  0
  -26.2604  -15.6355   20.0693 H   0  0  0  0  0  0
  -26.7205  -32.5405   23.1082 H   0  0  0  0  0  0
  -25.0062  -33.9702   25.0392 H   0  0  0  0  0  0
  -22.7250  -31.3016   21.3972 H   0  0  0  0  0  0
  -23.3755  -35.9609   23.3300 H   0  0  0  0  0  0
  -24.3584  -36.8903   22.2058 H   0  0  0  0  0  0
  -23.7234  -37.6480   23.6668 H   0  0  0  0  0  0
  -26.1185  -31.5276   20.6131 H   0  0  0  0  0  0
  -26.8516  -30.8118   22.0157 H   0  0  0  0  0  0
  -28.1100  -28.9094   21.2276 H   0  0  0  0  0  0
  -25.9547  -25.9309   18.9496 H   0  0  0  0  0  0
  -23.9774  -27.3246   18.9737 H   0  0  0  0  0  0
  -23.7695  -30.5924   19.4018 H   0  0  0  0  0  0
  -22.7637  -29.2488   19.8528 H   0  0  0  0  0  0
  -25.1303  -36.1919   25.0820 H   0  0  0  0  0  0
  -20.9993  -28.3284   24.1382 H   0  0  0  0  0  0
  -20.5690  -26.2316   23.3615 H   0  0  0  0  0  0
  -21.6655  -26.7455   22.1194 H   0  0  0  0  0  0
  -19.6921  -25.6295   21.1249 H   0  0  0  0  0  0
  -19.6690  -27.3199   20.6740 H   0  0  0  0  0  0
  -17.4208  -26.6673   21.4024 H   0  0  0  0  0  0
  -18.0334  -26.0085   22.9027 H   0  0  0  0  0  0
  -19.7942  -30.7281   24.2261 H   0  0  0  0  0  0
  -17.5021  -31.6274   24.5168 H   0  0  0  0  0  0
  -15.5357  -30.2996   23.7664 H   0  0  0  0  0  0
  -15.8671  -28.0826   22.7081 H   0  0  0  0  0  0
  -24.5884  -30.7101   25.7755 H   0  0  0  0  0  0
  -24.8915  -32.2916   26.4853 H   0  0  0  0  0  0
  -25.8012  -30.8912   27.0220 H   0  0  0  0  0  0
  -26.2951  -29.6732   24.1244 H   0  0  0  0  0  0
  -27.4029  -29.7275   25.4759 H   0  0  0  0  0  0
  -27.8832  -30.4277   23.9488 H   0  0  0  0  0  0
  -27.2671  -33.3642   26.2050 H   0  0  0  0  0  0
  -28.3873  -32.6864   25.0317 H   0  0  0  0  0  0
  -28.0719  -31.8463   26.5421 H   0  0  0  0  0  0
  -28.2604  -38.0093   24.7522 H   0  0  0  0  0  0
  -28.1072  -36.2628   24.6288 H   0  0  0  0  0  0
  -27.2302  -37.1440   25.8871 H   0  0  0  0  0  0
  -20.9389  -29.8760   21.6849 H   0  0  0  0  0  0
  -26.0169  -38.2842   24.1402 H   0  0  0  0  0  0
  -28.9681  -18.1148   22.7106 H   0  0  0  0  0  0
  -31.3165  -17.3739   20.2050 H   0  0  0  0  0  0
  -30.0644  -17.2441   19.0337 H   0  0  0  0  0  0
  -28.8142  -23.7049   21.6765 H   0  0  0  0  0  0
  -30.0654  -24.0818   20.5379 H   0  0  0  0  0  0
  -27.0878  -24.6089   20.2070 H   0  0  0  0  0  0
  -28.1655  -24.7756   18.8473 H   0  0  0  0  0  0
  -29.1894  -22.3220   19.0677 H   0  0  0  0  0  0
  -28.9080  -15.7569   20.8997 H   0  0  0  0  0  0
  1 25  1  0  0  0
  1 30  2  0  0  0
  1 79  1  0  0  0
  2  3  1  0  0  0
  2 25  1  0  0  0
  2 81  1  0  0  0
  2 82  1  0  0  0
  3  4  1  0  0  0
  3 83  1  0  0  0
  3 84  1  0  0  0
  4  5  1  0  0  0
  4 85  1  0  0  0
  4 86  1  0  0  0
  5  6  1  0  0  0
  5 26  1  0  0  0
  5 87  1  0  0  0
  6 25  1  0  0  0
  6 88  1  0  0  0
  6 89  1  0  0  0
  7  8  2  0  0  0
  7 26  1  0  0  0
  7 29  1  0  0  0
  8  9  1  0  0  0
  8 22  1  0  0  0
  9 10  1  0  0  0
  9 27  2  0  0  0
 10 11  2  0  0  0
 10 15  1  0  0  0
 11 12  1  0  0  0
 11 90  1  0  0  0
 12 13  2  0  0  0
 12 91  1  0  0  0
 13 14  1  0  0  0
 13 31  1  0  0  0
 14 15  2  0  0  0
 14 92  1  0  0  0
 15 93  1  0  0  0
 16 17  2  0  0  0
 16 21  1  0  0  0
 16 31  1  0  0  0
 17 18  1  0  0  0
 17 94  1  0  0  0
 18 19  2  0  0  0
 18 95  1  0  0  0
 19 20  1  0  0  0
 19 24  1  0  0  0
 20 21  2  0  0  0
 20 96  1  0  0  0
 21 23  1  0  0  0
 22 28  1  0  0  0
 22 32  2  0  0  0
 26 27  1  0  0  0
 28 97  1  0  0  0
 28 98  1  0  0  0
 29 99  1  0  0  0
 29100  1  0  0  0
 33 34  1  0  0  0
 33 66  1  0  0  0
 33 70  2  0  0  0
 34 36  1  0  0  0
 34 59  1  0  0  0
 34101  1  0  0  0
 35 44  2  0  0  0
 35 45  1  0  0  0
 35 68  1  0  0  0
 36 56  1  0  0  0
 36102  1  0  0  0
 37 39  1  0  0  0
 37 47  1  0  0  0
 37 66  1  0  0  0
 37103  1  0  0  0
 38 43  2  0  0  0
 38 46  1  0  0  0
 38 47  1  0  0  0
 39 64  1  0  0  0
 39 67  2  0  0  0
 40 52  1  0  0  0
 40 53  2  0  0  0
 40 58  1  0  0  0
 41104  1  0  0  0
 41105  1  0  0  0
 41106  1  0  0  0
 41 48  1  0  0  0
 42 43  1  0  0  0
 42 66  1  0  0  0
 42107  1  0  0  0
 42108  1  0  0  0
 43 44  1  0  0  0
 44109  1  0  0  0
 45 46  2  0  0  0
 45110  1  0  0  0
 46111  1  0  0  0
 47112  1  0  0  0
 47113  1  0  0  0
 48 56  1  0  0  0
 48 65  1  0  0  0
 48114  1  0  0  0
 49 50  1  0  0  0
 49 53  1  0  0  0
 49 64  1  0  0  0
 49115  1  0  0  0
 50 51  1  0  0  0
 50116  1  0  0  0
 50117  1  0  0  0
 51 52  1  0  0  0
 51118  1  0  0  0
 51119  1  0  0  0
 52120  1  0  0  0
 52121  1  0  0  0
 53 54  1  0  0  0
 54 55  2  0  0  0
 54122  1  0  0  0
 55 57  1  0  0  0
 55123  1  0  0  0
 56 69  2  0  0  0
 57 58  2  0  0  0
 57124  1  0  0  0
 58125  1  0  0  0
 59 60  1  0  0  0
 59 61  1  0  0  0
 59 62  1  0  0  0
 60126  1  0  0  0
 60127  1  0  0  0
 60128  1  0  0  0
 61129  1  0  0  0
 61130  1  0  0  0
 61131  1  0  0  0
 62132  1  0  0  0
 62133  1  0  0  0
 62134  1  0  0  0
 63 65  1  0  0  0
 63135  1  0  0  0
 63136  1  0  0  0
 63137  1  0  0  0
 64138  1  0  0  0
 65139  1  0  0  0
 68 76  1  0  0  0
 71 72  2  0  0  0
 71 80  1  0  0  0
 71140  1  0  0  0
 72 74  1  0  0  0
 72 77  1  0  0  0
 73 77  2  0  0  0
 73 78  1  0  0  0
 73 80  1  0  0  0
 74 79  1  0  0  0
 74141  1  0  0  0
 74142  1  0  0  0
 75 76  1  0  0  0
 75 78  1  0  0  0
 75143  1  0  0  0
 75144  1  0  0  0
 76145  1  0  0  0
 76146  1  0  0  0
 78147  1  0  0  0
 79148  1  0  0  0
M  ISO  4   1 100  68 101  76 101  79 100
M  END
> <chiral flag>
0

> <version>
0

> <s_m_source_file>
/data/baiqing/PycharmProjects/Reinvent-master-3.2/result/LINK_invent/BTK/process_docking_weight1_custom_product_contain_oxygen_bond_distance_aromatic_linkinvent_7_9_3/rearranged_h_0197.sdf

> <i_m_source_file_index>
34

> <r_mmod_Potential_Energy-OPLS-2005>
-66.8703842163086

> <r_mmod_Stretch_Energy-OPLS-2005>
112.355850219727

> <r_mmod_Bend_Energy-OPLS-2005>
155.361251831055

> <r_mmod_Torsional_Energy-OPLS-2005>
200.08415222168

> <r_mmod_Improper_Torsional_Energy-OPLS-2005>
7.4754524230957

> <r_mmod_Van_der_Waal_Energy-OPLS-2005>
120.603309631348

> <r_mmod_Electrostatic_Energy-OPLS-2005>
-513.860900878906

> <r_mmod_Solvation_Energy-OPLS-2005>
-234.618957519531

> <b_mmod_Minimization_Converged-OPLS-2005>
0

> <r_mmod_RMS_Derivative-OPLS-2005>
0.868292152881622

$$$$
34
                    3D
 Structure written by MMmdl.
149157  0  0  1  0            999 V2000
  -30.5880  -14.7253   20.4937 C   0  0  0  0  0  0
  -30.4475  -12.4466   19.4654 C   0  0  0  0  0  0
  -29.5153  -12.5103   18.2326 C   0  0  0  0  0  0
  -28.0412  -12.3255   18.6465 C   0  0  0  0  0  0
  -27.6472  -13.2179   19.8533 C   0  0  2  0  0  0
  -28.6917  -13.1147   20.9879 C   0  0  0  0  0  0
  -25.2538  -13.8151   20.5669 C   0  0  0  0  0  0
  -24.1814  -13.0413   20.9189 C   0  0  0  0  0  0
  -24.6392  -11.6888   20.8736 C   0  0  0  0  0  0
  -23.9059  -10.4278   21.0413 C   0  0  0  0  0  0
  -24.3614   -9.4189   21.9179 C   0  0  0  0  0  0
  -23.6294   -8.2223   22.0740 C   0  0  0  0  0  0
  -22.4276   -8.0274   21.3535 C   0  0  0  0  0  0
  -21.9899   -9.0248   20.4638 C   0  0  0  0  0  0
  -22.7223  -10.2131   20.3057 C   0  0  0  0  0  0
  -21.6845   -6.0728   22.5279 C   0  0  0  0  0  0
  -21.4009   -6.5629   23.8210 C   0  0  0  0  0  0
  -21.3662   -5.6780   24.9172 C   0  0  0  0  0  0
  -21.6052   -4.3045   24.7216 C   0  0  0  0  0  0
  -21.8819   -3.8138   23.4332 C   0  0  0  0  0  0
  -21.9184   -4.6954   22.3392 C   0  0  0  0  0  0
  -22.7839  -13.5219   21.1849 C   0  0  0  0  0  0
  -22.1663   -4.2140   21.0971 F   0  0  0  0  0  0
  -21.5627   -3.4530   25.7729 F   0  0  0  0  0  0
  -29.9967  -13.4839   20.4191 N   0  0  0  0  0  0
  -26.2964  -12.9342   20.3270 N   0  0  0  0  0  0
  -25.9316  -11.6499   20.5723 N   0  0  0  0  0  0
  -22.0488  -12.8245   22.0433 N   0  0  0  0  0  0
  -25.4209  -15.1888   20.4068 N   0  0  0  0  0  0
  -31.7713  -14.8722   20.1706 O   0  0  0  0  0  0
  -21.6634   -6.8881   21.4248 O   0  0  0  0  0  0
  -22.3515  -14.5514   20.6676 O   0  0  0  0  0  0
  -24.6297  -31.8557   23.1965 C   0  0  0  0  0  0
  -25.9129  -32.4769   23.8306 C   0  0  1  0  0  0
  -27.2332  -27.2822   20.1413 C   0  0  0  0  0  0
  -25.5928  -33.8566   24.2238 N   0  0  0  0  0  0
  -23.4262  -30.4732   21.5393 C   0  0  2  0  0  0
  -24.8742  -28.9099   20.1184 C   0  0  0  0  0  0
  -22.7497  -29.4602   22.4932 C   0  0  0  0  0  0
  -18.0297  -28.1390   22.8480 C   0  0  0  0  0  0
  -24.1489  -36.7279   23.2639 C   0  0  0  0  0  0
  -25.9674  -30.7780   21.3649 C   0  0  0  0  0  0
  -26.0447  -29.3977   20.7146 C   0  0  0  0  0  0
  -27.2299  -28.6001   20.7033 C   0  0  0  0  0  0
  -26.0379  -26.8408   19.5374 C   0  0  0  0  0  0
  -24.8732  -27.6381   19.5192 C   0  0  0  0  0  0
  -23.6439  -29.7954   20.1595 C   0  0  0  0  0  0
  -25.4117  -36.3075   24.0330 C   0  0  1  0  0  0
  -20.5897  -28.3694   23.1281 C   0  0  2  0  0  0
  -20.6787  -26.9420   22.5405 C   0  0  0  0  0  0
  -19.5765  -26.6385   21.5209 C   0  0  0  0  0  0
  -18.1942  -26.7929   22.1616 C   0  0  0  0  0  0
  -19.1549  -28.8859   23.2872 C   0  0  0  0  0  0
  -18.9470  -30.1455   23.8896 C   0  0  0  0  0  0
  -17.6468  -30.6590   24.0555 C   0  0  0  0  0  0
  -25.9055  -34.9454   23.5090 C   0  0  0  0  0  0
  -16.5362  -29.9095   23.6335 C   0  0  0  0  0  0
  -16.7285  -28.6500   23.0363 C   0  0  0  0  0  0
  -26.4516  -31.6593   25.0685 C   0  0  0  0  0  0
  -25.3766  -31.3731   26.1426 C   0  0  0  0  0  0
  -27.0332  -30.3019   24.6113 C   0  0  0  0  0  0
  -27.6060  -32.4343   25.7457 C   0  0  0  0  0  0
  -27.5583  -37.1797   24.8474 C   0  0  0  0  0  0
  -21.4201  -29.3034   22.3665 N   0  0  0  0  0  0
  -26.4291  -37.3774   23.9411 N   0  0  0  0  0  0
  -24.6945  -31.0534   22.0911 N   0  0  0  0  0  0
  -23.4193  -28.8179   23.3051 O   0  0  0  0  0  0
  -28.3609  -26.4400   20.1290 O   0  0  0  0  0  0
  -26.5623  -34.8949   22.4653 O   0  0  0  0  0  0
  -23.5469  -32.1347   23.7287 O   0  0  0  0  0  0
  -29.4898  -19.8347   20.4439 C   0  0  0  0  0  0
  -30.5510  -19.4148   21.2485 C   0  0  0  0  0  0
  -29.8634  -17.2569   20.6541 C   0  0  0  0  0  0
  -28.9350  -21.1750   19.8713 C   0  0  0  0  0  0
  -28.7646  -23.7765   19.7852 C   0  0  0  0  0  0
  -28.2704  -25.0419   20.6587 C   0  0  0  0  0  0
  -30.7359  -18.0029   21.3582 N   0  0  0  0  0  0
  -31.4582  -20.2264   21.9389 N   0  0  0  0  0  0
  -29.7342  -15.7877   20.7214 N   0  0  0  0  0  0
  -29.0809  -22.4264   20.4450 N   0  0  0  0  0  0
  -28.3178  -21.1078   18.8053 O   0  0  0  0  0  0
  -28.7042  -18.3447   19.8284 S   0  0  0  0  0  0
  -31.4862  -12.5947   19.1620 H   0  0  0  0  0  0
  -30.4074  -11.4596   19.9298 H   0  0  0  0  0  0
  -29.7991  -11.7462   17.5076 H   0  0  0  0  0  0
  -29.6379  -13.4700   17.7278 H   0  0  0  0  0  0
  -27.9036  -11.2768   18.9091 H   0  0  0  0  0  0
  -27.3790  -12.5108   17.8002 H   0  0  0  0  0  0
  -27.6493  -14.2427   19.4837 H   0  0  0  0  0  0
  -28.7243  -12.0997   21.3872 H   0  0  0  0  0  0
  -28.4216  -13.7569   21.8287 H   0  0  0  0  0  0
  -25.2773   -9.5651   22.4732 H   0  0  0  0  0  0
  -23.9995   -7.4609   22.7451 H   0  0  0  0  0  0
  -21.0817   -8.8774   19.8959 H   0  0  0  0  0  0
  -22.3689  -10.9666   19.6160 H   0  0  0  0  0  0
  -21.2019   -7.6140   23.9716 H   0  0  0  0  0  0
  -21.1488   -6.0511   25.9080 H   0  0  0  0  0  0
  -22.0602   -2.7599   23.2833 H   0  0  0  0  0  0
  -22.4111  -11.9947   22.4892 H   0  0  0  0  0  0
  -21.1100  -13.1279   22.2614 H   0  0  0  0  0  0
  -24.6394  -15.8293   20.4939 H   0  0  0  0  0  0
  -26.2464  -15.6305   20.0249 H   0  0  0  0  0  0
  -26.7188  -32.5435   23.1044 H   0  0  0  0  0  0
  -25.0124  -33.9684   25.0426 H   0  0  0  0  0  0
  -22.7223  -31.2942   21.3880 H   0  0  0  0  0  0
  -23.3764  -35.9601   23.3319 H   0  0  0  0  0  0
  -24.3572  -36.8879   22.2049 H   0  0  0  0  0  0
  -23.7239  -37.6487   23.6646 H   0  0  0  0  0  0
  -26.0951  -31.5358   20.5902 H   0  0  0  0  0  0
  -26.8508  -30.8349   21.9905 H   0  0  0  0  0  0
  -28.1351  -28.9810   21.1554 H   0  0  0  0  0  0
  -26.0017  -25.8598   19.0850 H   0  0  0  0  0  0
  -23.9741  -27.2539   19.0561 H   0  0  0  0  0  0
  -23.7667  -30.5650   19.3968 H   0  0  0  0  0  0
  -22.7650  -29.2217   19.8594 H   0  0  0  0  0  0
  -25.1312  -36.1915   25.0823 H   0  0  0  0  0  0
  -20.9971  -28.3270   24.1409 H   0  0  0  0  0  0
  -20.5692  -26.2313   23.3607 H   0  0  0  0  0  0
  -21.6662  -26.7460   22.1200 H   0  0  0  0  0  0
  -19.6932  -25.6292   21.1253 H   0  0  0  0  0  0
  -19.6712  -27.3188   20.6731 H   0  0  0  0  0  0
  -17.4219  -26.6681   21.4009 H   0  0  0  0  0  0
  -18.0338  -26.0067   22.9011 H   0  0  0  0  0  0
  -19.7949  -30.7254   24.2269 H   0  0  0  0  0  0
  -17.5041  -31.6273   24.5151 H   0  0  0  0  0  0
  -15.5365  -30.3004   23.7645 H   0  0  0  0  0  0
  -15.8681  -28.0813   22.7103 H   0  0  0  0  0  0
  -24.5899  -30.7133   25.7764 H   0  0  0  0  0  0
  -24.9020  -32.2900   26.4919 H   0  0  0  0  0  0
  -25.8108  -30.8851   27.0157 H   0  0  0  0  0  0
  -26.2862  -29.6790   24.1175 H   0  0  0  0  0  0
  -27.4083  -29.7264   25.4586 H   0  0  0  0  0  0
  -27.8727  -30.4331   23.9283 H   0  0  0  0  0  0
  -27.2633  -33.3625   26.2047 H   0  0  0  0  0  0
  -28.3845  -32.6938   25.0272 H   0  0  0  0  0  0
  -28.0753  -31.8472   26.5361 H   0  0  0  0  0  0
  -28.2626  -38.0075   24.7501 H   0  0  0  0  0  0
  -28.1053  -36.2607   24.6316 H   0  0  0  0  0  0
  -27.2297  -37.1467   25.8878 H   0  0  0  0  0  0
  -20.9409  -29.8719   21.6827 H   0  0  0  0  0  0
  -26.0183  -38.2851   24.1415 H   0  0  0  0  0  0
  -29.6799  -24.0729   19.2721 H   0  0  0  0  0  0
  -28.0365  -23.6269   18.9852 H   0  0  0  0  0  0
  -28.8761  -25.0631   21.5641 H   0  0  0  0  0  0
  -27.2608  -24.8459   21.0191 H   0  0  0  0  0  0
  -31.4542  -21.2385   21.8821 H   0  0  0  0  0  0
  -32.2222  -19.8293   22.4766 H   0  0  0  0  0  0
  -28.7801  -15.4812   20.8124 H   0  0  0  0  0  0
  -29.5525  -22.4661   21.3388 H   0  0  0  0  0  0
  1 25  1  0  0  0
  1 30  2  0  0  0
  1 79  1  0  0  0
  2  3  1  0  0  0
  2 25  1  0  0  0
  2 83  1  0  0  0
  2 84  1  0  0  0
  3  4  1  0  0  0
  3 85  1  0  0  0
  3 86  1  0  0  0
  4  5  1  0  0  0
  4 87  1  0  0  0
  4 88  1  0  0  0
  5  6  1  0  0  0
  5 26  1  0  0  0
  5 89  1  0  0  0
  6 25  1  0  0  0
  6 90  1  0  0  0
  6 91  1  0  0  0
  7  8  2  0  0  0
  7 26  1  0  0  0
  7 29  1  0  0  0
  8  9  1  0  0  0
  8 22  1  0  0  0
  9 10  1  0  0  0
  9 27  2  0  0  0
 10 11  2  0  0  0
 10 15  1  0  0  0
 11 12  1  0  0  0
 11 92  1  0  0  0
 12 13  2  0  0  0
 12 93  1  0  0  0
 13 14  1  0  0  0
 13 31  1  0  0  0
 14 15  2  0  0  0
 14 94  1  0  0  0
 15 95  1  0  0  0
 16 17  2  0  0  0
 16 21  1  0  0  0
 16 31  1  0  0  0
 17 18  1  0  0  0
 17 96  1  0  0  0
 18 19  2  0  0  0
 18 97  1  0  0  0
 19 20  1  0  0  0
 19 24  1  0  0  0
 20 21  2  0  0  0
 20 98  1  0  0  0
 21 23  1  0  0  0
 22 28  1  0  0  0
 22 32  2  0  0  0
 26 27  1  0  0  0
 28 99  1  0  0  0
 28100  1  0  0  0
 29101  1  0  0  0
 29102  1  0  0  0
 33 34  1  0  0  0
 33 66  1  0  0  0
 33 70  2  0  0  0
 34 36  1  0  0  0
 34 59  1  0  0  0
 34103  1  0  0  0
 35 44  2  0  0  0
 35 45  1  0  0  0
 35 68  1  0  0  0
 36 56  1  0  0  0
 36104  1  0  0  0
 37 39  1  0  0  0
 37 47  1  0  0  0
 37 66  1  0  0  0
 37105  1  0  0  0
 38 43  2  0  0  0
 38 46  1  0  0  0
 38 47  1  0  0  0
 39 64  1  0  0  0
 39 67  2  0  0  0
 40 52  1  0  0  0
 40 53  2  0  0  0
 40 58  1  0  0  0
 41106  1  0  0  0
 41107  1  0  0  0
 41108  1  0  0  0
 41 48  1  0  0  0
 42 43  1  0  0  0
 42 66  1  0  0  0
 42109  1  0  0  0
 42110  1  0  0  0
 43 44  1  0  0  0
 44111  1  0  0  0
 45 46  2  0  0  0
 45112  1  0  0  0
 46113  1  0  0  0
 47114  1  0  0  0
 47115  1  0  0  0
 48 56  1  0  0  0
 48 65  1  0  0  0
 48116  1  0  0  0
 49 50  1  0  0  0
 49 53  1  0  0  0
 49 64  1  0  0  0
 49117  1  0  0  0
 50 51  1  0  0  0
 50118  1  0  0  0
 50119  1  0  0  0
 51 52  1  0  0  0
 51120  1  0  0  0
 51121  1  0  0  0
 52122  1  0  0  0
 52123  1  0  0  0
 53 54  1  0  0  0
 54 55  2  0  0  0
 54124  1  0  0  0
 55 57  1  0  0  0
 55125  1  0  0  0
 56 69  2  0  0  0
 57 58  2  0  0  0
 57126  1  0  0  0
 58127  1  0  0  0
 59 60  1  0  0  0
 59 61  1  0  0  0
 59 62  1  0  0  0
 60128  1  0  0  0
 60129  1  0  0  0
 60130  1  0  0  0
 61131  1  0  0  0
 61132  1  0  0  0
 61133  1  0  0  0
 62134  1  0  0  0
 62135  1  0  0  0
 62136  1  0  0  0
 63 65  1  0  0  0
 63137  1  0  0  0
 63138  1  0  0  0
 63139  1  0  0  0
 64140  1  0  0  0
 65141  1  0  0  0
 68 76  1  0  0  0
 71 72  2  0  0  0
 71 74  1  0  0  0
 71 82  1  0  0  0
 72 77  1  0  0  0
 72 78  1  0  0  0
 73 77  2  0  0  0
 73 79  1  0  0  0
 73 82  1  0  0  0
 74 80  1  0  0  0
 74 81  2  0  0  0
 75 76  1  0  0  0
 75 80  1  0  0  0
 75142  1  0  0  0
 75143  1  0  0  0
 76144  1  0  0  0
 76145  1  0  0  0
 78146  1  0  0  0
 78147  1  0  0  0
 79148  1  0  0  0
 80149  1  0  0  0
M  ISO  4   1 100  68 101  76 101  79 100
M  END
> <chiral flag>
0

> <version>
0

> <s_m_source_file>
/data/baiqing/PycharmProjects/Reinvent-master-3.2/result/LINK_invent/BTK/process_docking_weight1_custom_product_contain_oxygen_bond_distance_aromatic_linkinvent_7_9_3/rearranged_h_0197.sdf

> <i_m_source_file_index>
35

> <r_mmod_Potential_Energy-OPLS-2005>
9.45264053344727

> <r_mmod_Stretch_Energy-OPLS-2005>
106.456512451172

> <r_mmod_Bend_Energy-OPLS-2005>
179.638107299805

> <r_mmod_Torsional_Energy-OPLS-2005>
249.348281860352

> <r_mmod_Improper_Torsional_Energy-OPLS-2005>
6.97795820236206

> <r_mmod_Van_der_Waal_Energy-OPLS-2005>
114.187469482422

> <r_mmod_Electrostatic_Energy-OPLS-2005>
-457.562286376953

> <r_mmod_Solvation_Energy-OPLS-2005>
-261.130676269531

> <b_mmod_Minimization_Converged-OPLS-2005>
0

> <r_mmod_RMS_Derivative-OPLS-2005>
2.63917279243469

$$$$
35
                    3D
 Structure written by MMmdl.
157165  0  0  1  0            999 V2000
  -30.7132  -14.5069   20.5819 C   0  0  0  0  0  0
  -30.4139  -12.3398   19.4178 C   0  0  0  0  0  0
  -29.4817  -12.5038   18.2016 C   0  0  0  0  0  0
  -28.0097  -12.3493   18.6234 C   0  0  0  0  0  0
  -27.6524  -13.2056   19.8647 C   0  0  2  0  0  0
  -28.6969  -13.0366   20.9889 C   0  0  0  0  0  0
  -25.2585  -13.8171   20.5688 C   0  0  0  0  0  0
  -24.1831  -13.0451   20.9154 C   0  0  0  0  0  0
  -24.6371  -11.6905   20.8731 C   0  0  0  0  0  0
  -23.9033  -10.4298   21.0408 C   0  0  0  0  0  0
  -24.3589   -9.4212   21.9180 C   0  0  0  0  0  0
  -23.6279   -8.2240   22.0746 C   0  0  0  0  0  0
  -22.4269   -8.0263   21.3535 C   0  0  0  0  0  0
  -21.9890   -9.0241   20.4647 C   0  0  0  0  0  0
  -22.7205  -10.2132   20.3063 C   0  0  0  0  0  0
  -21.6861   -6.0713   22.5267 C   0  0  0  0  0  0
  -21.4019   -6.5626   23.8192 C   0  0  0  0  0  0
  -21.3652   -5.6780   24.9158 C   0  0  0  0  0  0
  -21.6045   -4.3042   24.7222 C   0  0  0  0  0  0
  -21.8829   -3.8129   23.4348 C   0  0  0  0  0  0
  -21.9205   -4.6942   22.3400 C   0  0  0  0  0  0
  -22.7863  -13.5247   21.1832 C   0  0  0  0  0  0
  -22.1678   -4.2118   21.0981 F   0  0  0  0  0  0
  -21.5614   -3.4538   25.7741 F   0  0  0  0  0  0
  -30.0189  -13.3432   20.4223 N   0  0  0  0  0  0
  -26.2987  -12.9315   20.3343 N   0  0  0  0  0  0
  -25.9292  -11.6474   20.5771 N   0  0  0  0  0  0
  -22.0530  -12.8246   22.0408 N   0  0  0  0  0  0
  -25.4406  -15.1895   20.4142 N   0  0  0  0  0  0
  -31.8415  -14.6687   20.1076 O   0  0  0  0  0  0
  -21.6642   -6.8857   21.4231 O   0  0  0  0  0  0
  -22.3526  -14.5542   20.6671 O   0  0  0  0  0  0
  -24.6170  -31.8642   23.2071 C   0  0  0  0  0  0
  -25.9043  -32.4795   23.8369 C   0  0  1  0  0  0
  -27.2285  -27.3918   20.0954 C   0  0  0  0  0  0
  -25.5875  -33.8600   24.2296 N   0  0  0  0  0  0
  -23.4059  -30.4853   21.5514 C   0  0  2  0  0  0
  -24.8478  -28.9443   20.1164 C   0  0  0  0  0  0
  -22.7422  -29.4624   22.5010 C   0  0  0  0  0  0
  -18.0268  -28.1316   22.8562 C   0  0  0  0  0  0
  -24.1480  -36.7319   23.2641 C   0  0  0  0  0  0
  -25.9376  -30.8158   21.3626 C   0  0  0  0  0  0
  -26.0106  -29.4470   20.7103 C   0  0  0  0  0  0
  -27.1999  -28.6773   20.6959 C   0  0  0  0  0  0
  -26.0371  -26.9038   19.5103 C   0  0  0  0  0  0
  -24.8572  -27.6740   19.5152 C   0  0  0  0  0  0
  -23.6135  -29.8177   20.1662 C   0  0  0  0  0  0
  -25.4107  -36.3117   24.0339 C   0  0  1  0  0  0
  -20.5867  -28.3613   23.1354 C   0  0  2  0  0  0
  -20.6733  -26.9325   22.5493 C   0  0  0  0  0  0
  -19.5721  -26.6373   21.5249 C   0  0  0  0  0  0
  -18.1904  -26.7865   22.1688 C   0  0  0  0  0  0
  -19.1531  -28.8790   23.2928 C   0  0  0  0  0  0
  -18.9468  -30.1383   23.8982 C   0  0  0  0  0  0
  -17.6475  -30.6490   24.0716 C   0  0  0  0  0  0
  -25.9027  -34.9470   23.5128 C   0  0  0  0  0  0
  -16.5353  -29.8980   23.6527 C   0  0  0  0  0  0
  -16.7268  -28.6418   23.0508 C   0  0  0  0  0  0
  -26.4450  -31.6589   25.0715 C   0  0  0  0  0  0
  -25.3708  -31.3706   26.1465 C   0  0  0  0  0  0
  -27.0289  -30.3036   24.6096 C   0  0  0  0  0  0
  -27.6017  -32.4336   25.7464 C   0  0  0  0  0  0
  -27.5587  -37.1817   24.8469 C   0  0  0  0  0  0
  -21.4159  -29.2948   22.3725 N   0  0  0  0  0  0
  -26.4302  -37.3802   23.9412 N   0  0  0  0  0  0
  -24.6724  -31.0700   22.0996 N   0  0  0  0  0  0
  -23.4182  -28.8212   23.3103 O   0  0  0  0  0  0
  -28.4119  -26.6680   20.1202 O   0  0  0  0  0  0
  -26.5608  -34.8929   22.4697 O   0  0  0  0  0  0
  -23.5357  -32.1421   23.7444 O   0  0  0  0  0  0
  -28.2531  -17.9650   19.3423 C   0  0  0  0  0  0
  -29.0234  -18.9800   19.8730 C   0  0  0  0  0  0
  -29.5965  -16.6880   20.6798 C   0  0  0  0  0  0
  -27.1399  -18.1302   18.3523 C   0  0  0  0  0  0
  -27.1919  -21.2019   20.9046 C   0  0  0  0  0  0
  -28.2866  -24.1203   20.2958 C   0  0  0  0  0  0
  -28.7138  -22.7959   19.5805 C   0  0  0  0  0  0
  -28.5505  -25.3992   19.4389 C   0  0  0  0  0  0
  -28.6119  -21.4419   20.3633 C   0  0  2  0  0  0
  -28.5867  -16.6769   19.8013 N   0  0  0  0  0  0
  -29.0154  -20.3378   19.4797 N   0  0  0  0  0  0
  -30.1268  -15.5018   21.2793 N   0  0  0  0  0  0
  -30.1532  -18.3329   21.0530 S   0  0  0  0  0  0
  -31.4557  -12.4384   19.1074 H   0  0  0  0  0  0
  -30.3215  -11.3370   19.8354 H   0  0  0  0  0  0
  -29.7250  -11.7670   17.4358 H   0  0  0  0  0  0
  -29.6339  -13.4835   17.7435 H   0  0  0  0  0  0
  -27.8381  -11.2957   18.8438 H   0  0  0  0  0  0
  -27.3494  -12.5977   17.7919 H   0  0  0  0  0  0
  -27.6770  -14.2415   19.5355 H   0  0  0  0  0  0
  -28.6867  -12.0178   21.3782 H   0  0  0  0  0  0
  -28.4515  -13.6784   21.8367 H   0  0  0  0  0  0
  -25.2735   -9.5693   22.4747 H   0  0  0  0  0  0
  -23.9985   -7.4640   22.7466 H   0  0  0  0  0  0
  -21.0807   -8.8773   19.8956 H   0  0  0  0  0  0
  -22.3658  -10.9672   19.6175 H   0  0  0  0  0  0
  -21.2015   -7.6136   23.9689 H   0  0  0  0  0  0
  -21.1461   -6.0514   25.9058 H   0  0  0  0  0  0
  -22.0623   -2.7594   23.2867 H   0  0  0  0  0  0
  -22.4157  -11.9889   22.4759 H   0  0  0  0  0  0
  -21.1154  -13.1272   22.2646 H   0  0  0  0  0  0
  -24.6957  -15.8639   20.5470 H   0  0  0  0  0  0
  -26.3267  -15.6174   20.1672 H   0  0  0  0  0  0
  -26.7119  -32.5484   23.1132 H   0  0  0  0  0  0
  -25.0013  -33.9757   25.0436 H   0  0  0  0  0  0
  -22.6977  -31.3036   21.4140 H   0  0  0  0  0  0
  -23.3744  -35.9652   23.3317 H   0  0  0  0  0  0
  -24.3569  -36.8917   22.2051 H   0  0  0  0  0  0
  -23.7224  -37.6527   23.6645 H   0  0  0  0  0  0
  -26.0513  -31.5765   20.5889 H   0  0  0  0  0  0
  -26.8265  -30.8735   21.9785 H   0  0  0  0  0  0
  -28.0996  -29.0610   21.1552 H   0  0  0  0  0  0
  -25.9884  -25.9218   19.0633 H   0  0  0  0  0  0
  -23.9566  -27.2770   19.0648 H   0  0  0  0  0  0
  -23.7265  -30.5941   19.4099 H   0  0  0  0  0  0
  -22.7346  -29.2427   19.8683 H   0  0  0  0  0  0
  -25.1285  -36.2000   25.0837 H   0  0  0  0  0  0
  -20.9948  -28.3200   24.1479 H   0  0  0  0  0  0
  -20.5551  -26.2224   23.3700 H   0  0  0  0  0  0
  -21.6632  -26.7312   22.1385 H   0  0  0  0  0  0
  -19.6876  -25.6340   21.1145 H   0  0  0  0  0  0
  -19.6659  -27.3301   20.6873 H   0  0  0  0  0  0
  -17.4139  -26.6604   21.4121 H   0  0  0  0  0  0
  -18.0334  -25.9970   22.9062 H   0  0  0  0  0  0
  -19.7955  -30.7148   24.2422 H   0  0  0  0  0  0
  -17.5038  -31.6130   24.5426 H   0  0  0  0  0  0
  -15.5348  -30.2807   23.8016 H   0  0  0  0  0  0
  -15.8671  -28.0672   22.7343 H   0  0  0  0  0  0
  -24.5861  -30.7073   25.7803 H   0  0  0  0  0  0
  -24.8910  -32.2864   26.4934 H   0  0  0  0  0  0
  -25.8039  -30.8853   27.0215 H   0  0  0  0  0  0
  -26.2840  -29.6797   24.1134 H   0  0  0  0  0  0
  -27.4062  -29.7271   25.4547 H   0  0  0  0  0  0
  -27.8666  -30.4378   23.9246 H   0  0  0  0  0  0
  -27.2619  -33.3630   26.2055 H   0  0  0  0  0  0
  -28.3784  -32.6912   25.0252 H   0  0  0  0  0  0
  -28.0727  -31.8456   26.5355 H   0  0  0  0  0  0
  -28.2623  -38.0098   24.7509 H   0  0  0  0  0  0
  -28.1063  -36.2632   24.6307 H   0  0  0  0  0  0
  -27.2301  -37.1484   25.8870 H   0  0  0  0  0  0
  -20.9315  -29.8559   21.6862 H   0  0  0  0  0  0
  -26.0195  -38.2888   24.1400 H   0  0  0  0  0  0
  -26.2181  -18.4194   18.8577 H   0  0  0  0  0  0
  -27.3633  -18.9076   17.6207 H   0  0  0  0  0  0
  -26.9411  -17.2112   17.8025 H   0  0  0  0  0  0
  -26.4517  -21.1804   20.1031 H   0  0  0  0  0  0
  -26.8977  -21.9858   21.6023 H   0  0  0  0  0  0
  -27.1209  -20.2585   21.4480 H   0  0  0  0  0  0
  -28.8266  -24.2023   21.2391 H   0  0  0  0  0  0
  -27.2274  -24.0797   20.5517 H   0  0  0  0  0  0
  -29.7502  -22.9128   19.2595 H   0  0  0  0  0  0
  -28.1321  -22.7159   18.6602 H   0  0  0  0  0  0
  -27.9889  -25.3702   18.5060 H   0  0  0  0  0  0
  -29.5925  -25.3652   19.1206 H   0  0  0  0  0  0
  -29.3061  -21.4710   21.2061 H   0  0  0  0  0  0
  -28.7105  -20.4729   18.5201 H   0  0  0  0  0  0
  -30.7290  -15.7576   22.0474 H   0  0  0  0  0  0
  1 25  1  0  0  0
  1 30  2  0  0  0
  1 82  1  0  0  0
  2  3  1  0  0  0
  2 25  1  0  0  0
  2 84  1  0  0  0
  2 85  1  0  0  0
  3  4  1  0  0  0
  3 86  1  0  0  0
  3 87  1  0  0  0
  4  5  1  0  0  0
  4 88  1  0  0  0
  4 89  1  0  0  0
  5  6  1  0  0  0
  5 26  1  0  0  0
  5 90  1  0  0  0
  6 25  1  0  0  0
  6 91  1  0  0  0
  6 92  1  0  0  0
  7  8  2  0  0  0
  7 26  1  0  0  0
  7 29  1  0  0  0
  8  9  1  0  0  0
  8 22  1  0  0  0
  9 10  1  0  0  0
  9 27  2  0  0  0
 10 11  2  0  0  0
 10 15  1  0  0  0
 11 12  1  0  0  0
 11 93  1  0  0  0
 12 13  2  0  0  0
 12 94  1  0  0  0
 13 14  1  0  0  0
 13 31  1  0  0  0
 14 15  2  0  0  0
 14 95  1  0  0  0
 15 96  1  0  0  0
 16 17  2  0  0  0
 16 21  1  0  0  0
 16 31  1  0  0  0
 17 18  1  0  0  0
 17 97  1  0  0  0
 18 19  2  0  0  0
 18 98  1  0  0  0
 19 20  1  0  0  0
 19 24  1  0  0  0
 20 21  2  0  0  0
 20 99  1  0  0  0
 21 23  1  0  0  0
 22 28  1  0  0  0
 22 32  2  0  0  0
 26 27  1  0  0  0
 28100  1  0  0  0
 28101  1  0  0  0
 29102  1  0  0  0
 29103  1  0  0  0
 33 34  1  0  0  0
 33 66  1  0  0  0
 33 70  2  0  0  0
 34 36  1  0  0  0
 34 59  1  0  0  0
 34104  1  0  0  0
 35 44  2  0  0  0
 35 45  1  0  0  0
 35 68  1  0  0  0
 36 56  1  0  0  0
 36105  1  0  0  0
 37 39  1  0  0  0
 37 47  1  0  0  0
 37 66  1  0  0  0
 37106  1  0  0  0
 38 43  2  0  0  0
 38 46  1  0  0  0
 38 47  1  0  0  0
 39 64  1  0  0  0
 39 67  2  0  0  0
 40 52  1  0  0  0
 40 53  2  0  0  0
 40 58  1  0  0  0
 41107  1  0  0  0
 41108  1  0  0  0
 41109  1  0  0  0
 41 48  1  0  0  0
 42 43  1  0  0  0
 42 66  1  0  0  0
 42110  1  0  0  0
 42111  1  0  0  0
 43 44  1  0  0  0
 44112  1  0  0  0
 45 46  2  0  0  0
 45113  1  0  0  0
 46114  1  0  0  0
 47115  1  0  0  0
 47116  1  0  0  0
 48 56  1  0  0  0
 48 65  1  0  0  0
 48117  1  0  0  0
 49 50  1  0  0  0
 49 53  1  0  0  0
 49 64  1  0  0  0
 49118  1  0  0  0
 50 51  1  0  0  0
 50119  1  0  0  0
 50120  1  0  0  0
 51 52  1  0  0  0
 51121  1  0  0  0
 51122  1  0  0  0
 52123  1  0  0  0
 52124  1  0  0  0
 53 54  1  0  0  0
 54 55  2  0  0  0
 54125  1  0  0  0
 55 57  1  0  0  0
 55126  1  0  0  0
 56 69  2  0  0  0
 57 58  2  0  0  0
 57127  1  0  0  0
 58128  1  0  0  0
 59 60  1  0  0  0
 59 61  1  0  0  0
 59 62  1  0  0  0
 60129  1  0  0  0
 60130  1  0  0  0
 60131  1  0  0  0
 61132  1  0  0  0
 61133  1  0  0  0
 61134  1  0  0  0
 62135  1  0  0  0
 62136  1  0  0  0
 62137  1  0  0  0
 63 65  1  0  0  0
 63138  1  0  0  0
 63139  1  0  0  0
 63140  1  0  0  0
 64141  1  0  0  0
 65142  1  0  0  0
 68 78  1  0  0  0
 71 72  2  0  0  0
 71 74  1  0  0  0
 71 80  1  0  0  0
 72 81  1  0  0  0
 72 83  1  0  0  0
 73 80  2  0  0  0
 73 82  1  0  0  0
 73 83  1  0  0  0
 74143  1  0  0  0
 74144  1  0  0  0
 74145  1  0  0  0
 75146  1  0  0  0
 75147  1  0  0  0
 75148  1  0  0  0
 75 79  1  0  0  0
 76 77  1  0  0  0
 76 78  1  0  0  0
 76149  1  0  0  0
 76150  1  0  0  0
 77 79  1  0  0  0
 77151  1  0  0  0
 77152  1  0  0  0
 78153  1  0  0  0
 78154  1  0  0  0
 79 81  1  0  0  0
 79155  1  0  0  0
 81156  1  0  0  0
 82157  1  0  0  0
M  ISO  4   1 100  68 101  78 101  82 100
M  END
> <chiral flag>
0

> <version>
0

> <s_m_source_file>
/data/baiqing/PycharmProjects/Reinvent-master-3.2/result/LINK_invent/BTK/process_docking_weight1_custom_product_contain_oxygen_bond_distance_aromatic_linkinvent_7_9_3/rearranged_h_0197.sdf

> <i_m_source_file_index>
36

> <r_mmod_Potential_Energy-OPLS-2005>
-69.8243179321289

> <r_mmod_Stretch_Energy-OPLS-2005>
42.1367607116699

> <r_mmod_Bend_Energy-OPLS-2005>
126.924026489258

> <r_mmod_Torsional_Energy-OPLS-2005>
257.764190673828

> <r_mmod_Improper_Torsional_Energy-OPLS-2005>
9.7344274520874

> <r_mmod_Van_der_Waal_Energy-OPLS-2005>
113.737365722656

> <r_mmod_Electrostatic_Energy-OPLS-2005>
-432.410461425781

> <r_mmod_Solvation_Energy-OPLS-2005>
-206.898681640625

> <b_mmod_Minimization_Converged-OPLS-2005>
0

> <r_mmod_RMS_Derivative-OPLS-2005>
2.48579454421997

$$$$
36
                    3D
 Structure written by MMmdl.
153161  0  0  1  0            999 V2000
  -30.7146  -14.4685   20.5441 C   0  0  0  0  0  0
  -30.4138  -12.2922   19.4325 C   0  0  0  0  0  0
  -29.4954  -12.4945   18.2103 C   0  0  0  0  0  0
  -28.0145  -12.3662   18.6186 C   0  0  0  0  0  0
  -27.6605  -13.2109   19.8725 C   0  0  2  0  0  0
  -28.7020  -13.0081   20.9970 C   0  0  0  0  0  0
  -25.2585  -13.8169   20.5675 C   0  0  0  0  0  0
  -24.1844  -13.0441   20.9178 C   0  0  0  0  0  0
  -24.6403  -11.6909   20.8733 C   0  0  0  0  0  0
  -23.9071  -10.4292   21.0397 C   0  0  0  0  0  0
  -24.3623   -9.4207   21.9174 C   0  0  0  0  0  0
  -23.6298   -8.2244   22.0748 C   0  0  0  0  0  0
  -22.4276   -8.0285   21.3544 C   0  0  0  0  0  0
  -21.9911   -9.0257   20.4645 C   0  0  0  0  0  0
  -22.7241  -10.2137   20.3049 C   0  0  0  0  0  0
  -21.6855   -6.0737   22.5279 C   0  0  0  0  0  0
  -21.4014   -6.5639   23.8214 C   0  0  0  0  0  0
  -21.3661   -5.6791   24.9176 C   0  0  0  0  0  0
  -21.6044   -4.3053   24.7224 C   0  0  0  0  0  0
  -21.8820   -3.8149   23.4345 C   0  0  0  0  0  0
  -21.9192   -4.6965   22.3402 C   0  0  0  0  0  0
  -22.7863  -13.5236   21.1838 C   0  0  0  0  0  0
  -22.1660   -4.2150   21.0980 F   0  0  0  0  0  0
  -21.5628   -3.4539   25.7737 F   0  0  0  0  0  0
  -30.0333  -13.2946   20.4411 N   0  0  0  0  0  0
  -26.3024  -12.9347   20.3361 N   0  0  0  0  0  0
  -25.9331  -11.6504   20.5775 N   0  0  0  0  0  0
  -22.0504  -12.8238   22.0401 N   0  0  0  0  0  0
  -25.4297  -15.1889   20.4084 N   0  0  0  0  0  0
  -31.8616  -14.5902   20.1088 O   0  0  0  0  0  0
  -21.6644   -6.8878   21.4240 O   0  0  0  0  0  0
  -22.3549  -14.5538   20.6681 O   0  0  0  0  0  0
  -24.6141  -31.8683   23.2107 C   0  0  0  0  0  0
  -25.9034  -32.4827   23.8405 C   0  0  1  0  0  0
  -27.2277  -27.4357   20.1039 C   0  0  0  0  0  0
  -25.5895  -33.8628   24.2333 N   0  0  0  0  0  0
  -23.4029  -30.4920   21.5503 C   0  0  2  0  0  0
  -24.8510  -28.9629   20.1101 C   0  0  0  0  0  0
  -22.7409  -29.4658   22.4980 C   0  0  0  0  0  0
  -18.0269  -28.1371   22.8490 C   0  0  0  0  0  0
  -24.1488  -36.7312   23.2638 C   0  0  0  0  0  0
  -25.9328  -30.8349   21.3663 C   0  0  0  0  0  0
  -26.0114  -29.4724   20.7082 C   0  0  0  0  0  0
  -27.2074  -28.7170   20.6996 C   0  0  0  0  0  0
  -26.0572  -26.9477   19.4848 C   0  0  0  0  0  0
  -24.8690  -27.7008   19.4921 C   0  0  0  0  0  0
  -23.6114  -29.8265   20.1639 C   0  0  0  0  0  0
  -25.4110  -36.3115   24.0338 C   0  0  1  0  0  0
  -20.5863  -28.3661   23.1311 C   0  0  2  0  0  0
  -20.6762  -26.9395   22.5415 C   0  0  0  0  0  0
  -19.5745  -26.6377   21.5209 C   0  0  0  0  0  0
  -18.1921  -26.7918   22.1619 C   0  0  0  0  0  0
  -19.1520  -28.8831   23.2900 C   0  0  0  0  0  0
  -18.9451  -30.1435   23.8912 C   0  0  0  0  0  0
  -17.6455  -30.6583   24.0558 C   0  0  0  0  0  0
  -25.9035  -34.9479   23.5132 C   0  0  0  0  0  0
  -16.5343  -29.9082   23.6328 C   0  0  0  0  0  0
  -16.7258  -28.6494   23.0355 C   0  0  0  0  0  0
  -26.4466  -31.6610   25.0733 C   0  0  0  0  0  0
  -25.3731  -31.3720   26.1479 C   0  0  0  0  0  0
  -27.0306  -30.3052   24.6121 C   0  0  0  0  0  0
  -27.6046  -32.4333   25.7484 C   0  0  0  0  0  0
  -27.5587  -37.1803   24.8458 C   0  0  0  0  0  0
  -21.4136  -29.3029   22.3716 N   0  0  0  0  0  0
  -26.4296  -37.3798   23.9410 N   0  0  0  0  0  0
  -24.6677  -31.0789   22.1005 N   0  0  0  0  0  0
  -23.4179  -28.8200   23.3024 O   0  0  0  0  0  0
  -28.3563  -26.6469   20.1398 O   0  0  0  0  0  0
  -26.5596  -34.8925   22.4693 O   0  0  0  0  0  0
  -23.5334  -32.1428   23.7505 O   0  0  0  0  0  0
  -31.1069  -19.1703   20.3017 C   0  0  0  0  0  0
  -29.9110  -19.1598   20.9770 C   0  0  0  0  0  0
  -30.3148  -16.9011   20.8373 C   0  0  0  0  0  0
  -29.1014  -20.3663   21.4050 C   0  0  0  0  0  0
  -29.5699  -21.7182   20.7942 C   0  0  0  0  0  0
  -29.0848  -24.2718   20.5158 C   0  0  0  0  0  0
  -28.1830  -25.4582   20.9370 C   0  0  0  0  0  0
  -28.7809  -22.9568   21.2918 C   0  0  2  0  0  0
  -29.4726  -17.8526   21.2753 N   0  0  0  0  0  0
  -30.0109  -15.5185   21.0164 N   0  0  0  0  0  0
  -29.0741  -23.1480   22.6666 O   0  0  0  0  0  0
  -31.7287  -17.5711   20.0159 S   0  0  0  0  0  0
  -31.4620  -12.3654   19.1367 H   0  0  0  0  0  0
  -30.2933  -11.2870   19.8389 H   0  0  0  0  0  0
  -29.7339  -11.7636   17.4363 H   0  0  0  0  0  0
  -29.6744  -13.4766   17.7699 H   0  0  0  0  0  0
  -27.8172  -11.3118   18.8150 H   0  0  0  0  0  0
  -27.3686  -12.6442   17.7848 H   0  0  0  0  0  0
  -27.6997  -14.2564   19.5661 H   0  0  0  0  0  0
  -28.6735  -11.9795   21.3598 H   0  0  0  0  0  0
  -28.4717  -13.6315   21.8623 H   0  0  0  0  0  0
  -25.2765   -9.5693   22.4751 H   0  0  0  0  0  0
  -24.0009   -7.4639   22.7472 H   0  0  0  0  0  0
  -21.0835   -8.8779   19.8959 H   0  0  0  0  0  0
  -22.3688  -10.9678   19.6169 H   0  0  0  0  0  0
  -21.2006   -7.6147   23.9718 H   0  0  0  0  0  0
  -21.1484   -6.0521   25.9080 H   0  0  0  0  0  0
  -22.0597   -2.7612   23.2847 H   0  0  0  0  0  0
  -22.4115  -11.9907   22.4807 H   0  0  0  0  0  0
  -21.1124  -13.1278   22.2591 H   0  0  0  0  0  0
  -24.6634  -15.8439   20.5194 H   0  0  0  0  0  0
  -26.2846  -15.6326   20.0963 H   0  0  0  0  0  0
  -26.7105  -32.5537   23.1172 H   0  0  0  0  0  0
  -25.0058  -33.9803   25.0485 H   0  0  0  0  0  0
  -22.6909  -31.3082   21.4126 H   0  0  0  0  0  0
  -23.3758  -35.9637   23.3303 H   0  0  0  0  0  0
  -24.3585  -36.8925   22.2052 H   0  0  0  0  0  0
  -23.7230  -37.6512   23.6651 H   0  0  0  0  0  0
  -26.0530  -31.6065   20.6047 H   0  0  0  0  0  0
  -26.8171  -30.8806   21.9902 H   0  0  0  0  0  0
  -28.1019  -29.1003   21.1712 H   0  0  0  0  0  0
  -26.0610  -25.9763   19.0100 H   0  0  0  0  0  0
  -23.9783  -27.3047   19.0240 H   0  0  0  0  0  0
  -23.7145  -30.6019   19.4038 H   0  0  0  0  0  0
  -22.7370  -29.2426   19.8706 H   0  0  0  0  0  0
  -25.1288  -36.1983   25.0831 H   0  0  0  0  0  0
  -20.9961  -28.3228   24.1428 H   0  0  0  0  0  0
  -20.5662  -26.2267   23.3602 H   0  0  0  0  0  0
  -21.6634  -26.7433   22.1212 H   0  0  0  0  0  0
  -19.6908  -25.6289   21.1235 H   0  0  0  0  0  0
  -19.6693  -27.3188   20.6741 H   0  0  0  0  0  0
  -17.4192  -26.6659   21.4020 H   0  0  0  0  0  0
  -18.0326  -26.0056   22.9013 H   0  0  0  0  0  0
  -19.7929  -30.7242   24.2294 H   0  0  0  0  0  0
  -17.5012  -31.6270   24.5148 H   0  0  0  0  0  0
  -15.5345  -30.2991   23.7648 H   0  0  0  0  0  0
  -15.8653  -28.0816   22.7078 H   0  0  0  0  0  0
  -24.5880  -30.7104   25.7798 H   0  0  0  0  0  0
  -24.8954  -32.2883   26.4958 H   0  0  0  0  0  0
  -25.8073  -30.8845   27.0216 H   0  0  0  0  0  0
  -26.2860  -29.6808   24.1168 H   0  0  0  0  0  0
  -27.4066  -29.7298   25.4591 H   0  0  0  0  0  0
  -27.8700  -30.4376   23.9290 H   0  0  0  0  0  0
  -27.2669  -33.3619   26.2100 H   0  0  0  0  0  0
  -28.3827  -32.6919   25.0289 H   0  0  0  0  0  0
  -28.0747  -31.8436   26.5364 H   0  0  0  0  0  0
  -28.2594  -38.0113   24.7537 H   0  0  0  0  0  0
  -28.1097  -36.2648   24.6251 H   0  0  0  0  0  0
  -27.2309  -37.1409   25.8861 H   0  0  0  0  0  0
  -20.9286  -29.8749   21.6945 H   0  0  0  0  0  0
  -26.0191  -38.2875   24.1424 H   0  0  0  0  0  0
  -31.6704  -20.0250   19.9517 H   0  0  0  0  0  0
  -29.1259  -20.4406   22.4926 H   0  0  0  0  0  0
  -28.0527  -20.2122   21.1471 H   0  0  0  0  0  0
  -29.4752  -21.6505   19.7095 H   0  0  0  0  0  0
  -30.6315  -21.8675   20.9950 H   0  0  0  0  0  0
  -30.1347  -24.5469   20.6231 H   0  0  0  0  0  0
  -28.9303  -24.0899   19.4517 H   0  0  0  0  0  0
  -28.3903  -25.7244   21.9742 H   0  0  0  0  0  0
  -27.1501  -25.1072   20.9262 H   0  0  0  0  0  0
  -27.7144  -22.7431   21.1964 H   0  0  0  0  0  0
  -29.1014  -15.3090   21.3933 H   0  0  0  0  0  0
  -30.0047  -23.3336   22.7541 H   0  0  0  0  0  0
  1 25  1  0  0  0
  1 30  2  0  0  0
  1 80  1  0  0  0
  2  3  1  0  0  0
  2 25  1  0  0  0
  2 83  1  0  0  0
  2 84  1  0  0  0
  3  4  1  0  0  0
  3 85  1  0  0  0
  3 86  1  0  0  0
  4  5  1  0  0  0
  4 87  1  0  0  0
  4 88  1  0  0  0
  5  6  1  0  0  0
  5 26  1  0  0  0
  5 89  1  0  0  0
  6 25  1  0  0  0
  6 90  1  0  0  0
  6 91  1  0  0  0
  7  8  2  0  0  0
  7 26  1  0  0  0
  7 29  1  0  0  0
  8  9  1  0  0  0
  8 22  1  0  0  0
  9 10  1  0  0  0
  9 27  2  0  0  0
 10 11  2  0  0  0
 10 15  1  0  0  0
 11 12  1  0  0  0
 11 92  1  0  0  0
 12 13  2  0  0  0
 12 93  1  0  0  0
 13 14  1  0  0  0
 13 31  1  0  0  0
 14 15  2  0  0  0
 14 94  1  0  0  0
 15 95  1  0  0  0
 16 17  2  0  0  0
 16 21  1  0  0  0
 16 31  1  0  0  0
 17 18  1  0  0  0
 17 96  1  0  0  0
 18 19  2  0  0  0
 18 97  1  0  0  0
 19 20  1  0  0  0
 19 24  1  0  0  0
 20 21  2  0  0  0
 20 98  1  0  0  0
 21 23  1  0  0  0
 22 28  1  0  0  0
 22 32  2  0  0  0
 26 27  1  0  0  0
 28 99  1  0  0  0
 28100  1  0  0  0
 29101  1  0  0  0
 29102  1  0  0  0
 33 34  1  0  0  0
 33 66  1  0  0  0
 33 70  2  0  0  0
 34 36  1  0  0  0
 34 59  1  0  0  0
 34103  1  0  0  0
 35 44  2  0  0  0
 35 45  1  0  0  0
 35 68  1  0  0  0
 36 56  1  0  0  0
 36104  1  0  0  0
 37 39  1  0  0  0
 37 47  1  0  0  0
 37 66  1  0  0  0
 37105  1  0  0  0
 38 43  2  0  0  0
 38 46  1  0  0  0
 38 47  1  0  0  0
 39 64  1  0  0  0
 39 67  2  0  0  0
 40 52  1  0  0  0
 40 53  2  0  0  0
 40 58  1  0  0  0
 41106  1  0  0  0
 41107  1  0  0  0
 41108  1  0  0  0
 41 48  1  0  0  0
 42 43  1  0  0  0
 42 66  1  0  0  0
 42109  1  0  0  0
 42110  1  0  0  0
 43 44  1  0  0  0
 44111  1  0  0  0
 45 46  2  0  0  0
 45112  1  0  0  0
 46113  1  0  0  0
 47114  1  0  0  0
 47115  1  0  0  0
 48 56  1  0  0  0
 48 65  1  0  0  0
 48116  1  0  0  0
 49 50  1  0  0  0
 49 53  1  0  0  0
 49 64  1  0  0  0
 49117  1  0  0  0
 50 51  1  0  0  0
 50118  1  0  0  0
 50119  1  0  0  0
 51 52  1  0  0  0
 51120  1  0  0  0
 51121  1  0  0  0
 52122  1  0  0  0
 52123  1  0  0  0
 53 54  1  0  0  0
 54 55  2  0  0  0
 54124  1  0  0  0
 55 57  1  0  0  0
 55125  1  0  0  0
 56 69  2  0  0  0
 57 58  2  0  0  0
 57126  1  0  0  0
 58127  1  0  0  0
 59 60  1  0  0  0
 59 61  1  0  0  0
 59 62  1  0  0  0
 60128  1  0  0  0
 60129  1  0  0  0
 60130  1  0  0  0
 61131  1  0  0  0
 61132  1  0  0  0
 61133  1  0  0  0
 62134  1  0  0  0
 62135  1  0  0  0
 62136  1  0  0  0
 63 65  1  0  0  0
 63137  1  0  0  0
 63138  1  0  0  0
 63139  1  0  0  0
 64140  1  0  0  0
 65141  1  0  0  0
 68 77  1  0  0  0
 71 72  2  0  0  0
 71 82  1  0  0  0
 71142  1  0  0  0
 72 74  1  0  0  0
 72 79  1  0  0  0
 73 79  2  0  0  0
 73 80  1  0  0  0
 73 82  1  0  0  0
 74 75  1  0  0  0
 74143  1  0  0  0
 74144  1  0  0  0
 75 78  1  0  0  0
 75145  1  0  0  0
 75146  1  0  0  0
 76 77  1  0  0  0
 76 78  1  0  0  0
 76147  1  0  0  0
 76148  1  0  0  0
 77149  1  0  0  0
 77150  1  0  0  0
 78 81  1  0  0  0
 78151  1  0  0  0
 80152  1  0  0  0
 81153  1  0  0  0
M  ISO  4   1 100  68 101  77 101  80 100
M  END
> <chiral flag>
0

> <version>
0

> <s_m_source_file>
/data/baiqing/PycharmProjects/Reinvent-master-3.2/result/LINK_invent/BTK/process_docking_weight1_custom_product_contain_oxygen_bond_distance_aromatic_linkinvent_7_9_3/rearranged_h_0197.sdf

> <i_m_source_file_index>
37

> <r_mmod_Potential_Energy-OPLS-2005>
-167.813690185547

> <r_mmod_Stretch_Energy-OPLS-2005>
36.0741806030273

> <r_mmod_Bend_Energy-OPLS-2005>
90.2864379882812

> <r_mmod_Torsional_Energy-OPLS-2005>
224.580581665039

> <r_mmod_Improper_Torsional_Energy-OPLS-2005>
3.54840445518494

> <r_mmod_Van_der_Waal_Energy-OPLS-2005>
136.050735473633

> <r_mmod_Electrostatic_Energy-OPLS-2005>
-449.256286621094

> <r_mmod_Solvation_Energy-OPLS-2005>
-224.941131591797

> <b_mmod_Minimization_Converged-OPLS-2005>
0

> <r_mmod_RMS_Derivative-OPLS-2005>
0.822845280170441

$$$$
37
                    3D
 Structure written by MMmdl.
153161  0  0  1  0            999 V2000
  -30.6962  -14.4597   20.5725 C   0  0  0  0  0  0
  -30.4258  -12.2972   19.4200 C   0  0  0  0  0  0
  -29.4948  -12.5002   18.2064 C   0  0  0  0  0  0
  -28.0161  -12.3616   18.6200 C   0  0  0  0  0  0
  -27.6650  -13.2007   19.8776 C   0  0  2  0  0  0
  -28.7056  -12.9678   20.9969 C   0  0  0  0  0  0
  -25.2615  -13.8156   20.5688 C   0  0  0  0  0  0
  -24.1850  -13.0439   20.9175 C   0  0  0  0  0  0
  -24.6390  -11.6905   20.8733 C   0  0  0  0  0  0
  -23.9051  -10.4295   21.0398 C   0  0  0  0  0  0
  -24.3604   -9.4213   21.9179 C   0  0  0  0  0  0
  -23.6284   -8.2246   22.0751 C   0  0  0  0  0  0
  -22.4267   -8.0278   21.3538 C   0  0  0  0  0  0
  -21.9899   -9.0252   20.4642 C   0  0  0  0  0  0
  -22.7221  -10.2135   20.3050 C   0  0  0  0  0  0
  -21.6853   -6.0734   22.5278 C   0  0  0  0  0  0
  -21.4011   -6.5638   23.8211 C   0  0  0  0  0  0
  -21.3658   -5.6790   24.9176 C   0  0  0  0  0  0
  -21.6044   -4.3053   24.7225 C   0  0  0  0  0  0
  -21.8820   -3.8144   23.4346 C   0  0  0  0  0  0
  -21.9194   -4.6962   22.3400 C   0  0  0  0  0  0
  -22.7876  -13.5247   21.1842 C   0  0  0  0  0  0
  -22.1662   -4.2148   21.0977 F   0  0  0  0  0  0
  -21.5631   -3.4533   25.7739 F   0  0  0  0  0  0
  -30.0400  -13.2742   20.4503 N   0  0  0  0  0  0
  -26.3041  -12.9311   20.3378 N   0  0  0  0  0  0
  -25.9312  -11.6477   20.5762 N   0  0  0  0  0  0
  -22.0512  -12.8237   22.0397 N   0  0  0  0  0  0
  -25.4373  -15.1868   20.4099 N   0  0  0  0  0  0
  -31.8150  -14.6544   20.0867 O   0  0  0  0  0  0
  -21.6630   -6.8874   21.4238 O   0  0  0  0  0  0
  -22.3565  -14.5563   20.6703 O   0  0  0  0  0  0
  -24.6135  -31.8691   23.2104 C   0  0  0  0  0  0
  -25.9037  -32.4828   23.8402 C   0  0  1  0  0  0
  -27.2383  -27.4478   20.0954 C   0  0  0  0  0  0
  -25.5919  -33.8627   24.2344 N   0  0  0  0  0  0
  -23.4018  -30.4892   21.5527 C   0  0  2  0  0  0
  -24.8503  -28.9562   20.1161 C   0  0  0  0  0  0
  -22.7410  -29.4646   22.5025 C   0  0  0  0  0  0
  -18.0267  -28.1343   22.8479 C   0  0  0  0  0  0
  -24.1493  -36.7305   23.2641 C   0  0  0  0  0  0
  -25.9290  -30.8368   21.3622 C   0  0  0  0  0  0
  -26.0103  -29.4728   20.7091 C   0  0  0  0  0  0
  -27.2107  -28.7264   20.6945 C   0  0  0  0  0  0
  -26.0657  -26.9444   19.4935 C   0  0  0  0  0  0
  -24.8717  -27.6896   19.5061 C   0  0  0  0  0  0
  -23.6100  -29.8199   20.1678 C   0  0  0  0  0  0
  -25.4114  -36.3115   24.0342 C   0  0  1  0  0  0
  -20.5857  -28.3635   23.1313 C   0  0  2  0  0  0
  -20.6763  -26.9379   22.5408 C   0  0  0  0  0  0
  -19.5754  -26.6367   21.5191 C   0  0  0  0  0  0
  -18.1925  -26.7890   22.1601 C   0  0  0  0  0  0
  -19.1517  -28.8809   23.2885 C   0  0  0  0  0  0
  -18.9454  -30.1416   23.8894 C   0  0  0  0  0  0
  -17.6462  -30.6567   24.0544 C   0  0  0  0  0  0
  -25.9040  -34.9481   23.5134 C   0  0  0  0  0  0
  -16.5350  -29.9064   23.6311 C   0  0  0  0  0  0
  -16.7260  -28.6472   23.0341 C   0  0  0  0  0  0
  -26.4471  -31.6603   25.0723 C   0  0  0  0  0  0
  -25.3739  -31.3703   26.1475 C   0  0  0  0  0  0
  -27.0306  -30.3064   24.6063 C   0  0  0  0  0  0
  -27.6055  -32.4314   25.7483 C   0  0  0  0  0  0
  -27.5582  -37.1807   24.8469 C   0  0  0  0  0  0
  -21.4141  -29.3008   22.3740 N   0  0  0  0  0  0
  -26.4300  -37.3797   23.9408 N   0  0  0  0  0  0
  -24.6663  -31.0788   22.1007 N   0  0  0  0  0  0
  -23.4174  -28.8204   23.3087 O   0  0  0  0  0  0
  -28.3870  -26.6899   20.0967 O   0  0  0  0  0  0
  -26.5585  -34.8928   22.4682 O   0  0  0  0  0  0
  -23.5329  -32.1453   23.7500 O   0  0  0  0  0  0
  -31.0774  -17.5464   20.3938 C   0  0  0  0  0  0
  -30.8295  -18.9549   20.4157 C   0  0  0  0  0  0
  -30.1105  -16.7911   21.0237 C   0  0  0  0  0  0
  -29.6696  -19.2905   21.0641 C   0  0  0  0  0  0
  -29.0749  -24.3037   20.3081 C   0  0  0  0  0  0
  -29.4642  -21.7130   20.4892 C   0  0  0  0  0  0
  -28.2879  -25.4989   20.8929 C   0  0  0  0  0  0
  -28.7957  -22.9805   21.0649 C   0  0  1  0  0  0
  -29.9903  -15.4384   21.1731 N   0  0  0  0  0  0
  -29.0945  -20.5454   21.2958 N   0  0  0  0  0  0
  -29.2987  -23.0456   22.3835 O   0  0  0  0  0  0
  -28.8782  -17.8548   21.6734 S   0  0  0  0  0  0
  -31.4699  -12.3973   19.1176 H   0  0  0  0  0  0
  -30.3275  -11.2840   19.8120 H   0  0  0  0  0  0
  -29.7307  -11.7748   17.4268 H   0  0  0  0  0  0
  -29.6646  -13.4854   17.7688 H   0  0  0  0  0  0
  -27.8269  -11.3058   18.8174 H   0  0  0  0  0  0
  -27.3634  -12.6354   17.7899 H   0  0  0  0  0  0
  -27.7142  -14.2492   19.5841 H   0  0  0  0  0  0
  -28.6804  -11.9269   21.3232 H   0  0  0  0  0  0
  -28.4644  -13.5527   21.8855 H   0  0  0  0  0  0
  -25.2751   -9.5691   22.4752 H   0  0  0  0  0  0
  -23.9998   -7.4635   22.7466 H   0  0  0  0  0  0
  -21.0834   -8.8764   19.8942 H   0  0  0  0  0  0
  -22.3678  -10.9673   19.6157 H   0  0  0  0  0  0
  -21.1997   -7.6144   23.9717 H   0  0  0  0  0  0
  -21.1480   -6.0517   25.9079 H   0  0  0  0  0  0
  -22.0601   -2.7606   23.2845 H   0  0  0  0  0  0
  -22.4117  -11.9885   22.4774 H   0  0  0  0  0  0
  -21.1133  -13.1272   22.2606 H   0  0  0  0  0  0
  -24.6751  -15.8473   20.5152 H   0  0  0  0  0  0
  -26.2946  -15.6212   20.0913 H   0  0  0  0  0  0
  -26.7107  -32.5550   23.1170 H   0  0  0  0  0  0
  -25.0119  -33.9795   25.0523 H   0  0  0  0  0  0
  -22.6902  -31.3051   21.4138 H   0  0  0  0  0  0
  -23.3758  -35.9635   23.3323 H   0  0  0  0  0  0
  -24.3593  -36.8895   22.2053 H   0  0  0  0  0  0
  -23.7233  -37.6514   23.6634 H   0  0  0  0  0  0
  -26.0367  -31.6031   20.5935 H   0  0  0  0  0  0
  -26.8174  -30.8923   21.9793 H   0  0  0  0  0  0
  -28.1070  -29.1197   21.1550 H   0  0  0  0  0  0
  -26.0762  -25.9723   19.0211 H   0  0  0  0  0  0
  -23.9810  -27.2832   19.0462 H   0  0  0  0  0  0
  -23.7141  -30.5939   19.4064 H   0  0  0  0  0  0
  -22.7354  -29.2359   19.8758 H   0  0  0  0  0  0
  -25.1279  -36.1996   25.0835 H   0  0  0  0  0  0
  -20.9917  -28.3195   24.1447 H   0  0  0  0  0  0
  -20.5661  -26.2247   23.3590 H   0  0  0  0  0  0
  -21.6638  -26.7430   22.1216 H   0  0  0  0  0  0
  -19.6932  -25.6282   21.1211 H   0  0  0  0  0  0
  -19.6700  -27.3185   20.6723 H   0  0  0  0  0  0
  -17.4198  -26.6624   21.4001 H   0  0  0  0  0  0
  -18.0341  -26.0016   22.8986 H   0  0  0  0  0  0
  -19.7944  -30.7200   24.2287 H   0  0  0  0  0  0
  -17.5033  -31.6255   24.5134 H   0  0  0  0  0  0
  -15.5354  -30.2965   23.7649 H   0  0  0  0  0  0
  -15.8654  -28.0796   22.7062 H   0  0  0  0  0  0
  -24.5907  -30.7057   25.7814 H   0  0  0  0  0  0
  -24.8932  -32.2859   26.4933 H   0  0  0  0  0  0
  -25.8088  -30.8868   27.0232 H   0  0  0  0  0  0
  -26.2844  -29.6831   24.1126 H   0  0  0  0  0  0
  -27.4132  -29.7288   25.4487 H   0  0  0  0  0  0
  -27.8647  -30.4429   23.9175 H   0  0  0  0  0  0
  -27.2688  -33.3608   26.2088 H   0  0  0  0  0  0
  -28.3843  -32.6884   25.0291 H   0  0  0  0  0  0
  -28.0744  -31.8416   26.5373 H   0  0  0  0  0  0
  -28.2608  -38.0099   24.7509 H   0  0  0  0  0  0
  -28.1066  -36.2625   24.6302 H   0  0  0  0  0  0
  -27.2295  -37.1466   25.8874 H   0  0  0  0  0  0
  -20.9312  -29.8732   21.6957 H   0  0  0  0  0  0
  -26.0194  -38.2880   24.1405 H   0  0  0  0  0  0
  -31.9570  -17.1530   19.9048 H   0  0  0  0  0  0
  -31.5113  -19.6539   19.9534 H   0  0  0  0  0  0
  -30.1427  -24.5251   20.3023 H   0  0  0  0  0  0
  -28.7864  -24.1770   19.2642 H   0  0  0  0  0  0
  -30.5495  -21.8318   20.4663 H   0  0  0  0  0  0
  -29.1417  -21.5578   19.4579 H   0  0  0  0  0  0
  -28.6680  -25.7318   21.8880 H   0  0  0  0  0  0
  -27.2517  -25.1904   21.0412 H   0  0  0  0  0  0
  -27.7158  -22.8194   21.1008 H   0  0  0  0  0  0
  -29.1387  -15.1236   21.6135 H   0  0  0  0  0  0
  -28.1391  -20.5463   21.6488 H   0  0  0  0  0  0
  -29.4335  -22.1285   22.6233 H   0  0  0  0  0  0
  1 25  1  0  0  0
  1 30  2  0  0  0
  1 79  1  0  0  0
  2  3  1  0  0  0
  2 25  1  0  0  0
  2 83  1  0  0  0
  2 84  1  0  0  0
  3  4  1  0  0  0
  3 85  1  0  0  0
  3 86  1  0  0  0
  4  5  1  0  0  0
  4 87  1  0  0  0
  4 88  1  0  0  0
  5  6  1  0  0  0
  5 26  1  0  0  0
  5 89  1  0  0  0
  6 25  1  0  0  0
  6 90  1  0  0  0
  6 91  1  0  0  0
  7  8  2  0  0  0
  7 26  1  0  0  0
  7 29  1  0  0  0
  8  9  1  0  0  0
  8 22  1  0  0  0
  9 10  1  0  0  0
  9 27  2  0  0  0
 10 11  2  0  0  0
 10 15  1  0  0  0
 11 12  1  0  0  0
 11 92  1  0  0  0
 12 13  2  0  0  0
 12 93  1  0  0  0
 13 14  1  0  0  0
 13 31  1  0  0  0
 14 15  2  0  0  0
 14 94  1  0  0  0
 15 95  1  0  0  0
 16 17  2  0  0  0
 16 21  1  0  0  0
 16 31  1  0  0  0
 17 18  1  0  0  0
 17 96  1  0  0  0
 18 19  2  0  0  0
 18 97  1  0  0  0
 19 20  1  0  0  0
 19 24  1  0  0  0
 20 21  2  0  0  0
 20 98  1  0  0  0
 21 23  1  0  0  0
 22 28  1  0  0  0
 22 32  2  0  0  0
 26 27  1  0  0  0
 28 99  1  0  0  0
 28100  1  0  0  0
 29101  1  0  0  0
 29102  1  0  0  0
 33 34  1  0  0  0
 33 66  1  0  0  0
 33 70  2  0  0  0
 34 36  1  0  0  0
 34 59  1  0  0  0
 34103  1  0  0  0
 35 44  2  0  0  0
 35 45  1  0  0  0
 35 68  1  0  0  0
 36 56  1  0  0  0
 36104  1  0  0  0
 37 39  1  0  0  0
 37 47  1  0  0  0
 37 66  1  0  0  0
 37105  1  0  0  0
 38 43  2  0  0  0
 38 46  1  0  0  0
 38 47  1  0  0  0
 39 64  1  0  0  0
 39 67  2  0  0  0
 40 52  1  0  0  0
 40 53  2  0  0  0
 40 58  1  0  0  0
 41106  1  0  0  0
 41107  1  0  0  0
 41108  1  0  0  0
 41 48  1  0  0  0
 42 43  1  0  0  0
 42 66  1  0  0  0
 42109  1  0  0  0
 42110  1  0  0  0
 43 44  1  0  0  0
 44111  1  0  0  0
 45 46  2  0  0  0
 45112  1  0  0  0
 46113  1  0  0  0
 47114  1  0  0  0
 47115  1  0  0  0
 48 56  1  0  0  0
 48 65  1  0  0  0
 48116  1  0  0  0
 49 50  1  0  0  0
 49 53  1  0  0  0
 49 64  1  0  0  0
 49117  1  0  0  0
 50 51  1  0  0  0
 50118  1  0  0  0
 50119  1  0  0  0
 51 52  1  0  0  0
 51120  1  0  0  0
 51121  1  0  0  0
 52122  1  0  0  0
 52123  1  0  0  0
 53 54  1  0  0  0
 54 55  2  0  0  0
 54124  1  0  0  0
 55 57  1  0  0  0
 55125  1  0  0  0
 56 69  2  0  0  0
 57 58  2  0  0  0
 57126  1  0  0  0
 58127  1  0  0  0
 59 60  1  0  0  0
 59 61  1  0  0  0
 59 62  1  0  0  0
 60128  1  0  0  0
 60129  1  0  0  0
 60130  1  0  0  0
 61131  1  0  0  0
 61132  1  0  0  0
 61133  1  0  0  0
 62134  1  0  0  0
 62135  1  0  0  0
 62136  1  0  0  0
 63 65  1  0  0  0
 63137  1  0  0  0
 63138  1  0  0  0
 63139  1  0  0  0
 64140  1  0  0  0
 65141  1  0  0  0
 68 77  1  0  0  0
 71 72  1  0  0  0
 71 73  2  0  0  0
 71142  1  0  0  0
 72 74  2  0  0  0
 72143  1  0  0  0
 73 79  1  0  0  0
 73 82  1  0  0  0
 74 80  1  0  0  0
 74 82  1  0  0  0
 75 77  1  0  0  0
 75 78  1  0  0  0
 75144  1  0  0  0
 75145  1  0  0  0
 76 78  1  0  0  0
 76 80  1  0  0  0
 76146  1  0  0  0
 76147  1  0  0  0
 77148  1  0  0  0
 77149  1  0  0  0
 78 81  1  0  0  0
 78150  1  0  0  0
 79151  1  0  0  0
 80152  1  0  0  0
 81153  1  0  0  0
M  ISO  4   1 100  68 101  77 101  79 100
M  END
> <chiral flag>
0

> <version>
0

> <s_m_source_file>
/data/baiqing/PycharmProjects/Reinvent-master-3.2/result/LINK_invent/BTK/process_docking_weight1_custom_product_contain_oxygen_bond_distance_aromatic_linkinvent_7_9_3/rearranged_h_0197.sdf

> <i_m_source_file_index>
38

> <r_mmod_Potential_Energy-OPLS-2005>
-96.831916809082

> <r_mmod_Stretch_Energy-OPLS-2005>
34.260383605957

> <r_mmod_Bend_Energy-OPLS-2005>
100.722320556641

> <r_mmod_Torsional_Energy-OPLS-2005>
258.717620849609

> <r_mmod_Improper_Torsional_Energy-OPLS-2005>
5.49600410461426

> <r_mmod_Van_der_Waal_Energy-OPLS-2005>
136.007766723633

> <r_mmod_Electrostatic_Energy-OPLS-2005>
-414.656433105469

> <r_mmod_Solvation_Energy-OPLS-2005>
-228.47314453125

> <b_mmod_Minimization_Converged-OPLS-2005>
0

> <r_mmod_RMS_Derivative-OPLS-2005>
1.29119575023651

$$$$
38
                    3D
 Structure written by MMmdl.
151159  0  0  1  0            999 V2000
  -30.6491  -14.6840   20.4614 C   0  0  0  0  0  0
  -30.4216  -12.4137   19.4751 C   0  0  0  0  0  0
  -29.5047  -12.4895   18.2358 C   0  0  0  0  0  0
  -28.0287  -12.3316   18.6482 C   0  0  0  0  0  0
  -27.6430  -13.2297   19.8538 C   0  0  2  0  0  0
  -28.6864  -13.1536   20.9904 C   0  0  0  0  0  0
  -25.2511  -13.8200   20.5686 C   0  0  0  0  0  0
  -24.1800  -13.0445   20.9199 C   0  0  0  0  0  0
  -24.6392  -11.6918   20.8754 C   0  0  0  0  0  0
  -23.9063  -10.4299   21.0406 C   0  0  0  0  0  0
  -24.3614   -9.4210   21.9184 C   0  0  0  0  0  0
  -23.6289   -8.2244   22.0755 C   0  0  0  0  0  0
  -22.4274   -8.0284   21.3540 C   0  0  0  0  0  0
  -21.9905   -9.0255   20.4640 C   0  0  0  0  0  0
  -22.7232  -10.2137   20.3050 C   0  0  0  0  0  0
  -21.6853   -6.0729   22.5272 C   0  0  0  0  0  0
  -21.4013   -6.5632   23.8205 C   0  0  0  0  0  0
  -21.3660   -5.6787   24.9169 C   0  0  0  0  0  0
  -21.6042   -4.3049   24.7221 C   0  0  0  0  0  0
  -21.8820   -3.8139   23.4343 C   0  0  0  0  0  0
  -21.9194   -4.6956   22.3396 C   0  0  0  0  0  0
  -22.7821  -13.5222   21.1853 C   0  0  0  0  0  0
  -22.1663   -4.2139   21.0974 F   0  0  0  0  0  0
  -21.5632   -3.4533   25.7734 F   0  0  0  0  0  0
  -29.9930  -13.4791   20.4089 N   0  0  0  0  0  0
  -26.2941  -12.9401   20.3296 N   0  0  0  0  0  0
  -25.9325  -11.6550   20.5780 N   0  0  0  0  0  0
  -22.0475  -12.8208   22.0417 N   0  0  0  0  0  0
  -25.4198  -15.1923   20.4077 N   0  0  0  0  0  0
  -31.8359  -14.7534   20.1323 O   0  0  0  0  0  0
  -21.6642   -6.8874   21.4234 O   0  0  0  0  0  0
  -22.3501  -14.5526   20.6706 O   0  0  0  0  0  0
  -24.6283  -31.8565   23.1986 C   0  0  0  0  0  0
  -25.9119  -32.4757   23.8317 C   0  0  1  0  0  0
  -27.2222  -27.2852   20.1266 C   0  0  0  0  0  0
  -25.5916  -33.8558   24.2243 N   0  0  0  0  0  0
  -23.4229  -30.4800   21.5405 C   0  0  2  0  0  0
  -24.8677  -28.9265   20.1078 C   0  0  0  0  0  0
  -22.7488  -29.4598   22.4897 C   0  0  0  0  0  0
  -18.0287  -28.1386   22.8456 C   0  0  0  0  0  0
  -24.1494  -36.7286   23.2639 C   0  0  0  0  0  0
  -25.9643  -30.7784   21.3716 C   0  0  0  0  0  0
  -26.0353  -29.4019   20.7158 C   0  0  0  0  0  0
  -27.2109  -28.5924   20.7143 C   0  0  0  0  0  0
  -26.0245  -26.8612   19.5077 C   0  0  0  0  0  0
  -24.8666  -27.6633   19.4959 C   0  0  0  0  0  0
  -23.6385  -29.8130   20.1551 C   0  0  0  0  0  0
  -25.4116  -36.3065   24.0321 C   0  0  1  0  0  0
  -20.5891  -28.3677   23.1264 C   0  0  2  0  0  0
  -20.6775  -26.9394   22.5414 C   0  0  0  0  0  0
  -19.5758  -26.6374   21.5203 C   0  0  0  0  0  0
  -18.1934  -26.7926   22.1607 C   0  0  0  0  0  0
  -19.1543  -28.8847   23.2853 C   0  0  0  0  0  0
  -18.9472  -30.1452   23.8865 C   0  0  0  0  0  0
  -17.6475  -30.6574   24.0565 C   0  0  0  0  0  0
  -25.9056  -34.9437   23.5089 C   0  0  0  0  0  0
  -16.5357  -29.9085   23.6338 C   0  0  0  0  0  0
  -16.7280  -28.6519   23.0328 C   0  0  0  0  0  0
  -26.4490  -31.6581   25.0706 C   0  0  0  0  0  0
  -25.3724  -31.3736   26.1439 C   0  0  0  0  0  0
  -27.0341  -30.3001   24.6173 C   0  0  0  0  0  0
  -27.6041  -32.4324   25.7482 C   0  0  0  0  0  0
  -27.5580  -37.1787   24.8458 C   0  0  0  0  0  0
  -21.4198  -29.3034   22.3652 N   0  0  0  0  0  0
  -26.4283  -37.3770   23.9421 N   0  0  0  0  0  0
  -24.6908  -31.0573   22.0931 N   0  0  0  0  0  0
  -23.4200  -28.8123   23.2977 O   0  0  0  0  0  0
  -28.3595  -26.4578   20.2003 O   0  0  0  0  0  0
  -26.5647  -34.8916   22.4668 O   0  0  0  0  0  0
  -23.5452  -32.1369   23.7306 O   0  0  0  0  0  0
  -29.1856  -19.1288   21.6516 C   0  0  0  0  0  0
  -29.7307  -18.5838   20.5018 C   0  0  0  0  0  0
  -29.0685  -21.0900   20.3954 C   0  0  0  0  0  0
  -27.0676  -23.6295   21.3359 C   0  0  0  0  0  0
  -30.4533  -17.2162   20.2374 C   0  0  0  0  0  0
  -28.4284  -25.0608   19.6794 C   0  0  0  0  0  0
  -28.4358  -23.7802   20.6589 C   0  0  2  0  0  0
  -28.8302  -20.5106   21.5823 N   0  0  0  0  0  0
  -28.8534  -22.4684   20.0386 N   0  0  0  0  0  0
  -29.9248  -15.8484   20.6327 N   0  0  0  0  0  0
  -29.7384  -19.8703   19.2668 S   0  0  0  0  0  0
  -31.4653  -12.5140   19.1737 H   0  0  0  0  0  0
  -30.3464  -11.4370   19.9540 H   0  0  0  0  0  0
  -29.7769  -11.7153   17.5171 H   0  0  0  0  0  0
  -29.6451  -13.4445   17.7265 H   0  0  0  0  0  0
  -27.8738  -11.2832   18.9081 H   0  0  0  0  0  0
  -27.3735  -12.5324   17.7998 H   0  0  0  0  0  0
  -27.6423  -14.2532   19.4778 H   0  0  0  0  0  0
  -28.7056  -12.1568   21.4344 H   0  0  0  0  0  0
  -28.4333  -13.8442   21.7960 H   0  0  0  0  0  0
  -25.2761   -9.5685   22.4763 H   0  0  0  0  0  0
  -23.9990   -7.4634   22.7483 H   0  0  0  0  0  0
  -21.0833   -8.8768   19.8951 H   0  0  0  0  0  0
  -22.3685  -10.9674   19.6160 H   0  0  0  0  0  0
  -21.2008   -7.6140   23.9701 H   0  0  0  0  0  0
  -21.1482   -6.0522   25.9070 H   0  0  0  0  0  0
  -22.0604   -2.7601   23.2844 H   0  0  0  0  0  0
  -22.4087  -11.9863   22.4792 H   0  0  0  0  0  0
  -21.1102  -13.1239   22.2642 H   0  0  0  0  0  0
  -24.6492  -15.8448   20.5050 H   0  0  0  0  0  0
  -26.2614  -15.6271   20.0518 H   0  0  0  0  0  0
  -26.7180  -32.5420   23.1057 H   0  0  0  0  0  0
  -25.0026  -33.9687   25.0361 H   0  0  0  0  0  0
  -22.7174  -31.3012   21.3958 H   0  0  0  0  0  0
  -23.3751  -35.9622   23.3292 H   0  0  0  0  0  0
  -24.3586  -36.8936   22.2060 H   0  0  0  0  0  0
  -23.7246  -37.6478   23.6674 H   0  0  0  0  0  0
  -26.1032  -31.5396   20.6018 H   0  0  0  0  0  0
  -26.8428  -30.8242   22.0028 H   0  0  0  0  0  0
  -28.1078  -28.9511   21.1994 H   0  0  0  0  0  0
  -25.9380  -25.8889   19.0508 H   0  0  0  0  0  0
  -23.9684  -27.2887   19.0252 H   0  0  0  0  0  0
  -23.7616  -30.5904   19.3999 H   0  0  0  0  0  0
  -22.7577  -29.2453   19.8489 H   0  0  0  0  0  0
  -25.1297  -36.1896   25.0811 H   0  0  0  0  0  0
  -20.9975  -28.3264   24.1390 H   0  0  0  0  0  0
  -20.5676  -26.2280   23.3616 H   0  0  0  0  0  0
  -21.6639  -26.7433   22.1205 H   0  0  0  0  0  0
  -19.6926  -25.6292   21.1224 H   0  0  0  0  0  0
  -19.6702  -27.3187   20.6732 H   0  0  0  0  0  0
  -17.4206  -26.6657   21.4011 H   0  0  0  0  0  0
  -18.0337  -26.0081   22.9023 H   0  0  0  0  0  0
  -19.7958  -30.7263   24.2208 H   0  0  0  0  0  0
  -17.5046  -31.6257   24.5162 H   0  0  0  0  0  0
  -15.5361  -30.2977   23.7693 H   0  0  0  0  0  0
  -15.8681  -28.0854   22.7019 H   0  0  0  0  0  0
  -24.5896  -30.7081   25.7784 H   0  0  0  0  0  0
  -24.8912  -32.2909   26.4847 H   0  0  0  0  0  0
  -25.8055  -30.8940   27.0224 H   0  0  0  0  0  0
  -26.2920  -29.6734   24.1211 H   0  0  0  0  0  0
  -27.4053  -29.7275   25.4680 H   0  0  0  0  0  0
  -27.8782  -30.4283   23.9386 H   0  0  0  0  0  0
  -27.2637  -33.3637   26.2010 H   0  0  0  0  0  0
  -28.3861  -32.6859   25.0316 H   0  0  0  0  0  0
  -28.0663  -31.8471   26.5437 H   0  0  0  0  0  0
  -28.2555  -38.0129   24.7557 H   0  0  0  0  0  0
  -28.1114  -36.2657   24.6200 H   0  0  0  0  0  0
  -27.2311  -37.1338   25.8864 H   0  0  0  0  0  0
  -20.9365  -29.8794   21.6897 H   0  0  0  0  0  0
  -26.0161  -38.2831   24.1477 H   0  0  0  0  0  0
  -29.0761  -18.6236   22.6016 H   0  0  0  0  0  0
  -26.7786  -24.5520   21.8409 H   0  0  0  0  0  0
  -27.0745  -22.8391   22.0876 H   0  0  0  0  0  0
  -26.2898  -23.3932   20.6090 H   0  0  0  0  0  0
  -31.4476  -17.3015   20.6797 H   0  0  0  0  0  0
  -30.6454  -17.1540   19.1641 H   0  0  0  0  0  0
  -27.7219  -24.8906   18.8710 H   0  0  0  0  0  0
  -29.3905  -25.0415   19.1670 H   0  0  0  0  0  0
  -29.1709  -23.9851   21.4390 H   0  0  0  0  0  0
  -29.1241  -22.6090   19.0704 H   0  0  0  0  0  0
  -28.9449  -15.7629   20.8564 H   0  0  0  0  0  0
  1 25  1  0  0  0
  1 30  2  0  0  0
  1 80  1  0  0  0
  2  3  1  0  0  0
  2 25  1  0  0  0
  2 82  1  0  0  0
  2 83  1  0  0  0
  3  4  1  0  0  0
  3 84  1  0  0  0
  3 85  1  0  0  0
  4  5  1  0  0  0
  4 86  1  0  0  0
  4 87  1  0  0  0
  5  6  1  0  0  0
  5 26  1  0  0  0
  5 88  1  0  0  0
  6 25  1  0  0  0
  6 89  1  0  0  0
  6 90  1  0  0  0
  7  8  2  0  0  0
  7 26  1  0  0  0
  7 29  1  0  0  0
  8  9  1  0  0  0
  8 22  1  0  0  0
  9 10  1  0  0  0
  9 27  2  0  0  0
 10 11  2  0  0  0
 10 15  1  0  0  0
 11 12  1  0  0  0
 11 91  1  0  0  0
 12 13  2  0  0  0
 12 92  1  0  0  0
 13 14  1  0  0  0
 13 31  1  0  0  0
 14 15  2  0  0  0
 14 93  1  0  0  0
 15 94  1  0  0  0
 16 17  2  0  0  0
 16 21  1  0  0  0
 16 31  1  0  0  0
 17 18  1  0  0  0
 17 95  1  0  0  0
 18 19  2  0  0  0
 18 96  1  0  0  0
 19 20  1  0  0  0
 19 24  1  0  0  0
 20 21  2  0  0  0
 20 97  1  0  0  0
 21 23  1  0  0  0
 22 28  1  0  0  0
 22 32  2  0  0  0
 26 27  1  0  0  0
 28 98  1  0  0  0
 28 99  1  0  0  0
 29100  1  0  0  0
 29101  1  0  0  0
 33 34  1  0  0  0
 33 66  1  0  0  0
 33 70  2  0  0  0
 34 36  1  0  0  0
 34 59  1  0  0  0
 34102  1  0  0  0
 35 44  2  0  0  0
 35 45  1  0  0  0
 35 68  1  0  0  0
 36 56  1  0  0  0
 36103  1  0  0  0
 37 39  1  0  0  0
 37 47  1  0  0  0
 37 66  1  0  0  0
 37104  1  0  0  0
 38 43  2  0  0  0
 38 46  1  0  0  0
 38 47  1  0  0  0
 39 64  1  0  0  0
 39 67  2  0  0  0
 40 52  1  0  0  0
 40 53  2  0  0  0
 40 58  1  0  0  0
 41105  1  0  0  0
 41106  1  0  0  0
 41107  1  0  0  0
 41 48  1  0  0  0
 42 43  1  0  0  0
 42 66  1  0  0  0
 42108  1  0  0  0
 42109  1  0  0  0
 43 44  1  0  0  0
 44110  1  0  0  0
 45 46  2  0  0  0
 45111  1  0  0  0
 46112  1  0  0  0
 47113  1  0  0  0
 47114  1  0  0  0
 48 56  1  0  0  0
 48 65  1  0  0  0
 48115  1  0  0  0
 49 50  1  0  0  0
 49 53  1  0  0  0
 49 64  1  0  0  0
 49116  1  0  0  0
 50 51  1  0  0  0
 50117  1  0  0  0
 50118  1  0  0  0
 51 52  1  0  0  0
 51119  1  0  0  0
 51120  1  0  0  0
 52121  1  0  0  0
 52122  1  0  0  0
 53 54  1  0  0  0
 54 55  2  0  0  0
 54123  1  0  0  0
 55 57  1  0  0  0
 55124  1  0  0  0
 56 69  2  0  0  0
 57 58  2  0  0  0
 57125  1  0  0  0
 58126  1  0  0  0
 59 60  1  0  0  0
 59 61  1  0  0  0
 59 62  1  0  0  0
 60127  1  0  0  0
 60128  1  0  0  0
 60129  1  0  0  0
 61130  1  0  0  0
 61131  1  0  0  0
 61132  1  0  0  0
 62133  1  0  0  0
 62134  1  0  0  0
 62135  1  0  0  0
 63 65  1  0  0  0
 63136  1  0  0  0
 63137  1  0  0  0
 63138  1  0  0  0
 64139  1  0  0  0
 65140  1  0  0  0
 68 76  1  0  0  0
 71 72  2  0  0  0
 71 78  1  0  0  0
 71141  1  0  0  0
 72 75  1  0  0  0
 72 81  1  0  0  0
 73 78  2  0  0  0
 73 79  1  0  0  0
 73 81  1  0  0  0
 74142  1  0  0  0
 74143  1  0  0  0
 74144  1  0  0  0
 74 77  1  0  0  0
 75 80  1  0  0  0
 75145  1  0  0  0
 75146  1  0  0  0
 76 77  1  0  0  0
 76147  1  0  0  0
 76148  1  0  0  0
 77 79  1  0  0  0
 77149  1  0  0  0
 79150  1  0  0  0
 80151  1  0  0  0
M  ISO  4   1 100  68 101  76 101  80 100
M  END
> <chiral flag>
0

> <version>
0

> <s_m_source_file>
/data/baiqing/PycharmProjects/Reinvent-master-3.2/result/LINK_invent/BTK/process_docking_weight1_custom_product_contain_oxygen_bond_distance_aromatic_linkinvent_7_9_3/rearranged_h_0197.sdf

> <i_m_source_file_index>
39

> <r_mmod_Potential_Energy-OPLS-2005>
-23.0757369995117

> <r_mmod_Stretch_Energy-OPLS-2005>
91.9799957275391

> <r_mmod_Bend_Energy-OPLS-2005>
169.003692626953

> <r_mmod_Torsional_Energy-OPLS-2005>
188.731704711914

> <r_mmod_Improper_Torsional_Energy-OPLS-2005>
7.05258846282959

> <r_mmod_Van_der_Waal_Energy-OPLS-2005>
116.595909118652

> <r_mmod_Electrostatic_Energy-OPLS-2005>
-431.478118896484

> <r_mmod_Solvation_Energy-OPLS-2005>
-229.63981628418

> <b_mmod_Minimization_Converged-OPLS-2005>
0

> <r_mmod_RMS_Derivative-OPLS-2005>
1.66998136043549

$$$$
39
                    3D
 Structure written by MMmdl.
155163  0  0  1  0            999 V2000
  -30.6261  -14.5923   20.4925 C   0  0  0  0  0  0
  -30.4358  -12.3715   19.4135 C   0  0  0  0  0  0
  -29.4934  -12.5178   18.1970 C   0  0  0  0  0  0
  -28.0163  -12.3700   18.6132 C   0  0  0  0  0  0
  -27.6519  -13.2157   19.8620 C   0  0  2  0  0  0
  -28.7017  -13.0350   20.9788 C   0  0  0  0  0  0
  -25.2579  -13.8154   20.5785 C   0  0  0  0  0  0
  -24.1815  -13.0444   20.9171 C   0  0  0  0  0  0
  -24.6408  -11.6894   20.8704 C   0  0  0  0  0  0
  -23.9074  -10.4298   21.0408 C   0  0  0  0  0  0
  -24.3620   -9.4236   21.9219 C   0  0  0  0  0  0
  -23.6340   -8.2255   22.0760 C   0  0  0  0  0  0
  -22.4333   -8.0298   21.3548 C   0  0  0  0  0  0
  -21.9946   -9.0266   20.4649 C   0  0  0  0  0  0
  -22.7248  -10.2143   20.3062 C   0  0  0  0  0  0
  -21.6895   -6.0765   22.5279 C   0  0  0  0  0  0
  -21.4027   -6.5663   23.8219 C   0  0  0  0  0  0
  -21.3678   -5.6819   24.9190 C   0  0  0  0  0  0
  -21.6070   -4.3086   24.7251 C   0  0  0  0  0  0
  -21.8836   -3.8178   23.4362 C   0  0  0  0  0  0
  -21.9196   -4.6986   22.3419 C   0  0  0  0  0  0
  -22.7827  -13.5200   21.1880 C   0  0  0  0  0  0
  -22.1671   -4.2172   21.1014 F   0  0  0  0  0  0
  -21.5623   -3.4567   25.7765 F   0  0  0  0  0  0
  -30.0182  -13.3711   20.4088 N   0  0  0  0  0  0
  -26.2990  -12.9320   20.3325 N   0  0  0  0  0  0
  -25.9309  -11.6474   20.5646 N   0  0  0  0  0  0
  -22.0541  -12.8115   22.0440 N   0  0  0  0  0  0
  -25.4333  -15.1882   20.4400 N   0  0  0  0  0  0
  -31.7935  -14.7810   20.1404 O   0  0  0  0  0  0
  -21.6685   -6.8918   21.4249 O   0  0  0  0  0  0
  -22.3478  -14.5547   20.6844 O   0  0  0  0  0  0
  -24.6217  -31.8646   23.2066 C   0  0  0  0  0  0
  -25.9089  -32.4796   23.8384 C   0  0  1  0  0  0
  -27.2414  -27.3550   20.0951 C   0  0  0  0  0  0
  -25.5909  -33.8595   24.2307 N   0  0  0  0  0  0
  -23.4139  -30.4850   21.5492 C   0  0  2  0  0  0
  -24.8620  -28.9423   20.1181 C   0  0  0  0  0  0
  -22.7447  -29.4643   22.4985 C   0  0  0  0  0  0
  -18.0300  -28.1370   22.8497 C   0  0  0  0  0  0
  -24.1486  -36.7283   23.2637 C   0  0  0  0  0  0
  -25.9554  -30.7984   21.3798 C   0  0  0  0  0  0
  -26.0310  -29.4299   20.7175 C   0  0  0  0  0  0
  -27.2179  -28.6452   20.7056 C   0  0  0  0  0  0
  -26.0510  -26.9238   19.4634 C   0  0  0  0  0  0
  -24.8715  -27.6888   19.4895 C   0  0  0  0  0  0
  -23.6276  -29.8152   20.1676 C   0  0  0  0  0  0
  -25.4122  -36.3104   24.0342 C   0  0  1  0  0  0
  -20.5889  -28.3689   23.1289 C   0  0  2  0  0  0
  -20.6784  -26.9417   22.5407 C   0  0  0  0  0  0
  -19.5754  -26.6388   21.5218 C   0  0  0  0  0  0
  -18.1935  -26.7918   22.1631 C   0  0  0  0  0  0
  -19.1544  -28.8859   23.2882 C   0  0  0  0  0  0
  -18.9462  -30.1465   23.8894 C   0  0  0  0  0  0
  -17.6464  -30.6578   24.0571 C   0  0  0  0  0  0
  -25.9064  -34.9468   23.5137 C   0  0  0  0  0  0
  -16.5363  -29.9076   23.6322 C   0  0  0  0  0  0
  -16.7291  -28.6486   23.0355 C   0  0  0  0  0  0
  -26.4471  -31.6602   25.0746 C   0  0  0  0  0  0
  -25.3673  -31.3735   26.1445 C   0  0  0  0  0  0
  -27.0315  -30.3022   24.6220 C   0  0  0  0  0  0
  -27.6046  -32.4324   25.7473 C   0  0  0  0  0  0
  -27.5589  -37.1804   24.8468 C   0  0  0  0  0  0
  -21.4176  -29.3051   22.3685 N   0  0  0  0  0  0
  -26.4313  -37.3793   23.9397 N   0  0  0  0  0  0
  -24.6807  -31.0675   22.0989 N   0  0  0  0  0  0
  -23.4198  -28.8215   23.3066 O   0  0  0  0  0  0
  -28.3842  -26.5438   20.1381 O   0  0  0  0  0  0
  -26.5637  -34.8918   22.4704 O   0  0  0  0  0  0
  -23.5384  -32.1442   23.7410 O   0  0  0  0  0  0
  -27.5798  -21.5579   19.5631 C   0  0  0  0  0  0
  -29.1330  -19.3148   19.6957 C   0  0  0  0  0  0
  -28.9925  -21.6659   19.6028 C   0  0  0  0  0  0
  -27.7149  -19.2611   19.6296 C   0  0  0  0  0  0
  -29.9473  -17.9826   19.6306 C   0  0  0  0  0  0
  -29.9993  -17.0960   20.9324 C   0  0  0  0  0  0
  -29.3628  -24.1279   20.2109 C   0  0  0  0  0  0
  -28.3052  -25.1567   19.6551 C   0  0  0  0  0  0
  -26.9410  -20.3642   19.5878 N   0  0  0  0  0  0
  -29.7721  -20.5341   19.6950 N   0  0  0  0  0  0
  -27.0307  -18.0563   19.5344 N   0  0  0  0  0  0
  -29.6299  -22.9146   19.3862 N   0  0  0  0  0  0
  -29.7871  -15.6198   20.7860 N   0  0  0  0  0  0
  -31.4712  -12.5174   19.0966 H   0  0  0  0  0  0
  -30.3789  -11.3669   19.8317 H   0  0  0  0  0  0
  -29.7370  -11.7724   17.4355 H   0  0  0  0  0  0
  -29.6460  -13.4913   17.7262 H   0  0  0  0  0  0
  -27.8327  -11.3134   18.8042 H   0  0  0  0  0  0
  -27.3679  -12.6438   17.7797 H   0  0  0  0  0  0
  -27.6740  -14.2564   19.5385 H   0  0  0  0  0  0
  -28.7030  -12.0091   21.3460 H   0  0  0  0  0  0
  -28.4559  -13.6556   21.8433 H   0  0  0  0  0  0
  -25.2776   -9.5717   22.4770 H   0  0  0  0  0  0
  -24.0091   -7.4665   22.7438 H   0  0  0  0  0  0
  -21.0891   -8.8768   19.8937 H   0  0  0  0  0  0
  -22.3746  -10.9670   19.6107 H   0  0  0  0  0  0
  -21.2036   -7.6174   23.9726 H   0  0  0  0  0  0
  -21.1479   -6.0544   25.9076 H   0  0  0  0  0  0
  -22.0593   -2.7634   23.2857 H   0  0  0  0  0  0
  -22.4152  -11.9695   22.4686 H   0  0  0  0  0  0
  -21.1152  -13.1114   22.2684 H   0  0  0  0  0  0
  -24.6813  -15.8423   20.6243 H   0  0  0  0  0  0
  -26.3012  -15.6589   20.2258 H   0  0  0  0  0  0
  -26.7153  -32.5455   23.1117 H   0  0  0  0  0  0
  -25.0019  -33.9753   25.0428 H   0  0  0  0  0  0
  -22.7053  -31.3035   21.4048 H   0  0  0  0  0  0
  -23.3765  -35.9592   23.3320 H   0  0  0  0  0  0
  -24.3572  -36.8879   22.2045 H   0  0  0  0  0  0
  -23.7219  -37.6486   23.6640 H   0  0  0  0  0  0
  -26.1035  -31.5665   20.6209 H   0  0  0  0  0  0
  -26.8266  -30.8316   22.0219 H   0  0  0  0  0  0
  -28.1110  -29.0230   21.1858 H   0  0  0  0  0  0
  -25.9891  -25.9842   18.9376 H   0  0  0  0  0  0
  -23.9798  -27.3047   19.0107 H   0  0  0  0  0  0
  -23.7336  -30.5849   19.4035 H   0  0  0  0  0  0
  -22.7498  -29.2365   19.8752 H   0  0  0  0  0  0
  -25.1300  -36.1963   25.0841 H   0  0  0  0  0  0
  -20.9994  -28.3268   24.1410 H   0  0  0  0  0  0
  -20.5692  -26.2318   23.3612 H   0  0  0  0  0  0
  -21.6650  -26.7458   22.1199 H   0  0  0  0  0  0
  -19.6919  -25.6304   21.1235 H   0  0  0  0  0  0
  -19.6662  -27.3204   20.6745 H   0  0  0  0  0  0
  -17.4209  -26.6686   21.4023 H   0  0  0  0  0  0
  -18.0329  -26.0047   22.9010 H   0  0  0  0  0  0
  -19.7946  -30.7271   24.2243 H   0  0  0  0  0  0
  -17.5028  -31.6248   24.5172 H   0  0  0  0  0  0
  -15.5360  -30.2977   23.7648 H   0  0  0  0  0  0
  -15.8691  -28.0802   22.7081 H   0  0  0  0  0  0
  -24.5891  -30.7040   25.7760 H   0  0  0  0  0  0
  -24.8792  -32.2891   26.4807 H   0  0  0  0  0  0
  -25.7967  -30.8958   27.0268 H   0  0  0  0  0  0
  -26.2924  -29.6767   24.1210 H   0  0  0  0  0  0
  -27.3969  -29.7277   25.4752 H   0  0  0  0  0  0
  -27.8808  -30.4295   23.9494 H   0  0  0  0  0  0
  -27.2719  -33.3670   26.1993 H   0  0  0  0  0  0
  -28.3860  -32.6816   25.0277 H   0  0  0  0  0  0
  -28.0710  -31.8476   26.5412 H   0  0  0  0  0  0
  -28.2628  -38.0086   24.7543 H   0  0  0  0  0  0
  -28.1077  -36.2633   24.6280 H   0  0  0  0  0  0
  -27.2306  -37.1429   25.8871 H   0  0  0  0  0  0
  -20.9376  -29.8713   21.6822 H   0  0  0  0  0  0
  -26.0202  -38.2872   24.1383 H   0  0  0  0  0  0
  -26.9541  -22.4273   19.4308 H   0  0  0  0  0  0
  -30.9648  -18.1942   19.3033 H   0  0  0  0  0  0
  -29.5322  -17.3943   18.8139 H   0  0  0  0  0  0
  -29.1985  -17.4226   21.5987 H   0  0  0  0  0  0
  -30.9178  -17.3004   21.4858 H   0  0  0  0  0  0
  -29.1030  -23.8412   21.2278 H   0  0  0  0  0  0
  -30.3247  -24.6394   20.2845 H   0  0  0  0  0  0
  -27.3375  -24.7205   19.9027 H   0  0  0  0  0  0
  -28.3736  -25.2066   18.5663 H   0  0  0  0  0  0
  -27.5601  -17.2723   19.1704 H   0  0  0  0  0  0
  -26.0844  -18.0920   19.1713 H   0  0  0  0  0  0
  -29.6374  -23.1481   18.3960 H   0  0  0  0  0  0
  -28.8524  -15.3083   20.9976 H   0  0  0  0  0  0
  1 25  1  0  0  0
  1 30  2  0  0  0
  1 83  1  0  0  0
  2  3  1  0  0  0
  2 25  1  0  0  0
  2 84  1  0  0  0
  2 85  1  0  0  0
  3  4  1  0  0  0
  3 86  1  0  0  0
  3 87  1  0  0  0
  4  5  1  0  0  0
  4 88  1  0  0  0
  4 89  1  0  0  0
  5  6  1  0  0  0
  5 26  1  0  0  0
  5 90  1  0  0  0
  6 25  1  0  0  0
  6 91  1  0  0  0
  6 92  1  0  0  0
  7  8  2  0  0  0
  7 26  1  0  0  0
  7 29  1  0  0  0
  8  9  1  0  0  0
  8 22  1  0  0  0
  9 10  1  0  0  0
  9 27  2  0  0  0
 10 11  2  0  0  0
 10 15  1  0  0  0
 11 12  1  0  0  0
 11 93  1  0  0  0
 12 13  2  0  0  0
 12 94  1  0  0  0
 13 14  1  0  0  0
 13 31  1  0  0  0
 14 15  2  0  0  0
 14 95  1  0  0  0
 15 96  1  0  0  0
 16 17  2  0  0  0
 16 21  1  0  0  0
 16 31  1  0  0  0
 17 18  1  0  0  0
 17 97  1  0  0  0
 18 19  2  0  0  0
 18 98  1  0  0  0
 19 20  1  0  0  0
 19 24  1  0  0  0
 20 21  2  0  0  0
 20 99  1  0  0  0
 21 23  1  0  0  0
 22 28  1  0  0  0
 22 32  2  0  0  0
 26 27  1  0  0  0
 28100  1  0  0  0
 28101  1  0  0  0
 29102  1  0  0  0
 29103  1  0  0  0
 33 34  1  0  0  0
 33 66  1  0  0  0
 33 70  2  0  0  0
 34 36  1  0  0  0
 34 59  1  0  0  0
 34104  1  0  0  0
 35 44  2  0  0  0
 35 45  1  0  0  0
 35 68  1  0  0  0
 36 56  1  0  0  0
 36105  1  0  0  0
 37 39  1  0  0  0
 37 47  1  0  0  0
 37 66  1  0  0  0
 37106  1  0  0  0
 38 43  2  0  0  0
 38 46  1  0  0  0
 38 47  1  0  0  0
 39 64  1  0  0  0
 39 67  2  0  0  0
 40 52  1  0  0  0
 40 53  2  0  0  0
 40 58  1  0  0  0
 41107  1  0  0  0
 41108  1  0  0  0
 41109  1  0  0  0
 41 48  1  0  0  0
 42 43  1  0  0  0
 42 66  1  0  0  0
 42110  1  0  0  0
 42111  1  0  0  0
 43 44  1  0  0  0
 44112  1  0  0  0
 45 46  2  0  0  0
 45113  1  0  0  0
 46114  1  0  0  0
 47115  1  0  0  0
 47116  1  0  0  0
 48 56  1  0  0  0
 48 65  1  0  0  0
 48117  1  0  0  0
 49 50  1  0  0  0
 49 53  1  0  0  0
 49 64  1  0  0  0
 49118  1  0  0  0
 50 51  1  0  0  0
 50119  1  0  0  0
 50120  1  0  0  0
 51 52  1  0  0  0
 51121  1  0  0  0
 51122  1  0  0  0
 52123  1  0  0  0
 52124  1  0  0  0
 53 54  1  0  0  0
 54 55  2  0  0  0
 54125  1  0  0  0
 55 57  1  0  0  0
 55126  1  0  0  0
 56 69  2  0  0  0
 57 58  2  0  0  0
 57127  1  0  0  0
 58128  1  0  0  0
 59 60  1  0  0  0
 59 61  1  0  0  0
 59 62  1  0  0  0
 60129  1  0  0  0
 60130  1  0  0  0
 60131  1  0  0  0
 61132  1  0  0  0
 61133  1  0  0  0
 61134  1  0  0  0
 62135  1  0  0  0
 62136  1  0  0  0
 62137  1  0  0  0
 63 65  1  0  0  0
 63138  1  0  0  0
 63139  1  0  0  0
 63140  1  0  0  0
 64141  1  0  0  0
 65142  1  0  0  0
 68 78  1  0  0  0
 71 73  2  0  0  0
 71 79  1  0  0  0
 71143  1  0  0  0
 72 74  1  0  0  0
 72 75  1  0  0  0
 72 80  2  0  0  0
 73 80  1  0  0  0
 73 82  1  0  0  0
 74 79  2  0  0  0
 74 81  1  0  0  0
 75 76  1  0  0  0
 75144  1  0  0  0
 75145  1  0  0  0
 76 83  1  0  0  0
 76146  1  0  0  0
 76147  1  0  0  0
 77 78  1  0  0  0
 77 82  1  0  0  0
 77148  1  0  0  0
 77149  1  0  0  0
 78150  1  0  0  0
 78151  1  0  0  0
 81152  1  0  0  0
 81153  1  0  0  0
 82154  1  0  0  0
 83155  1  0  0  0
M  ISO  4   1 100  68 101  78 101  83 100
M  END
> <chiral flag>
0

> <version>
0

> <s_m_source_file>
/data/baiqing/PycharmProjects/Reinvent-master-3.2/result/LINK_invent/BTK/process_docking_weight1_custom_product_contain_oxygen_bond_distance_aromatic_linkinvent_7_9_3/rearranged_h_0197.sdf

> <i_m_source_file_index>
40

> <r_mmod_Potential_Energy-OPLS-2005>
-44.6807174682617

> <r_mmod_Stretch_Energy-OPLS-2005>
65.9641494750977

> <r_mmod_Bend_Energy-OPLS-2005>
136.621032714844

> <r_mmod_Torsional_Energy-OPLS-2005>
242.330902099609

> <r_mmod_Improper_Torsional_Energy-OPLS-2005>
13.9402961730957

> <r_mmod_Van_der_Waal_Energy-OPLS-2005>
150.130844116211

> <r_mmod_Electrostatic_Energy-OPLS-2005>
-437.9794921875

> <r_mmod_Solvation_Energy-OPLS-2005>
-251.093109130859

> <b_mmod_Minimization_Converged-OPLS-2005>
0

> <r_mmod_RMS_Derivative-OPLS-2005>
5.79430484771729

$$$$
40
                    3D
 Structure written by MMmdl.
162170  0  0  1  0            999 V2000
  -30.7764  -14.4940   20.5880 C   0  0  0  0  0  0
  -30.4016  -12.3549   19.3898 C   0  0  0  0  0  0
  -29.4685  -12.5826   18.1845 C   0  0  0  0  0  0
  -27.9928  -12.4305   18.6016 C   0  0  0  0  0  0
  -27.6536  -13.2409   19.8803 C   0  0  2  0  0  0
  -28.7169  -13.0355   20.9832 C   0  0  0  0  0  0
  -25.2407  -13.8180   20.5672 C   0  0  0  0  0  0
  -24.1683  -13.0309   20.9051 C   0  0  0  0  0  0
  -24.6379  -11.6850   20.8686 C   0  0  0  0  0  0
  -23.9133  -10.4154   21.0385 C   0  0  0  0  0  0
  -24.3691   -9.4065   21.9141 C   0  0  0  0  0  0
  -23.6300   -8.2131   22.0732 C   0  0  0  0  0  0
  -22.4251   -8.0232   21.3604 C   0  0  0  0  0  0
  -21.9864   -9.0215   20.4736 C   0  0  0  0  0  0
  -22.7283  -10.2030   20.3089 C   0  0  0  0  0  0
  -21.6760   -6.0740   22.5296 C   0  0  0  0  0  0
  -21.3970   -6.5653   23.8229 C   0  0  0  0  0  0
  -21.3674   -5.6802   24.9203 C   0  0  0  0  0  0
  -21.6027   -4.3069   24.7215 C   0  0  0  0  0  0
  -21.8807   -3.8173   23.4338 C   0  0  0  0  0  0
  -21.9149   -4.6970   22.3410 C   0  0  0  0  0  0
  -22.7717  -13.5121   21.1837 C   0  0  0  0  0  0
  -22.1623   -4.2171   21.1005 F   0  0  0  0  0  0
  -21.5693   -3.4560   25.7753 F   0  0  0  0  0  0
  -30.0455  -13.3437   20.4263 N   0  0  0  0  0  0
  -26.2963  -12.9447   20.3467 N   0  0  0  0  0  0
  -25.9348  -11.6530   20.5826 N   0  0  0  0  0  0
  -22.0604  -12.8259   22.0737 N   0  0  0  0  0  0
  -25.3819  -15.1928   20.4240 N   0  0  0  0  0  0
  -31.8516  -14.6652   20.0112 O   0  0  0  0  0  0
  -21.6592   -6.8850   21.4250 O   0  0  0  0  0  0
  -22.3241  -14.5276   20.6584 O   0  0  0  0  0  0
  -24.6086  -31.8630   23.2159 C   0  0  0  0  0  0
  -25.8992  -32.4812   23.8381 C   0  0  1  0  0  0
  -27.2138  -27.4510   20.0522 C   0  0  0  0  0  0
  -25.5778  -33.8608   24.2228 N   0  0  0  0  0  0
  -23.4002  -30.4930   21.5605 C   0  0  2  0  0  0
  -24.8385  -28.9688   20.1162 C   0  0  0  0  0  0
  -22.7428  -29.4624   22.5073 C   0  0  0  0  0  0
  -18.0239  -28.1413   22.8426 C   0  0  0  0  0  0
  -24.1533  -36.7363   23.2610 C   0  0  0  0  0  0
  -25.9301  -30.8343   21.3682 C   0  0  0  0  0  0
  -26.0052  -29.4741   20.7014 C   0  0  0  0  0  0
  -27.2039  -28.7245   20.6627 C   0  0  0  0  0  0
  -26.0377  -26.9574   19.4561 C   0  0  0  0  0  0
  -24.8467  -27.7105   19.4887 C   0  0  0  0  0  0
  -23.6035  -29.8400   20.1727 C   0  0  0  0  0  0
  -25.4125  -36.3113   24.0321 C   0  0  1  0  0  0
  -20.5820  -28.3660   23.1351 C   0  0  2  0  0  0
  -20.6754  -26.9420   22.5455 C   0  0  0  0  0  0
  -19.5779  -26.6397   21.5214 C   0  0  0  0  0  0
  -18.1924  -26.7950   22.1570 C   0  0  0  0  0  0
  -19.1491  -28.8825   23.2873 C   0  0  0  0  0  0
  -18.9445  -30.1398   23.8933 C   0  0  0  0  0  0
  -17.6481  -30.6599   24.0550 C   0  0  0  0  0  0
  -25.9012  -34.9487   23.5077 C   0  0  0  0  0  0
  -16.5342  -29.9138   23.6310 C   0  0  0  0  0  0
  -16.7245  -28.6546   23.0322 C   0  0  0  0  0  0
  -26.4498  -31.6602   25.0694 C   0  0  0  0  0  0
  -25.3819  -31.3763   26.1486 C   0  0  0  0  0  0
  -27.0239  -30.3000   24.6107 C   0  0  0  0  0  0
  -27.6095  -32.4349   25.7427 C   0  0  0  0  0  0
  -27.5632  -37.1840   24.8434 C   0  0  0  0  0  0
  -21.4158  -29.3005   22.3782 N   0  0  0  0  0  0
  -26.4313  -37.3792   23.9405 N   0  0  0  0  0  0
  -24.6660  -31.0755   22.1074 N   0  0  0  0  0  0
  -23.4204  -28.8235   23.3178 O   0  0  0  0  0  0
  -28.3492  -26.6737   20.0246 O   0  0  0  0  0  0
  -26.5713  -34.8930   22.4726 O   0  0  0  0  0  0
  -23.5269  -32.1405   23.7555 O   0  0  0  0  0  0
  -30.5046  -17.8566   21.5358 C   0  0  0  0  0  0
  -28.6240  -19.1831   21.1871 C   0  0  0  0  0  0
  -29.7678  -16.6672   21.2433 C   0  0  0  0  0  0
  -27.8767  -17.9942   20.9250 C   0  0  0  0  0  0
  -27.2604  -20.6454   22.7249 C   0  0  0  0  0  0
  -29.2598  -23.2834   22.8733 C   0  0  0  0  0  0
  -28.8469  -24.2160   20.4789 C   0  0  0  0  0  0
  -28.3032  -25.5924   20.9693 C   0  0  0  0  0  0
  -27.9582  -20.5730   21.3354 C   0  0  1  0  0  0
  -28.5540  -23.0711   21.5076 C   0  0  1  0  0  0
  -29.9490  -19.1004   21.4877 N   0  0  0  0  0  0
  -28.4535  -16.7668   20.9016 N   0  0  0  0  0  0
  -26.4876  -17.9815   20.8047 N   0  0  0  0  0  0
  -30.3933  -15.4049   21.5049 N   0  0  0  0  0  0
  -28.8966  -21.6944   21.0232 N   0  3  0  0  0  0
  -31.4462  -12.4283   19.0791 H   0  0  0  0  0  0
  -30.2599  -11.3355   19.7517 H   0  0  0  0  0  0
  -29.6987  -11.8994   17.3676 H   0  0  0  0  0  0
  -29.6197  -13.5857   17.7761 H   0  0  0  0  0  0
  -27.7858  -11.3719   18.7549 H   0  0  0  0  0  0
  -27.3385  -12.7479   17.7898 H   0  0  0  0  0  0
  -27.6774  -14.2956   19.6099 H   0  0  0  0  0  0
  -28.7142  -11.9975   21.3207 H   0  0  0  0  0  0
  -28.4865  -13.6369   21.8642 H   0  0  0  0  0  0
  -25.2882   -9.5451   22.4656 H   0  0  0  0  0  0
  -24.0027   -7.4505   22.7455 H   0  0  0  0  0  0
  -21.0756   -8.8820   19.9112 H   0  0  0  0  0  0
  -22.3825  -10.9603   19.6208 H   0  0  0  0  0  0
  -21.1952   -7.6175   23.9767 H   0  0  0  0  0  0
  -21.1558   -6.0521   25.9108 H   0  0  0  0  0  0
  -22.0585   -2.7613   23.2845 H   0  0  0  0  0  0
  -22.4502  -12.0264   22.5447 H   0  0  0  0  0  0
  -21.1220  -13.1197   22.3106 H   0  0  0  0  0  0
  -24.5550  -15.7829   20.3569 H   0  0  0  0  0  0
  -26.2399  -15.6514   20.1244 H   0  0  0  0  0  0
  -26.7003  -32.5548   23.1077 H   0  0  0  0  0  0
  -24.9715  -33.9754   25.0231 H   0  0  0  0  0  0
  -22.6875  -31.3112   21.4389 H   0  0  0  0  0  0
  -23.3750  -35.9727   23.3233 H   0  0  0  0  0  0
  -24.3643  -36.9009   22.2021 H   0  0  0  0  0  0
  -23.7354  -37.6602   23.6646 H   0  0  0  0  0  0
  -26.0547  -31.6194   20.6198 H   0  0  0  0  0  0
  -26.8152  -30.8650   21.9946 H   0  0  0  0  0  0
  -28.1108  -29.1177   21.0976 H   0  0  0  0  0  0
  -26.0406  -26.0019   18.9479 H   0  0  0  0  0  0
  -23.9482  -27.3246   19.0268 H   0  0  0  0  0  0
  -23.7213  -30.6312   19.4310 H   0  0  0  0  0  0
  -22.7240  -29.2701   19.8699 H   0  0  0  0  0  0
  -25.1319  -36.1978   25.0814 H   0  0  0  0  0  0
  -20.9782  -28.3187   24.1529 H   0  0  0  0  0  0
  -20.5601  -26.2289   23.3634 H   0  0  0  0  0  0
  -21.6662  -26.7512   22.1310 H   0  0  0  0  0  0
  -19.7003  -25.6308   21.1265 H   0  0  0  0  0  0
  -19.6761  -27.3191   20.6726 H   0  0  0  0  0  0
  -17.4224  -26.6602   21.3952 H   0  0  0  0  0  0
  -18.0346  -26.0139   22.8993 H   0  0  0  0  0  0
  -19.7903  -30.7150   24.2433 H   0  0  0  0  0  0
  -17.5031  -31.6307   24.5134 H   0  0  0  0  0  0
  -15.5322  -30.3066   23.7623 H   0  0  0  0  0  0
  -15.8630  -28.0867   22.7074 H   0  0  0  0  0  0
  -24.6082  -30.6947   25.7945 H   0  0  0  0  0  0
  -24.8918  -32.2934   26.4759 H   0  0  0  0  0  0
  -25.8221  -30.9175   27.0330 H   0  0  0  0  0  0
  -26.2679  -29.6823   24.1204 H   0  0  0  0  0  0
  -27.3984  -29.7225   25.4561 H   0  0  0  0  0  0
  -27.8604  -30.4246   23.9228 H   0  0  0  0  0  0
  -27.2692  -33.3704   26.1901 H   0  0  0  0  0  0
  -28.3919  -32.6780   25.0228 H   0  0  0  0  0  0
  -28.0716  -31.8529   26.5406 H   0  0  0  0  0  0
  -28.2596  -38.0194   24.7470 H   0  0  0  0  0  0
  -28.1196  -36.2704   24.6215 H   0  0  0  0  0  0
  -27.2363  -37.1461   25.8848 H   0  0  0  0  0  0
  -20.9346  -29.8609   21.6889 H   0  0  0  0  0  0
  -26.0203  -38.2894   24.1349 H   0  0  0  0  0  0
  -31.5430  -17.8366   21.8552 H   0  0  0  0  0  0
  -26.3018  -20.1294   22.6630 H   0  0  0  0  0  0
  -27.0019  -21.6335   23.0948 H   0  0  0  0  0  0
  -27.8548  -20.1529   23.4968 H   0  0  0  0  0  0
  -29.1406  -24.2844   23.2790 H   0  0  0  0  0  0
  -30.3295  -23.1011   22.7932 H   0  0  0  0  0  0
  -28.8837  -22.6030   23.6377 H   0  0  0  0  0  0
  -29.9147  -24.2831   20.2637 H   0  0  0  0  0  0
  -28.3711  -23.9852   19.5233 H   0  0  0  0  0  0
  -27.2874  -25.4446   21.3442 H   0  0  0  0  0  0
  -28.8748  -25.9314   21.8309 H   0  0  0  0  0  0
  -27.1855  -20.6397   20.5690 H   0  0  0  0  0  0
  -27.4726  -23.1279   21.6453 H   0  0  0  0  0  0
  -25.9587  -18.7418   21.2141 H   0  0  0  0  0  0
  -26.0276  -17.0954   20.9887 H   0  0  0  0  0  0
  -31.2092  -15.5861   22.0726 H   0  0  0  0  0  0
  -29.7944  -21.4214   21.3953 H   0  0  0  0  0  0
  -28.9996  -21.7150   20.0209 H   0  0  0  0  0  0
  1 25  1  0  0  0
  1 30  2  0  0  0
  1 84  1  0  0  0
  2  3  1  0  0  0
  2 25  1  0  0  0
  2 86  1  0  0  0
  2 87  1  0  0  0
  3  4  1  0  0  0
  3 88  1  0  0  0
  3 89  1  0  0  0
  4  5  1  0  0  0
  4 90  1  0  0  0
  4 91  1  0  0  0
  5  6  1  0  0  0
  5 26  1  0  0  0
  5 92  1  0  0  0
  6 25  1  0  0  0
  6 93  1  0  0  0
  6 94  1  0  0  0
  7  8  2  0  0  0
  7 26  1  0  0  0
  7 29  1  0  0  0
  8  9  1  0  0  0
  8 22  1  0  0  0
  9 10  1  0  0  0
  9 27  2  0  0  0
 10 11  2  0  0  0
 10 15  1  0  0  0
 11 12  1  0  0  0
 11 95  1  0  0  0
 12 13  2  0  0  0
 12 96  1  0  0  0
 13 14  1  0  0  0
 13 31  1  0  0  0
 14 15  2  0  0  0
 14 97  1  0  0  0
 15 98  1  0  0  0
 16 17  2  0  0  0
 16 21  1  0  0  0
 16 31  1  0  0  0
 17 18  1  0  0  0
 17 99  1  0  0  0
 18 19  2  0  0  0
 18100  1  0  0  0
 19 20  1  0  0  0
 19 24  1  0  0  0
 20 21  2  0  0  0
 20101  1  0  0  0
 21 23  1  0  0  0
 22 28  1  0  0  0
 22 32  2  0  0  0
 26 27  1  0  0  0
 28102  1  0  0  0
 28103  1  0  0  0
 29104  1  0  0  0
 29105  1  0  0  0
 33 34  1  0  0  0
 33 66  1  0  0  0
 33 70  2  0  0  0
 34 36  1  0  0  0
 34 59  1  0  0  0
 34106  1  0  0  0
 35 44  2  0  0  0
 35 45  1  0  0  0
 35 68  1  0  0  0
 36 56  1  0  0  0
 36107  1  0  0  0
 37 39  1  0  0  0
 37 47  1  0  0  0
 37 66  1  0  0  0
 37108  1  0  0  0
 38 43  2  0  0  0
 38 46  1  0  0  0
 38 47  1  0  0  0
 39 64  1  0  0  0
 39 67  2  0  0  0
 40 52  1  0  0  0
 40 53  2  0  0  0
 40 58  1  0  0  0
 41109  1  0  0  0
 41110  1  0  0  0
 41111  1  0  0  0
 41 48  1  0  0  0
 42 43  1  0  0  0
 42 66  1  0  0  0
 42112  1  0  0  0
 42113  1  0  0  0
 43 44  1  0  0  0
 44114  1  0  0  0
 45 46  2  0  0  0
 45115  1  0  0  0
 46116  1  0  0  0
 47117  1  0  0  0
 47118  1  0  0  0
 48 56  1  0  0  0
 48 65  1  0  0  0
 48119  1  0  0  0
 49 50  1  0  0  0
 49 53  1  0  0  0
 49 64  1  0  0  0
 49120  1  0  0  0
 50 51  1  0  0  0
 50121  1  0  0  0
 50122  1  0  0  0
 51 52  1  0  0  0
 51123  1  0  0  0
 51124  1  0  0  0
 52125  1  0  0  0
 52126  1  0  0  0
 53 54  1  0  0  0
 54 55  2  0  0  0
 54127  1  0  0  0
 55 57  1  0  0  0
 55128  1  0  0  0
 56 69  2  0  0  0
 57 58  2  0  0  0
 57129  1  0  0  0
 58130  1  0  0  0
 59 60  1  0  0  0
 59 61  1  0  0  0
 59 62  1  0  0  0
 60131  1  0  0  0
 60132  1  0  0  0
 60133  1  0  0  0
 61134  1  0  0  0
 61135  1  0  0  0
 61136  1  0  0  0
 62137  1  0  0  0
 62138  1  0  0  0
 62139  1  0  0  0
 63 65  1  0  0  0
 63140  1  0  0  0
 63141  1  0  0  0
 63142  1  0  0  0
 64143  1  0  0  0
 65144  1  0  0  0
 68 78  1  0  0  0
 71 73  2  0  0  0
 71 81  1  0  0  0
 71145  1  0  0  0
 72 74  1  0  0  0
 72 79  1  0  0  0
 72 81  2  0  0  0
 73 82  1  0  0  0
 73 84  1  0  0  0
 74 82  2  0  0  0
 74 83  1  0  0  0
 75146  1  0  0  0
 75147  1  0  0  0
 75148  1  0  0  0
 75 79  1  0  0  0
 76149  1  0  0  0
 76150  1  0  0  0
 76151  1  0  0  0
 76 80  1  0  0  0
 77 78  1  0  0  0
 77 80  1  0  0  0
 77152  1  0  0  0
 77153  1  0  0  0
 78154  1  0  0  0
 78155  1  0  0  0
 79 85  1  0  0  0
 79156  1  0  0  0
 80 85  1  0  0  0
 80157  1  0  0  0
 83158  1  0  0  0
 83159  1  0  0  0
 84160  1  0  0  0
 85161  1  0  0  0
 85162  1  0  0  0
M  CHG  1  85   1
M  ISO  4   1 100  68 101  78 101  84 100
M  END
> <chiral flag>
0

> <version>
0

> <s_m_source_file>
/data/baiqing/PycharmProjects/Reinvent-master-3.2/result/LINK_invent/BTK/process_docking_weight1_custom_product_contain_oxygen_bond_distance_aromatic_linkinvent_7_9_3/rearranged_h_0197.sdf

> <i_m_source_file_index>
41

> <r_mmod_Potential_Energy-OPLS-2005>
-125.086563110352

> <r_mmod_Stretch_Energy-OPLS-2005>
48.7328643798828

> <r_mmod_Bend_Energy-OPLS-2005>
134.757400512695

> <r_mmod_Torsional_Energy-OPLS-2005>
306.897155761719

> <r_mmod_Improper_Torsional_Energy-OPLS-2005>
14.9676198959351

> <r_mmod_Van_der_Waal_Energy-OPLS-2005>
153.008224487305

> <r_mmod_Electrostatic_Energy-OPLS-2005>
-342.692047119141

> <r_mmod_Solvation_Energy-OPLS-2005>
-458.392120361328

> <b_mmod_Minimization_Converged-OPLS-2005>
0

> <r_mmod_RMS_Derivative-OPLS-2005>
10.1307401657104

$$$$
41
                    3D
 Structure written by MMmdl.
152160  0  0  1  0            999 V2000
  -30.7272  -14.4656   20.5994 C   0  0  0  0  0  0
  -30.4175  -12.3159   19.4215 C   0  0  0  0  0  0
  -29.4911  -12.5094   18.2052 C   0  0  0  0  0  0
  -28.0142  -12.3664   18.6198 C   0  0  0  0  0  0
  -27.6599  -13.2108   19.8732 C   0  0  2  0  0  0
  -28.7014  -13.0040   20.9957 C   0  0  0  0  0  0
  -25.2580  -13.8171   20.5682 C   0  0  0  0  0  0
  -24.1834  -13.0443   20.9181 C   0  0  0  0  0  0
  -24.6391  -11.6911   20.8732 C   0  0  0  0  0  0
  -23.9058  -10.4295   21.0400 C   0  0  0  0  0  0
  -24.3611   -9.4211   21.9179 C   0  0  0  0  0  0
  -23.6289   -8.2244   22.0751 C   0  0  0  0  0  0
  -22.4272   -8.0279   21.3543 C   0  0  0  0  0  0
  -21.9905   -9.0253   20.4646 C   0  0  0  0  0  0
  -22.7229  -10.2134   20.3051 C   0  0  0  0  0  0
  -21.6853   -6.0733   22.5279 C   0  0  0  0  0  0
  -21.4013   -6.5635   23.8212 C   0  0  0  0  0  0
  -21.3660   -5.6788   24.9174 C   0  0  0  0  0  0
  -21.6045   -4.3052   24.7224 C   0  0  0  0  0  0
  -21.8820   -3.8144   23.4345 C   0  0  0  0  0  0
  -21.9195   -4.6961   22.3403 C   0  0  0  0  0  0
  -22.7857  -13.5241   21.1845 C   0  0  0  0  0  0
  -22.1664   -4.2148   21.0980 F   0  0  0  0  0  0
  -21.5629   -3.4535   25.7736 F   0  0  0  0  0  0
  -30.0315  -13.3055   20.4413 N   0  0  0  0  0  0
  -26.3016  -12.9347   20.3360 N   0  0  0  0  0  0
  -25.9320  -11.6503   20.5761 N   0  0  0  0  0  0
  -22.0494  -12.8237   22.0400 N   0  0  0  0  0  0
  -25.4310  -15.1886   20.4085 N   0  0  0  0  0  0
  -31.8343  -14.6466   20.0860 O   0  0  0  0  0  0
  -21.6639   -6.8875   21.4240 O   0  0  0  0  0  0
  -22.3545  -14.5549   20.6693 O   0  0  0  0  0  0
  -24.6159  -31.8675   23.2096 C   0  0  0  0  0  0
  -25.9048  -32.4820   23.8396 C   0  0  1  0  0  0
  -27.2285  -27.4230   20.1022 C   0  0  0  0  0  0
  -25.5903  -33.8618   24.2329 N   0  0  0  0  0  0
  -23.4047  -30.4912   21.5502 C   0  0  2  0  0  0
  -24.8518  -28.9584   20.1121 C   0  0  0  0  0  0
  -22.7419  -29.4655   22.4982 C   0  0  0  0  0  0
  -18.0274  -28.1378   22.8491 C   0  0  0  0  0  0
  -24.1487  -36.7311   23.2638 C   0  0  0  0  0  0
  -25.9354  -30.8303   21.3648 C   0  0  0  0  0  0
  -26.0135  -29.4649   20.7099 C   0  0  0  0  0  0
  -27.2087  -28.7059   20.6991 C   0  0  0  0  0  0
  -26.0546  -26.9409   19.4849 C   0  0  0  0  0  0
  -24.8679  -27.6964   19.4943 C   0  0  0  0  0  0
  -23.6137  -29.8251   20.1643 C   0  0  0  0  0  0
  -25.4107  -36.3111   24.0340 C   0  0  1  0  0  0
  -20.5866  -28.3665   23.1314 C   0  0  2  0  0  0
  -20.6764  -26.9400   22.5417 C   0  0  0  0  0  0
  -19.5744  -26.6384   21.5211 C   0  0  0  0  0  0
  -18.1921  -26.7926   22.1619 C   0  0  0  0  0  0
  -19.1524  -28.8838   23.2899 C   0  0  0  0  0  0
  -18.9451  -30.1446   23.8906 C   0  0  0  0  0  0
  -17.6453  -30.6584   24.0562 C   0  0  0  0  0  0
  -25.9033  -34.9475   23.5131 C   0  0  0  0  0  0
  -16.5345  -29.9084   23.6327 C   0  0  0  0  0  0
  -16.7264  -28.6501   23.0348 C   0  0  0  0  0  0
  -26.4472  -31.6597   25.0725 C   0  0  0  0  0  0
  -25.3740  -31.3707   26.1476 C   0  0  0  0  0  0
  -27.0296  -30.3037   24.6101 C   0  0  0  0  0  0
  -27.6056  -32.4310   25.7480 C   0  0  0  0  0  0
  -27.5583  -37.1806   24.8463 C   0  0  0  0  0  0
  -21.4145  -29.3032   22.3722 N   0  0  0  0  0  0
  -26.4294  -37.3793   23.9411 N   0  0  0  0  0  0
  -24.6702  -31.0772   22.0998 N   0  0  0  0  0  0
  -23.4188  -28.8195   23.3025 O   0  0  0  0  0  0
  -28.3638  -26.6382   20.1165 O   0  0  0  0  0  0
  -26.5591  -34.8926   22.4689 O   0  0  0  0  0  0
  -23.5348  -32.1429   23.7484 O   0  0  0  0  0  0
  -28.7078  -18.3345   21.5011 C   0  0  0  0  0  0
  -30.0344  -17.9972   21.3475 C   0  0  0  0  0  0
  -29.4909  -20.3681   20.8254 C   0  0  0  0  0  0
  -30.7496  -16.7124   21.7103 C   0  0  0  0  0  0
  -28.5651  -22.8306   20.8150 C   0  0  0  0  0  0
  -28.2143  -25.3939   20.8380 C   0  0  0  0  0  0
  -29.0622  -24.2093   20.2857 C   0  0  1  0  0  0
  -28.4158  -19.6819   21.2163 N   0  0  0  0  0  0
  -29.5032  -21.7359   20.5525 N   0  0  0  0  0  0
  -30.1171  -15.4454   21.2963 N   0  0  0  0  0  0
  -30.4081  -24.3454   20.7207 O   0  0  0  0  0  0
  -30.9454  -19.3756   20.7511 S   0  0  0  0  0  0
  -31.4620  -12.4084   19.1187 H   0  0  0  0  0  0
  -30.3160  -11.3070   19.8242 H   0  0  0  0  0  0
  -29.7328  -11.7836   17.4276 H   0  0  0  0  0  0
  -29.6577  -13.4947   17.7668 H   0  0  0  0  0  0
  -27.8285  -11.3106   18.8207 H   0  0  0  0  0  0
  -27.3619  -12.6358   17.7884 H   0  0  0  0  0  0
  -27.7017  -14.2575   19.5713 H   0  0  0  0  0  0
  -28.6794  -11.9717   21.3481 H   0  0  0  0  0  0
  -28.4576  -13.6133   21.8667 H   0  0  0  0  0  0
  -25.2756   -9.5691   22.4751 H   0  0  0  0  0  0
  -24.0004   -7.4636   22.7468 H   0  0  0  0  0  0
  -21.0837   -8.8767   19.8952 H   0  0  0  0  0  0
  -22.3684  -10.9670   19.6158 H   0  0  0  0  0  0
  -21.2001   -7.6144   23.9714 H   0  0  0  0  0  0
  -21.1481   -6.0517   25.9077 H   0  0  0  0  0  0
  -22.0598   -2.7607   23.2844 H   0  0  0  0  0  0
  -22.4103  -11.9897   22.4794 H   0  0  0  0  0  0
  -21.1112  -13.1268   22.2599 H   0  0  0  0  0  0
  -24.6643  -15.8449   20.5081 H   0  0  0  0  0  0
  -26.2821  -15.6216   20.0728 H   0  0  0  0  0  0
  -26.7122  -32.5530   23.1163 H   0  0  0  0  0  0
  -25.0072  -33.9780   25.0487 H   0  0  0  0  0  0
  -22.6934  -31.3080   21.4115 H   0  0  0  0  0  0
  -23.3749  -35.9644   23.3308 H   0  0  0  0  0  0
  -24.3583  -36.8916   22.2051 H   0  0  0  0  0  0
  -23.7238  -37.6520   23.6643 H   0  0  0  0  0  0
  -26.0509  -31.5975   20.5977 H   0  0  0  0  0  0
  -26.8219  -30.8820   21.9850 H   0  0  0  0  0  0
  -28.1049  -29.0896   21.1663 H   0  0  0  0  0  0
  -26.0539  -25.9736   19.0025 H   0  0  0  0  0  0
  -23.9768  -27.3027   19.0251 H   0  0  0  0  0  0
  -23.7208  -30.6007   19.4050 H   0  0  0  0  0  0
  -22.7379  -29.2445   19.8689 H   0  0  0  0  0  0
  -25.1282  -36.1978   25.0833 H   0  0  0  0  0  0
  -20.9958  -28.3232   24.1434 H   0  0  0  0  0  0
  -20.5669  -26.2271   23.3602 H   0  0  0  0  0  0
  -21.6636  -26.7444   22.1210 H   0  0  0  0  0  0
  -19.6905  -25.6297   21.1235 H   0  0  0  0  0  0
  -19.6688  -27.3199   20.6745 H   0  0  0  0  0  0
  -17.4196  -26.6685   21.4014 H   0  0  0  0  0  0
  -18.0315  -26.0062   22.9008 H   0  0  0  0  0  0
  -19.7928  -30.7260   24.2279 H   0  0  0  0  0  0
  -17.5009  -31.6267   24.5159 H   0  0  0  0  0  0
  -15.5345  -30.2988   23.7645 H   0  0  0  0  0  0
  -15.8665  -28.0823   22.7056 H   0  0  0  0  0  0
  -24.5911  -30.7052   25.7819 H   0  0  0  0  0  0
  -24.8930  -32.2861   26.4930 H   0  0  0  0  0  0
  -25.8096  -30.8875   27.0231 H   0  0  0  0  0  0
  -26.2835  -29.6803   24.1156 H   0  0  0  0  0  0
  -27.4067  -29.7268   25.4556 H   0  0  0  0  0  0
  -27.8673  -30.4353   23.9248 H   0  0  0  0  0  0
  -27.2685  -33.3602   26.2087 H   0  0  0  0  0  0
  -28.3846  -32.6881   25.0291 H   0  0  0  0  0  0
  -28.0745  -31.8415   26.5368 H   0  0  0  0  0  0
  -28.2605  -38.0100   24.7516 H   0  0  0  0  0  0
  -28.1073  -36.2633   24.6277 H   0  0  0  0  0  0
  -27.2305  -37.1449   25.8867 H   0  0  0  0  0  0
  -20.9305  -29.8755   21.6946 H   0  0  0  0  0  0
  -26.0187  -38.2874   24.1408 H   0  0  0  0  0  0
  -27.9153  -17.6954   21.8648 H   0  0  0  0  0  0
  -30.8468  -16.6714   22.7959 H   0  0  0  0  0  0
  -31.7771  -16.7694   21.3469 H   0  0  0  0  0  0
  -27.5981  -22.5901   20.3697 H   0  0  0  0  0  0
  -28.3988  -22.8821   21.8925 H   0  0  0  0  0  0
  -28.4522  -25.5722   21.8877 H   0  0  0  0  0  0
  -27.1733  -25.0677   20.8406 H   0  0  0  0  0  0
  -29.0284  -24.2115   19.1947 H   0  0  0  0  0  0
  -30.4134  -22.0930   20.2707 H   0  0  0  0  0  0
  -29.2057  -15.2318   21.6720 H   0  0  0  0  0  0
  -30.4043  -24.2947   21.6714 H   0  0  0  0  0  0
  1 25  1  0  0  0
  1 30  2  0  0  0
  1 80  1  0  0  0
  2  3  1  0  0  0
  2 25  1  0  0  0
  2 83  1  0  0  0
  2 84  1  0  0  0
  3  4  1  0  0  0
  3 85  1  0  0  0
  3 86  1  0  0  0
  4  5  1  0  0  0
  4 87  1  0  0  0
  4 88  1  0  0  0
  5  6  1  0  0  0
  5 26  1  0  0  0
  5 89  1  0  0  0
  6 25  1  0  0  0
  6 90  1  0  0  0
  6 91  1  0  0  0
  7  8  2  0  0  0
  7 26  1  0  0  0
  7 29  1  0  0  0
  8  9  1  0  0  0
  8 22  1  0  0  0
  9 10  1  0  0  0
  9 27  2  0  0  0
 10 11  2  0  0  0
 10 15  1  0  0  0
 11 12  1  0  0  0
 11 92  1  0  0  0
 12 13  2  0  0  0
 12 93  1  0  0  0
 13 14  1  0  0  0
 13 31  1  0  0  0
 14 15  2  0  0  0
 14 94  1  0  0  0
 15 95  1  0  0  0
 16 17  2  0  0  0
 16 21  1  0  0  0
 16 31  1  0  0  0
 17 18  1  0  0  0
 17 96  1  0  0  0
 18 19  2  0  0  0
 18 97  1  0  0  0
 19 20  1  0  0  0
 19 24  1  0  0  0
 20 21  2  0  0  0
 20 98  1  0  0  0
 21 23  1  0  0  0
 22 28  1  0  0  0
 22 32  2  0  0  0
 26 27  1  0  0  0
 28 99  1  0  0  0
 28100  1  0  0  0
 29101  1  0  0  0
 29102  1  0  0  0
 33 34  1  0  0  0
 33 66  1  0  0  0
 33 70  2  0  0  0
 34 36  1  0  0  0
 34 59  1  0  0  0
 34103  1  0  0  0
 35 44  2  0  0  0
 35 45  1  0  0  0
 35 68  1  0  0  0
 36 56  1  0  0  0
 36104  1  0  0  0
 37 39  1  0  0  0
 37 47  1  0  0  0
 37 66  1  0  0  0
 37105  1  0  0  0
 38 43  2  0  0  0
 38 46  1  0  0  0
 38 47  1  0  0  0
 39 64  1  0  0  0
 39 67  2  0  0  0
 40 52  1  0  0  0
 40 53  2  0  0  0
 40 58  1  0  0  0
 41106  1  0  0  0
 41107  1  0  0  0
 41108  1  0  0  0
 41 48  1  0  0  0
 42 43  1  0  0  0
 42 66  1  0  0  0
 42109  1  0  0  0
 42110  1  0  0  0
 43 44  1  0  0  0
 44111  1  0  0  0
 45 46  2  0  0  0
 45112  1  0  0  0
 46113  1  0  0  0
 47114  1  0  0  0
 47115  1  0  0  0
 48 56  1  0  0  0
 48 65  1  0  0  0
 48116  1  0  0  0
 49 50  1  0  0  0
 49 53  1  0  0  0
 49 64  1  0  0  0
 49117  1  0  0  0
 50 51  1  0  0  0
 50118  1  0  0  0
 50119  1  0  0  0
 51 52  1  0  0  0
 51120  1  0  0  0
 51121  1  0  0  0
 52122  1  0  0  0
 52123  1  0  0  0
 53 54  1  0  0  0
 54 55  2  0  0  0
 54124  1  0  0  0
 55 57  1  0  0  0
 55125  1  0  0  0
 56 69  2  0  0  0
 57 58  2  0  0  0
 57126  1  0  0  0
 58127  1  0  0  0
 59 60  1  0  0  0
 59 61  1  0  0  0
 59 62  1  0  0  0
 60128  1  0  0  0
 60129  1  0  0  0
 60130  1  0  0  0
 61131  1  0  0  0
 61132  1  0  0  0
 61133  1  0  0  0
 62134  1  0  0  0
 62135  1  0  0  0
 62136  1  0  0  0
 63 65  1  0  0  0
 63137  1  0  0  0
 63138  1  0  0  0
 63139  1  0  0  0
 64140  1  0  0  0
 65141  1  0  0  0
 68 76  1  0  0  0
 71 72  2  0  0  0
 71 78  1  0  0  0
 71142  1  0  0  0
 72 74  1  0  0  0
 72 82  1  0  0  0
 73 78  2  0  0  0
 73 79  1  0  0  0
 73 82  1  0  0  0
 74 80  1  0  0  0
 74143  1  0  0  0
 74144  1  0  0  0
 75 77  1  0  0  0
 75 79  1  0  0  0
 75145  1  0  0  0
 75146  1  0  0  0
 76 77  1  0  0  0
 76147  1  0  0  0
 76148  1  0  0  0
 77 81  1  0  0  0
 77149  1  0  0  0
 79150  1  0  0  0
 80151  1  0  0  0
 81152  1  0  0  0
M  ISO  4   1 100  68 101  76 101  80 100
M  END
> <chiral flag>
0

> <version>
0

> <s_m_source_file>
/data/baiqing/PycharmProjects/Reinvent-master-3.2/result/LINK_invent/BTK/process_docking_weight1_custom_product_contain_oxygen_bond_distance_aromatic_linkinvent_7_9_3/rearranged_h_0197.sdf

> <i_m_source_file_index>
42

> <r_mmod_Potential_Energy-OPLS-2005>
-203.585586547852

> <r_mmod_Stretch_Energy-OPLS-2005>
37.3699645996094

> <r_mmod_Bend_Energy-OPLS-2005>
92.718864440918

> <r_mmod_Torsional_Energy-OPLS-2005>
235.400360107422

> <r_mmod_Improper_Torsional_Energy-OPLS-2005>
3.01354026794434

> <r_mmod_Van_der_Waal_Energy-OPLS-2005>
131.488494873047

> <r_mmod_Electrostatic_Energy-OPLS-2005>
-469.348663330078

> <r_mmod_Solvation_Energy-OPLS-2005>
-248.008026123047

> <b_mmod_Minimization_Converged-OPLS-2005>
0

> <r_mmod_RMS_Derivative-OPLS-2005>
0.319778501987457

$$$$
42
                    3D
 Structure written by MMmdl.
156164  0  0  1  0            999 V2000
  -30.6140  -14.7709   20.4662 C   0  0  0  0  0  0
  -30.4347  -12.4767   19.4625 C   0  0  0  0  0  0
  -29.5074  -12.5048   18.2284 C   0  0  0  0  0  0
  -28.0354  -12.3229   18.6485 C   0  0  0  0  0  0
  -27.6370  -13.2316   19.8420 C   0  0  2  0  0  0
  -28.6865  -13.1876   20.9733 C   0  0  0  0  0  0
  -25.2494  -13.8190   20.5694 C   0  0  0  0  0  0
  -24.1795  -13.0433   20.9219 C   0  0  0  0  0  0
  -24.6390  -11.6912   20.8757 C   0  0  0  0  0  0
  -23.9069  -10.4288   21.0413 C   0  0  0  0  0  0
  -24.3621   -9.4203   21.9188 C   0  0  0  0  0  0
  -23.6295   -8.2239   22.0754 C   0  0  0  0  0  0
  -22.4276   -8.0279   21.3544 C   0  0  0  0  0  0
  -21.9914   -9.0252   20.4646 C   0  0  0  0  0  0
  -22.7243  -10.2131   20.3058 C   0  0  0  0  0  0
  -21.6852   -6.0734   22.5278 C   0  0  0  0  0  0
  -21.4015   -6.5640   23.8212 C   0  0  0  0  0  0
  -21.3659   -5.6792   24.9175 C   0  0  0  0  0  0
  -21.6044   -4.3055   24.7226 C   0  0  0  0  0  0
  -21.8819   -3.8146   23.4347 C   0  0  0  0  0  0
  -21.9193   -4.6962   22.3402 C   0  0  0  0  0  0
  -22.7817  -13.5214   21.1875 C   0  0  0  0  0  0
  -22.1662   -4.2149   21.0979 F   0  0  0  0  0  0
  -21.5628   -3.4538   25.7738 F   0  0  0  0  0  0
  -29.9783  -13.5489   20.3770 N   0  0  0  0  0  0
  -26.2916  -12.9397   20.3257 N   0  0  0  0  0  0
  -25.9317  -11.6542   20.5750 N   0  0  0  0  0  0
  -22.0463  -12.8202   22.0431 N   0  0  0  0  0  0
  -25.4146  -15.1919   20.4091 N   0  0  0  0  0  0
  -31.8221  -14.8303   20.2076 O   0  0  0  0  0  0
  -21.6639   -6.8876   21.4240 O   0  0  0  0  0  0
  -22.3505  -14.5519   20.6719 O   0  0  0  0  0  0
  -24.6350  -31.8544   23.1984 C   0  0  0  0  0  0
  -25.9165  -32.4749   23.8334 C   0  0  1  0  0  0
  -27.2106  -27.2350   20.1258 C   0  0  0  0  0  0
  -25.5950  -33.8551   24.2254 N   0  0  0  0  0  0
  -23.4322  -30.4795   21.5433 C   0  0  2  0  0  0
  -24.8768  -28.9280   20.1116 C   0  0  0  0  0  0
  -22.7522  -29.4603   22.4903 C   0  0  0  0  0  0
  -18.0298  -28.1390   22.8482 C   0  0  0  0  0  0
  -24.1491  -36.7277   23.2640 C   0  0  0  0  0  0
  -25.9827  -30.7591   21.3833 C   0  0  0  0  0  0
  -26.0533  -29.3811   20.7220 C   0  0  0  0  0  0
  -27.2242  -28.5489   20.7162 C   0  0  0  0  0  0
  -26.0076  -26.8668   19.4787 C   0  0  0  0  0  0
  -24.8611  -27.6800   19.4782 C   0  0  0  0  0  0
  -23.6513  -29.8195   20.1583 C   0  0  0  0  0  0
  -25.4118  -36.3063   24.0326 C   0  0  1  0  0  0
  -20.5904  -28.3707   23.1256 C   0  0  2  0  0  0
  -20.6786  -26.9420   22.5403 C   0  0  0  0  0  0
  -19.5758  -26.6385   21.5210 C   0  0  0  0  0  0
  -18.1939  -26.7931   22.1624 C   0  0  0  0  0  0
  -19.1552  -28.8864   23.2864 C   0  0  0  0  0  0
  -18.9471  -30.1464   23.8884 C   0  0  0  0  0  0
  -17.6470  -30.6588   24.0561 C   0  0  0  0  0  0
  -25.9063  -34.9435   23.5090 C   0  0  0  0  0  0
  -16.5361  -29.9084   23.6330 C   0  0  0  0  0  0
  -16.7283  -28.6503   23.0353 C   0  0  0  0  0  0
  -26.4515  -31.6578   25.0731 C   0  0  0  0  0  0
  -25.3726  -31.3737   26.1441 C   0  0  0  0  0  0
  -27.0371  -30.2991   24.6243 C   0  0  0  0  0  0
  -27.6062  -32.4325   25.7510 C   0  0  0  0  0  0
  -27.5577  -37.1797   24.8467 C   0  0  0  0  0  0
  -21.4227  -29.3051   22.3644 N   0  0  0  0  0  0
  -26.4291  -37.3766   23.9408 N   0  0  0  0  0  0
  -24.7027  -31.0492   22.0974 N   0  0  0  0  0  0
  -23.4214  -28.8134   23.3002 O   0  0  0  0  0  0
  -28.2873  -26.3054   20.1739 O   0  0  0  0  0  0
  -26.5633  -34.8915   22.4658 O   0  0  0  0  0  0
  -23.5492  -32.1377   23.7264 O   0  0  0  0  0  0
  -30.4976  -19.8225   21.8704 C   0  0  0  0  0  0
  -31.0669  -18.6831   22.4563 C   0  0  0  0  0  0
  -29.6875  -19.6553   20.7479 C   0  0  0  0  0  0
  -30.0982  -17.2832   20.8951 C   0  0  0  0  0  0
  -31.9562  -18.7986   23.6753 C   0  0  0  0  0  0
  -28.0717  -21.9415   22.0762 C   0  0  0  0  0  0
  -29.0192  -23.5829   20.2701 C   0  0  0  0  0  0
  -27.9580  -24.8242   20.2399 C   0  0  0  0  0  0
  -28.4734  -22.0727   20.5964 C   0  0  1  0  0  0
  -30.8667  -17.4414   21.9698 N   0  0  0  0  0  0
  -29.4938  -18.3602   20.2787 N   0  0  0  0  0  0
  -29.1791  -20.8242   20.0562 N   0  0  0  0  0  0
  -29.8293  -15.9226   20.5294 N   0  0  0  0  0  0
  -31.4725  -12.6108   19.1520 H   0  0  0  0  0  0
  -30.3931  -11.5061   19.9589 H   0  0  0  0  0  0
  -29.7938  -11.7244   17.5219 H   0  0  0  0  0  0
  -29.6248  -13.4531   17.7012 H   0  0  0  0  0  0
  -27.8999  -11.2760   18.9220 H   0  0  0  0  0  0
  -27.3747  -12.5026   17.7992 H   0  0  0  0  0  0
  -27.6209  -14.2473   19.4478 H   0  0  0  0  0  0
  -28.7336  -12.1956   21.4248 H   0  0  0  0  0  0
  -28.4203  -13.8786   21.7751 H   0  0  0  0  0  0
  -25.2765   -9.5680   22.4763 H   0  0  0  0  0  0
  -24.0002   -7.4631   22.7474 H   0  0  0  0  0  0
  -21.0845   -8.8772   19.8952 H   0  0  0  0  0  0
  -22.3702  -10.9671   19.6168 H   0  0  0  0  0  0
  -21.2007   -7.6148   23.9716 H   0  0  0  0  0  0
  -21.1482   -6.0523   25.9078 H   0  0  0  0  0  0
  -22.0599   -2.7608   23.2847 H   0  0  0  0  0  0
  -22.4082  -11.9865   22.4819 H   0  0  0  0  0  0
  -21.1077  -13.1222   22.2633 H   0  0  0  0  0  0
  -24.6365  -15.8348   20.5113 H   0  0  0  0  0  0
  -26.2429  -15.6364   20.0369 H   0  0  0  0  0  0
  -26.7230  -32.5390   23.1073 H   0  0  0  0  0  0
  -25.0092  -33.9682   25.0398 H   0  0  0  0  0  0
  -22.7303  -31.3031   21.3983 H   0  0  0  0  0  0
  -23.3754  -35.9607   23.3299 H   0  0  0  0  0  0
  -24.3578  -36.8905   22.2055 H   0  0  0  0  0  0
  -23.7242  -37.6477   23.6668 H   0  0  0  0  0  0
  -26.1279  -31.5202   20.6154 H   0  0  0  0  0  0
  -26.8579  -30.8048   22.0195 H   0  0  0  0  0  0
  -28.1231  -28.8899   21.2103 H   0  0  0  0  0  0
  -25.9042  -25.9279   18.9611 H   0  0  0  0  0  0
  -23.9634  -27.3306   18.9871 H   0  0  0  0  0  0
  -23.7815  -30.5984   19.4060 H   0  0  0  0  0  0
  -22.7680  -29.2581   19.8487 H   0  0  0  0  0  0
  -25.1299  -36.1908   25.0818 H   0  0  0  0  0  0
  -20.9997  -28.3285   24.1375 H   0  0  0  0  0  0
  -20.5688  -26.2315   23.3612 H   0  0  0  0  0  0
  -21.6652  -26.7441   22.1192 H   0  0  0  0  0  0
  -19.6918  -25.6294   21.1244 H   0  0  0  0  0  0
  -19.6690  -27.3192   20.6736 H   0  0  0  0  0  0
  -17.4207  -26.6674   21.4031 H   0  0  0  0  0  0
  -18.0338  -26.0079   22.9026 H   0  0  0  0  0  0
  -19.7948  -30.7280   24.2251 H   0  0  0  0  0  0
  -17.5024  -31.6268   24.5164 H   0  0  0  0  0  0
  -15.5361  -30.2980   23.7665 H   0  0  0  0  0  0
  -15.8684  -28.0818   22.7070 H   0  0  0  0  0  0
  -24.5915  -30.7070   25.7770 H   0  0  0  0  0  0
  -24.8898  -32.2906   26.4832 H   0  0  0  0  0  0
  -25.8030  -30.8943   27.0241 H   0  0  0  0  0  0
  -26.2967  -29.6730   24.1250 H   0  0  0  0  0  0
  -27.4021  -29.7264   25.4778 H   0  0  0  0  0  0
  -27.8857  -30.4256   23.9518 H   0  0  0  0  0  0
  -27.2669  -33.3639   26.2056 H   0  0  0  0  0  0
  -28.3890  -32.6863   25.0349 H   0  0  0  0  0  0
  -28.0709  -31.8469   26.5453 H   0  0  0  0  0  0
  -28.2593  -38.0097   24.7511 H   0  0  0  0  0  0
  -28.1076  -36.2625   24.6295 H   0  0  0  0  0  0
  -27.2293  -37.1444   25.8871 H   0  0  0  0  0  0
  -20.9417  -29.8785   21.6855 H   0  0  0  0  0  0
  -26.0166  -38.2837   24.1411 H   0  0  0  0  0  0
  -30.7175  -20.8051   22.2620 H   0  0  0  0  0  0
  -31.6038  -19.5917   24.3347 H   0  0  0  0  0  0
  -32.9784  -19.0301   23.3771 H   0  0  0  0  0  0
  -31.9676  -17.8702   24.2467 H   0  0  0  0  0  0
  -27.3468  -22.7068   22.3541 H   0  0  0  0  0  0
  -28.9234  -22.0588   22.7453 H   0  0  0  0  0  0
  -27.6054  -20.9780   22.2848 H   0  0  0  0  0  0
  -29.8070  -23.8212   20.9847 H   0  0  0  0  0  0
  -29.5135  -23.5646   19.2987 H   0  0  0  0  0  0
  -27.3027  -24.7105   21.1038 H   0  0  0  0  0  0
  -27.3463  -24.5751   19.3771 H   0  0  0  0  0  0
  -27.5281  -22.0258   20.0530 H   0  0  0  0  0  0
  -28.8275  -20.5694   19.1382 H   0  0  0  0  0  0
  -28.8528  -15.7448   20.3765 H   0  0  0  0  0  0
  1 25  1  0  0  0
  1 30  2  0  0  0
  1 83  1  0  0  0
  2  3  1  0  0  0
  2 25  1  0  0  0
  2 84  1  0  0  0
  2 85  1  0  0  0
  3  4  1  0  0  0
  3 86  1  0  0  0
  3 87  1  0  0  0
  4  5  1  0  0  0
  4 88  1  0  0  0
  4 89  1  0  0  0
  5  6  1  0  0  0
  5 26  1  0  0  0
  5 90  1  0  0  0
  6 25  1  0  0  0
  6 91  1  0  0  0
  6 92  1  0  0  0
  7  8  2  0  0  0
  7 26  1  0  0  0
  7 29  1  0  0  0
  8  9  1  0  0  0
  8 22  1  0  0  0
  9 10  1  0  0  0
  9 27  2  0  0  0
 10 11  2  0  0  0
 10 15  1  0  0  0
 11 12  1  0  0  0
 11 93  1  0  0  0
 12 13  2  0  0  0
 12 94  1  0  0  0
 13 14  1  0  0  0
 13 31  1  0  0  0
 14 15  2  0  0  0
 14 95  1  0  0  0
 15 96  1  0  0  0
 16 17  2  0  0  0
 16 21  1  0  0  0
 16 31  1  0  0  0
 17 18  1  0  0  0
 17 97  1  0  0  0
 18 19  2  0  0  0
 18 98  1  0  0  0
 19 20  1  0  0  0
 19 24  1  0  0  0
 20 21  2  0  0  0
 20 99  1  0  0  0
 21 23  1  0  0  0
 22 28  1  0  0  0
 22 32  2  0  0  0
 26 27  1  0  0  0
 28100  1  0  0  0
 28101  1  0  0  0
 29102  1  0  0  0
 29103  1  0  0  0
 33 34  1  0  0  0
 33 66  1  0  0  0
 33 70  2  0  0  0
 34 36  1  0  0  0
 34 59  1  0  0  0
 34104  1  0  0  0
 35 44  2  0  0  0
 35 45  1  0  0  0
 35 68  1  0  0  0
 36 56  1  0  0  0
 36105  1  0  0  0
 37 39  1  0  0  0
 37 47  1  0  0  0
 37 66  1  0  0  0
 37106  1  0  0  0
 38 43  2  0  0  0
 38 46  1  0  0  0
 38 47  1  0  0  0
 39 64  1  0  0  0
 39 67  2  0  0  0
 40 52  1  0  0  0
 40 53  2  0  0  0
 40 58  1  0  0  0
 41107  1  0  0  0
 41108  1  0  0  0
 41109  1  0  0  0
 41 48  1  0  0  0
 42 43  1  0  0  0
 42 66  1  0  0  0
 42110  1  0  0  0
 42111  1  0  0  0
 43 44  1  0  0  0
 44112  1  0  0  0
 45 46  2  0  0  0
 45113  1  0  0  0
 46114  1  0  0  0
 47115  1  0  0  0
 47116  1  0  0  0
 48 56  1  0  0  0
 48 65  1  0  0  0
 48117  1  0  0  0
 49 50  1  0  0  0
 49 53  1  0  0  0
 49 64  1  0  0  0
 49118  1  0  0  0
 50 51  1  0  0  0
 50119  1  0  0  0
 50120  1  0  0  0
 51 52  1  0  0  0
 51121  1  0  0  0
 51122  1  0  0  0
 52123  1  0  0  0
 52124  1  0  0  0
 53 54  1  0  0  0
 54 55  2  0  0  0
 54125  1  0  0  0
 55 57  1  0  0  0
 55126  1  0  0  0
 56 69  2  0  0  0
 57 58  2  0  0  0
 57127  1  0  0  0
 58128  1  0  0  0
 59 60  1  0  0  0
 59 61  1  0  0  0
 59 62  1  0  0  0
 60129  1  0  0  0
 60130  1  0  0  0
 60131  1  0  0  0
 61132  1  0  0  0
 61133  1  0  0  0
 61134  1  0  0  0
 62135  1  0  0  0
 62136  1  0  0  0
 62137  1  0  0  0
 63 65  1  0  0  0
 63138  1  0  0  0
 63139  1  0  0  0
 63140  1  0  0  0
 64141  1  0  0  0
 65142  1  0  0  0
 68 78  1  0  0  0
 71 72  2  0  0  0
 71 73  1  0  0  0
 71143  1  0  0  0
 72 75  1  0  0  0
 72 80  1  0  0  0
 73 81  2  0  0  0
 73 82  1  0  0  0
 74 80  2  0  0  0
 74 81  1  0  0  0
 74 83  1  0  0  0
 75144  1  0  0  0
 75145  1  0  0  0
 75146  1  0  0  0
 76147  1  0  0  0
 76148  1  0  0  0
 76149  1  0  0  0
 76 79  1  0  0  0
 77 78  1  0  0  0
 77 79  1  0  0  0
 77150  1  0  0  0
 77151  1  0  0  0
 78152  1  0  0  0
 78153  1  0  0  0
 79 82  1  0  0  0
 79154  1  0  0  0
 82155  1  0  0  0
 83156  1  0  0  0
M  ISO  4   1 100  68 101  78 101  83 100
M  END
> <chiral flag>
0

> <version>
0

> <s_m_source_file>
/data/baiqing/PycharmProjects/Reinvent-master-3.2/result/LINK_invent/BTK/process_docking_weight1_custom_product_contain_oxygen_bond_distance_aromatic_linkinvent_7_9_3/rearranged_h_0197.sdf

> <i_m_source_file_index>
43

> <r_mmod_Potential_Energy-OPLS-2005>
-232.902328491211

> <r_mmod_Stretch_Energy-OPLS-2005>
134.895141601562

> <r_mmod_Bend_Energy-OPLS-2005>
200.76399230957

> <r_mmod_Torsional_Energy-OPLS-2005>
239.475570678711

> <r_mmod_Improper_Torsional_Energy-OPLS-2005>
11.3889169692993

> <r_mmod_Van_der_Waal_Energy-OPLS-2005>
146.634841918945

> <r_mmod_Electrostatic_Energy-OPLS-2005>
-825.770324707031

> <r_mmod_Solvation_Energy-OPLS-2005>
-241.956649780273

> <b_mmod_Minimization_Converged-OPLS-2005>
0

> <r_mmod_RMS_Derivative-OPLS-2005>
0.58773285150528

$$$$
43
                    3D
 Structure written by MMmdl.
162170  0  0  1  0            999 V2000
  -30.5830  -14.7849   20.4613 C   0  0  0  0  0  0
  -30.4255  -12.4787   19.4834 C   0  0  0  0  0  0
  -29.5062  -12.5161   18.2424 C   0  0  0  0  0  0
  -28.0289  -12.3455   18.6488 C   0  0  0  0  0  0
  -27.6336  -13.2393   19.8525 C   0  0  2  0  0  0
  -28.6748  -13.1703   20.9876 C   0  0  0  0  0  0
  -25.2450  -13.8197   20.5693 C   0  0  0  0  0  0
  -24.1752  -13.0421   20.9184 C   0  0  0  0  0  0
  -24.6365  -11.6907   20.8724 C   0  0  0  0  0  0
  -23.9041  -10.4283   21.0389 C   0  0  0  0  0  0
  -24.3606   -9.4192   21.9169 C   0  0  0  0  0  0
  -23.6286   -8.2223   22.0741 C   0  0  0  0  0  0
  -22.4265   -8.0256   21.3519 C   0  0  0  0  0  0
  -21.9907   -9.0218   20.4627 C   0  0  0  0  0  0
  -22.7222  -10.2108   20.3033 C   0  0  0  0  0  0
  -21.6844   -6.0723   22.5267 C   0  0  0  0  0  0
  -21.4024   -6.5626   23.8188 C   0  0  0  0  0  0
  -21.3670   -5.6781   24.9162 C   0  0  0  0  0  0
  -21.6043   -4.3059   24.7223 C   0  0  0  0  0  0
  -21.8818   -3.8136   23.4336 C   0  0  0  0  0  0
  -21.9188   -4.6940   22.3394 C   0  0  0  0  0  0
  -22.7783  -13.5188   21.1900 C   0  0  0  0  0  0
  -22.1657   -4.2137   21.0972 F   0  0  0  0  0  0
  -21.5632   -3.4543   25.7737 F   0  0  0  0  0  0
  -29.9666  -13.5478   20.4070 N   0  0  0  0  0  0
  -26.2886  -12.9412   20.3275 N   0  0  0  0  0  0
  -25.9295  -11.6554   20.5748 N   0  0  0  0  0  0
  -22.0492  -12.8111   22.0453 N   0  0  0  0  0  0
  -25.4128  -15.1911   20.4163 N   0  0  0  0  0  0
  -31.7695  -14.8713   20.1306 O   0  0  0  0  0  0
  -21.6628   -6.8852   21.4225 O   0  0  0  0  0  0
  -22.3445  -14.5493   20.6766 O   0  0  0  0  0  0
  -24.6304  -31.8581   23.1977 C   0  0  0  0  0  0
  -25.9153  -32.4794   23.8339 C   0  0  1  0  0  0
  -27.2105  -27.2664   20.1344 C   0  0  0  0  0  0
  -25.5956  -33.8602   24.2255 N   0  0  0  0  0  0
  -23.4261  -30.4809   21.5386 C   0  0  2  0  0  0
  -24.8739  -28.9264   20.1122 C   0  0  0  0  0  0
  -22.7503  -29.4623   22.4894 C   0  0  0  0  0  0
  -18.0295  -28.1425   22.8489 C   0  0  0  0  0  0
  -24.1470  -36.7313   23.2632 C   0  0  0  0  0  0
  -25.9714  -30.7661   21.3837 C   0  0  0  0  0  0
  -26.0399  -29.3872   20.7361 C   0  0  0  0  0  0
  -27.2096  -28.5603   20.7539 C   0  0  0  0  0  0
  -26.0461  -26.8988   19.4412 C   0  0  0  0  0  0
  -24.8795  -27.6853   19.4602 C   0  0  0  0  0  0
  -23.6441  -29.8111   20.1572 C   0  0  0  0  0  0
  -25.4085  -36.3083   24.0326 C   0  0  1  0  0  0
  -20.5893  -28.3722   23.1303 C   0  0  2  0  0  0
  -20.6768  -26.9431   22.5435 C   0  0  0  0  0  0
  -19.5724  -26.6369   21.5270 C   0  0  0  0  0  0
  -18.1896  -26.7978   22.1621 C   0  0  0  0  0  0
  -19.1546  -28.8886   23.2899 C   0  0  0  0  0  0
  -18.9493  -30.1503   23.8906 C   0  0  0  0  0  0
  -17.6482  -30.6624   24.0584 C   0  0  0  0  0  0
  -25.9044  -34.9470   23.5082 C   0  0  0  0  0  0
  -16.5375  -29.9120   23.6376 C   0  0  0  0  0  0
  -16.7290  -28.6553   23.0385 C   0  0  0  0  0  0
  -26.4478  -31.6679   25.0790 C   0  0  0  0  0  0
  -25.3665  -31.3952   26.1517 C   0  0  0  0  0  0
  -27.0336  -30.3086   24.6310 C   0  0  0  0  0  0
  -27.5995  -32.4478   25.7558 C   0  0  0  0  0  0
  -27.5573  -37.1786   24.8441 C   0  0  0  0  0  0
  -21.4190  -29.3107   22.3696 N   0  0  0  0  0  0
  -26.4237  -37.3787   23.9454 N   0  0  0  0  0  0
  -24.6938  -31.0540   22.0971 N   0  0  0  0  0  0
  -23.4218  -28.8123   23.2959 O   0  0  0  0  0  0
  -28.2815  -26.3466   20.1285 O   0  0  0  0  0  0
  -26.5551  -34.8922   22.4606 O   0  0  0  0  0  0
  -23.5463  -32.1400   23.7300 O   0  0  0  0  0  0
  -27.5577  -20.3988   20.8166 C   0  0  0  0  0  0
  -28.7559  -21.0136   20.5411 C   0  0  0  0  0  0
  -29.3825  -18.6668   20.5763 C   0  0  0  0  0  0
  -26.8926  -23.4800   19.3387 C   0  0  0  0  0  0
  -24.4661  -22.8257   18.6883 C   0  0  0  0  0  0
  -29.4215  -26.5179   22.7465 C   0  0  0  0  0  0
  -30.3390  -17.3946   20.5346 C   0  0  0  0  0  0
  -25.4099  -23.4337   19.7443 C   0  0  0  0  0  0
  -29.3658  -25.1950   21.9592 C   0  0  0  0  0  0
  -27.9045  -23.5589   20.4900 C   0  0  2  0  0  0
  -28.1812  -25.1096   20.9763 C   0  0  2  0  0  0
  -29.7625  -19.9861   20.4016 N   0  0  0  0  0  0
  -28.9696  -22.4684   20.4328 N   0  0  0  0  0  0
  -29.8360  -15.9440   20.6778 N   0  0  0  0  0  0
  -27.2319  -23.4623   18.1521 O   0  0  0  0  0  0
  -27.6533  -18.6333   20.9079 S   0  0  0  0  0  0
  -31.4667  -12.6089   19.1816 H   0  0  0  0  0  0
  -30.3757  -11.5047   19.9727 H   0  0  0  0  0  0
  -29.7892  -11.7373   17.5346 H   0  0  0  0  0  0
  -29.6342  -13.4653   17.7216 H   0  0  0  0  0  0
  -27.8762  -11.2968   18.9055 H   0  0  0  0  0  0
  -27.3756  -12.5457   17.7983 H   0  0  0  0  0  0
  -27.6245  -14.2624   19.4746 H   0  0  0  0  0  0
  -28.7226  -12.1602   21.3996 H   0  0  0  0  0  0
  -28.4062  -13.8313   21.8124 H   0  0  0  0  0  0
  -25.2769   -9.5670   22.4717 H   0  0  0  0  0  0
  -23.9994   -7.4627   22.7471 H   0  0  0  0  0  0
  -21.0823   -8.8715   19.8943 H   0  0  0  0  0  0
  -22.3661  -10.9626   19.6117 H   0  0  0  0  0  0
  -21.2016   -7.6135   23.9690 H   0  0  0  0  0  0
  -21.1504   -6.0526   25.9062 H   0  0  0  0  0  0
  -22.0592   -2.7602   23.2835 H   0  0  0  0  0  0
  -22.4175  -11.9752   22.4737 H   0  0  0  0  0  0
  -21.1122  -13.1092   22.2789 H   0  0  0  0  0  0
  -24.6452  -15.8464   20.5261 H   0  0  0  0  0  0
  -26.2602  -15.6323   20.0823 H   0  0  0  0  0  0
  -26.7229  -32.5410   23.1084 H   0  0  0  0  0  0
  -25.0363  -33.9779   25.0568 H   0  0  0  0  0  0
  -22.7249  -31.3052   21.3896 H   0  0  0  0  0  0
  -23.3741  -35.9646   23.3260 H   0  0  0  0  0  0
  -24.3557  -36.8964   22.2057 H   0  0  0  0  0  0
  -23.7240  -37.6504   23.6676 H   0  0  0  0  0  0
  -26.1123  -31.5187   20.6063 H   0  0  0  0  0  0
  -26.8481  -30.8169   22.0185 H   0  0  0  0  0  0
  -28.0903  -28.8996   21.2791 H   0  0  0  0  0  0
  -26.0351  -25.9887   18.8639 H   0  0  0  0  0  0
  -23.9984  -27.3373   18.9388 H   0  0  0  0  0  0
  -23.7644  -30.5841   19.3989 H   0  0  0  0  0  0
  -22.7610  -29.2439   19.8545 H   0  0  0  0  0  0
  -25.1253  -36.1892   25.0814 H   0  0  0  0  0  0
  -21.0027  -28.3299   24.1418 H   0  0  0  0  0  0
  -20.5733  -26.2335   23.3659 H   0  0  0  0  0  0
  -21.6626  -26.7458   22.1194 H   0  0  0  0  0  0
  -19.6869  -25.6271   21.1350 H   0  0  0  0  0  0
  -19.6694  -27.3140   20.6783 H   0  0  0  0  0  0
  -17.4216  -26.6916   21.3953 H   0  0  0  0  0  0
  -18.0111  -26.0086   22.8944 H   0  0  0  0  0  0
  -19.7966  -30.7331   24.2228 H   0  0  0  0  0  0
  -17.5050  -31.6303   24.5169 H   0  0  0  0  0  0
  -15.5371  -30.3040   23.7679 H   0  0  0  0  0  0
  -15.8693  -28.0872   22.7097 H   0  0  0  0  0  0
  -24.5963  -30.7063   25.8026 H   0  0  0  0  0  0
  -24.8677  -32.3148   26.4595 H   0  0  0  0  0  0
  -25.7983  -30.9554   27.0512 H   0  0  0  0  0  0
  -26.2959  -29.6863   24.1222 H   0  0  0  0  0  0
  -27.3908  -29.7333   25.4863 H   0  0  0  0  0  0
  -27.8854  -30.4399   23.9633 H   0  0  0  0  0  0
  -27.2590  -33.3865   26.1924 H   0  0  0  0  0  0
  -28.3885  -32.6897   25.0448 H   0  0  0  0  0  0
  -28.0518  -31.8752   26.5649 H   0  0  0  0  0  0
  -28.2515  -38.0146   24.7526 H   0  0  0  0  0  0
  -28.1112  -36.2673   24.6146 H   0  0  0  0  0  0
  -27.2306  -37.1305   25.8835 H   0  0  0  0  0  0
  -20.9349  -29.9003   21.7069 H   0  0  0  0  0  0
  -26.0110  -38.2843   24.1500 H   0  0  0  0  0  0
  -26.6028  -20.8703   21.0013 H   0  0  0  0  0  0
  -23.4558  -23.2161   18.8062 H   0  0  0  0  0  0
  -24.4163  -21.7423   18.8038 H   0  0  0  0  0  0
  -24.7727  -23.0392   17.6650 H   0  0  0  0  0  0
  -30.1609  -26.4743   23.5457 H   0  0  0  0  0  0
  -28.4595  -26.7563   23.2052 H   0  0  0  0  0  0
  -29.7025  -27.3521   22.1019 H   0  0  0  0  0  0
  -31.0886  -17.5451   21.3120 H   0  0  0  0  0  0
  -30.8870  -17.4522   19.5945 H   0  0  0  0  0  0
  -25.0910  -24.4516   19.9725 H   0  0  0  0  0  0
  -25.3079  -22.8829   20.6800 H   0  0  0  0  0  0
  -29.3023  -24.3763   22.6737 H   0  0  0  0  0  0
  -30.2969  -25.0556   21.4131 H   0  0  0  0  0  0
  -27.3474  -23.1781   21.3465 H   0  0  0  0  0  0
  -27.3063  -25.3116   21.5972 H   0  0  0  0  0  0
  -29.9064  -22.7881   20.2114 H   0  0  0  0  0  0
  -28.8669  -15.8313   20.9314 H   0  0  0  0  0  0
  1 25  1  0  0  0
  1 30  2  0  0  0
  1 84  1  0  0  0
  2  3  1  0  0  0
  2 25  1  0  0  0
  2 87  1  0  0  0
  2 88  1  0  0  0
  3  4  1  0  0  0
  3 89  1  0  0  0
  3 90  1  0  0  0
  4  5  1  0  0  0
  4 91  1  0  0  0
  4 92  1  0  0  0
  5  6  1  0  0  0
  5 26  1  0  0  0
  5 93  1  0  0  0
  6 25  1  0  0  0
  6 94  1  0  0  0
  6 95  1  0  0  0
  7  8  2  0  0  0
  7 26  1  0  0  0
  7 29  1  0  0  0
  8  9  1  0  0  0
  8 22  1  0  0  0
  9 10  1  0  0  0
  9 27  2  0  0  0
 10 11  2  0  0  0
 10 15  1  0  0  0
 11 12  1  0  0  0
 11 96  1  0  0  0
 12 13  2  0  0  0
 12 97  1  0  0  0
 13 14  1  0  0  0
 13 31  1  0  0  0
 14 15  2  0  0  0
 14 98  1  0  0  0
 15 99  1  0  0  0
 16 17  2  0  0  0
 16 21  1  0  0  0
 16 31  1  0  0  0
 17 18  1  0  0  0
 17100  1  0  0  0
 18 19  2  0  0  0
 18101  1  0  0  0
 19 20  1  0  0  0
 19 24  1  0  0  0
 20 21  2  0  0  0
 20102  1  0  0  0
 21 23  1  0  0  0
 22 28  1  0  0  0
 22 32  2  0  0  0
 26 27  1  0  0  0
 28103  1  0  0  0
 28104  1  0  0  0
 29105  1  0  0  0
 29106  1  0  0  0
 33 34  1  0  0  0
 33 66  1  0  0  0
 33 70  2  0  0  0
 34 36  1  0  0  0
 34 59  1  0  0  0
 34107  1  0  0  0
 35 44  2  0  0  0
 35 45  1  0  0  0
 35 68  1  0  0  0
 36 56  1  0  0  0
 36108  1  0  0  0
 37 39  1  0  0  0
 37 47  1  0  0  0
 37 66  1  0  0  0
 37109  1  0  0  0
 38 43  2  0  0  0
 38 46  1  0  0  0
 38 47  1  0  0  0
 39 64  1  0  0  0
 39 67  2  0  0  0
 40 52  1  0  0  0
 40 53  2  0  0  0
 40 58  1  0  0  0
 41110  1  0  0  0
 41111  1  0  0  0
 41112  1  0  0  0
 41 48  1  0  0  0
 42 43  1  0  0  0
 42 66  1  0  0  0
 42113  1  0  0  0
 42114  1  0  0  0
 43 44  1  0  0  0
 44115  1  0  0  0
 45 46  2  0  0  0
 45116  1  0  0  0
 46117  1  0  0  0
 47118  1  0  0  0
 47119  1  0  0  0
 48 56  1  0  0  0
 48 65  1  0  0  0
 48120  1  0  0  0
 49 50  1  0  0  0
 49 53  1  0  0  0
 49 64  1  0  0  0
 49121  1  0  0  0
 50 51  1  0  0  0
 50122  1  0  0  0
 50123  1  0  0  0
 51 52  1  0  0  0
 51124  1  0  0  0
 51125  1  0  0  0
 52126  1  0  0  0
 52127  1  0  0  0
 53 54  1  0  0  0
 54 55  2  0  0  0
 54128  1  0  0  0
 55 57  1  0  0  0
 55129  1  0  0  0
 56 69  2  0  0  0
 57 58  2  0  0  0
 57130  1  0  0  0
 58131  1  0  0  0
 59 60  1  0  0  0
 59 61  1  0  0  0
 59 62  1  0  0  0
 60132  1  0  0  0
 60133  1  0  0  0
 60134  1  0  0  0
 61135  1  0  0  0
 61136  1  0  0  0
 61137  1  0  0  0
 62138  1  0  0  0
 62139  1  0  0  0
 62140  1  0  0  0
 63 65  1  0  0  0
 63141  1  0  0  0
 63142  1  0  0  0
 63143  1  0  0  0
 64144  1  0  0  0
 65145  1  0  0  0
 68 81  1  0  0  0
 71 72  2  0  0  0
 71 86  1  0  0  0
 71146  1  0  0  0
 72 82  1  0  0  0
 72 83  1  0  0  0
 73 77  1  0  0  0
 73 82  2  0  0  0
 73 86  1  0  0  0
 74 78  1  0  0  0
 74 80  1  0  0  0
 74 85  2  0  0  0
 75 78  1  0  0  0
 75147  1  0  0  0
 75148  1  0  0  0
 75149  1  0  0  0
 76 79  1  0  0  0
 76150  1  0  0  0
 76151  1  0  0  0
 76152  1  0  0  0
 77 84  1  0  0  0
 77153  1  0  0  0
 77154  1  0  0  0
 78155  1  0  0  0
 78156  1  0  0  0
 79157  1  0  0  0
 79158  1  0  0  0
 79 81  1  0  0  0
 80 81  1  0  0  0
 80 83  1  0  0  0
 80159  1  0  0  0
 81160  1  0  0  0
 83161  1  0  0  0
 84162  1  0  0  0
M  ISO  4   1 100  68 101  81 101  84 100
M  END
> <chiral flag>
0

> <version>
0

> <s_m_source_file>
/data/baiqing/PycharmProjects/Reinvent-master-3.2/result/LINK_invent/BTK/process_docking_weight1_custom_product_contain_oxygen_bond_distance_aromatic_linkinvent_7_9_3/rearranged_h_0197.sdf

> <i_m_source_file_index>
44

> <r_mmod_Potential_Energy-OPLS-2005>
41.522087097168

> <r_mmod_Stretch_Energy-OPLS-2005>
133.855102539062

> <r_mmod_Bend_Energy-OPLS-2005>
218.961944580078

> <r_mmod_Torsional_Energy-OPLS-2005>
251.551376342773

> <r_mmod_Improper_Torsional_Energy-OPLS-2005>
4.46543645858765

> <r_mmod_Van_der_Waal_Energy-OPLS-2005>
105.306915283203

> <r_mmod_Electrostatic_Energy-OPLS-2005>
-525.808898925781

> <r_mmod_Solvation_Energy-OPLS-2005>
-241.955993652344

> <b_mmod_Minimization_Converged-OPLS-2005>
0

> <r_mmod_RMS_Derivative-OPLS-2005>
5.70221138000488

$$$$
44
                    3D
 Structure written by MMmdl.
153161  0  0  1  0            999 V2000
  -30.6154  -14.7450   20.4450 C   0  0  0  0  0  0
  -30.4295  -12.4486   19.4881 C   0  0  0  0  0  0
  -29.5137  -12.5082   18.2454 C   0  0  0  0  0  0
  -28.0396  -12.3310   18.6555 C   0  0  0  0  0  0
  -27.6422  -13.2338   19.8537 C   0  0  2  0  0  0
  -28.6838  -13.1741   20.9936 C   0  0  0  0  0  0
  -25.2503  -13.8201   20.5700 C   0  0  0  0  0  0
  -24.1795  -13.0442   20.9206 C   0  0  0  0  0  0
  -24.6389  -11.6919   20.8744 C   0  0  0  0  0  0
  -23.9067  -10.4291   21.0405 C   0  0  0  0  0  0
  -24.3620   -9.4207   21.9181 C   0  0  0  0  0  0
  -23.6295   -8.2241   22.0749 C   0  0  0  0  0  0
  -22.4279   -8.0278   21.3542 C   0  0  0  0  0  0
  -21.9911   -9.0252   20.4645 C   0  0  0  0  0  0
  -22.7239  -10.2133   20.3053 C   0  0  0  0  0  0
  -21.6854   -6.0736   22.5279 C   0  0  0  0  0  0
  -21.4018   -6.5640   23.8215 C   0  0  0  0  0  0
  -21.3659   -5.6789   24.9173 C   0  0  0  0  0  0
  -21.6045   -4.3052   24.7223 C   0  0  0  0  0  0
  -21.8816   -3.8146   23.4345 C   0  0  0  0  0  0
  -21.9190   -4.6963   22.3401 C   0  0  0  0  0  0
  -22.7815  -13.5223   21.1860 C   0  0  0  0  0  0
  -22.1658   -4.2150   21.0980 F   0  0  0  0  0  0
  -21.5623   -3.4535   25.7737 F   0  0  0  0  0  0
  -29.9905  -13.5168   20.4182 N   0  0  0  0  0  0
  -26.2933  -12.9413   20.3291 N   0  0  0  0  0  0
  -25.9320  -11.6555   20.5754 N   0  0  0  0  0  0
  -22.0455  -12.8223   22.0422 N   0  0  0  0  0  0
  -25.4196  -15.1928   20.4123 N   0  0  0  0  0  0
  -31.8016  -14.8239   20.1123 O   0  0  0  0  0  0
  -21.6639   -6.8882   21.4243 O   0  0  0  0  0  0
  -22.3498  -14.5522   20.6698 O   0  0  0  0  0  0
  -24.6335  -31.8548   23.1991 C   0  0  0  0  0  0
  -25.9153  -32.4753   23.8338 C   0  0  1  0  0  0
  -27.2149  -27.2546   20.1250 C   0  0  0  0  0  0
  -25.5942  -33.8554   24.2264 N   0  0  0  0  0  0
  -23.4305  -30.4807   21.5415 C   0  0  2  0  0  0
  -24.8767  -28.9321   20.1051 C   0  0  0  0  0  0
  -22.7514  -29.4611   22.4887 C   0  0  0  0  0  0
  -18.0294  -28.1388   22.8471 C   0  0  0  0  0  0
  -24.1489  -36.7291   23.2641 C   0  0  0  0  0  0
  -25.9785  -30.7663   21.3804 C   0  0  0  0  0  0
  -26.0496  -29.3895   20.7198 C   0  0  0  0  0  0
  -27.2213  -28.5635   20.7193 C   0  0  0  0  0  0
  -26.0231  -26.8811   19.4610 C   0  0  0  0  0  0
  -24.8703  -27.6871   19.4622 C   0  0  0  0  0  0
  -23.6486  -29.8200   20.1555 C   0  0  0  0  0  0
  -25.4111  -36.3069   24.0328 C   0  0  1  0  0  0
  -20.5899  -28.3710   23.1244 C   0  0  2  0  0  0
  -20.6778  -26.9422   22.5395 C   0  0  0  0  0  0
  -19.5756  -26.6380   21.5198 C   0  0  0  0  0  0
  -18.1937  -26.7928   22.1614 C   0  0  0  0  0  0
  -19.1546  -28.8864   23.2857 C   0  0  0  0  0  0
  -18.9468  -30.1456   23.8891 C   0  0  0  0  0  0
  -17.6467  -30.6586   24.0559 C   0  0  0  0  0  0
  -25.9052  -34.9438   23.5097 C   0  0  0  0  0  0
  -16.5360  -29.9085   23.6323 C   0  0  0  0  0  0
  -16.7279  -28.6502   23.0348 C   0  0  0  0  0  0
  -26.4509  -31.6580   25.0735 C   0  0  0  0  0  0
  -25.3731  -31.3730   26.1456 C   0  0  0  0  0  0
  -27.0355  -30.2995   24.6229 C   0  0  0  0  0  0
  -27.6061  -32.4321   25.7512 C   0  0  0  0  0  0
  -27.5576  -37.1800   24.8462 C   0  0  0  0  0  0
  -21.4220  -29.3061   22.3634 N   0  0  0  0  0  0
  -26.4287  -37.3767   23.9409 N   0  0  0  0  0  0
  -24.7000  -31.0512   22.0968 N   0  0  0  0  0  0
  -23.4208  -28.8139   23.2981 O   0  0  0  0  0  0
  -28.2907  -26.3332   20.2089 O   0  0  0  0  0  0
  -26.5619  -34.8913   22.4664 O   0  0  0  0  0  0
  -23.5479  -32.1370   23.7277 O   0  0  0  0  0  0
  -30.7489  -17.4156   18.9461 C   0  0  0  0  0  0
  -30.0406  -17.2752   20.1704 C   0  0  0  0  0  0
  -30.4575  -19.7092   18.8996 C   0  0  0  0  0  0
  -29.7004  -19.6921   20.1040 C   0  0  0  0  0  0
  -28.6093  -22.1337   20.0294 C   0  0  0  0  0  0
  -28.0013  -24.8640   20.0080 C   0  0  0  0  0  0
  -28.9356  -23.6432   20.5408 C   0  0  1  0  0  0
  -30.9586  -18.6000   18.3241 N   0  0  0  0  0  0
  -29.5111  -18.4540   20.7263 N   0  0  0  0  0  0
  -30.8200  -20.8990   18.2877 N   0  0  0  0  0  0
  -29.8618  -15.8903   20.6879 N   0  0  0  0  0  0
  -29.2648  -20.9381   20.7129 N   0  0  0  0  0  0
  -28.7688  -23.5790   21.9473 O   0  0  0  0  0  0
  -31.4735  -12.5588   19.1905 H   0  0  0  0  0  0
  -30.3613  -11.4725   19.9719 H   0  0  0  0  0  0
  -29.7982  -11.7367   17.5290 H   0  0  0  0  0  0
  -29.6433  -13.4642   17.7349 H   0  0  0  0  0  0
  -27.8983  -11.2830   18.9222 H   0  0  0  0  0  0
  -27.3825  -12.5173   17.8049 H   0  0  0  0  0  0
  -27.6364  -14.2544   19.4705 H   0  0  0  0  0  0
  -28.7111  -12.1801   21.4426 H   0  0  0  0  0  0
  -28.4158  -13.8625   21.7971 H   0  0  0  0  0  0
  -25.2760   -9.5683   22.4757 H   0  0  0  0  0  0
  -24.0000   -7.4631   22.7468 H   0  0  0  0  0  0
  -21.0839   -8.8773   19.8954 H   0  0  0  0  0  0
  -22.3692  -10.9671   19.6163 H   0  0  0  0  0  0
  -21.2022   -7.6151   23.9722 H   0  0  0  0  0  0
  -21.1483   -6.0519   25.9079 H   0  0  0  0  0  0
  -22.0596   -2.7607   23.2842 H   0  0  0  0  0  0
  -22.4074  -11.9906   22.4846 H   0  0  0  0  0  0
  -21.1069  -13.1245   22.2607 H   0  0  0  0  0  0
  -24.6499  -15.8448   20.5205 H   0  0  0  0  0  0
  -26.2668  -15.6336   20.0772 H   0  0  0  0  0  0
  -26.7230  -32.5398   23.1088 H   0  0  0  0  0  0
  -25.0089  -33.9683   25.0410 H   0  0  0  0  0  0
  -22.7287  -31.3042   21.3970 H   0  0  0  0  0  0
  -23.3745  -35.9629   23.3294 H   0  0  0  0  0  0
  -24.3589  -36.8923   22.2058 H   0  0  0  0  0  0
  -23.7247  -37.6493   23.6669 H   0  0  0  0  0  0
  -26.1187  -31.5268   20.6103 H   0  0  0  0  0  0
  -26.8568  -30.8147   22.0127 H   0  0  0  0  0  0
  -28.1161  -28.9058   21.2200 H   0  0  0  0  0  0
  -25.9451  -25.9377   18.9428 H   0  0  0  0  0  0
  -23.9771  -27.3368   18.9627 H   0  0  0  0  0  0
  -23.7752  -30.5994   19.4030 H   0  0  0  0  0  0
  -22.7663  -29.2557   19.8479 H   0  0  0  0  0  0
  -25.1291  -36.1921   25.0819 H   0  0  0  0  0  0
  -20.9997  -28.3295   24.1362 H   0  0  0  0  0  0
  -20.5657  -26.2329   23.3608 H   0  0  0  0  0  0
  -21.6649  -26.7425   22.1206 H   0  0  0  0  0  0
  -19.6919  -25.6285   21.1242 H   0  0  0  0  0  0
  -19.6694  -27.3175   20.6714 H   0  0  0  0  0  0
  -17.4203  -26.6658   21.4025 H   0  0  0  0  0  0
  -18.0353  -26.0076   22.9019 H   0  0  0  0  0  0
  -19.7944  -30.7263   24.2274 H   0  0  0  0  0  0
  -17.5023  -31.6265   24.5161 H   0  0  0  0  0  0
  -15.5360  -30.2989   23.7645 H   0  0  0  0  0  0
  -15.8679  -28.0817   22.7070 H   0  0  0  0  0  0
  -24.5914  -30.7068   25.7794 H   0  0  0  0  0  0
  -24.8909  -32.2891   26.4872 H   0  0  0  0  0  0
  -25.8049  -30.8923   27.0242 H   0  0  0  0  0  0
  -26.2941  -29.6740   24.1246 H   0  0  0  0  0  0
  -27.4023  -29.7265   25.4757 H   0  0  0  0  0  0
  -27.8826  -30.4268   23.9486 H   0  0  0  0  0  0
  -27.2671  -33.3626   26.2077 H   0  0  0  0  0  0
  -28.3879  -32.6871   25.0347 H   0  0  0  0  0  0
  -28.0721  -31.8454   26.5439 H   0  0  0  0  0  0
  -28.2587  -38.0103   24.7504 H   0  0  0  0  0  0
  -28.1075  -36.2631   24.6285 H   0  0  0  0  0  0
  -27.2296  -37.1451   25.8866 H   0  0  0  0  0  0
  -20.9404  -29.8817   21.6869 H   0  0  0  0  0  0
  -26.0164  -38.2842   24.1404 H   0  0  0  0  0  0
  -31.1470  -16.5620   18.4197 H   0  0  0  0  0  0
  -28.7447  -22.0906   18.9497 H   0  0  0  0  0  0
  -27.5362  -21.9858   20.1591 H   0  0  0  0  0  0
  -27.0059  -24.6542   20.4007 H   0  0  0  0  0  0
  -27.9232  -24.7333   18.9280 H   0  0  0  0  0  0
  -29.9775  -23.8735   20.3131 H   0  0  0  0  0  0
  -30.7244  -21.6856   18.9203 H   0  0  0  0  0  0
  -31.6939  -20.8940   17.7787 H   0  0  0  0  0  0
  -28.9822  -15.7232   21.1496 H   0  0  0  0  0  0
  -28.9631  -20.8469   21.6768 H   0  0  0  0  0  0
  -28.9785  -24.4420   22.2927 H   0  0  0  0  0  0
  1 25  1  0  0  0
  1 30  2  0  0  0
  1 81  1  0  0  0
  2  3  1  0  0  0
  2 25  1  0  0  0
  2 84  1  0  0  0
  2 85  1  0  0  0
  3  4  1  0  0  0
  3 86  1  0  0  0
  3 87  1  0  0  0
  4  5  1  0  0  0
  4 88  1  0  0  0
  4 89  1  0  0  0
  5  6  1  0  0  0
  5 26  1  0  0  0
  5 90  1  0  0  0
  6 25  1  0  0  0
  6 91  1  0  0  0
  6 92  1  0  0  0
  7  8  2  0  0  0
  7 26  1  0  0  0
  7 29  1  0  0  0
  8  9  1  0  0  0
  8 22  1  0  0  0
  9 10  1  0  0  0
  9 27  2  0  0  0
 10 11  2  0  0  0
 10 15  1  0  0  0
 11 12  1  0  0  0
 11 93  1  0  0  0
 12 13  2  0  0  0
 12 94  1  0  0  0
 13 14  1  0  0  0
 13 31  1  0  0  0
 14 15  2  0  0  0
 14 95  1  0  0  0
 15 96  1  0  0  0
 16 17  2  0  0  0
 16 21  1  0  0  0
 16 31  1  0  0  0
 17 18  1  0  0  0
 17 97  1  0  0  0
 18 19  2  0  0  0
 18 98  1  0  0  0
 19 20  1  0  0  0
 19 24  1  0  0  0
 20 21  2  0  0  0
 20 99  1  0  0  0
 21 23  1  0  0  0
 22 28  1  0  0  0
 22 32  2  0  0  0
 26 27  1  0  0  0
 28100  1  0  0  0
 28101  1  0  0  0
 29102  1  0  0  0
 29103  1  0  0  0
 33 34  1  0  0  0
 33 66  1  0  0  0
 33 70  2  0  0  0
 34 36  1  0  0  0
 34 59  1  0  0  0
 34104  1  0  0  0
 35 44  2  0  0  0
 35 45  1  0  0  0
 35 68  1  0  0  0
 36 56  1  0  0  0
 36105  1  0  0  0
 37 39  1  0  0  0
 37 47  1  0  0  0
 37 66  1  0  0  0
 37106  1  0  0  0
 38 43  2  0  0  0
 38 46  1  0  0  0
 38 47  1  0  0  0
 39 64  1  0  0  0
 39 67  2  0  0  0
 40 52  1  0  0  0
 40 53  2  0  0  0
 40 58  1  0  0  0
 41107  1  0  0  0
 41108  1  0  0  0
 41109  1  0  0  0
 41 48  1  0  0  0
 42 43  1  0  0  0
 42 66  1  0  0  0
 42110  1  0  0  0
 42111  1  0  0  0
 43 44  1  0  0  0
 44112  1  0  0  0
 45 46  2  0  0  0
 45113  1  0  0  0
 46114  1  0  0  0
 47115  1  0  0  0
 47116  1  0  0  0
 48 56  1  0  0  0
 48 65  1  0  0  0
 48117  1  0  0  0
 49 50  1  0  0  0
 49 53  1  0  0  0
 49 64  1  0  0  0
 49118  1  0  0  0
 50 51  1  0  0  0
 50119  1  0  0  0
 50120  1  0  0  0
 51 52  1  0  0  0
 51121  1  0  0  0
 51122  1  0  0  0
 52123  1  0  0  0
 52124  1  0  0  0
 53 54  1  0  0  0
 54 55  2  0  0  0
 54125  1  0  0  0
 55 57  1  0  0  0
 55126  1  0  0  0
 56 69  2  0  0  0
 57 58  2  0  0  0
 57127  1  0  0  0
 58128  1  0  0  0
 59 60  1  0  0  0
 59 61  1  0  0  0
 59 62  1  0  0  0
 60129  1  0  0  0
 60130  1  0  0  0
 60131  1  0  0  0
 61132  1  0  0  0
 61133  1  0  0  0
 61134  1  0  0  0
 62135  1  0  0  0
 62136  1  0  0  0
 62137  1  0  0  0
 63 65  1  0  0  0
 63138  1  0  0  0
 63139  1  0  0  0
 63140  1  0  0  0
 64141  1  0  0  0
 65142  1  0  0  0
 68 76  1  0  0  0
 71 72  2  0  0  0
 71 78  1  0  0  0
 71143  1  0  0  0
 72 79  1  0  0  0
 72 81  1  0  0  0
 73 74  1  0  0  0
 73 78  2  0  0  0
 73 80  1  0  0  0
 74 79  2  0  0  0
 74 82  1  0  0  0
 75 77  1  0  0  0
 75 82  1  0  0  0
 75144  1  0  0  0
 75145  1  0  0  0
 76 77  1  0  0  0
 76146  1  0  0  0
 76147  1  0  0  0
 77 83  1  0  0  0
 77148  1  0  0  0
 80149  1  0  0  0
 80150  1  0  0  0
 81151  1  0  0  0
 82152  1  0  0  0
 83153  1  0  0  0
M  ISO  4   1 100  68 101  76 101  81 100
M  END
> <chiral flag>
0

> <version>
0

> <s_m_source_file>
/data/baiqing/PycharmProjects/Reinvent-master-3.2/result/LINK_invent/BTK/process_docking_weight1_custom_product_contain_oxygen_bond_distance_aromatic_linkinvent_7_9_3/rearranged_h_0197.sdf

> <i_m_source_file_index>
45

> <r_mmod_Potential_Energy-OPLS-2005>
51.1076393127441

> <r_mmod_Stretch_Energy-OPLS-2005>
133.357498168945

> <r_mmod_Bend_Energy-OPLS-2005>
173.864028930664

> <r_mmod_Torsional_Energy-OPLS-2005>
267.500518798828

> <r_mmod_Improper_Torsional_Energy-OPLS-2005>
11.4648733139038

> <r_mmod_Van_der_Waal_Energy-OPLS-2005>
156.787994384766

> <r_mmod_Electrostatic_Energy-OPLS-2005>
-531.633056640625

> <r_mmod_Solvation_Energy-OPLS-2005>
-250.480178833008

> <b_mmod_Minimization_Converged-OPLS-2005>
0

> <r_mmod_RMS_Derivative-OPLS-2005>
0.964026868343353

$$$$
45
                    3D
 Structure written by MMmdl.
155163  0  0  1  0            999 V2000
  -30.6810  -14.4725   20.5852 C   0  0  0  0  0  0
  -30.4324  -12.3120   19.4107 C   0  0  0  0  0  0
  -29.4936  -12.5100   18.2013 C   0  0  0  0  0  0
  -28.0153  -12.3688   18.6152 C   0  0  0  0  0  0
  -27.6657  -13.1985   19.8787 C   0  0  2  0  0  0
  -28.7077  -12.9519   20.9930 C   0  0  0  0  0  0
  -25.2621  -13.8146   20.5685 C   0  0  0  0  0  0
  -24.1856  -13.0436   20.9170 C   0  0  0  0  0  0
  -24.6397  -11.6897   20.8739 C   0  0  0  0  0  0
  -23.9055  -10.4292   21.0410 C   0  0  0  0  0  0
  -24.3609   -9.4207   21.9185 C   0  0  0  0  0  0
  -23.6286   -8.2241   22.0755 C   0  0  0  0  0  0
  -22.4269   -8.0280   21.3545 C   0  0  0  0  0  0
  -21.9902   -9.0252   20.4650 C   0  0  0  0  0  0
  -22.7229  -10.2134   20.3059 C   0  0  0  0  0  0
  -21.6853   -6.0734   22.5280 C   0  0  0  0  0  0
  -21.4010   -6.5641   23.8213 C   0  0  0  0  0  0
  -21.3654   -5.6791   24.9175 C   0  0  0  0  0  0
  -21.6047   -4.3055   24.7226 C   0  0  0  0  0  0
  -21.8819   -3.8150   23.4347 C   0  0  0  0  0  0
  -21.9191   -4.6963   22.3406 C   0  0  0  0  0  0
  -22.7885  -13.5251   21.1834 C   0  0  0  0  0  0
  -22.1663   -4.2156   21.0982 F   0  0  0  0  0  0
  -21.5626   -3.4540   25.7737 F   0  0  0  0  0  0
  -30.0390  -13.2791   20.4474 N   0  0  0  0  0  0
  -26.3047  -12.9296   20.3378 N   0  0  0  0  0  0
  -25.9322  -11.6469   20.5768 N   0  0  0  0  0  0
  -22.0517  -12.8247   22.0386 N   0  0  0  0  0  0
  -25.4399  -15.1856   20.4099 N   0  0  0  0  0  0
  -31.8019  -14.6815   20.1052 O   0  0  0  0  0  0
  -21.6634   -6.8878   21.4242 O   0  0  0  0  0  0
  -22.3581  -14.5562   20.6690 O   0  0  0  0  0  0
  -24.6155  -31.8673   23.2085 C   0  0  0  0  0  0
  -25.9038  -32.4825   23.8387 C   0  0  1  0  0  0
  -27.2375  -27.4414   20.0880 C   0  0  0  0  0  0
  -25.5890  -33.8620   24.2317 N   0  0  0  0  0  0
  -23.4047  -30.4911   21.5479 C   0  0  2  0  0  0
  -24.8549  -28.9616   20.1100 C   0  0  0  0  0  0
  -22.7427  -29.4645   22.4957 C   0  0  0  0  0  0
  -18.0271  -28.1387   22.8490 C   0  0  0  0  0  0
  -24.1485  -36.7313   23.2642 C   0  0  0  0  0  0
  -25.9345  -30.8367   21.3600 C   0  0  0  0  0  0
  -26.0159  -29.4724   20.7052 C   0  0  0  0  0  0
  -27.2143  -28.7208   20.6897 C   0  0  0  0  0  0
  -26.0648  -26.9481   19.4802 C   0  0  0  0  0  0
  -24.8749  -27.6990   19.4912 C   0  0  0  0  0  0
  -23.6153  -29.8258   20.1617 C   0  0  0  0  0  0
  -25.4104  -36.3114   24.0342 C   0  0  1  0  0  0
  -20.5870  -28.3669   23.1316 C   0  0  2  0  0  0
  -20.6759  -26.9395   22.5420 C   0  0  0  0  0  0
  -19.5741  -26.6388   21.5212 C   0  0  0  0  0  0
  -18.1920  -26.7929   22.1628 C   0  0  0  0  0  0
  -19.1527  -28.8838   23.2907 C   0  0  0  0  0  0
  -18.9450  -30.1444   23.8913 C   0  0  0  0  0  0
  -17.6459  -30.6581   24.0573 C   0  0  0  0  0  0
  -25.9037  -34.9481   23.5131 C   0  0  0  0  0  0
  -16.5344  -29.9100   23.6322 C   0  0  0  0  0  0
  -16.7261  -28.6515   23.0343 C   0  0  0  0  0  0
  -26.4465  -31.6604   25.0717 C   0  0  0  0  0  0
  -25.3738  -31.3698   26.1475 C   0  0  0  0  0  0
  -27.0284  -30.3053   24.6065 C   0  0  0  0  0  0
  -27.6039  -32.4315   25.7481 C   0  0  0  0  0  0
  -27.5580  -37.1810   24.8465 C   0  0  0  0  0  0
  -21.4151  -29.3030   22.3718 N   0  0  0  0  0  0
  -26.4291  -37.3802   23.9407 N   0  0  0  0  0  0
  -24.6696  -31.0789   22.0975 N   0  0  0  0  0  0
  -23.4205  -28.8182   23.2988 O   0  0  0  0  0  0
  -28.3669  -26.6528   20.0975 O   0  0  0  0  0  0
  -26.5605  -34.8931   22.4696 O   0  0  0  0  0  0
  -23.5342  -32.1400   23.7485 O   0  0  0  0  0  0
  -30.9574  -18.9251   20.9424 C   0  0  0  0  0  0
  -29.7683  -19.2893   21.5348 C   0  0  0  0  0  0
  -30.0616  -16.8408   21.2071 C   0  0  0  0  0  0
  -29.4457  -23.5169   23.0633 C   0  0  0  0  0  0
  -29.3060  -20.6422   22.0386 C   0  0  0  0  0  0
  -29.1143  -24.2982   20.6449 C   0  0  0  0  0  0
  -28.2563  -25.5439   21.0062 C   0  0  0  0  0  0
  -28.9491  -23.1120   21.6548 C   0  0  1  0  0  0
  -31.1102  -17.5393   20.7515 N   0  0  0  0  0  0
  -29.9443  -15.4201   21.1975 N   0  0  0  0  0  0
  -29.5876  -21.8352   21.1874 N   0  3  0  0  0  0
  -28.7899  -17.8703   21.8584 S   0  0  0  0  0  0
  -31.4734  -12.4307   19.1027 H   0  0  0  0  0  0
  -30.3529  -11.2953   19.7971 H   0  0  0  0  0  0
  -29.7316  -11.7889   17.4186 H   0  0  0  0  0  0
  -29.6572  -13.4978   17.7664 H   0  0  0  0  0  0
  -27.8224  -11.3119   18.8032 H   0  0  0  0  0  0
  -27.3635  -12.6525   17.7891 H   0  0  0  0  0  0
  -27.7173  -14.2500   19.5942 H   0  0  0  0  0  0
  -28.6893  -11.9051   21.2986 H   0  0  0  0  0  0
  -28.4635  -13.5144   21.8948 H   0  0  0  0  0  0
  -25.2759   -9.5680   22.4754 H   0  0  0  0  0  0
  -24.0001   -7.4631   22.7474 H   0  0  0  0  0  0
  -21.0832   -8.8771   19.8954 H   0  0  0  0  0  0
  -22.3691  -10.9672   19.6166 H   0  0  0  0  0  0
  -21.2002   -7.6153   23.9719 H   0  0  0  0  0  0
  -21.1474   -6.0525   25.9079 H   0  0  0  0  0  0
  -22.0603   -2.7616   23.2847 H   0  0  0  0  0  0
  -22.4119  -11.9892   22.4761 H   0  0  0  0  0  0
  -21.1142  -13.1288   22.2605 H   0  0  0  0  0  0
  -24.6785  -15.8460   20.5215 H   0  0  0  0  0  0
  -26.2895  -15.6166   20.0685 H   0  0  0  0  0  0
  -26.7117  -32.5542   23.1159 H   0  0  0  0  0  0
  -25.0032  -33.9779   25.0461 H   0  0  0  0  0  0
  -22.6921  -31.3061   21.4069 H   0  0  0  0  0  0
  -23.3748  -35.9650   23.3331 H   0  0  0  0  0  0
  -24.3573  -36.8903   22.2049 H   0  0  0  0  0  0
  -23.7244  -37.6530   23.6633 H   0  0  0  0  0  0
  -26.0462  -31.6045   20.5932 H   0  0  0  0  0  0
  -26.8224  -30.8903   21.9774 H   0  0  0  0  0  0
  -28.1118  -29.1098   21.1500 H   0  0  0  0  0  0
  -26.0744  -25.9769   19.0062 H   0  0  0  0  0  0
  -23.9861  -27.3019   19.0206 H   0  0  0  0  0  0
  -23.7200  -30.6011   19.4018 H   0  0  0  0  0  0
  -22.7406  -29.2444   19.8650 H   0  0  0  0  0  0
  -25.1284  -36.1985   25.0834 H   0  0  0  0  0  0
  -20.9957  -28.3231   24.1440 H   0  0  0  0  0  0
  -20.5663  -26.2258   23.3612 H   0  0  0  0  0  0
  -21.6630  -26.7435   22.1214 H   0  0  0  0  0  0
  -19.6899  -25.6311   21.1235 H   0  0  0  0  0  0
  -19.6692  -27.3212   20.6762 H   0  0  0  0  0  0
  -17.4188  -26.6674   21.4035 H   0  0  0  0  0  0
  -18.0317  -26.0070   22.9027 H   0  0  0  0  0  0
  -19.7921  -30.7248   24.2305 H   0  0  0  0  0  0
  -17.5008  -31.6270   24.5165 H   0  0  0  0  0  0
  -15.5343  -30.3011   23.7629 H   0  0  0  0  0  0
  -15.8659  -28.0850   22.7035 H   0  0  0  0  0  0
  -24.5912  -30.7042   25.7819 H   0  0  0  0  0  0
  -24.8928  -32.2849   26.4937 H   0  0  0  0  0  0
  -25.8113  -30.8866   27.0221 H   0  0  0  0  0  0
  -26.2816  -29.6834   24.1122 H   0  0  0  0  0  0
  -27.4076  -29.7268   25.4494 H   0  0  0  0  0  0
  -27.8640  -30.4386   23.9190 H   0  0  0  0  0  0
  -27.2659  -33.3593   26.2099 H   0  0  0  0  0  0
  -28.3835  -32.6913   25.0307 H   0  0  0  0  0  0
  -28.0724  -31.8417   26.5369 H   0  0  0  0  0  0
  -28.2606  -38.0106   24.7524 H   0  0  0  0  0  0
  -28.1074  -36.2644   24.6280 H   0  0  0  0  0  0
  -27.2299  -37.1442   25.8870 H   0  0  0  0  0  0
  -20.9299  -29.8777   21.6977 H   0  0  0  0  0  0
  -26.0192  -38.2881   24.1427 H   0  0  0  0  0  0
  -31.7692  -19.5812   20.6587 H   0  0  0  0  0  0
  -28.9363  -24.4027   23.4370 H   0  0  0  0  0  0
  -30.5149  -23.7300   23.0623 H   0  0  0  0  0  0
  -29.2521  -22.7513   23.8130 H   0  0  0  0  0  0
  -29.7582  -20.7881   23.0190 H   0  0  0  0  0  0
  -28.2295  -20.5998   22.2127 H   0  0  0  0  0  0
  -28.8267  -23.9646   19.6468 H   0  0  0  0  0  0
  -30.1629  -24.5876   20.5740 H   0  0  0  0  0  0
  -28.5469  -25.9383   21.9785 H   0  0  0  0  0  0
  -27.2196  -25.2178   21.1125 H   0  0  0  0  0  0
  -27.8788  -22.9086   21.7286 H   0  0  0  0  0  0
  -29.0827  -15.0700   21.5850 H   0  0  0  0  0  0
  -29.2486  -21.6330   20.2612 H   0  0  0  0  0  0
  -30.5842  -21.9638   21.1245 H   0  0  0  0  0  0
  1 25  1  0  0  0
  1 30  2  0  0  0
  1 80  1  0  0  0
  2  3  1  0  0  0
  2 25  1  0  0  0
  2 83  1  0  0  0
  2 84  1  0  0  0
  3  4  1  0  0  0
  3 85  1  0  0  0
  3 86  1  0  0  0
  4  5  1  0  0  0
  4 87  1  0  0  0
  4 88  1  0  0  0
  5  6  1  0  0  0
  5 26  1  0  0  0
  5 89  1  0  0  0
  6 25  1  0  0  0
  6 90  1  0  0  0
  6 91  1  0  0  0
  7  8  2  0  0  0
  7 26  1  0  0  0
  7 29  1  0  0  0
  8  9  1  0  0  0
  8 22  1  0  0  0
  9 10  1  0  0  0
  9 27  2  0  0  0
 10 11  2  0  0  0
 10 15  1  0  0  0
 11 12  1  0  0  0
 11 92  1  0  0  0
 12 13  2  0  0  0
 12 93  1  0  0  0
 13 14  1  0  0  0
 13 31  1  0  0  0
 14 15  2  0  0  0
 14 94  1  0  0  0
 15 95  1  0  0  0
 16 17  2  0  0  0
 16 21  1  0  0  0
 16 31  1  0  0  0
 17 18  1  0  0  0
 17 96  1  0  0  0
 18 19  2  0  0  0
 18 97  1  0  0  0
 19 20  1  0  0  0
 19 24  1  0  0  0
 20 21  2  0  0  0
 20 98  1  0  0  0
 21 23  1  0  0  0
 22 28  1  0  0  0
 22 32  2  0  0  0
 26 27  1  0  0  0
 28 99  1  0  0  0
 28100  1  0  0  0
 29101  1  0  0  0
 29102  1  0  0  0
 33 34  1  0  0  0
 33 66  1  0  0  0
 33 70  2  0  0  0
 34 36  1  0  0  0
 34 59  1  0  0  0
 34103  1  0  0  0
 35 44  2  0  0  0
 35 45  1  0  0  0
 35 68  1  0  0  0
 36 56  1  0  0  0
 36104  1  0  0  0
 37 39  1  0  0  0
 37 47  1  0  0  0
 37 66  1  0  0  0
 37105  1  0  0  0
 38 43  2  0  0  0
 38 46  1  0  0  0
 38 47  1  0  0  0
 39 64  1  0  0  0
 39 67  2  0  0  0
 40 52  1  0  0  0
 40 53  2  0  0  0
 40 58  1  0  0  0
 41106  1  0  0  0
 41107  1  0  0  0
 41108  1  0  0  0
 41 48  1  0  0  0
 42 43  1  0  0  0
 42 66  1  0  0  0
 42109  1  0  0  0
 42110  1  0  0  0
 43 44  1  0  0  0
 44111  1  0  0  0
 45 46  2  0  0  0
 45112  1  0  0  0
 46113  1  0  0  0
 47114  1  0  0  0
 47115  1  0  0  0
 48 56  1  0  0  0
 48 65  1  0  0  0
 48116  1  0  0  0
 49 50  1  0  0  0
 49 53  1  0  0  0
 49 64  1  0  0  0
 49117  1  0  0  0
 50 51  1  0  0  0
 50118  1  0  0  0
 50119  1  0  0  0
 51 52  1  0  0  0
 51120  1  0  0  0
 51121  1  0  0  0
 52122  1  0  0  0
 52123  1  0  0  0
 53 54  1  0  0  0
 54 55  2  0  0  0
 54124  1  0  0  0
 55 57  1  0  0  0
 55125  1  0  0  0
 56 69  2  0  0  0
 57 58  2  0  0  0
 57126  1  0  0  0
 58127  1  0  0  0
 59 60  1  0  0  0
 59 61  1  0  0  0
 59 62  1  0  0  0
 60128  1  0  0  0
 60129  1  0  0  0
 60130  1  0  0  0
 61131  1  0  0  0
 61132  1  0  0  0
 61133  1  0  0  0
 62134  1  0  0  0
 62135  1  0  0  0
 62136  1  0  0  0
 63 65  1  0  0  0
 63137  1  0  0  0
 63138  1  0  0  0
 63139  1  0  0  0
 64140  1  0  0  0
 65141  1  0  0  0
 68 77  1  0  0  0
 71 72  2  0  0  0
 71 79  1  0  0  0
 71142  1  0  0  0
 72 75  1  0  0  0
 72 82  1  0  0  0
 73 79  2  0  0  0
 73 80  1  0  0  0
 73 82  1  0  0  0
 74143  1  0  0  0
 74144  1  0  0  0
 74145  1  0  0  0
 74 78  1  0  0  0
 75 81  1  0  0  0
 75146  1  0  0  0
 75147  1  0  0  0
 76 77  1  0  0  0
 76 78  1  0  0  0
 76148  1  0  0  0
 76149  1  0  0  0
 77150  1  0  0  0
 77151  1  0  0  0
 78 81  1  0  0  0
 78152  1  0  0  0
 80153  1  0  0  0
 81154  1  0  0  0
 81155  1  0  0  0
M  CHG  1  81   1
M  ISO  4   1 100  68 101  77 101  80 100
M  END
> <chiral flag>
0

> <version>
0

> <s_m_source_file>
/data/baiqing/PycharmProjects/Reinvent-master-3.2/result/LINK_invent/BTK/process_docking_weight1_custom_product_contain_oxygen_bond_distance_aromatic_linkinvent_7_9_3/rearranged_h_0197.sdf

> <i_m_source_file_index>
46

> <r_mmod_Potential_Energy-OPLS-2005>
-274.326812744141

> <r_mmod_Stretch_Energy-OPLS-2005>
38.4796981811523

> <r_mmod_Bend_Energy-OPLS-2005>
105.103675842285

> <r_mmod_Torsional_Energy-OPLS-2005>
225.146240234375

> <r_mmod_Improper_Torsional_Energy-OPLS-2005>
3.38334059715271

> <r_mmod_Van_der_Waal_Energy-OPLS-2005>
132.297653198242

> <r_mmod_Electrostatic_Energy-OPLS-2005>
-290.506988525391

> <r_mmod_Solvation_Energy-OPLS-2005>
-500.788757324219

> <b_mmod_Minimization_Converged-OPLS-2005>
0

> <r_mmod_RMS_Derivative-OPLS-2005>
1.89930427074432

$$$$
46
                    3D
 Structure written by MMmdl.
154162  0  0  1  0            999 V2000
  -30.7161  -14.5275   20.5610 C   0  0  0  0  0  0
  -30.4167  -12.3407   19.4423 C   0  0  0  0  0  0
  -29.4984  -12.5146   18.2165 C   0  0  0  0  0  0
  -28.0186  -12.3752   18.6210 C   0  0  0  0  0  0
  -27.6578  -13.2236   19.8697 C   0  0  2  0  0  0
  -28.7010  -13.0553   20.9992 C   0  0  0  0  0  0
  -25.2573  -13.8187   20.5721 C   0  0  0  0  0  0
  -24.1842  -13.0438   20.9197 C   0  0  0  0  0  0
  -24.6421  -11.6921   20.8736 C   0  0  0  0  0  0
  -23.9098  -10.4305   21.0386 C   0  0  0  0  0  0
  -24.3654   -9.4215   21.9163 C   0  0  0  0  0  0
  -23.6333   -8.2252   22.0713 C   0  0  0  0  0  0
  -22.4297   -8.0305   21.3530 C   0  0  0  0  0  0
  -21.9952   -9.0290   20.4614 C   0  0  0  0  0  0
  -22.7280  -10.2163   20.3023 C   0  0  0  0  0  0
  -21.6864   -6.0759   22.5290 C   0  0  0  0  0  0
  -21.4019   -6.5651   23.8229 C   0  0  0  0  0  0
  -21.3660   -5.6792   24.9189 C   0  0  0  0  0  0
  -21.6051   -4.3060   24.7217 C   0  0  0  0  0  0
  -21.8828   -3.8152   23.4336 C   0  0  0  0  0  0
  -21.9193   -4.6985   22.3399 C   0  0  0  0  0  0
  -22.7865  -13.5218   21.1882 C   0  0  0  0  0  0
  -22.1653   -4.2169   21.0978 F   0  0  0  0  0  0
  -21.5637   -3.4536   25.7725 F   0  0  0  0  0  0
  -30.0303  -13.3509   20.4428 N   0  0  0  0  0  0
  -26.3024  -12.9395   20.3364 N   0  0  0  0  0  0
  -25.9357  -11.6543   20.5776 N   0  0  0  0  0  0
  -22.0500  -12.8209   22.0426 N   0  0  0  0  0  0
  -25.4289  -15.1920   20.4219 N   0  0  0  0  0  0
  -31.8425  -14.6751   20.0807 O   0  0  0  0  0  0
  -21.6632   -6.8915   21.4253 O   0  0  0  0  0  0
  -22.3551  -14.5537   20.6736 O   0  0  0  0  0  0
  -24.6170  -31.8620   23.2025 C   0  0  0  0  0  0
  -25.9042  -32.4807   23.8331 C   0  0  1  0  0  0
  -27.2407  -27.3863   20.1194 C   0  0  0  0  0  0
  -25.5901  -33.8601   24.2269 N   0  0  0  0  0  0
  -23.4106  -30.4794   21.5416 C   0  0  2  0  0  0
  -24.8635  -28.9293   20.1239 C   0  0  0  0  0  0
  -22.7433  -29.4624   22.4942 C   0  0  0  0  0  0
  -18.0283  -28.1400   22.8494 C   0  0  0  0  0  0
  -24.1491  -36.7305   23.2623 C   0  0  0  0  0  0
  -25.9406  -30.8161   21.3607 C   0  0  0  0  0  0
  -26.0243  -29.4405   20.7204 C   0  0  0  0  0  0
  -27.2180  -28.6752   20.7137 C   0  0  0  0  0  0
  -26.0640  -26.8948   19.5223 C   0  0  0  0  0  0
  -24.8795  -27.6573   19.5226 C   0  0  0  0  0  0
  -23.6274  -29.8000   20.1620 C   0  0  0  0  0  0
  -25.4118  -36.3099   24.0311 C   0  0  1  0  0  0
  -20.5873  -28.3691   23.1312 C   0  0  2  0  0  0
  -20.6792  -26.9424   22.5426 C   0  0  0  0  0  0
  -19.5765  -26.6398   21.5231 C   0  0  0  0  0  0
  -18.1940  -26.7948   22.1634 C   0  0  0  0  0  0
  -19.1534  -28.8859   23.2893 C   0  0  0  0  0  0
  -18.9465  -30.1476   23.8896 C   0  0  0  0  0  0
  -17.6464  -30.6600   24.0588 C   0  0  0  0  0  0
  -25.9045  -34.9466   23.5082 C   0  0  0  0  0  0
  -16.5349  -29.9120   23.6329 C   0  0  0  0  0  0
  -16.7271  -28.6537   23.0336 C   0  0  0  0  0  0
  -26.4473  -31.6603   25.0668 C   0  0  0  0  0  0
  -25.3734  -31.3744   26.1412 C   0  0  0  0  0  0
  -27.0309  -30.3047   24.6061 C   0  0  0  0  0  0
  -27.6038  -32.4323   25.7455 C   0  0  0  0  0  0
  -27.5592  -37.1795   24.8444 C   0  0  0  0  0  0
  -21.4144  -29.3040   22.3697 N   0  0  0  0  0  0
  -26.4292  -37.3797   23.9414 N   0  0  0  0  0  0
  -24.6745  -31.0678   22.0948 N   0  0  0  0  0  0
  -23.4183  -28.8159   23.2990 O   0  0  0  0  0  0
  -28.4015  -26.6374   20.0528 O   0  0  0  0  0  0
  -26.5606  -34.8932   22.4650 O   0  0  0  0  0  0
  -23.5345  -32.1364   23.7410 O   0  0  0  0  0  0
  -28.8524  -17.7051   19.3968 C   0  0  0  0  0  0
  -29.7075  -18.0012   20.4285 C   0  0  0  0  0  0
  -28.9821  -20.1288   19.8549 C   0  0  0  0  0  0
  -30.2869  -22.7917   21.3004 C   0  0  0  0  0  0
  -30.5354  -16.9786   21.2078 C   0  0  0  0  0  0
  -28.4938  -24.0483   19.8986 C   0  0  0  0  0  0
  -28.4422  -25.3683   20.7560 C   0  0  0  0  0  0
  -28.8908  -22.7215   20.6624 C   0  0  1  0  0  0
  -29.7511  -19.4007   20.6927 N   0  0  0  0  0  0
  -28.7819  -21.5232   19.8065 N   0  0  0  0  0  0
  -30.0584  -15.5729   21.1102 N   0  0  0  0  0  0
  -28.1299  -19.1261   18.6904 S   0  0  0  0  0  0
  -31.4603  -12.4285   19.1412 H   0  0  0  0  0  0
  -30.3084  -11.3385   19.8606 H   0  0  0  0  0  0
  -29.7483  -11.7803   17.4502 H   0  0  0  0  0  0
  -29.6688  -13.4960   17.7673 H   0  0  0  0  0  0
  -27.8254  -11.3205   18.8197 H   0  0  0  0  0  0
  -27.3741  -12.6485   17.7837 H   0  0  0  0  0  0
  -27.6850  -14.2663   19.5519 H   0  0  0  0  0  0
  -28.6809  -12.0381   21.3972 H   0  0  0  0  0  0
  -28.4540  -13.7042   21.8406 H   0  0  0  0  0  0
  -25.2800   -9.5682   22.4746 H   0  0  0  0  0  0
  -24.0049   -7.4613   22.7410 H   0  0  0  0  0  0
  -21.0880   -8.8825   19.8920 H   0  0  0  0  0  0
  -22.3746  -10.9723   19.6130 H   0  0  0  0  0  0
  -21.2005   -7.6154   23.9752 H   0  0  0  0  0  0
  -21.1476   -6.0500   25.9102 H   0  0  0  0  0  0
  -22.0597   -2.7611   23.2817 H   0  0  0  0  0  0
  -22.4124  -11.9884   22.4847 H   0  0  0  0  0  0
  -21.1111  -13.1213   22.2630 H   0  0  0  0  0  0
  -24.6707  -15.8507   20.5618 H   0  0  0  0  0  0
  -26.3003  -15.6405   20.1665 H   0  0  0  0  0  0
  -26.7112  -32.5526   23.1091 H   0  0  0  0  0  0
  -25.0123  -33.9756   25.0468 H   0  0  0  0  0  0
  -22.6998  -31.2939   21.3914 H   0  0  0  0  0  0
  -23.3766  -35.9625   23.3265 H   0  0  0  0  0  0
  -24.3575  -36.8950   22.2038 H   0  0  0  0  0  0
  -23.7234  -37.6492   23.6669 H   0  0  0  0  0  0
  -26.0386  -31.5736   20.5816 H   0  0  0  0  0  0
  -26.8317  -30.8884   21.9720 H   0  0  0  0  0  0
  -28.1162  -29.0638   21.1734 H   0  0  0  0  0  0
  -26.0730  -25.9227   19.0501 H   0  0  0  0  0  0
  -23.9901  -27.2551   19.0559 H   0  0  0  0  0  0
  -23.7420  -30.5668   19.3944 H   0  0  0  0  0  0
  -22.7550  -29.2143   19.8646 H   0  0  0  0  0  0
  -25.1304  -36.1920   25.0803 H   0  0  0  0  0  0
  -20.9966  -28.3281   24.1433 H   0  0  0  0  0  0
  -20.5737  -26.2292   23.3615 H   0  0  0  0  0  0
  -21.6659  -26.7502   22.1193 H   0  0  0  0  0  0
  -19.6942  -25.6312   21.1260 H   0  0  0  0  0  0
  -19.6719  -27.3216   20.6769 H   0  0  0  0  0  0
  -17.4221  -26.6697   21.4029 H   0  0  0  0  0  0
  -18.0336  -26.0089   22.9026 H   0  0  0  0  0  0
  -19.7937  -30.7305   24.2242 H   0  0  0  0  0  0
  -17.5022  -31.6262   24.5220 H   0  0  0  0  0  0
  -15.5362  -30.3033   23.7636 H   0  0  0  0  0  0
  -15.8675  -28.0880   22.7021 H   0  0  0  0  0  0
  -24.5889  -30.7114   25.7744 H   0  0  0  0  0  0
  -24.8961  -32.2934   26.4824 H   0  0  0  0  0  0
  -25.8064  -30.8922   27.0182 H   0  0  0  0  0  0
  -26.2864  -29.6800   24.1117 H   0  0  0  0  0  0
  -27.4080  -29.7269   25.4502 H   0  0  0  0  0  0
  -27.8686  -30.4346   23.9209 H   0  0  0  0  0  0
  -27.2654  -33.3620   26.2033 H   0  0  0  0  0  0
  -28.3881  -32.6880   25.0322 H   0  0  0  0  0  0
  -28.0681  -31.8449   26.5379 H   0  0  0  0  0  0
  -28.2559  -38.0139   24.7571 H   0  0  0  0  0  0
  -28.1136  -36.2674   24.6187 H   0  0  0  0  0  0
  -27.2302  -37.1331   25.8837 H   0  0  0  0  0  0
  -20.9303  -29.8753   21.6915 H   0  0  0  0  0  0
  -26.0157  -38.2850   24.1500 H   0  0  0  0  0  0
  -28.6187  -16.7332   18.9869 H   0  0  0  0  0  0
  -30.3903  -23.6339   21.9841 H   0  0  0  0  0  0
  -31.0684  -22.8710   20.5439 H   0  0  0  0  0  0
  -30.4846  -21.8981   21.8933 H   0  0  0  0  0  0
  -30.5558  -17.2441   22.2656 H   0  0  0  0  0  0
  -31.5779  -17.0407   20.8861 H   0  0  0  0  0  0
  -29.1730  -24.1927   19.0566 H   0  0  0  0  0  0
  -27.5091  -23.9035   19.4495 H   0  0  0  0  0  0
  -29.3676  -25.4398   21.3226 H   0  0  0  0  0  0
  -27.6512  -25.2998   21.5052 H   0  0  0  0  0  0
  -28.1685  -22.5888   21.4699 H   0  0  0  0  0  0
  -28.2678  -21.7397   18.9584 H   0  0  0  0  0  0
  -29.1449  -15.3900   21.4967 H   0  0  0  0  0  0
  1 25  1  0  0  0
  1 30  2  0  0  0
  1 81  1  0  0  0
  2  3  1  0  0  0
  2 25  1  0  0  0
  2 83  1  0  0  0
  2 84  1  0  0  0
  3  4  1  0  0  0
  3 85  1  0  0  0
  3 86  1  0  0  0
  4  5  1  0  0  0
  4 87  1  0  0  0
  4 88  1  0  0  0
  5  6  1  0  0  0
  5 26  1  0  0  0
  5 89  1  0  0  0
  6 25  1  0  0  0
  6 90  1  0  0  0
  6 91  1  0  0  0
  7  8  2  0  0  0
  7 26  1  0  0  0
  7 29  1  0  0  0
  8  9  1  0  0  0
  8 22  1  0  0  0
  9 10  1  0  0  0
  9 27  2  0  0  0
 10 11  2  0  0  0
 10 15  1  0  0  0
 11 12  1  0  0  0
 11 92  1  0  0  0
 12 13  2  0  0  0
 12 93  1  0  0  0
 13 14  1  0  0  0
 13 31  1  0  0  0
 14 15  2  0  0  0
 14 94  1  0  0  0
 15 95  1  0  0  0
 16 17  2  0  0  0
 16 21  1  0  0  0
 16 31  1  0  0  0
 17 18  1  0  0  0
 17 96  1  0  0  0
 18 19  2  0  0  0
 18 97  1  0  0  0
 19 20  1  0  0  0
 19 24  1  0  0  0
 20 21  2  0  0  0
 20 98  1  0  0  0
 21 23  1  0  0  0
 22 28  1  0  0  0
 22 32  2  0  0  0
 26 27  1  0  0  0
 28 99  1  0  0  0
 28100  1  0  0  0
 29101  1  0  0  0
 29102  1  0  0  0
 33 34  1  0  0  0
 33 66  1  0  0  0
 33 70  2  0  0  0
 34 36  1  0  0  0
 34 59  1  0  0  0
 34103  1  0  0  0
 35 44  2  0  0  0
 35 45  1  0  0  0
 35 68  1  0  0  0
 36 56  1  0  0  0
 36104  1  0  0  0
 37 39  1  0  0  0
 37 47  1  0  0  0
 37 66  1  0  0  0
 37105  1  0  0  0
 38 43  2  0  0  0
 38 46  1  0  0  0
 38 47  1  0  0  0
 39 64  1  0  0  0
 39 67  2  0  0  0
 40 52  1  0  0  0
 40 53  2  0  0  0
 40 58  1  0  0  0
 41106  1  0  0  0
 41107  1  0  0  0
 41108  1  0  0  0
 41 48  1  0  0  0
 42 43  1  0  0  0
 42 66  1  0  0  0
 42109  1  0  0  0
 42110  1  0  0  0
 43 44  1  0  0  0
 44111  1  0  0  0
 45 46  2  0  0  0
 45112  1  0  0  0
 46113  1  0  0  0
 47114  1  0  0  0
 47115  1  0  0  0
 48 56  1  0  0  0
 48 65  1  0  0  0
 48116  1  0  0  0
 49 50  1  0  0  0
 49 53  1  0  0  0
 49 64  1  0  0  0
 49117  1  0  0  0
 50 51  1  0  0  0
 50118  1  0  0  0
 50119  1  0  0  0
 51 52  1  0  0  0
 51120  1  0  0  0
 51121  1  0  0  0
 52122  1  0  0  0
 52123  1  0  0  0
 53 54  1  0  0  0
 54 55  2  0  0  0
 54124  1  0  0  0
 55 57  1  0  0  0
 55125  1  0  0  0
 56 69  2  0  0  0
 57 58  2  0  0  0
 57126  1  0  0  0
 58127  1  0  0  0
 59 60  1  0  0  0
 59 61  1  0  0  0
 59 62  1  0  0  0
 60128  1  0  0  0
 60129  1  0  0  0
 60130  1  0  0  0
 61131  1  0  0  0
 61132  1  0  0  0
 61133  1  0  0  0
 62134  1  0  0  0
 62135  1  0  0  0
 62136  1  0  0  0
 63 65  1  0  0  0
 63137  1  0  0  0
 63138  1  0  0  0
 63139  1  0  0  0
 64140  1  0  0  0
 65141  1  0  0  0
 68 77  1  0  0  0
 71 72  2  0  0  0
 71 82  1  0  0  0
 71142  1  0  0  0
 72 75  1  0  0  0
 72 79  1  0  0  0
 73 79  2  0  0  0
 73 80  1  0  0  0
 73 82  1  0  0  0
 74143  1  0  0  0
 74144  1  0  0  0
 74145  1  0  0  0
 74 78  1  0  0  0
 75 81  1  0  0  0
 75146  1  0  0  0
 75147  1  0  0  0
 76 77  1  0  0  0
 76 78  1  0  0  0
 76148  1  0  0  0
 76149  1  0  0  0
 77150  1  0  0  0
 77151  1  0  0  0
 78 80  1  0  0  0
 78152  1  0  0  0
 80153  1  0  0  0
 81154  1  0  0  0
M  ISO  4   1 100  68 101  77 101  81 100
M  END
> <chiral flag>
0

> <version>
0

> <s_m_source_file>
/data/baiqing/PycharmProjects/Reinvent-master-3.2/result/LINK_invent/BTK/process_docking_weight1_custom_product_contain_oxygen_bond_distance_aromatic_linkinvent_7_9_3/rearranged_h_0197.sdf

> <i_m_source_file_index>
47

> <r_mmod_Potential_Energy-OPLS-2005>
-229.664703369141

> <r_mmod_Stretch_Energy-OPLS-2005>
48.4233322143555

> <r_mmod_Bend_Energy-OPLS-2005>
115.47469329834

> <r_mmod_Torsional_Energy-OPLS-2005>
205.761657714844

> <r_mmod_Improper_Torsional_Energy-OPLS-2005>
3.26727962493896

> <r_mmod_Van_der_Waal_Energy-OPLS-2005>
116.989936828613

> <r_mmod_Electrostatic_Energy-OPLS-2005>
-508.628356933594

> <r_mmod_Solvation_Energy-OPLS-2005>
-230.907867431641

> <b_mmod_Minimization_Converged-OPLS-2005>
0

> <r_mmod_RMS_Derivative-OPLS-2005>
4.07384014129639

$$$$
47
                    3D
 Structure written by MMmdl.
152160  0  0  1  0            999 V2000
  -30.6181  -14.7159   20.4758 C   0  0  0  0  0  0
  -30.4357  -12.4372   19.4698 C   0  0  0  0  0  0
  -29.5096  -12.5056   18.2350 C   0  0  0  0  0  0
  -28.0357  -12.3299   18.6498 C   0  0  0  0  0  0
  -27.6454  -13.2260   19.8554 C   0  0  2  0  0  0
  -28.6909  -13.1418   20.9903 C   0  0  0  0  0  0
  -25.2518  -13.8186   20.5685 C   0  0  0  0  0  0
  -24.1807  -13.0433   20.9199 C   0  0  0  0  0  0
  -24.6393  -11.6911   20.8751 C   0  0  0  0  0  0
  -23.9072  -10.4285   21.0409 C   0  0  0  0  0  0
  -24.3620   -9.4203   21.9188 C   0  0  0  0  0  0
  -23.6290   -8.2243   22.0758 C   0  0  0  0  0  0
  -22.4271   -8.0281   21.3549 C   0  0  0  0  0  0
  -21.9914   -9.0257   20.4650 C   0  0  0  0  0  0
  -22.7246  -10.2130   20.3061 C   0  0  0  0  0  0
  -21.6854   -6.0730   22.5271 C   0  0  0  0  0  0
  -21.4017   -6.5635   23.8205 C   0  0  0  0  0  0
  -21.3659   -5.6788   24.9170 C   0  0  0  0  0  0
  -21.6046   -4.3054   24.7222 C   0  0  0  0  0  0
  -21.8820   -3.8144   23.4345 C   0  0  0  0  0  0
  -21.9192   -4.6957   22.3400 C   0  0  0  0  0  0
  -22.7831  -13.5219   21.1864 C   0  0  0  0  0  0
  -22.1661   -4.2144   21.0978 F   0  0  0  0  0  0
  -21.5630   -3.4539   25.7737 F   0  0  0  0  0  0
  -29.9967  -13.4896   20.4129 N   0  0  0  0  0  0
  -26.2952  -12.9384   20.3300 N   0  0  0  0  0  0
  -25.9323  -11.6529   20.5771 N   0  0  0  0  0  0
  -22.0482  -12.8205   22.0418 N   0  0  0  0  0  0
  -25.4203  -15.1910   20.4071 N   0  0  0  0  0  0
  -31.8044  -14.8167   20.1469 O   0  0  0  0  0  0
  -21.6640   -6.8874   21.4236 O   0  0  0  0  0  0
  -22.3519  -14.5527   20.6708 O   0  0  0  0  0  0
  -24.6296  -31.8576   23.2000 C   0  0  0  0  0  0
  -25.9130  -32.4766   23.8334 C   0  0  1  0  0  0
  -27.2155  -27.2785   20.1242 C   0  0  0  0  0  0
  -25.5934  -33.8570   24.2261 N   0  0  0  0  0  0
  -23.4243  -30.4811   21.5447 C   0  0  2  0  0  0
  -24.8707  -28.9358   20.1074 C   0  0  0  0  0  0
  -22.7487  -29.4607   22.4931 C   0  0  0  0  0  0
  -18.0287  -28.1385   22.8478 C   0  0  0  0  0  0
  -24.1498  -36.7282   23.2639 C   0  0  0  0  0  0
  -25.9697  -30.7761   21.3776 C   0  0  0  0  0  0
  -26.0427  -29.4017   20.7170 C   0  0  0  0  0  0
  -27.2177  -28.5856   20.7152 C   0  0  0  0  0  0
  -26.0205  -26.8811   19.4794 C   0  0  0  0  0  0
  -24.8648  -27.6828   19.4777 C   0  0  0  0  0  0
  -23.6412  -29.8204   20.1587 C   0  0  0  0  0  0
  -25.4127  -36.3075   24.0328 C   0  0  1  0  0  0
  -20.5890  -28.3686   23.1284 C   0  0  2  0  0  0
  -20.6781  -26.9406   22.5420 C   0  0  0  0  0  0
  -19.5758  -26.6375   21.5220 C   0  0  0  0  0  0
  -18.1930  -26.7921   22.1621 C   0  0  0  0  0  0
  -19.1544  -28.8851   23.2865 C   0  0  0  0  0  0
  -18.9471  -30.1445   23.8882 C   0  0  0  0  0  0
  -17.6477  -30.6583   24.0561 C   0  0  0  0  0  0
  -25.9067  -34.9447   23.5095 C   0  0  0  0  0  0
  -16.5364  -29.9081   23.6336 C   0  0  0  0  0  0
  -16.7276  -28.6507   23.0342 C   0  0  0  0  0  0
  -26.4512  -31.6580   25.0713 C   0  0  0  0  0  0
  -25.3733  -31.3744   26.1431 C   0  0  0  0  0  0
  -27.0350  -30.2997   24.6179 C   0  0  0  0  0  0
  -27.6055  -32.4327   25.7494 C   0  0  0  0  0  0
  -27.5584  -37.1794   24.8468 C   0  0  0  0  0  0
  -21.4197  -29.3038   22.3677 N   0  0  0  0  0  0
  -26.4300  -37.3774   23.9415 N   0  0  0  0  0  0
  -24.6937  -31.0550   22.0974 N   0  0  0  0  0  0
  -23.4191  -28.8141   23.3022 O   0  0  0  0  0  0
  -28.3093  -26.3866   20.1932 O   0  0  0  0  0  0
  -26.5630  -34.8919   22.4658 O   0  0  0  0  0  0
  -23.5452  -32.1410   23.7304 O   0  0  0  0  0  0
  -31.3059  -19.2415   20.6368 C   0  0  0  0  0  0
  -30.0743  -19.8805   20.6627 C   0  0  0  0  0  0
  -30.0662  -17.2758   20.6471 C   0  0  0  0  0  0
  -32.6358  -19.9332   20.6529 C   0  0  0  0  0  0
  -28.8656  -22.2314   20.2044 C   0  0  0  0  0  0
  -28.0382  -24.9151   20.0689 C   0  0  0  0  0  0
  -29.1053  -23.7977   20.5302 C   0  0  1  0  0  0
  -31.2897  -17.8224   20.6223 N   0  0  0  0  0  0
  -29.9067  -21.3183   20.7934 N   0  0  0  0  0  0
  -29.8148  -15.8198   20.7032 N   0  0  0  0  0  0
  -29.1429  -23.7583   21.9422 O   0  0  0  0  0  0
  -28.8241  -18.6013   20.6555 S   0  0  0  0  0  0
  -31.4769  -12.5604   19.1671 H   0  0  0  0  0  0
  -30.3775  -11.4570   19.9447 H   0  0  0  0  0  0
  -29.7874  -11.7376   17.5120 H   0  0  0  0  0  0
  -29.6369  -13.4640   17.7289 H   0  0  0  0  0  0
  -27.8917  -11.2809   18.9109 H   0  0  0  0  0  0
  -27.3765  -12.5260   17.8036 H   0  0  0  0  0  0
  -27.6443  -14.2497   19.4808 H   0  0  0  0  0  0
  -28.7194  -12.1389   21.4187 H   0  0  0  0  0  0
  -28.4285  -13.8124   21.8104 H   0  0  0  0  0  0
  -25.2764   -9.5675   22.4761 H   0  0  0  0  0  0
  -23.9991   -7.4640   22.7485 H   0  0  0  0  0  0
  -21.0843   -8.8780   19.8961 H   0  0  0  0  0  0
  -22.3708  -10.9670   19.6170 H   0  0  0  0  0  0
  -21.2012   -7.6143   23.9705 H   0  0  0  0  0  0
  -21.1481   -6.0522   25.9069 H   0  0  0  0  0  0
  -22.0599   -2.7604   23.2847 H   0  0  0  0  0  0
  -22.4100  -11.9854   22.4781 H   0  0  0  0  0  0
  -21.1113  -13.1237   22.2655 H   0  0  0  0  0  0
  -24.6439  -15.8367   20.5035 H   0  0  0  0  0  0
  -26.2508  -15.6292   20.0316 H   0  0  0  0  0  0
  -26.7183  -32.5418   23.1061 H   0  0  0  0  0  0
  -25.0091  -33.9718   25.0412 H   0  0  0  0  0  0
  -22.7206  -31.3038   21.4014 H   0  0  0  0  0  0
  -23.3766  -35.9606   23.3303 H   0  0  0  0  0  0
  -24.3581  -36.8911   22.2054 H   0  0  0  0  0  0
  -23.7249  -37.6480   23.6664 H   0  0  0  0  0  0
  -26.1061  -31.5394   20.6102 H   0  0  0  0  0  0
  -26.8476  -30.8224   22.0104 H   0  0  0  0  0  0
  -28.1139  -28.9319   21.2116 H   0  0  0  0  0  0
  -25.9443  -25.9264   18.9816 H   0  0  0  0  0  0
  -23.9680  -27.3243   18.9909 H   0  0  0  0  0  0
  -23.7626  -30.6008   19.4062 H   0  0  0  0  0  0
  -22.7587  -29.2549   19.8531 H   0  0  0  0  0  0
  -25.1303  -36.1925   25.0822 H   0  0  0  0  0  0
  -20.9968  -28.3266   24.1411 H   0  0  0  0  0  0
  -20.5715  -26.2287   23.3625 H   0  0  0  0  0  0
  -21.6647  -26.7460   22.1199 H   0  0  0  0  0  0
  -19.6950  -25.6291   21.1238 H   0  0  0  0  0  0
  -19.6709  -27.3201   20.6766 H   0  0  0  0  0  0
  -17.4216  -26.6668   21.4010 H   0  0  0  0  0  0
  -18.0317  -26.0064   22.9020 H   0  0  0  0  0  0
  -19.7959  -30.7245   24.2251 H   0  0  0  0  0  0
  -17.5049  -31.6272   24.5153 H   0  0  0  0  0  0
  -15.5368  -30.2985   23.7681 H   0  0  0  0  0  0
  -15.8673  -28.0835   22.7056 H   0  0  0  0  0  0
  -24.5909  -30.7095   25.7773 H   0  0  0  0  0  0
  -24.8923  -32.2918   26.4824 H   0  0  0  0  0  0
  -25.8035  -30.8948   27.0229 H   0  0  0  0  0  0
  -26.2925  -29.6745   24.1203 H   0  0  0  0  0  0
  -27.4055  -29.7261   25.4687 H   0  0  0  0  0  0
  -27.8793  -30.4286   23.9402 H   0  0  0  0  0  0
  -27.2650  -33.3647   26.2019 H   0  0  0  0  0  0
  -28.3879  -32.6858   25.0330 H   0  0  0  0  0  0
  -28.0685  -31.8482   26.5454 H   0  0  0  0  0  0
  -28.2589  -38.0099   24.7500 H   0  0  0  0  0  0
  -28.1081  -36.2621   24.6294 H   0  0  0  0  0  0
  -27.2285  -37.1445   25.8865 H   0  0  0  0  0  0
  -20.9380  -29.8765   21.6890 H   0  0  0  0  0  0
  -26.0176  -38.2849   24.1410 H   0  0  0  0  0  0
  -32.7433  -20.5537   21.5424 H   0  0  0  0  0  0
  -32.7498  -20.5815   19.7840 H   0  0  0  0  0  0
  -33.4660  -19.2268   20.6485 H   0  0  0  0  0  0
  -28.8539  -22.0921   19.1226 H   0  0  0  0  0  0
  -27.8803  -21.9231   20.5589 H   0  0  0  0  0  0
  -27.0998  -24.6837   20.5759 H   0  0  0  0  0  0
  -27.8547  -24.7357   19.0087 H   0  0  0  0  0  0
  -30.0874  -24.0836   20.1517 H   0  0  0  0  0  0
  -30.8059  -21.7831   20.8976 H   0  0  0  0  0  0
  -28.8543  -15.5784   20.8862 H   0  0  0  0  0  0
  -29.4107  -22.8615   22.1432 H   0  0  0  0  0  0
  1 25  1  0  0  0
  1 30  2  0  0  0
  1 80  1  0  0  0
  2  3  1  0  0  0
  2 25  1  0  0  0
  2 83  1  0  0  0
  2 84  1  0  0  0
  3  4  1  0  0  0
  3 85  1  0  0  0
  3 86  1  0  0  0
  4  5  1  0  0  0
  4 87  1  0  0  0
  4 88  1  0  0  0
  5  6  1  0  0  0
  5 26  1  0  0  0
  5 89  1  0  0  0
  6 25  1  0  0  0
  6 90  1  0  0  0
  6 91  1  0  0  0
  7  8  2  0  0  0
  7 26  1  0  0  0
  7 29  1  0  0  0
  8  9  1  0  0  0
  8 22  1  0  0  0
  9 10  1  0  0  0
  9 27  2  0  0  0
 10 11  2  0  0  0
 10 15  1  0  0  0
 11 12  1  0  0  0
 11 92  1  0  0  0
 12 13  2  0  0  0
 12 93  1  0  0  0
 13 14  1  0  0  0
 13 31  1  0  0  0
 14 15  2  0  0  0
 14 94  1  0  0  0
 15 95  1  0  0  0
 16 17  2  0  0  0
 16 21  1  0  0  0
 16 31  1  0  0  0
 17 18  1  0  0  0
 17 96  1  0  0  0
 18 19  2  0  0  0
 18 97  1  0  0  0
 19 20  1  0  0  0
 19 24  1  0  0  0
 20 21  2  0  0  0
 20 98  1  0  0  0
 21 23  1  0  0  0
 22 28  1  0  0  0
 22 32  2  0  0  0
 26 27  1  0  0  0
 28 99  1  0  0  0
 28100  1  0  0  0
 29101  1  0  0  0
 29102  1  0  0  0
 33 34  1  0  0  0
 33 66  1  0  0  0
 33 70  2  0  0  0
 34 36  1  0  0  0
 34 59  1  0  0  0
 34103  1  0  0  0
 35 44  2  0  0  0
 35 45  1  0  0  0
 35 68  1  0  0  0
 36 56  1  0  0  0
 36104  1  0  0  0
 37 39  1  0  0  0
 37 47  1  0  0  0
 37 66  1  0  0  0
 37105  1  0  0  0
 38 43  2  0  0  0
 38 46  1  0  0  0
 38 47  1  0  0  0
 39 64  1  0  0  0
 39 67  2  0  0  0
 40 52  1  0  0  0
 40 53  2  0  0  0
 40 58  1  0  0  0
 41106  1  0  0  0
 41107  1  0  0  0
 41108  1  0  0  0
 41 48  1  0  0  0
 42 43  1  0  0  0
 42 66  1  0  0  0
 42109  1  0  0  0
 42110  1  0  0  0
 43 44  1  0  0  0
 44111  1  0  0  0
 45 46  2  0  0  0
 45112  1  0  0  0
 46113  1  0  0  0
 47114  1  0  0  0
 47115  1  0  0  0
 48 56  1  0  0  0
 48 65  1  0  0  0
 48116  1  0  0  0
 49 50  1  0  0  0
 49 53  1  0  0  0
 49 64  1  0  0  0
 49117  1  0  0  0
 50 51  1  0  0  0
 50118  1  0  0  0
 50119  1  0  0  0
 51 52  1  0  0  0
 51120  1  0  0  0
 51121  1  0  0  0
 52122  1  0  0  0
 52123  1  0  0  0
 53 54  1  0  0  0
 54 55  2  0  0  0
 54124  1  0  0  0
 55 57  1  0  0  0
 55125  1  0  0  0
 56 69  2  0  0  0
 57 58  2  0  0  0
 57126  1  0  0  0
 58127  1  0  0  0
 59 60  1  0  0  0
 59 61  1  0  0  0
 59 62  1  0  0  0
 60128  1  0  0  0
 60129  1  0  0  0
 60130  1  0  0  0
 61131  1  0  0  0
 61132  1  0  0  0
 61133  1  0  0  0
 62134  1  0  0  0
 62135  1  0  0  0
 62136  1  0  0  0
 63 65  1  0  0  0
 63137  1  0  0  0
 63138  1  0  0  0
 63139  1  0  0  0
 64140  1  0  0  0
 65141  1  0  0  0
 68 76  1  0  0  0
 71 72  2  0  0  0
 71 74  1  0  0  0
 71 78  1  0  0  0
 72 79  1  0  0  0
 72 82  1  0  0  0
 73 78  2  0  0  0
 73 80  1  0  0  0
 73 82  1  0  0  0
 74142  1  0  0  0
 74143  1  0  0  0
 74144  1  0  0  0
 75 77  1  0  0  0
 75 79  1  0  0  0
 75145  1  0  0  0
 75146  1  0  0  0
 76 77  1  0  0  0
 76147  1  0  0  0
 76148  1  0  0  0
 77 81  1  0  0  0
 77149  1  0  0  0
 79150  1  0  0  0
 80151  1  0  0  0
 81152  1  0  0  0
M  ISO  4   1 100  68 101  76 101  80 100
M  END
> <chiral flag>
0

> <version>
0

> <s_m_source_file>
/data/baiqing/PycharmProjects/Reinvent-master-3.2/result/LINK_invent/BTK/process_docking_weight1_custom_product_contain_oxygen_bond_distance_aromatic_linkinvent_7_9_3/rearranged_h_0197.sdf

> <i_m_source_file_index>
48

> <r_mmod_Potential_Energy-OPLS-2005>
76.0926971435547

> <r_mmod_Stretch_Energy-OPLS-2005>
102.79566192627

> <r_mmod_Bend_Energy-OPLS-2005>
171.394897460938

> <r_mmod_Torsional_Energy-OPLS-2005>
233.551239013672

> <r_mmod_Improper_Torsional_Energy-OPLS-2005>
7.62715148925781

> <r_mmod_Van_der_Waal_Energy-OPLS-2005>
123.85432434082

> <r_mmod_Electrostatic_Energy-OPLS-2005>
-380.035003662109

> <r_mmod_Solvation_Energy-OPLS-2005>
-257.866302490234

> <b_mmod_Minimization_Converged-OPLS-2005>
0

> <r_mmod_RMS_Derivative-OPLS-2005>
1.41568064689636

$$$$
48
                    3D
 Structure written by MMmdl.
152160  0  0  1  0            999 V2000
  -30.5605  -14.7890   20.4502 C   0  0  0  0  0  0
  -30.4475  -12.4825   19.4741 C   0  0  0  0  0  0
  -29.5195  -12.5145   18.2376 C   0  0  0  0  0  0
  -28.0446  -12.3257   18.6499 C   0  0  0  0  0  0
  -27.6418  -13.2267   19.8472 C   0  0  2  0  0  0
  -28.6855  -13.1618   20.9837 C   0  0  0  0  0  0
  -25.2512  -13.8179   20.5661 C   0  0  0  0  0  0
  -24.1806  -13.0435   20.9205 C   0  0  0  0  0  0
  -24.6392  -11.6911   20.8747 C   0  0  0  0  0  0
  -23.9070  -10.4291   21.0415 C   0  0  0  0  0  0
  -24.3621   -9.4201   21.9188 C   0  0  0  0  0  0
  -23.6291   -8.2238   22.0759 C   0  0  0  0  0  0
  -22.4272   -8.0283   21.3546 C   0  0  0  0  0  0
  -21.9905   -9.0262   20.4654 C   0  0  0  0  0  0
  -22.7243  -10.2136   20.3060 C   0  0  0  0  0  0
  -21.6851   -6.0733   22.5278 C   0  0  0  0  0  0
  -21.4020   -6.5637   23.8213 C   0  0  0  0  0  0
  -21.3660   -5.6789   24.9173 C   0  0  0  0  0  0
  -21.6038   -4.3052   24.7224 C   0  0  0  0  0  0
  -21.8820   -3.8143   23.4348 C   0  0  0  0  0  0
  -21.9194   -4.6962   22.3403 C   0  0  0  0  0  0
  -22.7830  -13.5227   21.1864 C   0  0  0  0  0  0
  -22.1662   -4.2150   21.0980 F   0  0  0  0  0  0
  -21.5626   -3.4536   25.7738 F   0  0  0  0  0  0
  -29.9830  -13.5368   20.4049 N   0  0  0  0  0  0
  -26.2933  -12.9368   20.3235 N   0  0  0  0  0  0
  -25.9316  -11.6524   20.5725 N   0  0  0  0  0  0
  -22.0467  -12.8233   22.0421 N   0  0  0  0  0  0
  -25.4181  -15.1904   20.4044 N   0  0  0  0  0  0
  -31.7569  -14.9219   20.1650 O   0  0  0  0  0  0
  -21.6636   -6.8876   21.4238 O   0  0  0  0  0  0
  -22.3517  -14.5530   20.6702 O   0  0  0  0  0  0
  -24.6338  -31.8522   23.1945 C   0  0  0  0  0  0
  -25.9149  -32.4741   23.8306 C   0  0  1  0  0  0
  -27.2237  -27.2422   20.1410 C   0  0  0  0  0  0
  -25.5937  -33.8544   24.2234 N   0  0  0  0  0  0
  -23.4320  -30.4723   21.5376 C   0  0  2  0  0  0
  -24.8798  -28.9054   20.1175 C   0  0  0  0  0  0
  -22.7516  -29.4585   22.4901 C   0  0  0  0  0  0
  -18.0295  -28.1383   22.8479 C   0  0  0  0  0  0
  -24.1490  -36.7277   23.2641 C   0  0  0  0  0  0
  -25.9782  -30.7604   21.3743 C   0  0  0  0  0  0
  -26.0523  -29.3780   20.7211 C   0  0  0  0  0  0
  -27.2309  -28.5620   20.7120 C   0  0  0  0  0  0
  -26.0272  -26.8292   19.5240 C   0  0  0  0  0  0
  -24.8723  -27.6398   19.5069 C   0  0  0  0  0  0
  -23.6531  -29.7986   20.1569 C   0  0  0  0  0  0
  -25.4117  -36.3060   24.0325 C   0  0  1  0  0  0
  -20.5903  -28.3698   23.1262 C   0  0  2  0  0  0
  -20.6782  -26.9413   22.5403 C   0  0  0  0  0  0
  -19.5755  -26.6380   21.5206 C   0  0  0  0  0  0
  -18.1937  -26.7927   22.1622 C   0  0  0  0  0  0
  -19.1550  -28.8855   23.2868 C   0  0  0  0  0  0
  -18.9471  -30.1457   23.8887 C   0  0  0  0  0  0
  -17.6469  -30.6585   24.0557 C   0  0  0  0  0  0
  -25.9054  -34.9432   23.5080 C   0  0  0  0  0  0
  -16.5360  -29.9080   23.6326 C   0  0  0  0  0  0
  -16.7284  -28.6498   23.0349 C   0  0  0  0  0  0
  -26.4509  -31.6580   25.0710 C   0  0  0  0  0  0
  -25.3732  -31.3736   26.1433 C   0  0  0  0  0  0
  -27.0362  -30.3000   24.6209 C   0  0  0  0  0  0
  -27.6053  -32.4336   25.7492 C   0  0  0  0  0  0
  -27.5578  -37.1794   24.8464 C   0  0  0  0  0  0
  -21.4221  -29.3045   22.3650 N   0  0  0  0  0  0
  -26.4286  -37.3766   23.9411 N   0  0  0  0  0  0
  -24.7006  -31.0476   22.0918 N   0  0  0  0  0  0
  -23.4204  -28.8130   23.3015 O   0  0  0  0  0  0
  -28.3303  -26.3617   20.1136 O   0  0  0  0  0  0
  -26.5632  -34.8916   22.4653 O   0  0  0  0  0  0
  -23.5485  -32.1344   23.7234 O   0  0  0  0  0  0
  -28.8499  -18.2466   20.3194 C   0  0  0  0  0  0
  -29.4900  -19.5600   20.3488 C   0  0  0  0  0  0
  -29.8467  -17.2818   20.5104 C   0  0  0  0  0  0
  -30.6849  -22.5190   20.6127 C   0  0  0  0  0  0
  -28.4392  -23.5551   19.9079 C   0  0  0  0  0  0
  -28.2440  -24.9741   20.7068 C   0  0  0  0  0  0
  -29.1698  -22.2582   20.6078 C   0  0  1  0  0  0
  -30.7940  -19.3850   20.5689 N   0  0  0  0  0  0
  -31.0068  -18.0243   20.6482 N   0  0  0  0  0  0
  -28.8452  -20.8464   20.1030 N   0  0  0  0  0  0
  -29.7011  -15.8781   20.5903 N   0  0  0  0  0  0
  -31.4846  -12.6356   19.1710 H   0  0  0  0  0  0
  -30.4171  -11.5058   19.9592 H   0  0  0  0  0  0
  -29.8131  -11.7417   17.5262 H   0  0  0  0  0  0
  -29.6341  -13.4671   17.7171 H   0  0  0  0  0  0
  -27.9097  -11.2769   18.9175 H   0  0  0  0  0  0
  -27.3870  -12.5088   17.7993 H   0  0  0  0  0  0
  -27.6322  -14.2462   19.4612 H   0  0  0  0  0  0
  -28.7304  -12.1607   21.4148 H   0  0  0  0  0  0
  -28.4117  -13.8316   21.8010 H   0  0  0  0  0  0
  -25.2771   -9.5676   22.4762 H   0  0  0  0  0  0
  -24.0006   -7.4622   22.7469 H   0  0  0  0  0  0
  -21.0839   -8.8787   19.8951 H   0  0  0  0  0  0
  -22.3714  -10.9678   19.6165 H   0  0  0  0  0  0
  -21.2016   -7.6147   23.9719 H   0  0  0  0  0  0
  -21.1476   -6.0516   25.9077 H   0  0  0  0  0  0
  -22.0599   -2.7607   23.2846 H   0  0  0  0  0  0
  -22.4085  -11.9913   22.4845 H   0  0  0  0  0  0
  -21.1079  -13.1260   22.2598 H   0  0  0  0  0  0
  -24.6375  -15.8319   20.4927 H   0  0  0  0  0  0
  -26.2424  -15.6263   20.0135 H   0  0  0  0  0  0
  -26.7215  -32.5386   23.1046 H   0  0  0  0  0  0
  -25.0093  -33.9669   25.0391 H   0  0  0  0  0  0
  -22.7295  -31.2945   21.3862 H   0  0  0  0  0  0
  -23.3754  -35.9606   23.3295 H   0  0  0  0  0  0
  -24.3580  -36.8909   22.2055 H   0  0  0  0  0  0
  -23.7239  -37.6473   23.6677 H   0  0  0  0  0  0
  -26.1179  -31.5183   20.6022 H   0  0  0  0  0  0
  -26.8551  -30.8123   22.0080 H   0  0  0  0  0  0
  -28.1362  -28.9265   21.1773 H   0  0  0  0  0  0
  -25.9847  -25.8563   19.0550 H   0  0  0  0  0  0
  -23.9746  -27.2719   19.0293 H   0  0  0  0  0  0
  -23.7852  -30.5700   19.3977 H   0  0  0  0  0  0
  -22.7706  -29.2349   19.8490 H   0  0  0  0  0  0
  -25.1302  -36.1895   25.0817 H   0  0  0  0  0  0
  -20.9996  -28.3275   24.1386 H   0  0  0  0  0  0
  -20.5673  -26.2310   23.3612 H   0  0  0  0  0  0
  -21.6651  -26.7428   22.1206 H   0  0  0  0  0  0
  -19.6916  -25.6287   21.1245 H   0  0  0  0  0  0
  -19.6691  -27.3182   20.6728 H   0  0  0  0  0  0
  -17.4208  -26.6672   21.4026 H   0  0  0  0  0  0
  -18.0339  -26.0073   22.9020 H   0  0  0  0  0  0
  -19.7944  -30.7274   24.2260 H   0  0  0  0  0  0
  -17.5020  -31.6266   24.5158 H   0  0  0  0  0  0
  -15.5361  -30.2975   23.7656 H   0  0  0  0  0  0
  -15.8686  -28.0810   22.7072 H   0  0  0  0  0  0
  -24.5896  -30.7100   25.7758 H   0  0  0  0  0  0
  -24.8943  -32.2907   26.4871 H   0  0  0  0  0  0
  -25.8050  -30.8897   27.0201 H   0  0  0  0  0  0
  -26.2942  -29.6742   24.1235 H   0  0  0  0  0  0
  -27.4040  -29.7276   25.4733 H   0  0  0  0  0  0
  -27.8823  -30.4279   23.9455 H   0  0  0  0  0  0
  -27.2646  -33.3635   26.2060 H   0  0  0  0  0  0
  -28.3870  -32.6900   25.0329 H   0  0  0  0  0  0
  -28.0717  -31.8474   26.5420 H   0  0  0  0  0  0
  -28.2588  -38.0097   24.7516 H   0  0  0  0  0  0
  -28.1081  -36.2630   24.6282 H   0  0  0  0  0  0
  -27.2299  -37.1429   25.8866 H   0  0  0  0  0  0
  -20.9415  -29.8767   21.6849 H   0  0  0  0  0  0
  -26.0159  -38.2837   24.1415 H   0  0  0  0  0  0
  -27.7994  -18.0430   20.1663 H   0  0  0  0  0  0
  -30.9109  -23.5516   20.8816 H   0  0  0  0  0  0
  -31.1263  -22.3357   19.6323 H   0  0  0  0  0  0
  -31.2001  -21.8904   21.3386 H   0  0  0  0  0  0
  -28.9656  -23.7698   18.9774 H   0  0  0  0  0  0
  -27.4435  -23.2479   19.5879 H   0  0  0  0  0  0
  -29.0036  -24.9848   21.4882 H   0  0  0  0  0  0
  -27.3084  -24.9044   21.2637 H   0  0  0  0  0  0
  -28.8389  -22.2585   21.6481 H   0  0  0  0  0  0
  -31.9283  -17.6254   20.8047 H   0  0  0  0  0  0
  -27.8716  -20.7436   19.8292 H   0  0  0  0  0  0
  -28.7490  -15.5788   20.7249 H   0  0  0  0  0  0
  1 25  1  0  0  0
  1 30  2  0  0  0
  1 81  1  0  0  0
  2  3  1  0  0  0
  2 25  1  0  0  0
  2 82  1  0  0  0
  2 83  1  0  0  0
  3  4  1  0  0  0
  3 84  1  0  0  0
  3 85  1  0  0  0
  4  5  1  0  0  0
  4 86  1  0  0  0
  4 87  1  0  0  0
  5  6  1  0  0  0
  5 26  1  0  0  0
  5 88  1  0  0  0
  6 25  1  0  0  0
  6 89  1  0  0  0
  6 90  1  0  0  0
  7  8  2  0  0  0
  7 26  1  0  0  0
  7 29  1  0  0  0
  8  9  1  0  0  0
  8 22  1  0  0  0
  9 10  1  0  0  0
  9 27  2  0  0  0
 10 11  2  0  0  0
 10 15  1  0  0  0
 11 12  1  0  0  0
 11 91  1  0  0  0
 12 13  2  0  0  0
 12 92  1  0  0  0
 13 14  1  0  0  0
 13 31  1  0  0  0
 14 15  2  0  0  0
 14 93  1  0  0  0
 15 94  1  0  0  0
 16 17  2  0  0  0
 16 21  1  0  0  0
 16 31  1  0  0  0
 17 18  1  0  0  0
 17 95  1  0  0  0
 18 19  2  0  0  0
 18 96  1  0  0  0
 19 20  1  0  0  0
 19 24  1  0  0  0
 20 21  2  0  0  0
 20 97  1  0  0  0
 21 23  1  0  0  0
 22 28  1  0  0  0
 22 32  2  0  0  0
 26 27  1  0  0  0
 28 98  1  0  0  0
 28 99  1  0  0  0
 29100  1  0  0  0
 29101  1  0  0  0
 33 34  1  0  0  0
 33 66  1  0  0  0
 33 70  2  0  0  0
 34 36  1  0  0  0
 34 59  1  0  0  0
 34102  1  0  0  0
 35 44  2  0  0  0
 35 45  1  0  0  0
 35 68  1  0  0  0
 36 56  1  0  0  0
 36103  1  0  0  0
 37 39  1  0  0  0
 37 47  1  0  0  0
 37 66  1  0  0  0
 37104  1  0  0  0
 38 43  2  0  0  0
 38 46  1  0  0  0
 38 47  1  0  0  0
 39 64  1  0  0  0
 39 67  2  0  0  0
 40 52  1  0  0  0
 40 53  2  0  0  0
 40 58  1  0  0  0
 41105  1  0  0  0
 41106  1  0  0  0
 41107  1  0  0  0
 41 48  1  0  0  0
 42 43  1  0  0  0
 42 66  1  0  0  0
 42108  1  0  0  0
 42109  1  0  0  0
 43 44  1  0  0  0
 44110  1  0  0  0
 45 46  2  0  0  0
 45111  1  0  0  0
 46112  1  0  0  0
 47113  1  0  0  0
 47114  1  0  0  0
 48 56  1  0  0  0
 48 65  1  0  0  0
 48115  1  0  0  0
 49 50  1  0  0  0
 49 53  1  0  0  0
 49 64  1  0  0  0
 49116  1  0  0  0
 50 51  1  0  0  0
 50117  1  0  0  0
 50118  1  0  0  0
 51 52  1  0  0  0
 51119  1  0  0  0
 51120  1  0  0  0
 52121  1  0  0  0
 52122  1  0  0  0
 53 54  1  0  0  0
 54 55  2  0  0  0
 54123  1  0  0  0
 55 57  1  0  0  0
 55124  1  0  0  0
 56 69  2  0  0  0
 57 58  2  0  0  0
 57125  1  0  0  0
 58126  1  0  0  0
 59 60  1  0  0  0
 59 61  1  0  0  0
 59 62  1  0  0  0
 60127  1  0  0  0
 60128  1  0  0  0
 60129  1  0  0  0
 61130  1  0  0  0
 61131  1  0  0  0
 61132  1  0  0  0
 62133  1  0  0  0
 62134  1  0  0  0
 62135  1  0  0  0
 63 65  1  0  0  0
 63136  1  0  0  0
 63137  1  0  0  0
 63138  1  0  0  0
 64139  1  0  0  0
 65140  1  0  0  0
 68 76  1  0  0  0
 71 72  1  0  0  0
 71 73  2  0  0  0
 71141  1  0  0  0
 72 78  2  0  0  0
 72 80  1  0  0  0
 73 79  1  0  0  0
 73 81  1  0  0  0
 74142  1  0  0  0
 74143  1  0  0  0
 74144  1  0  0  0
 74 77  1  0  0  0
 75 76  1  0  0  0
 75 77  1  0  0  0
 75145  1  0  0  0
 75146  1  0  0  0
 76147  1  0  0  0
 76148  1  0  0  0
 77 80  1  0  0  0
 77149  1  0  0  0
 78 79  1  0  0  0
 79150  1  0  0  0
 80151  1  0  0  0
 81152  1  0  0  0
M  ISO  4   1 100  68 101  76 101  81 100
M  END
> <chiral flag>
0

> <version>
0

> <s_m_source_file>
/data/baiqing/PycharmProjects/Reinvent-master-3.2/result/LINK_invent/BTK/process_docking_weight1_custom_product_contain_oxygen_bond_distance_aromatic_linkinvent_7_9_3/rearranged_h_0197.sdf

> <i_m_source_file_index>
49

> <r_mmod_Potential_Energy-OPLS-2005>
119.998916625977

> <r_mmod_Stretch_Energy-OPLS-2005>
132.262359619141

> <r_mmod_Bend_Energy-OPLS-2005>
216.283843994141

> <r_mmod_Torsional_Energy-OPLS-2005>
233.323501586914

> <r_mmod_Improper_Torsional_Energy-OPLS-2005>
7.1882381439209

> <r_mmod_Van_der_Waal_Energy-OPLS-2005>
111.850769042969

> <r_mmod_Electrostatic_Energy-OPLS-2005>
-433.60888671875

> <r_mmod_Solvation_Energy-OPLS-2005>
-246.622848510742

> <b_mmod_Minimization_Converged-OPLS-2005>
0

> <r_mmod_RMS_Derivative-OPLS-2005>
1.35196912288666

$$$$
49
                    3D
 Structure written by MMmdl.
155163  0  0  1  0            999 V2000
  -30.5660  -14.7170   20.4946 C   0  0  0  0  0  0
  -30.4445  -12.4406   19.4698 C   0  0  0  0  0  0
  -29.5137  -12.5114   18.2362 C   0  0  0  0  0  0
  -28.0407  -12.3229   18.6501 C   0  0  0  0  0  0
  -27.6461  -13.2133   19.8579 C   0  0  2  0  0  0
  -28.6858  -13.0923   20.9946 C   0  0  0  0  0  0
  -25.2532  -13.8148   20.5647 C   0  0  0  0  0  0
  -24.1809  -13.0425   20.9212 C   0  0  0  0  0  0
  -24.6374  -11.6897   20.8736 C   0  0  0  0  0  0
  -23.9061  -10.4276   21.0405 C   0  0  0  0  0  0
  -24.3605   -9.4194   21.9189 C   0  0  0  0  0  0
  -23.6275   -8.2230   22.0753 C   0  0  0  0  0  0
  -22.4265   -8.0267   21.3536 C   0  0  0  0  0  0
  -21.9903   -9.0251   20.4643 C   0  0  0  0  0  0
  -22.7235  -10.2131   20.3057 C   0  0  0  0  0  0
  -21.6846   -6.0733   22.5277 C   0  0  0  0  0  0
  -21.4014   -6.5635   23.8214 C   0  0  0  0  0  0
  -21.3657   -5.6786   24.9169 C   0  0  0  0  0  0
  -21.6043   -4.3050   24.7218 C   0  0  0  0  0  0
  -21.8819   -3.8146   23.4343 C   0  0  0  0  0  0
  -21.9194   -4.6961   22.3396 C   0  0  0  0  0  0
  -22.7844  -13.5222   21.1879 C   0  0  0  0  0  0
  -22.1664   -4.2153   21.0970 F   0  0  0  0  0  0
  -21.5629   -3.4537   25.7732 F   0  0  0  0  0  0
  -29.9944  -13.4673   20.4354 N   0  0  0  0  0  0
  -26.2933  -12.9314   20.3254 N   0  0  0  0  0  0
  -25.9300  -11.6486   20.5750 N   0  0  0  0  0  0
  -22.0481  -12.8214   22.0427 N   0  0  0  0  0  0
  -25.4263  -15.1851   20.3952 N   0  0  0  0  0  0
  -31.7348  -14.8879   20.1276 O   0  0  0  0  0  0
  -21.6621   -6.8873   21.4238 O   0  0  0  0  0  0
  -22.3543  -14.5542   20.6735 O   0  0  0  0  0  0
  -24.6258  -31.8559   23.1989 C   0  0  0  0  0  0
  -25.9123  -32.4737   23.8315 C   0  0  1  0  0  0
  -27.2298  -27.2845   20.1294 C   0  0  0  0  0  0
  -25.5954  -33.8539   24.2265 N   0  0  0  0  0  0
  -23.4207  -30.4720   21.5437 C   0  0  2  0  0  0
  -24.8670  -28.9067   20.1213 C   0  0  0  0  0  0
  -22.7462  -29.4588   22.4961 C   0  0  0  0  0  0
  -18.0285  -28.1351   22.8430 C   0  0  0  0  0  0
  -24.1492  -36.7266   23.2648 C   0  0  0  0  0  0
  -25.9622  -30.7701   21.3754 C   0  0  0  0  0  0
  -26.0354  -29.3902   20.7262 C   0  0  0  0  0  0
  -27.2180  -28.5922   20.7144 C   0  0  0  0  0  0
  -26.0406  -26.8461   19.5157 C   0  0  0  0  0  0
  -24.8735  -27.6400   19.5085 C   0  0  0  0  0  0
  -23.6360  -29.7939   20.1628 C   0  0  0  0  0  0
  -25.4117  -36.3052   24.0348 C   0  0  1  0  0  0
  -20.5873  -28.3663   23.1275 C   0  0  2  0  0  0
  -20.6765  -26.9384   22.5408 C   0  0  0  0  0  0
  -19.5758  -26.6354   21.5181 C   0  0  0  0  0  0
  -18.1922  -26.7888   22.1592 C   0  0  0  0  0  0
  -19.1539  -28.8830   23.2822 C   0  0  0  0  0  0
  -18.9461  -30.1422   23.8863 C   0  0  0  0  0  0
  -17.6482  -30.6565   24.0523 C   0  0  0  0  0  0
  -25.9058  -34.9423   23.5093 C   0  0  0  0  0  0
  -16.5365  -29.9047   23.6324 C   0  0  0  0  0  0
  -16.7280  -28.6471   23.0325 C   0  0  0  0  0  0
  -26.4510  -31.6566   25.0696 C   0  0  0  0  0  0
  -25.3739  -31.3700   26.1417 C   0  0  0  0  0  0
  -27.0386  -30.3011   24.6140 C   0  0  0  0  0  0
  -27.6065  -32.4304   25.7461 C   0  0  0  0  0  0
  -27.5586  -37.1775   24.8472 C   0  0  0  0  0  0
  -21.4192  -29.3018   22.3693 N   0  0  0  0  0  0
  -26.4299  -37.3753   23.9420 N   0  0  0  0  0  0
  -24.6887  -31.0503   22.0973 N   0  0  0  0  0  0
  -23.4163  -28.8134   23.3067 O   0  0  0  0  0  0
  -28.3864  -26.4924   20.0538 O   0  0  0  0  0  0
  -26.5588  -34.8904   22.4645 O   0  0  0  0  0  0
  -23.5429  -32.1437   23.7300 O   0  0  0  0  0  0
  -28.4135  -17.8510   20.7410 C   0  0  0  0  0  0
  -29.6954  -17.2192   20.6630 C   0  0  0  0  0  0
  -29.2533  -20.0341   20.5324 C   0  0  0  0  0  0
  -30.5490  -19.4211   20.4414 C   0  0  0  0  0  0
  -28.3139  -21.6897   18.2815 C   0  0  0  0  0  0
  -28.0268  -23.8076   19.7055 C   0  0  0  0  0  0
  -28.4741  -25.0894   20.5582 C   0  0  0  0  0  0
  -28.8796  -22.4296   19.5142 C   0  0  1  0  0  0
  -28.1877  -19.2056   20.6652 N   0  0  0  0  0  0
  -30.7665  -18.0606   20.4920 N   0  0  0  0  0  0
  -31.6757  -20.2220   20.3266 N   0  0  0  0  0  0
  -29.7053  -15.7484   20.8147 N   0  0  0  0  0  0
  -29.0393  -21.4615   20.6601 N   0  0  0  0  0  0
  -31.4840  -12.5886   19.1716 H   0  0  0  0  0  0
  -30.4041  -11.4505   19.9257 H   0  0  0  0  0  0
  -29.7978  -11.7513   17.5072 H   0  0  0  0  0  0
  -29.6340  -13.4769   17.7394 H   0  0  0  0  0  0
  -27.9101  -11.2726   18.9154 H   0  0  0  0  0  0
  -27.3771  -12.5089   17.8056 H   0  0  0  0  0  0
  -27.6563  -14.2409   19.4947 H   0  0  0  0  0  0
  -28.7130  -12.0704   21.3766 H   0  0  0  0  0  0
  -28.4105  -13.7157   21.8467 H   0  0  0  0  0  0
  -25.2754   -9.5662   22.4764 H   0  0  0  0  0  0
  -23.9995   -7.4612   22.7460 H   0  0  0  0  0  0
  -21.0856   -8.8754   19.8931 H   0  0  0  0  0  0
  -22.3697  -10.9664   19.6157 H   0  0  0  0  0  0
  -21.2001   -7.6144   23.9719 H   0  0  0  0  0  0
  -21.1484   -6.0514   25.9077 H   0  0  0  0  0  0
  -22.0601   -2.7612   23.2833 H   0  0  0  0  0  0
  -22.4105  -11.9867   22.4803 H   0  0  0  0  0  0
  -21.1097  -13.1226   22.2629 H   0  0  0  0  0  0
  -24.6410  -15.8239   20.4539 H   0  0  0  0  0  0
  -26.2244  -15.5873   19.9228 H   0  0  0  0  0  0
  -26.7159  -32.5412   23.1034 H   0  0  0  0  0  0
  -25.0176  -33.9669   25.0457 H   0  0  0  0  0  0
  -22.7151  -31.2913   21.3920 H   0  0  0  0  0  0
  -23.3759  -35.9587   23.3304 H   0  0  0  0  0  0
  -24.3616  -36.8911   22.2070 H   0  0  0  0  0  0
  -23.7235  -37.6465   23.6678 H   0  0  0  0  0  0
  -26.0926  -31.5266   20.6013 H   0  0  0  0  0  0
  -26.8456  -30.8257   22.0005 H   0  0  0  0  0  0
  -28.1216  -28.9657   21.1740 H   0  0  0  0  0  0
  -26.0189  -25.8851   19.0211 H   0  0  0  0  0  0
  -23.9827  -27.2643   19.0241 H   0  0  0  0  0  0
  -23.7518  -30.5673   19.4025 H   0  0  0  0  0  0
  -22.7558  -29.2226   19.8624 H   0  0  0  0  0  0
  -25.1282  -36.1921   25.0843 H   0  0  0  0  0  0
  -20.9928  -28.3237   24.1413 H   0  0  0  0  0  0
  -20.5663  -26.2262   23.3602 H   0  0  0  0  0  0
  -21.6629  -26.7401   22.1212 H   0  0  0  0  0  0
  -19.6929  -25.6261   21.1233 H   0  0  0  0  0  0
  -19.6723  -27.3135   20.6685 H   0  0  0  0  0  0
  -17.4186  -26.6617   21.3989 H   0  0  0  0  0  0
  -18.0329  -26.0027   22.9003 H   0  0  0  0  0  0
  -19.7960  -30.7181   24.2266 H   0  0  0  0  0  0
  -17.5052  -31.6267   24.5078 H   0  0  0  0  0  0
  -15.5359  -30.2916   23.7714 H   0  0  0  0  0  0
  -15.8671  -28.0789   22.7058 H   0  0  0  0  0  0
  -24.5919  -30.7032   25.7769 H   0  0  0  0  0  0
  -24.8889  -32.2842   26.4850 H   0  0  0  0  0  0
  -25.8048  -30.8896   27.0208 H   0  0  0  0  0  0
  -26.2968  -29.6711   24.1209 H   0  0  0  0  0  0
  -27.4194  -29.7309   25.4637 H   0  0  0  0  0  0
  -27.8776  -30.4372   23.9299 H   0  0  0  0  0  0
  -27.2705  -33.3646   26.1982 H   0  0  0  0  0  0
  -28.3878  -32.6818   25.0267 H   0  0  0  0  0  0
  -28.0701  -31.8453   26.5422 H   0  0  0  0  0  0
  -28.2552  -38.0106   24.7523 H   0  0  0  0  0  0
  -28.1116  -36.2638   24.6271 H   0  0  0  0  0  0
  -27.2299  -37.1395   25.8867 H   0  0  0  0  0  0
  -20.9392  -29.8768   21.6912 H   0  0  0  0  0  0
  -26.0180  -38.2830   24.1417 H   0  0  0  0  0  0
  -27.5289  -17.2498   20.8898 H   0  0  0  0  0  0
  -28.1771  -22.3589   17.4309 H   0  0  0  0  0  0
  -27.3381  -21.2460   18.4943 H   0  0  0  0  0  0
  -28.9789  -20.8962   17.9400 H   0  0  0  0  0  0
  -27.9246  -24.2152   18.7003 H   0  0  0  0  0  0
  -27.0063  -23.5501   19.9925 H   0  0  0  0  0  0
  -29.5338  -24.9569   20.7815 H   0  0  0  0  0  0
  -27.9906  -25.0452   21.5344 H   0  0  0  0  0  0
  -29.8902  -22.7429   19.2483 H   0  0  0  0  0  0
  -31.5046  -21.1273   19.9054 H   0  0  0  0  0  0
  -32.5161  -19.7742   19.9842 H   0  0  0  0  0  0
  -28.8130  -15.3851   21.1075 H   0  0  0  0  0  0
  -29.8253  -21.7936   21.2144 H   0  0  0  0  0  0
  1 25  1  0  0  0
  1 30  2  0  0  0
  1 82  1  0  0  0
  2  3  1  0  0  0
  2 25  1  0  0  0
  2 84  1  0  0  0
  2 85  1  0  0  0
  3  4  1  0  0  0
  3 86  1  0  0  0
  3 87  1  0  0  0
  4  5  1  0  0  0
  4 88  1  0  0  0
  4 89  1  0  0  0
  5  6  1  0  0  0
  5 26  1  0  0  0
  5 90  1  0  0  0
  6 25  1  0  0  0
  6 91  1  0  0  0
  6 92  1  0  0  0
  7  8  2  0  0  0
  7 26  1  0  0  0
  7 29  1  0  0  0
  8  9  1  0  0  0
  8 22  1  0  0  0
  9 10  1  0  0  0
  9 27  2  0  0  0
 10 11  2  0  0  0
 10 15  1  0  0  0
 11 12  1  0  0  0
 11 93  1  0  0  0
 12 13  2  0  0  0
 12 94  1  0  0  0
 13 14  1  0  0  0
 13 31  1  0  0  0
 14 15  2  0  0  0
 14 95  1  0  0  0
 15 96  1  0  0  0
 16 17  2  0  0  0
 16 21  1  0  0  0
 16 31  1  0  0  0
 17 18  1  0  0  0
 17 97  1  0  0  0
 18 19  2  0  0  0
 18 98  1  0  0  0
 19 20  1  0  0  0
 19 24  1  0  0  0
 20 21  2  0  0  0
 20 99  1  0  0  0
 21 23  1  0  0  0
 22 28  1  0  0  0
 22 32  2  0  0  0
 26 27  1  0  0  0
 28100  1  0  0  0
 28101  1  0  0  0
 29102  1  0  0  0
 29103  1  0  0  0
 33 34  1  0  0  0
 33 66  1  0  0  0
 33 70  2  0  0  0
 34 36  1  0  0  0
 34 59  1  0  0  0
 34104  1  0  0  0
 35 44  2  0  0  0
 35 45  1  0  0  0
 35 68  1  0  0  0
 36 56  1  0  0  0
 36105  1  0  0  0
 37 39  1  0  0  0
 37 47  1  0  0  0
 37 66  1  0  0  0
 37106  1  0  0  0
 38 43  2  0  0  0
 38 46  1  0  0  0
 38 47  1  0  0  0
 39 64  1  0  0  0
 39 67  2  0  0  0
 40 52  1  0  0  0
 40 53  2  0  0  0
 40 58  1  0  0  0
 41107  1  0  0  0
 41108  1  0  0  0
 41109  1  0  0  0
 41 48  1  0  0  0
 42 43  1  0  0  0
 42 66  1  0  0  0
 42110  1  0  0  0
 42111  1  0  0  0
 43 44  1  0  0  0
 44112  1  0  0  0
 45 46  2  0  0  0
 45113  1  0  0  0
 46114  1  0  0  0
 47115  1  0  0  0
 47116  1  0  0  0
 48 56  1  0  0  0
 48 65  1  0  0  0
 48117  1  0  0  0
 49 50  1  0  0  0
 49 53  1  0  0  0
 49 64  1  0  0  0
 49118  1  0  0  0
 50 51  1  0  0  0
 50119  1  0  0  0
 50120  1  0  0  0
 51 52  1  0  0  0
 51121  1  0  0  0
 51122  1  0  0  0
 52123  1  0  0  0
 52124  1  0  0  0
 53 54  1  0  0  0
 54 55  2  0  0  0
 54125  1  0  0  0
 55 57  1  0  0  0
 55126  1  0  0  0
 56 69  2  0  0  0
 57 58  2  0  0  0
 57127  1  0  0  0
 58128  1  0  0  0
 59 60  1  0  0  0
 59 61  1  0  0  0
 59 62  1  0  0  0
 60129  1  0  0  0
 60130  1  0  0  0
 60131  1  0  0  0
 61132  1  0  0  0
 61133  1  0  0  0
 61134  1  0  0  0
 62135  1  0  0  0
 62136  1  0  0  0
 62137  1  0  0  0
 63 65  1  0  0  0
 63138  1  0  0  0
 63139  1  0  0  0
 63140  1  0  0  0
 64141  1  0  0  0
 65142  1  0  0  0
 68 77  1  0  0  0
 71 72  2  0  0  0
 71 79  1  0  0  0
 71143  1  0  0  0
 72 80  1  0  0  0
 72 82  1  0  0  0
 73 74  1  0  0  0
 73 79  2  0  0  0
 73 83  1  0  0  0
 74 80  2  0  0  0
 74 81  1  0  0  0
 75144  1  0  0  0
 75145  1  0  0  0
 75146  1  0  0  0
 75 78  1  0  0  0
 76 77  1  0  0  0
 76 78  1  0  0  0
 76147  1  0  0  0
 76148  1  0  0  0
 77149  1  0  0  0
 77150  1  0  0  0
 78 83  1  0  0  0
 78151  1  0  0  0
 81152  1  0  0  0
 81153  1  0  0  0
 82154  1  0  0  0
 83155  1  0  0  0
M  ISO  4   1 100  68 101  77 101  82 100
M  END
> <chiral flag>
0

> <version>
0

> <s_m_source_file>
/data/baiqing/PycharmProjects/Reinvent-master-3.2/result/LINK_invent/BTK/process_docking_weight1_custom_product_contain_oxygen_bond_distance_aromatic_linkinvent_7_9_3/rearranged_h_0197.sdf

> <i_m_source_file_index>
50

> <r_mmod_Potential_Energy-OPLS-2005>
74.306884765625

> <r_mmod_Stretch_Energy-OPLS-2005>
105.32640838623

> <r_mmod_Bend_Energy-OPLS-2005>
204.461364746094

> <r_mmod_Torsional_Energy-OPLS-2005>
264.945739746094

> <r_mmod_Improper_Torsional_Energy-OPLS-2005>
16.0569686889648

> <r_mmod_Van_der_Waal_Energy-OPLS-2005>
135.976425170898

> <r_mmod_Electrostatic_Energy-OPLS-2005>
-466.791473388672

> <r_mmod_Solvation_Energy-OPLS-2005>
-251.362808227539

> <b_mmod_Minimization_Converged-OPLS-2005>
0

> <r_mmod_RMS_Derivative-OPLS-2005>
3.18338632583618

$$$$
50
                    3D
 Structure written by MMmdl.
159167  0  0  1  0            999 V2000
  -30.6199  -14.5949   20.5317 C   0  0  0  0  0  0
  -30.4425  -12.3811   19.4193 C   0  0  0  0  0  0
  -29.4961  -12.5017   18.2040 C   0  0  0  0  0  0
  -28.0191  -12.3421   18.6243 C   0  0  0  0  0  0
  -27.6516  -13.2045   19.8607 C   0  0  2  0  0  0
  -28.7003  -13.0257   20.9789 C   0  0  0  0  0  0
  -25.2559  -13.8144   20.5695 C   0  0  0  0  0  0
  -24.1823  -13.0421   20.9217 C   0  0  0  0  0  0
  -24.6377  -11.6889   20.8751 C   0  0  0  0  0  0
  -23.9043  -10.4274   21.0414 C   0  0  0  0  0  0
  -24.3597   -9.4198   21.9184 C   0  0  0  0  0  0
  -23.6283   -8.2229   22.0739 C   0  0  0  0  0  0
  -22.4260   -8.0266   21.3538 C   0  0  0  0  0  0
  -21.9904   -9.0241   20.4634 C   0  0  0  0  0  0
  -22.7226  -10.2127   20.3059 C   0  0  0  0  0  0
  -21.6855   -6.0739   22.5276 C   0  0  0  0  0  0
  -21.4018   -6.5635   23.8212 C   0  0  0  0  0  0
  -21.3646   -5.6783   24.9165 C   0  0  0  0  0  0
  -21.6042   -4.3052   24.7220 C   0  0  0  0  0  0
  -21.8821   -3.8149   23.4345 C   0  0  0  0  0  0
  -21.9197   -4.6966   22.3404 C   0  0  0  0  0  0
  -22.7847  -13.5215   21.1884 C   0  0  0  0  0  0
  -22.1663   -4.2151   21.0980 F   0  0  0  0  0  0
  -21.5627   -3.4530   25.7737 F   0  0  0  0  0  0
  -30.0108  -13.3786   20.4099 N   0  0  0  0  0  0
  -26.2971  -12.9298   20.3324 N   0  0  0  0  0  0
  -25.9302  -11.6469   20.5763 N   0  0  0  0  0  0
  -22.0497  -12.8195   22.0438 N   0  0  0  0  0  0
  -25.4277  -15.1864   20.4063 N   0  0  0  0  0  0
  -31.7950  -14.7757   20.2043 O   0  0  0  0  0  0
  -21.6634   -6.8872   21.4235 O   0  0  0  0  0  0
  -22.3528  -14.5516   20.6718 O   0  0  0  0  0  0
  -24.6188  -31.8634   23.2056 C   0  0  0  0  0  0
  -25.9049  -32.4794   23.8370 C   0  0  1  0  0  0
  -27.2378  -27.3783   20.1120 C   0  0  0  0  0  0
  -25.5904  -33.8592   24.2301 N   0  0  0  0  0  0
  -23.4110  -30.4870   21.5464 C   0  0  2  0  0  0
  -24.8597  -28.9382   20.1164 C   0  0  0  0  0  0
  -22.7424  -29.4665   22.4958 C   0  0  0  0  0  0
  -18.0274  -28.1380   22.8465 C   0  0  0  0  0  0
  -24.1506  -36.7294   23.2631 C   0  0  0  0  0  0
  -25.9425  -30.8156   21.3617 C   0  0  0  0  0  0
  -26.0221  -29.4435   20.7106 C   0  0  0  0  0  0
  -27.2151  -28.6750   20.6954 C   0  0  0  0  0  0
  -26.0556  -26.8967   19.5124 C   0  0  0  0  0  0
  -24.8746  -27.6667   19.5124 C   0  0  0  0  0  0
  -23.6229  -29.8126   20.1638 C   0  0  0  0  0  0
  -25.4123  -36.3070   24.0326 C   0  0  1  0  0  0
  -20.5864  -28.3682   23.1287 C   0  0  2  0  0  0
  -20.6784  -26.9419   22.5409 C   0  0  0  0  0  0
  -19.5756  -26.6386   21.5215 C   0  0  0  0  0  0
  -18.1921  -26.7920   22.1601 C   0  0  0  0  0  0
  -19.1519  -28.8837   23.2882 C   0  0  0  0  0  0
  -18.9453  -30.1439   23.8904 C   0  0  0  0  0  0
  -17.6462  -30.6588   24.0538 C   0  0  0  0  0  0
  -25.9071  -34.9448   23.5113 C   0  0  0  0  0  0
  -16.5360  -29.9076   23.6325 C   0  0  0  0  0  0
  -16.7264  -28.6493   23.0348 C   0  0  0  0  0  0
  -26.4498  -31.6552   25.0688 C   0  0  0  0  0  0
  -25.3757  -31.3630   26.1407 C   0  0  0  0  0  0
  -27.0348  -30.3007   24.6066 C   0  0  0  0  0  0
  -27.6097  -32.4260   25.7432 C   0  0  0  0  0  0
  -27.5581  -37.1783   24.8455 C   0  0  0  0  0  0
  -21.4141  -29.3052   22.3688 N   0  0  0  0  0  0
  -26.4282  -37.3767   23.9419 N   0  0  0  0  0  0
  -24.6774  -31.0707   22.0969 N   0  0  0  0  0  0
  -23.4166  -28.8221   23.3039 O   0  0  0  0  0  0
  -28.3958  -26.6130   20.0807 O   0  0  0  0  0  0
  -26.5635  -34.8899   22.4682 O   0  0  0  0  0  0
  -23.5380  -32.1390   23.7455 O   0  0  0  0  0  0
  -29.3198  -19.3425   20.4590 C   0  0  0  0  0  0
  -30.0817  -18.1424   20.3266 C   0  0  0  0  0  0
  -29.5180  -20.3513   19.4865 C   0  0  0  0  0  0
  -31.0895  -19.0244   18.4811 C   0  0  0  0  0  0
  -33.0012  -17.8223   17.3949 C   0  0  0  0  0  0
  -30.0819  -16.9895   21.3557 C   0  0  0  0  0  0
  -28.6924  -22.6196   20.3661 C   0  0  0  0  0  0
  -28.3816  -25.2778   20.6759 C   0  0  0  0  0  0
  -28.5324  -24.0479   19.6992 C   0  0  1  0  0  0
  -30.9609  -18.0089   19.3182 N   0  0  0  0  0  0
  -30.4134  -20.1642   18.5037 N   0  0  0  0  0  0
  -28.7722  -21.5473   19.3496 N   0  0  0  0  0  0
  -32.0348  -18.9110   17.4895 N   0  0  0  0  0  0
  -29.7935  -15.6064   20.8980 N   0  0  0  0  0  0
  -29.7192  -24.2275   18.9381 O   0  0  0  0  0  0
  -31.4761  -12.5359   19.1039 H   0  0  0  0  0  0
  -30.4027  -11.3783   19.8471 H   0  0  0  0  0  0
  -29.7519  -11.7530   17.4532 H   0  0  0  0  0  0
  -29.6321  -13.4729   17.7245 H   0  0  0  0  0  0
  -27.8505  -11.2880   18.8463 H   0  0  0  0  0  0
  -27.3589  -12.5819   17.7895 H   0  0  0  0  0  0
  -27.6755  -14.2431   19.5320 H   0  0  0  0  0  0
  -28.7147  -11.9911   21.3246 H   0  0  0  0  0  0
  -28.4504  -13.6271   21.8542 H   0  0  0  0  0  0
  -25.2743   -9.5679   22.4755 H   0  0  0  0  0  0
  -23.9999   -7.4617   22.7448 H   0  0  0  0  0  0
  -21.0847   -8.8749   19.8942 H   0  0  0  0  0  0
  -22.3676  -10.9656   19.6165 H   0  0  0  0  0  0
  -21.2004   -7.6146   23.9715 H   0  0  0  0  0  0
  -21.1466   -6.0514   25.9064 H   0  0  0  0  0  0
  -22.0616   -2.7617   23.2842 H   0  0  0  0  0  0
  -22.4107  -11.9832   22.4796 H   0  0  0  0  0  0
  -21.1116  -13.1207   22.2650 H   0  0  0  0  0  0
  -24.6545  -15.8361   20.4944 H   0  0  0  0  0  0
  -26.2618  -15.6216   20.0330 H   0  0  0  0  0  0
  -26.7073  -32.5500   23.1090 H   0  0  0  0  0  0
  -25.0088  -33.9800   25.0467 H   0  0  0  0  0  0
  -22.7031  -31.3053   21.3982 H   0  0  0  0  0  0
  -23.3763  -35.9633   23.3285 H   0  0  0  0  0  0
  -24.3592  -36.8946   22.2047 H   0  0  0  0  0  0
  -23.7283  -37.6493   23.6684 H   0  0  0  0  0  0
  -26.0543  -31.5750   20.5871 H   0  0  0  0  0  0
  -26.8289  -30.8770   21.9802 H   0  0  0  0  0  0
  -28.1152  -29.0648   21.1500 H   0  0  0  0  0  0
  -26.0507  -25.9267   19.0424 H   0  0  0  0  0  0
  -23.9811  -27.2751   19.0504 H   0  0  0  0  0  0
  -23.7291  -30.5837   19.3994 H   0  0  0  0  0  0
  -22.7479  -29.2326   19.8736 H   0  0  0  0  0  0
  -25.1313  -36.1891   25.0814 H   0  0  0  0  0  0
  -20.9942  -28.3234   24.1416 H   0  0  0  0  0  0
  -20.5710  -26.2312   23.3617 H   0  0  0  0  0  0
  -21.6653  -26.7498   22.1179 H   0  0  0  0  0  0
  -19.6948  -25.6309   21.1224 H   0  0  0  0  0  0
  -19.6673  -27.3220   20.6758 H   0  0  0  0  0  0
  -17.4221  -26.6674   21.3982 H   0  0  0  0  0  0
  -18.0277  -26.0082   22.9004 H   0  0  0  0  0  0
  -19.7951  -30.7226   24.2293 H   0  0  0  0  0  0
  -17.5034  -31.6272   24.5132 H   0  0  0  0  0  0
  -15.5360  -30.2967   23.7693 H   0  0  0  0  0  0
  -15.8657  -28.0811   22.7085 H   0  0  0  0  0  0
  -24.5986  -30.6933   25.7675 H   0  0  0  0  0  0
  -24.8891  -32.2774   26.4812 H   0  0  0  0  0  0
  -25.8070  -30.8786   27.0171 H   0  0  0  0  0  0
  -26.2867  -29.6710   24.1224 H   0  0  0  0  0  0
  -27.4226  -29.7295   25.4504 H   0  0  0  0  0  0
  -27.8649  -30.4338   23.9122 H   0  0  0  0  0  0
  -27.2766  -33.3594   26.1977 H   0  0  0  0  0  0
  -28.3897  -32.6757   25.0221 H   0  0  0  0  0  0
  -28.0752  -31.8376   26.5352 H   0  0  0  0  0  0
  -28.2552  -38.0123   24.7556 H   0  0  0  0  0  0
  -28.1116  -36.2656   24.6200 H   0  0  0  0  0  0
  -27.2301  -37.1321   25.8852 H   0  0  0  0  0  0
  -20.9318  -29.8724   21.6858 H   0  0  0  0  0  0
  -26.0151  -38.2823   24.1445 H   0  0  0  0  0  0
  -28.6006  -19.4690   21.2564 H   0  0  0  0  0  0
  -33.6254  -17.9403   16.5092 H   0  0  0  0  0  0
  -32.4954  -16.8583   17.3251 H   0  0  0  0  0  0
  -33.6540  -17.8049   18.2690 H   0  0  0  0  0  0
  -29.3359  -17.2338   22.1124 H   0  0  0  0  0  0
  -31.0414  -16.9960   21.8773 H   0  0  0  0  0  0
  -27.8377  -22.4222   21.0175 H   0  0  0  0  0  0
  -29.5738  -22.5918   21.0079 H   0  0  0  0  0  0
  -29.1985  -25.2543   21.3972 H   0  0  0  0  0  0
  -27.4770  -25.1482   21.2728 H   0  0  0  0  0  0
  -27.6701  -24.0377   19.0288 H   0  0  0  0  0  0
  -28.9860  -21.9798   18.4566 H   0  0  0  0  0  0
  -32.1725  -19.7283   16.9081 H   0  0  0  0  0  0
  -28.8329  -15.3314   21.0134 H   0  0  0  0  0  0
  -30.4313  -24.3797   19.5539 H   0  0  0  0  0  0
  1 25  1  0  0  0
  1 30  2  0  0  0
  1 84  1  0  0  0
  2  3  1  0  0  0
  2 25  1  0  0  0
  2 86  1  0  0  0
  2 87  1  0  0  0
  3  4  1  0  0  0
  3 88  1  0  0  0
  3 89  1  0  0  0
  4  5  1  0  0  0
  4 90  1  0  0  0
  4 91  1  0  0  0
  5  6  1  0  0  0
  5 26  1  0  0  0
  5 92  1  0  0  0
  6 25  1  0  0  0
  6 93  1  0  0  0
  6 94  1  0  0  0
  7  8  2  0  0  0
  7 26  1  0  0  0
  7 29  1  0  0  0
  8  9  1  0  0  0
  8 22  1  0  0  0
  9 10  1  0  0  0
  9 27  2  0  0  0
 10 11  2  0  0  0
 10 15  1  0  0  0
 11 12  1  0  0  0
 11 95  1  0  0  0
 12 13  2  0  0  0
 12 96  1  0  0  0
 13 14  1  0  0  0
 13 31  1  0  0  0
 14 15  2  0  0  0
 14 97  1  0  0  0
 15 98  1  0  0  0
 16 17  2  0  0  0
 16 21  1  0  0  0
 16 31  1  0  0  0
 17 18  1  0  0  0
 17 99  1  0  0  0
 18 19  2  0  0  0
 18100  1  0  0  0
 19 20  1  0  0  0
 19 24  1  0  0  0
 20 21  2  0  0  0
 20101  1  0  0  0
 21 23  1  0  0  0
 22 28  1  0  0  0
 22 32  2  0  0  0
 26 27  1  0  0  0
 28102  1  0  0  0
 28103  1  0  0  0
 29104  1  0  0  0
 29105  1  0  0  0
 33 34  1  0  0  0
 33 66  1  0  0  0
 33 70  2  0  0  0
 34 36  1  0  0  0
 34 59  1  0  0  0
 34106  1  0  0  0
 35 44  2  0  0  0
 35 45  1  0  0  0
 35 68  1  0  0  0
 36 56  1  0  0  0
 36107  1  0  0  0
 37 39  1  0  0  0
 37 47  1  0  0  0
 37 66  1  0  0  0
 37108  1  0  0  0
 38 43  2  0  0  0
 38 46  1  0  0  0
 38 47  1  0  0  0
 39 64  1  0  0  0
 39 67  2  0  0  0
 40 52  1  0  0  0
 40 53  2  0  0  0
 40 58  1  0  0  0
 41109  1  0  0  0
 41110  1  0  0  0
 41111  1  0  0  0
 41 48  1  0  0  0
 42 43  1  0  0  0
 42 66  1  0  0  0
 42112  1  0  0  0
 42113  1  0  0  0
 43 44  1  0  0  0
 44114  1  0  0  0
 45 46  2  0  0  0
 45115  1  0  0  0
 46116  1  0  0  0
 47117  1  0  0  0
 47118  1  0  0  0
 48 56  1  0  0  0
 48 65  1  0  0  0
 48119  1  0  0  0
 49 50  1  0  0  0
 49 53  1  0  0  0
 49 64  1  0  0  0
 49120  1  0  0  0
 50 51  1  0  0  0
 50121  1  0  0  0
 50122  1  0  0  0
 51 52  1  0  0  0
 51123  1  0  0  0
 51124  1  0  0  0
 52125  1  0  0  0
 52126  1  0  0  0
 53 54  1  0  0  0
 54 55  2  0  0  0
 54127  1  0  0  0
 55 57  1  0  0  0
 55128  1  0  0  0
 56 69  2  0  0  0
 57 58  2  0  0  0
 57129  1  0  0  0
 58130  1  0  0  0
 59 60  1  0  0  0
 59 61  1  0  0  0
 59 62  1  0  0  0
 60131  1  0  0  0
 60132  1  0  0  0
 60133  1  0  0  0
 61134  1  0  0  0
 61135  1  0  0  0
 61136  1  0  0  0
 62137  1  0  0  0
 62138  1  0  0  0
 62139  1  0  0  0
 63 65  1  0  0  0
 63140  1  0  0  0
 63141  1  0  0  0
 63142  1  0  0  0
 64143  1  0  0  0
 65144  1  0  0  0
 68 78  1  0  0  0
 71 72  2  0  0  0
 71 73  1  0  0  0
 71145  1  0  0  0
 72 76  1  0  0  0
 72 80  1  0  0  0
 73 81  2  0  0  0
 73 82  1  0  0  0
 74 80  2  0  0  0
 74 81  1  0  0  0
 74 83  1  0  0  0
 75 83  1  0  0  0
 75146  1  0  0  0
 75147  1  0  0  0
 75148  1  0  0  0
 76 84  1  0  0  0
 76149  1  0  0  0
 76150  1  0  0  0
 77 79  1  0  0  0
 77 82  1  0  0  0
 77151  1  0  0  0
 77152  1  0  0  0
 78 79  1  0  0  0
 78153  1  0  0  0
 78154  1  0  0  0
 79 85  1  0  0  0
 79155  1  0  0  0
 82156  1  0  0  0
 83157  1  0  0  0
 84158  1  0  0  0
 85159  1  0  0  0
M  ISO  4   1 100  68 101  78 101  84 100
M  END
> <chiral flag>
0

> <version>
0

> <s_m_source_file>
/data/baiqing/PycharmProjects/Reinvent-master-3.2/result/LINK_invent/BTK/process_docking_weight1_custom_product_contain_oxygen_bond_distance_aromatic_linkinvent_7_9_3/rearranged_h_0197.sdf

> <i_m_source_file_index>
51

> <r_mmod_Potential_Energy-OPLS-2005>
-845.963989257812

> <r_mmod_Stretch_Energy-OPLS-2005>
51.3640670776367

> <r_mmod_Bend_Energy-OPLS-2005>
139.227600097656

> <r_mmod_Torsional_Energy-OPLS-2005>
253.177108764648

> <r_mmod_Improper_Torsional_Energy-OPLS-2005>
9.55820846557617

> <r_mmod_Van_der_Waal_Energy-OPLS-2005>
148.498321533203

> <r_mmod_Electrostatic_Energy-OPLS-2005>
-1187.53759765625

> <r_mmod_Solvation_Energy-OPLS-2005>
-291.046661376953

> <b_mmod_Minimization_Converged-OPLS-2005>
0

> <r_mmod_RMS_Derivative-OPLS-2005>
3.66183400154114

$$$$
51
                    3D
 Structure written by MMmdl.
169177  0  0  1  0            999 V2000
  -30.6769  -14.5210   20.5398 C   0  0  0  0  0  0
  -30.4249  -12.3254   19.4368 C   0  0  0  0  0  0
  -29.4994  -12.5029   18.2139 C   0  0  0  0  0  0
  -28.0197  -12.3603   18.6224 C   0  0  0  0  0  0
  -27.6583  -13.2094   19.8706 C   0  0  2  0  0  0
  -28.6998  -13.0140   20.9967 C   0  0  0  0  0  0
  -25.2578  -13.8160   20.5681 C   0  0  0  0  0  0
  -24.1835  -13.0438   20.9186 C   0  0  0  0  0  0
  -24.6386  -11.6904   20.8732 C   0  0  0  0  0  0
  -23.9051  -10.4291   21.0402 C   0  0  0  0  0  0
  -24.3608   -9.4208   21.9178 C   0  0  0  0  0  0
  -23.6290   -8.2241   22.0749 C   0  0  0  0  0  0
  -22.4272   -8.0276   21.3542 C   0  0  0  0  0  0
  -21.9902   -9.0248   20.4645 C   0  0  0  0  0  0
  -22.7226  -10.2131   20.3051 C   0  0  0  0  0  0
  -21.6852   -6.0733   22.5280 C   0  0  0  0  0  0
  -21.4013   -6.5637   23.8213 C   0  0  0  0  0  0
  -21.3660   -5.6789   24.9175 C   0  0  0  0  0  0
  -21.6044   -4.3053   24.7226 C   0  0  0  0  0  0
  -21.8821   -3.8144   23.4346 C   0  0  0  0  0  0
  -21.9194   -4.6962   22.3402 C   0  0  0  0  0  0
  -22.7860  -13.5238   21.1850 C   0  0  0  0  0  0
  -22.1663   -4.2147   21.0980 F   0  0  0  0  0  0
  -21.5629   -3.4535   25.7737 F   0  0  0  0  0  0
  -30.0284  -13.3247   20.4442 N   0  0  0  0  0  0
  -26.3005  -12.9332   20.3335 N   0  0  0  0  0  0
  -25.9312  -11.6491   20.5750 N   0  0  0  0  0  0
  -22.0494  -12.8229   22.0403 N   0  0  0  0  0  0
  -25.4301  -15.1879   20.4093 N   0  0  0  0  0  0
  -31.8253  -14.6709   20.1113 O   0  0  0  0  0  0
  -21.6637   -6.8874   21.4239 O   0  0  0  0  0  0
  -22.3553  -14.5550   20.6703 O   0  0  0  0  0  0
  -24.6168  -31.8659   23.2088 C   0  0  0  0  0  0
  -25.9055  -32.4812   23.8386 C   0  0  1  0  0  0
  -27.2344  -27.4033   20.0918 C   0  0  0  0  0  0
  -25.5910  -33.8611   24.2315 N   0  0  0  0  0  0
  -23.4064  -30.4901   21.5484 C   0  0  2  0  0  0
  -24.8525  -28.9531   20.1111 C   0  0  0  0  0  0
  -22.7424  -29.4655   22.4965 C   0  0  0  0  0  0
  -18.0282  -28.1379   22.8494 C   0  0  0  0  0  0
  -24.1488  -36.7304   23.2638 C   0  0  0  0  0  0
  -25.9387  -30.8181   21.3704 C   0  0  0  0  0  0
  -26.0122  -29.4500   20.7175 C   0  0  0  0  0  0
  -27.1995  -28.6777   20.7145 C   0  0  0  0  0  0
  -26.0517  -26.9315   19.4765 C   0  0  0  0  0  0
  -24.8682  -27.6936   19.4902 C   0  0  0  0  0  0
  -23.6167  -29.8239   20.1621 C   0  0  0  0  0  0
  -25.4109  -36.3106   24.0339 C   0  0  1  0  0  0
  -20.5873  -28.3672   23.1309 C   0  0  2  0  0  0
  -20.6771  -26.9405   22.5421 C   0  0  0  0  0  0
  -19.5754  -26.6389   21.5212 C   0  0  0  0  0  0
  -18.1928  -26.7930   22.1618 C   0  0  0  0  0  0
  -19.1530  -28.8841   23.2902 C   0  0  0  0  0  0
  -18.9458  -30.1445   23.8914 C   0  0  0  0  0  0
  -17.6460  -30.6586   24.0564 C   0  0  0  0  0  0
  -25.9040  -34.9472   23.5123 C   0  0  0  0  0  0
  -16.5350  -29.9090   23.6323 C   0  0  0  0  0  0
  -16.7270  -28.6503   23.0353 C   0  0  0  0  0  0
  -26.4477  -31.6604   25.0725 C   0  0  0  0  0  0
  -25.3739  -31.3729   26.1472 C   0  0  0  0  0  0
  -27.0308  -30.3041   24.6128 C   0  0  0  0  0  0
  -27.6061  -32.4324   25.7472 C   0  0  0  0  0  0
  -27.5586  -37.1804   24.8461 C   0  0  0  0  0  0
  -21.4150  -29.3034   22.3705 N   0  0  0  0  0  0
  -26.4292  -37.3794   23.9414 N   0  0  0  0  0  0
  -24.6719  -31.0737   22.1002 N   0  0  0  0  0  0
  -23.4186  -28.8195   23.3015 O   0  0  0  0  0  0
  -28.4024  -26.6548   20.1395 O   0  0  0  0  0  0
  -26.5598  -34.8927   22.4683 O   0  0  0  0  0  0
  -23.5357  -32.1426   23.7468 O   0  0  0  0  0  0
  -29.0649  -17.8239   21.2913 C   0  0  0  0  0  0
  -30.0862  -19.7129   20.3992 C   0  0  0  0  0  0
  -30.0849  -16.9653   20.7904 C   0  0  0  0  0  0
  -31.1228  -18.8659   19.9083 C   0  0  0  0  0  0
  -30.8265  -24.4109   23.5485 C   0  0  0  0  0  0
  -32.9437  -24.1157   22.2154 C   0  0  0  0  0  0
  -30.0869  -21.2362   20.1227 C   0  0  0  0  0  0
  -30.7185  -24.1125   20.9977 C   0  0  0  0  0  0
  -28.6453  -25.6154   19.1681 C   0  0  0  0  0  0
  -31.4554  -23.7454   22.3107 C   0  0  0  0  0  0
  -29.2676  -23.5719   20.8594 C   0  0  1  0  0  0
  -28.5163  -24.1072   19.5964 C   0  0  1  0  0  0
  -29.0558  -19.1773   21.1051 N   0  0  0  0  0  0
  -31.1176  -17.5260   20.1032 N   0  0  0  0  0  0
  -32.2107  -19.3311   19.1777 N   0  0  0  0  0  0
  -29.9322  -15.5506   21.0111 N   0  0  0  0  0  0
  -29.1720  -22.0703   20.9583 N   0  3  0  0  0  0
  -27.1485  -23.7426   19.6948 O   0  0  0  0  0  0
  -31.4700  -12.4234   19.1373 H   0  0  0  0  0  0
  -30.3285  -11.3197   19.8482 H   0  0  0  0  0  0
  -29.7466  -11.7692   17.4452 H   0  0  0  0  0  0
  -29.6645  -13.4835   17.7641 H   0  0  0  0  0  0
  -27.8340  -11.3051   18.8269 H   0  0  0  0  0  0
  -27.3710  -12.6250   17.7866 H   0  0  0  0  0  0
  -27.6940  -14.2532   19.5583 H   0  0  0  0  0  0
  -28.6836  -11.9829   21.3526 H   0  0  0  0  0  0
  -28.4573  -13.6263   21.8665 H   0  0  0  0  0  0
  -25.2757   -9.5690   22.4746 H   0  0  0  0  0  0
  -24.0008   -7.4630   22.7464 H   0  0  0  0  0  0
  -21.0833   -8.8761   19.8951 H   0  0  0  0  0  0
  -22.3679  -10.9666   19.6157 H   0  0  0  0  0  0
  -21.2001   -7.6146   23.9716 H   0  0  0  0  0  0
  -21.1483   -6.0519   25.9079 H   0  0  0  0  0  0
  -22.0598   -2.7606   23.2844 H   0  0  0  0  0  0
  -22.4103  -11.9885   22.4788 H   0  0  0  0  0  0
  -21.1112  -13.1255   22.2598 H   0  0  0  0  0  0
  -24.6575  -15.8380   20.5057 H   0  0  0  0  0  0
  -26.2684  -15.6224   20.0459 H   0  0  0  0  0  0
  -26.7121  -32.5505   23.1143 H   0  0  0  0  0  0
  -25.0076  -33.9768   25.0471 H   0  0  0  0  0  0
  -22.6971  -31.3084   21.4083 H   0  0  0  0  0  0
  -23.3758  -35.9630   23.3302 H   0  0  0  0  0  0
  -24.3583  -36.8916   22.2052 H   0  0  0  0  0  0
  -23.7231  -37.6507   23.6645 H   0  0  0  0  0  0
  -26.0608  -31.5837   20.6028 H   0  0  0  0  0  0
  -26.8236  -30.8674   21.9933 H   0  0  0  0  0  0
  -28.0921  -29.0550   21.1938 H   0  0  0  0  0  0
  -26.0128  -25.9698   18.9891 H   0  0  0  0  0  0
  -23.9760  -27.3053   19.0184 H   0  0  0  0  0  0
  -23.7285  -30.5987   19.4028 H   0  0  0  0  0  0
  -22.7399  -29.2459   19.8648 H   0  0  0  0  0  0
  -25.1288  -36.1969   25.0833 H   0  0  0  0  0  0
  -20.9976  -28.3244   24.1426 H   0  0  0  0  0  0
  -20.5671  -26.2281   23.3611 H   0  0  0  0  0  0
  -21.6642  -26.7447   22.1214 H   0  0  0  0  0  0
  -19.6915  -25.6304   21.1236 H   0  0  0  0  0  0
  -19.6700  -27.3205   20.6747 H   0  0  0  0  0  0
  -17.4209  -26.6698   21.4008 H   0  0  0  0  0  0
  -18.0319  -26.0060   22.9000 H   0  0  0  0  0  0
  -19.7933  -30.7254   24.2297 H   0  0  0  0  0  0
  -17.5016  -31.6267   24.5167 H   0  0  0  0  0  0
  -15.5353  -30.2997   23.7633 H   0  0  0  0  0  0
  -15.8673  -28.0823   22.7063 H   0  0  0  0  0  0
  -24.5900  -30.7089   25.7810 H   0  0  0  0  0  0
  -24.8941  -32.2892   26.4922 H   0  0  0  0  0  0
  -25.8083  -30.8892   27.0230 H   0  0  0  0  0  0
  -26.2855  -29.6799   24.1182 H   0  0  0  0  0  0
  -27.4065  -29.7287   25.4599 H   0  0  0  0  0  0
  -27.8701  -30.4351   23.9294 H   0  0  0  0  0  0
  -27.2695  -33.3624   26.2066 H   0  0  0  0  0  0
  -28.3853  -32.6885   25.0280 H   0  0  0  0  0  0
  -28.0749  -31.8437   26.5368 H   0  0  0  0  0  0
  -28.2606  -38.0100   24.7519 H   0  0  0  0  0  0
  -28.1080  -36.2634   24.6273 H   0  0  0  0  0  0
  -27.2308  -37.1446   25.8866 H   0  0  0  0  0  0
  -20.9312  -29.8749   21.6919 H   0  0  0  0  0  0
  -26.0184  -38.2874   24.1418 H   0  0  0  0  0  0
  -28.2273  -17.4179   21.8402 H   0  0  0  0  0  0
  -31.3924  -24.1752   24.4509 H   0  0  0  0  0  0
  -29.8052  -24.0732   23.7225 H   0  0  0  0  0  0
  -30.8046  -25.4971   23.4514 H   0  0  0  0  0  0
  -33.4807  -23.8322   23.1219 H   0  0  0  0  0  0
  -33.0811  -25.1882   22.0716 H   0  0  0  0  0  0
  -33.4272  -23.6047   21.3820 H   0  0  0  0  0  0
  -29.8616  -21.3892   19.0672 H   0  0  0  0  0  0
  -31.1119  -21.5697   20.2731 H   0  0  0  0  0  0
  -31.3090  -23.8016   20.1351 H   0  0  0  0  0  0
  -30.6958  -25.2009   20.9348 H   0  0  0  0  0  0
  -28.0890  -25.7921   18.2469 H   0  0  0  0  0  0
  -29.6800  -25.7681   18.8601 H   0  0  0  0  0  0
  -31.4145  -22.6657   22.4576 H   0  0  0  0  0  0
  -28.7123  -23.9610   21.7136 H   0  0  0  0  0  0
  -28.9035  -23.5514   18.7413 H   0  0  0  0  0  0
  -32.3946  -20.3121   19.0066 H   0  0  0  0  0  0
  -32.9488  -18.6986   18.8898 H   0  0  0  0  0  0
  -29.0533  -15.2740   21.4196 H   0  0  0  0  0  0
  -29.3134  -21.7941   21.9157 H   0  0  0  0  0  0
  -28.2246  -21.8147   20.7240 H   0  0  0  0  0  0
  -26.7302  -24.3475   20.3012 H   0  0  0  0  0  0
  1 25  1  0  0  0
  1 30  2  0  0  0
  1 86  1  0  0  0
  2  3  1  0  0  0
  2 25  1  0  0  0
  2 89  1  0  0  0
  2 90  1  0  0  0
  3  4  1  0  0  0
  3 91  1  0  0  0
  3 92  1  0  0  0
  4  5  1  0  0  0
  4 93  1  0  0  0
  4 94  1  0  0  0
  5  6  1  0  0  0
  5 26  1  0  0  0
  5 95  1  0  0  0
  6 25  1  0  0  0
  6 96  1  0  0  0
  6 97  1  0  0  0
  7  8  2  0  0  0
  7 26  1  0  0  0
  7 29  1  0  0  0
  8  9  1  0  0  0
  8 22  1  0  0  0
  9 10  1  0  0  0
  9 27  2  0  0  0
 10 11  2  0  0  0
 10 15  1  0  0  0
 11 12  1  0  0  0
 11 98  1  0  0  0
 12 13  2  0  0  0
 12 99  1  0  0  0
 13 14  1  0  0  0
 13 31  1  0  0  0
 14 15  2  0  0  0
 14100  1  0  0  0
 15101  1  0  0  0
 16 17  2  0  0  0
 16 21  1  0  0  0
 16 31  1  0  0  0
 17 18  1  0  0  0
 17102  1  0  0  0
 18 19  2  0  0  0
 18103  1  0  0  0
 19 20  1  0  0  0
 19 24  1  0  0  0
 20 21  2  0  0  0
 20104  1  0  0  0
 21 23  1  0  0  0
 22 28  1  0  0  0
 22 32  2  0  0  0
 26 27  1  0  0  0
 28105  1  0  0  0
 28106  1  0  0  0
 29107  1  0  0  0
 29108  1  0  0  0
 33 34  1  0  0  0
 33 66  1  0  0  0
 33 70  2  0  0  0
 34 36  1  0  0  0
 34 59  1  0  0  0
 34109  1  0  0  0
 35 44  2  0  0  0
 35 45  1  0  0  0
 35 68  1  0  0  0
 36 56  1  0  0  0
 36110  1  0  0  0
 37 39  1  0  0  0
 37 47  1  0  0  0
 37 66  1  0  0  0
 37111  1  0  0  0
 38 43  2  0  0  0
 38 46  1  0  0  0
 38 47  1  0  0  0
 39 64  1  0  0  0
 39 67  2  0  0  0
 40 52  1  0  0  0
 40 53  2  0  0  0
 40 58  1  0  0  0
 41112  1  0  0  0
 41113  1  0  0  0
 41114  1  0  0  0
 41 48  1  0  0  0
 42 43  1  0  0  0
 42 66  1  0  0  0
 42115  1  0  0  0
 42116  1  0  0  0
 43 44  1  0  0  0
 44117  1  0  0  0
 45 46  2  0  0  0
 45118  1  0  0  0
 46119  1  0  0  0
 47120  1  0  0  0
 47121  1  0  0  0
 48 56  1  0  0  0
 48 65  1  0  0  0
 48122  1  0  0  0
 49 50  1  0  0  0
 49 53  1  0  0  0
 49 64  1  0  0  0
 49123  1  0  0  0
 50 51  1  0  0  0
 50124  1  0  0  0
 50125  1  0  0  0
 51 52  1  0  0  0
 51126  1  0  0  0
 51127  1  0  0  0
 52128  1  0  0  0
 52129  1  0  0  0
 53 54  1  0  0  0
 54 55  2  0  0  0
 54130  1  0  0  0
 55 57  1  0  0  0
 55131  1  0  0  0
 56 69  2  0  0  0
 57 58  2  0  0  0
 57132  1  0  0  0
 58133  1  0  0  0
 59 60  1  0  0  0
 59 61  1  0  0  0
 59 62  1  0  0  0
 60134  1  0  0  0
 60135  1  0  0  0
 60136  1  0  0  0
 61137  1  0  0  0
 61138  1  0  0  0
 61139  1  0  0  0
 62140  1  0  0  0
 62141  1  0  0  0
 62142  1  0  0  0
 63 65  1  0  0  0
 63143  1  0  0  0
 63144  1  0  0  0
 63145  1  0  0  0
 64146  1  0  0  0
 65147  1  0  0  0
 68 79  1  0  0  0
 71 73  2  0  0  0
 71 83  1  0  0  0
 71148  1  0  0  0
 72 74  1  0  0  0
 72 77  1  0  0  0
 72 83  2  0  0  0
 73 84  1  0  0  0
 73 86  1  0  0  0
 74 84  2  0  0  0
 74 85  1  0  0  0
 75149  1  0  0  0
 75150  1  0  0  0
 75151  1  0  0  0
 75 80  1  0  0  0
 76 80  1  0  0  0
 76152  1  0  0  0
 76153  1  0  0  0
 76154  1  0  0  0
 77 87  1  0  0  0
 77155  1  0  0  0
 77156  1  0  0  0
 78 80  1  0  0  0
 78157  1  0  0  0
 78158  1  0  0  0
 78 81  1  0  0  0
 79 82  1  0  0  0
 79159  1  0  0  0
 79160  1  0  0  0
 80161  1  0  0  0
 81 82  1  0  0  0
 81 87  1  0  0  0
 81162  1  0  0  0
 82 88  1  0  0  0
 82163  1  0  0  0
 85164  1  0  0  0
 85165  1  0  0  0
 86166  1  0  0  0
 87167  1  0  0  0
 87168  1  0  0  0
 88169  1  0  0  0
M  CHG  1  87   1
M  ISO  4   1 100  68 101  79 101  86 100
M  END
> <chiral flag>
0

> <version>
0

> <s_m_source_file>
/data/baiqing/PycharmProjects/Reinvent-master-3.2/result/LINK_invent/BTK/process_docking_weight1_custom_product_contain_oxygen_bond_distance_aromatic_linkinvent_7_9_3/rearranged_h_0197.sdf

> <i_m_source_file_index>
52

> <r_mmod_Potential_Energy-OPLS-2005>
-249.388366699219

> <r_mmod_Stretch_Energy-OPLS-2005>
52.0784606933594

> <r_mmod_Bend_Energy-OPLS-2005>
143.300933837891

> <r_mmod_Torsional_Energy-OPLS-2005>
234.281188964844

> <r_mmod_Improper_Torsional_Energy-OPLS-2005>
3.95044803619385

> <r_mmod_Van_der_Waal_Energy-OPLS-2005>
153.799072265625

> <r_mmod_Electrostatic_Energy-OPLS-2005>
-376.039031982422

> <r_mmod_Solvation_Energy-OPLS-2005>
-480.255981445312

> <b_mmod_Minimization_Converged-OPLS-2005>
0

> <r_mmod_RMS_Derivative-OPLS-2005>
0.702130138874054

$$$$
52
                    3D
 Structure written by MMmdl.
159167  0  0  1  0            999 V2000
  -30.5909  -14.7861   20.4209 C   0  0  0  0  0  0
  -30.4215  -12.4642   19.5028 C   0  0  0  0  0  0
  -29.5257  -12.5231   18.2457 C   0  0  0  0  0  0
  -28.0402  -12.3583   18.6324 C   0  0  0  0  0  0
  -27.6341  -13.2475   19.8408 C   0  0  2  0  0  0
  -28.6704  -13.1927   20.9842 C   0  0  0  0  0  0
  -25.2441  -13.8218   20.5680 C   0  0  0  0  0  0
  -24.1761  -13.0439   20.9202 C   0  0  0  0  0  0
  -24.6387  -11.6921   20.8721 C   0  0  0  0  0  0
  -23.9076  -10.4282   21.0393 C   0  0  0  0  0  0
  -24.3634   -9.4204   21.9177 C   0  0  0  0  0  0
  -23.6311   -8.2239   22.0752 C   0  0  0  0  0  0
  -22.4292   -8.0294   21.3547 C   0  0  0  0  0  0
  -21.9912   -9.0252   20.4651 C   0  0  0  0  0  0
  -22.7249  -10.2123   20.3046 C   0  0  0  0  0  0
  -21.6843   -6.0752   22.5292 C   0  0  0  0  0  0
  -21.4012   -6.5645   23.8231 C   0  0  0  0  0  0
  -21.3654   -5.6790   24.9181 C   0  0  0  0  0  0
  -21.6034   -4.3052   24.7224 C   0  0  0  0  0  0
  -21.8805   -3.8160   23.4335 C   0  0  0  0  0  0
  -21.9171   -4.6979   22.3403 C   0  0  0  0  0  0
  -22.7769  -13.5217   21.1862 C   0  0  0  0  0  0
  -22.1653   -4.2170   21.0969 F   0  0  0  0  0  0
  -21.5627   -3.4540   25.7725 F   0  0  0  0  0  0
  -29.9728  -13.5481   20.4108 N   0  0  0  0  0  0
  -26.2869  -12.9460   20.3179 N   0  0  0  0  0  0
  -25.9303  -11.6574   20.5656 N   0  0  0  0  0  0
  -22.0394  -12.8227   22.0437 N   0  0  0  0  0  0
  -25.4111  -15.1942   20.4124 N   0  0  0  0  0  0
  -31.7957  -14.8298   20.1500 O   0  0  0  0  0  0
  -21.6633   -6.8910   21.4266 O   0  0  0  0  0  0
  -22.3439  -14.5526   20.6711 O   0  0  0  0  0  0
  -24.6347  -31.8548   23.1915 C   0  0  0  0  0  0
  -25.9181  -32.4733   23.8284 C   0  0  1  0  0  0
  -27.2302  -27.2433   20.1383 C   0  0  0  0  0  0
  -25.5962  -33.8531   24.2208 N   0  0  0  0  0  0
  -23.4304  -30.4750   21.5345 C   0  0  2  0  0  0
  -24.8803  -28.9064   20.1146 C   0  0  0  0  0  0
  -22.7507  -29.4633   22.4886 C   0  0  0  0  0  0
  -18.0312  -28.1397   22.8483 C   0  0  0  0  0  0
  -24.1504  -36.7274   23.2636 C   0  0  0  0  0  0
  -25.9779  -30.7624   21.3717 C   0  0  0  0  0  0
  -26.0523  -29.3785   20.7208 C   0  0  0  0  0  0
  -27.2305  -28.5612   20.7163 C   0  0  0  0  0  0
  -26.0368  -26.8370   19.5094 C   0  0  0  0  0  0
  -24.8787  -27.6440   19.4968 C   0  0  0  0  0  0
  -23.6533  -29.8005   20.1533 C   0  0  0  0  0  0
  -25.4130  -36.3036   24.0307 C   0  0  1  0  0  0
  -20.5914  -28.3732   23.1256 C   0  0  2  0  0  0
  -20.6805  -26.9439   22.5432 C   0  0  0  0  0  0
  -19.5789  -26.6388   21.5230 C   0  0  0  0  0  0
  -18.1954  -26.7937   22.1614 C   0  0  0  0  0  0
  -19.1560  -28.8883   23.2858 C   0  0  0  0  0  0
  -18.9474  -30.1478   23.8880 C   0  0  0  0  0  0
  -17.6469  -30.6582   24.0582 C   0  0  0  0  0  0
  -25.9080  -34.9421   23.5058 C   0  0  0  0  0  0
  -16.5367  -29.9088   23.6326 C   0  0  0  0  0  0
  -16.7297  -28.6521   23.0320 C   0  0  0  0  0  0
  -26.4526  -31.6541   25.0679 C   0  0  0  0  0  0
  -25.3743  -31.3700   26.1388 C   0  0  0  0  0  0
  -27.0369  -30.2952   24.6162 C   0  0  0  0  0  0
  -27.6050  -32.4288   25.7480 C   0  0  0  0  0  0
  -27.5567  -37.1799   24.8445 C   0  0  0  0  0  0
  -21.4215  -29.3062   22.3623 N   0  0  0  0  0  0
  -26.4277  -37.3753   23.9392 N   0  0  0  0  0  0
  -24.7000  -31.0490   22.0895 N   0  0  0  0  0  0
  -23.4206  -28.8188   23.2996 O   0  0  0  0  0  0
  -28.3391  -26.3613   20.1112 O   0  0  0  0  0  0
  -26.5653  -34.8910   22.4628 O   0  0  0  0  0  0
  -23.5496  -32.1384   23.7203 O   0  0  0  0  0  0
  -30.0551  -19.7176   18.7212 C   0  0  0  0  0  0
  -30.6763  -18.5415   18.2435 C   0  0  0  0  0  0
  -29.4218  -19.6511   19.9769 C   0  0  0  0  0  0
  -29.9630  -17.2875   20.0553 C   0  0  0  0  0  0
  -29.9884  -20.9514   17.8248 C   0  0  0  0  0  0
  -31.3787  -18.4768   16.8998 C   0  0  0  0  0  0
  -30.6913  -22.3781   20.9684 C   0  0  0  0  0  0
  -28.5738  -23.5515   19.9402 C   0  0  0  0  0  0
  -28.2562  -24.9687   20.7034 C   0  0  0  0  0  0
  -29.1684  -22.2580   20.7718 C   0  0  1  0  0  0
  -30.6254  -17.3740   18.9094 N   0  0  0  0  0  0
  -29.3480  -18.4018   20.5963 N   0  0  0  0  0  0
  -28.7212  -20.8085   20.5161 N   0  0  0  0  0  0
  -29.8248  -15.9504   20.5899 N   0  0  0  0  0  0
  -31.4733  -12.5571   19.2330 H   0  0  0  0  0  0
  -30.3330  -11.4939   19.9929 H   0  0  0  0  0  0
  -29.8233  -11.7533   17.5327 H   0  0  0  0  0  0
  -29.6705  -13.4787   17.7412 H   0  0  0  0  0  0
  -27.8691  -11.3103   18.8722 H   0  0  0  0  0  0
  -27.4052  -12.5838   17.7745 H   0  0  0  0  0  0
  -27.6277  -14.2693   19.4632 H   0  0  0  0  0  0
  -28.7010  -12.2000   21.4347 H   0  0  0  0  0  0
  -28.3986  -13.8772   21.7892 H   0  0  0  0  0  0
  -25.2780   -9.5684   22.4744 H   0  0  0  0  0  0
  -24.0034   -7.4615   22.7443 H   0  0  0  0  0  0
  -21.0867   -8.8746   19.8953 H   0  0  0  0  0  0
  -22.3719  -10.9638   19.6142 H   0  0  0  0  0  0
  -21.2040   -7.6152   23.9765 H   0  0  0  0  0  0
  -21.1490   -6.0504   25.9090 H   0  0  0  0  0  0
  -22.0600   -2.7635   23.2804 H   0  0  0  0  0  0
  -22.4007  -11.9909   22.4863 H   0  0  0  0  0  0
  -21.1005  -13.1259   22.2607 H   0  0  0  0  0  0
  -24.6413  -15.8435   20.5239 H   0  0  0  0  0  0
  -26.2578  -15.6367   20.0791 H   0  0  0  0  0  0
  -26.7253  -32.5387   23.1027 H   0  0  0  0  0  0
  -25.0143  -33.9661   25.0374 H   0  0  0  0  0  0
  -22.7300  -31.2995   21.3832 H   0  0  0  0  0  0
  -23.3745  -35.9618   23.3287 H   0  0  0  0  0  0
  -24.3592  -36.8935   22.2051 H   0  0  0  0  0  0
  -23.7291  -37.6480   23.6700 H   0  0  0  0  0  0
  -26.1174  -31.5193   20.5982 H   0  0  0  0  0  0
  -26.8538  -30.8168   22.0068 H   0  0  0  0  0  0
  -28.1334  -28.9266   21.1846 H   0  0  0  0  0  0
  -26.0035  -25.8725   19.0216 H   0  0  0  0  0  0
  -23.9824  -27.2799   19.0131 H   0  0  0  0  0  0
  -23.7891  -30.5769   19.3984 H   0  0  0  0  0  0
  -22.7679  -29.2430   19.8417 H   0  0  0  0  0  0
  -25.1319  -36.1860   25.0796 H   0  0  0  0  0  0
  -21.0024  -28.3349   24.1368 H   0  0  0  0  0  0
  -20.5726  -26.2352   23.3657 H   0  0  0  0  0  0
  -21.6675  -26.7474   22.1225 H   0  0  0  0  0  0
  -19.6952  -25.6293   21.1285 H   0  0  0  0  0  0
  -19.6717  -27.3188   20.6752 H   0  0  0  0  0  0
  -17.4246  -26.6715   21.3988 H   0  0  0  0  0  0
  -18.0306  -26.0072   22.9001 H   0  0  0  0  0  0
  -19.7947  -30.7308   24.2215 H   0  0  0  0  0  0
  -17.5021  -31.6244   24.5210 H   0  0  0  0  0  0
  -15.5364  -30.2980   23.7638 H   0  0  0  0  0  0
  -15.8708  -28.0853   22.6978 H   0  0  0  0  0  0
  -24.5916  -30.7051   25.7723 H   0  0  0  0  0  0
  -24.8938  -32.2878   26.4781 H   0  0  0  0  0  0
  -25.8062  -30.8908   27.0182 H   0  0  0  0  0  0
  -26.2946  -29.6683   24.1209 H   0  0  0  0  0  0
  -27.4077  -29.7220   25.4668 H   0  0  0  0  0  0
  -27.8810  -30.4197   23.9373 H   0  0  0  0  0  0
  -27.2619  -33.3584   26.2020 H   0  0  0  0  0  0
  -28.3883  -32.6857   25.0343 H   0  0  0  0  0  0
  -28.0682  -31.8444   26.5435 H   0  0  0  0  0  0
  -28.2567  -38.0113   24.7490 H   0  0  0  0  0  0
  -28.1085  -36.2642   24.6263 H   0  0  0  0  0  0
  -27.2295  -37.1441   25.8851 H   0  0  0  0  0  0
  -20.9399  -29.8780   21.6824 H   0  0  0  0  0  0
  -26.0138  -38.2817   24.1397 H   0  0  0  0  0  0
  -29.7629  -20.6572   16.7985 H   0  0  0  0  0  0
  -30.9358  -21.4906   17.8179 H   0  0  0  0  0  0
  -29.1954  -21.6358   18.1138 H   0  0  0  0  0  0
  -31.8526  -19.4227   16.6455 H   0  0  0  0  0  0
  -30.6608  -18.2378   16.1159 H   0  0  0  0  0  0
  -32.1585  -17.7139   16.8935 H   0  0  0  0  0  0
  -30.9529  -23.3546   21.3776 H   0  0  0  0  0  0
  -31.2411  -22.2678   20.0356 H   0  0  0  0  0  0
  -31.0741  -21.6314   21.6643 H   0  0  0  0  0  0
  -29.2757  -23.7668   19.1335 H   0  0  0  0  0  0
  -27.6585  -23.2490   19.4320 H   0  0  0  0  0  0
  -28.9615  -25.0163   21.5334 H   0  0  0  0  0  0
  -27.2843  -24.8649   21.1870 H   0  0  0  0  0  0
  -28.7629  -22.4119   21.7719 H   0  0  0  0  0  0
  -28.0489  -20.5118   21.2146 H   0  0  0  0  0  0
  -28.9236  -15.7832   21.0089 H   0  0  0  0  0  0
  1 25  1  0  0  0
  1 30  2  0  0  0
  1 84  1  0  0  0
  2  3  1  0  0  0
  2 25  1  0  0  0
  2 85  1  0  0  0
  2 86  1  0  0  0
  3  4  1  0  0  0
  3 87  1  0  0  0
  3 88  1  0  0  0
  4  5  1  0  0  0
  4 89  1  0  0  0
  4 90  1  0  0  0
  5  6  1  0  0  0
  5 26  1  0  0  0
  5 91  1  0  0  0
  6 25  1  0  0  0
  6 92  1  0  0  0
  6 93  1  0  0  0
  7  8  2  0  0  0
  7 26  1  0  0  0
  7 29  1  0  0  0
  8  9  1  0  0  0
  8 22  1  0  0  0
  9 10  1  0  0  0
  9 27  2  0  0  0
 10 11  2  0  0  0
 10 15  1  0  0  0
 11 12  1  0  0  0
 11 94  1  0  0  0
 12 13  2  0  0  0
 12 95  1  0  0  0
 13 14  1  0  0  0
 13 31  1  0  0  0
 14 15  2  0  0  0
 14 96  1  0  0  0
 15 97  1  0  0  0
 16 17  2  0  0  0
 16 21  1  0  0  0
 16 31  1  0  0  0
 17 18  1  0  0  0
 17 98  1  0  0  0
 18 19  2  0  0  0
 18 99  1  0  0  0
 19 20  1  0  0  0
 19 24  1  0  0  0
 20 21  2  0  0  0
 20100  1  0  0  0
 21 23  1  0  0  0
 22 28  1  0  0  0
 22 32  2  0  0  0
 26 27  1  0  0  0
 28101  1  0  0  0
 28102  1  0  0  0
 29103  1  0  0  0
 29104  1  0  0  0
 33 34  1  0  0  0
 33 66  1  0  0  0
 33 70  2  0  0  0
 34 36  1  0  0  0
 34 59  1  0  0  0
 34105  1  0  0  0
 35 44  2  0  0  0
 35 45  1  0  0  0
 35 68  1  0  0  0
 36 56  1  0  0  0
 36106  1  0  0  0
 37 39  1  0  0  0
 37 47  1  0  0  0
 37 66  1  0  0  0
 37107  1  0  0  0
 38 43  2  0  0  0
 38 46  1  0  0  0
 38 47  1  0  0  0
 39 64  1  0  0  0
 39 67  2  0  0  0
 40 52  1  0  0  0
 40 53  2  0  0  0
 40 58  1  0  0  0
 41108  1  0  0  0
 41109  1  0  0  0
 41110  1  0  0  0
 41 48  1  0  0  0
 42 43  1  0  0  0
 42 66  1  0  0  0
 42111  1  0  0  0
 42112  1  0  0  0
 43 44  1  0  0  0
 44113  1  0  0  0
 45 46  2  0  0  0
 45114  1  0  0  0
 46115  1  0  0  0
 47116  1  0  0  0
 47117  1  0  0  0
 48 56  1  0  0  0
 48 65  1  0  0  0
 48118  1  0  0  0
 49 50  1  0  0  0
 49 53  1  0  0  0
 49 64  1  0  0  0
 49119  1  0  0  0
 50 51  1  0  0  0
 50120  1  0  0  0
 50121  1  0  0  0
 51 52  1  0  0  0
 51122  1  0  0  0
 51123  1  0  0  0
 52124  1  0  0  0
 52125  1  0  0  0
 53 54  1  0  0  0
 54 55  2  0  0  0
 54126  1  0  0  0
 55 57  1  0  0  0
 55127  1  0  0  0
 56 69  2  0  0  0
 57 58  2  0  0  0
 57128  1  0  0  0
 58129  1  0  0  0
 59 60  1  0  0  0
 59 61  1  0  0  0
 59 62  1  0  0  0
 60130  1  0  0  0
 60131  1  0  0  0
 60132  1  0  0  0
 61133  1  0  0  0
 61134  1  0  0  0
 61135  1  0  0  0
 62136  1  0  0  0
 62137  1  0  0  0
 62138  1  0  0  0
 63 65  1  0  0  0
 63139  1  0  0  0
 63140  1  0  0  0
 63141  1  0  0  0
 64142  1  0  0  0
 65143  1  0  0  0
 68 79  1  0  0  0
 71 72  2  0  0  0
 71 73  1  0  0  0
 71 75  1  0  0  0
 72 76  1  0  0  0
 72 81  1  0  0  0
 73 82  2  0  0  0
 73 83  1  0  0  0
 74 81  2  0  0  0
 74 82  1  0  0  0
 74 84  1  0  0  0
 75144  1  0  0  0
 75145  1  0  0  0
 75146  1  0  0  0
 76147  1  0  0  0
 76148  1  0  0  0
 76149  1  0  0  0
 77150  1  0  0  0
 77151  1  0  0  0
 77152  1  0  0  0
 77 80  1  0  0  0
 78 79  1  0  0  0
 78 80  1  0  0  0
 78153  1  0  0  0
 78154  1  0  0  0
 79155  1  0  0  0
 79156  1  0  0  0
 80 83  1  0  0  0
 80157  1  0  0  0
 83158  1  0  0  0
 84159  1  0  0  0
M  ISO  4   1 100  68 101  79 101  84 100
M  END
> <chiral flag>
0

> <version>
0

> <s_m_source_file>
/data/baiqing/PycharmProjects/Reinvent-master-3.2/result/LINK_invent/BTK/process_docking_weight1_custom_product_contain_oxygen_bond_distance_aromatic_linkinvent_7_9_3/rearranged_h_0197.sdf

> <i_m_source_file_index>
53

> <r_mmod_Potential_Energy-OPLS-2005>
-174.365097045898

> <r_mmod_Stretch_Energy-OPLS-2005>
149.015472412109

> <r_mmod_Bend_Energy-OPLS-2005>
222.744171142578

> <r_mmod_Torsional_Energy-OPLS-2005>
263.202362060547

> <r_mmod_Improper_Torsional_Energy-OPLS-2005>
7.83297395706177

> <r_mmod_Van_der_Waal_Energy-OPLS-2005>
141.836334228516

> <r_mmod_Electrostatic_Energy-OPLS-2005>
-815.051696777344

> <r_mmod_Solvation_Energy-OPLS-2005>
-240.460327148438

> <b_mmod_Minimization_Converged-OPLS-2005>
0

> <r_mmod_RMS_Derivative-OPLS-2005>
4.65661334991455

$$$$
53
                    3D
 Structure written by MMmdl.
155163  0  0  1  0            999 V2000
  -30.6063  -14.7901   20.4425 C   0  0  0  0  0  0
  -30.4377  -12.4853   19.4714 C   0  0  0  0  0  0
  -29.5135  -12.5106   18.2341 C   0  0  0  0  0  0
  -28.0431  -12.3180   18.6536 C   0  0  0  0  0  0
  -27.6384  -13.2346   19.8397 C   0  0  2  0  0  0
  -28.6862  -13.1964   20.9726 C   0  0  0  0  0  0
  -25.2494  -13.8182   20.5657 C   0  0  0  0  0  0
  -24.1811  -13.0420   20.9238 C   0  0  0  0  0  0
  -24.6427  -11.6900   20.8785 C   0  0  0  0  0  0
  -23.9098  -10.4273   21.0446 C   0  0  0  0  0  0
  -24.3642   -9.4187   21.9230 C   0  0  0  0  0  0
  -23.6304   -8.2221   22.0788 C   0  0  0  0  0  0
  -22.4294   -8.0274   21.3563 C   0  0  0  0  0  0
  -21.9930   -9.0260   20.4678 C   0  0  0  0  0  0
  -22.7266  -10.2132   20.3096 C   0  0  0  0  0  0
  -21.6853   -6.0736   22.5282 C   0  0  0  0  0  0
  -21.4011   -6.5637   23.8219 C   0  0  0  0  0  0
  -21.3658   -5.6791   24.9176 C   0  0  0  0  0  0
  -21.6042   -4.3054   24.7223 C   0  0  0  0  0  0
  -21.8822   -3.8151   23.4346 C   0  0  0  0  0  0
  -21.9185   -4.6968   22.3401 C   0  0  0  0  0  0
  -22.7816  -13.5183   21.1872 C   0  0  0  0  0  0
  -22.1657   -4.2147   21.0984 F   0  0  0  0  0  0
  -21.5630   -3.4542   25.7743 F   0  0  0  0  0  0
  -29.9804  -13.5608   20.3837 N   0  0  0  0  0  0
  -26.2935  -12.9412   20.3232 N   0  0  0  0  0  0
  -25.9356  -11.6552   20.5777 N   0  0  0  0  0  0
  -22.0440  -12.8205   22.0434 N   0  0  0  0  0  0
  -25.4064  -15.1920   20.4017 N   0  0  0  0  0  0
  -31.8047  -14.8706   20.1626 O   0  0  0  0  0  0
  -21.6647   -6.8886   21.4252 O   0  0  0  0  0  0
  -22.3494  -14.5482   20.6700 O   0  0  0  0  0  0
  -24.6325  -31.8529   23.1963 C   0  0  0  0  0  0
  -25.9143  -32.4738   23.8323 C   0  0  1  0  0  0
  -27.2223  -27.2400   20.1284 C   0  0  0  0  0  0
  -25.5928  -33.8540   24.2242 N   0  0  0  0  0  0
  -23.4308  -30.4742   21.5399 C   0  0  2  0  0  0
  -24.8775  -28.9156   20.1087 C   0  0  0  0  0  0
  -22.7511  -29.4594   22.4903 C   0  0  0  0  0  0
  -18.0292  -28.1385   22.8481 C   0  0  0  0  0  0
  -24.1497  -36.7272   23.2641 C   0  0  0  0  0  0
  -25.9786  -30.7582   21.3807 C   0  0  0  0  0  0
  -26.0488  -29.3809   20.7173 C   0  0  0  0  0  0
  -27.2198  -28.5558   20.7135 C   0  0  0  0  0  0
  -26.0222  -26.8401   19.5006 C   0  0  0  0  0  0
  -24.8714  -27.6557   19.4895 C   0  0  0  0  0  0
  -23.6511  -29.8073   20.1561 C   0  0  0  0  0  0
  -25.4121  -36.3053   24.0327 C   0  0  1  0  0  0
  -20.5898  -28.3701   23.1269 C   0  0  2  0  0  0
  -20.6779  -26.9414   22.5418 C   0  0  0  0  0  0
  -19.5761  -26.6380   21.5219 C   0  0  0  0  0  0
  -18.1934  -26.7930   22.1620 C   0  0  0  0  0  0
  -19.1543  -28.8861   23.2871 C   0  0  0  0  0  0
  -18.9467  -30.1458   23.8896 C   0  0  0  0  0  0
  -17.6465  -30.6587   24.0558 C   0  0  0  0  0  0
  -25.9058  -34.9423   23.5084 C   0  0  0  0  0  0
  -16.5356  -29.9082   23.6323 C   0  0  0  0  0  0
  -16.7279  -28.6497   23.0351 C   0  0  0  0  0  0
  -26.4510  -31.6578   25.0724 C   0  0  0  0  0  0
  -25.3730  -31.3753   26.1454 C   0  0  0  0  0  0
  -27.0379  -30.2984   24.6257 C   0  0  0  0  0  0
  -27.6055  -32.4346   25.7483 C   0  0  0  0  0  0
  -27.5581  -37.1798   24.8460 C   0  0  0  0  0  0
  -21.4214  -29.3040   22.3647 N   0  0  0  0  0  0
  -26.4290  -37.3757   23.9402 N   0  0  0  0  0  0
  -24.6998  -31.0481   22.0945 N   0  0  0  0  0  0
  -23.4209  -28.8135   23.3007 O   0  0  0  0  0  0
  -28.3416  -26.3713   20.2097 O   0  0  0  0  0  0
  -26.5647  -34.8905   22.4672 O   0  0  0  0  0  0
  -23.5474  -32.1364   23.7250 O   0  0  0  0  0  0
  -27.1925  -19.5206   19.3264 C   0  0  0  0  0  0
  -27.9995  -18.3871   19.5757 C   0  0  0  0  0  0
  -29.2482  -18.6210   20.2055 C   0  0  0  0  0  0
  -28.7421  -20.9785   20.1514 C   0  0  0  0  0  0
  -26.9437  -23.3927   21.1927 C   0  0  0  0  0  0
  -30.2627  -17.4211   20.5484 C   0  0  0  0  0  0
  -28.4047  -24.9453   19.7038 C   0  0  0  0  0  0
  -28.3727  -23.6437   20.6850 C   0  0  2  0  0  0
  -27.5577  -20.7866   19.6068 N   0  0  0  0  0  0
  -29.5932  -19.9511   20.4577 N   0  0  0  0  0  0
  -27.5677  -17.1253   19.1423 N   0  0  0  0  0  0
  -29.1309  -22.3542   20.3219 N   0  0  0  0  0  0
  -29.8447  -15.9406   20.6043 N   0  0  0  0  0  0
  -31.4777  -12.6128   19.1673 H   0  0  0  0  0  0
  -30.3915  -11.5149   19.9693 H   0  0  0  0  0  0
  -29.8078  -11.7356   17.5247 H   0  0  0  0  0  0
  -29.6262  -13.4624   17.7129 H   0  0  0  0  0  0
  -27.9228  -11.2720   18.9395 H   0  0  0  0  0  0
  -27.3800  -12.4765   17.8023 H   0  0  0  0  0  0
  -27.6213  -14.2478   19.4402 H   0  0  0  0  0  0
  -28.7377  -12.2016   21.4176 H   0  0  0  0  0  0
  -28.4137  -13.8816   21.7764 H   0  0  0  0  0  0
  -25.2776   -9.5649   22.4817 H   0  0  0  0  0  0
  -24.0005   -7.4616   22.7514 H   0  0  0  0  0  0
  -21.0857   -8.8789   19.8984 H   0  0  0  0  0  0
  -22.3730  -10.9690   19.6217 H   0  0  0  0  0  0
  -21.2011   -7.6151   23.9711 H   0  0  0  0  0  0
  -21.1475   -6.0532   25.9076 H   0  0  0  0  0  0
  -22.0599   -2.7608   23.2848 H   0  0  0  0  0  0
  -22.4027  -11.9884   22.4893 H   0  0  0  0  0  0
  -21.1078  -13.1279   22.2612 H   0  0  0  0  0  0
  -24.6214  -15.8233   20.5158 H   0  0  0  0  0  0
  -26.2325  -15.6681   20.0404 H   0  0  0  0  0  0
  -26.7201  -32.5366   23.1054 H   0  0  0  0  0  0
  -25.0031  -33.9674   25.0358 H   0  0  0  0  0  0
  -22.7281  -31.2967   21.3919 H   0  0  0  0  0  0
  -23.3752  -35.9610   23.3295 H   0  0  0  0  0  0
  -24.3581  -36.8908   22.2054 H   0  0  0  0  0  0
  -23.7261  -37.6472   23.6682 H   0  0  0  0  0  0
  -26.1284  -31.5241   20.6192 H   0  0  0  0  0  0
  -26.8518  -30.7984   22.0208 H   0  0  0  0  0  0
  -28.1181  -28.9093   21.1994 H   0  0  0  0  0  0
  -25.9305  -25.8715   19.0359 H   0  0  0  0  0  0
  -23.9715  -27.2893   19.0140 H   0  0  0  0  0  0
  -23.7818  -30.5865   19.4038 H   0  0  0  0  0  0
  -22.7679  -29.2465   19.8438 H   0  0  0  0  0  0
  -25.1304  -36.1893   25.0821 H   0  0  0  0  0  0
  -20.9983  -28.3292   24.1395 H   0  0  0  0  0  0
  -20.5670  -26.2313   23.3626 H   0  0  0  0  0  0
  -21.6650  -26.7439   22.1222 H   0  0  0  0  0  0
  -19.6926  -25.6288   21.1258 H   0  0  0  0  0  0
  -19.6703  -27.3184   20.6744 H   0  0  0  0  0  0
  -17.4209  -26.6677   21.4012 H   0  0  0  0  0  0
  -18.0324  -26.0076   22.9017 H   0  0  0  0  0  0
  -19.7943  -30.7261   24.2278 H   0  0  0  0  0  0
  -17.5022  -31.6269   24.5157 H   0  0  0  0  0  0
  -15.5353  -30.2987   23.7648 H   0  0  0  0  0  0
  -15.8677  -28.0809   22.7084 H   0  0  0  0  0  0
  -24.5910  -30.7088   25.7799 H   0  0  0  0  0  0
  -24.8913  -32.2930   26.4835 H   0  0  0  0  0  0
  -25.8055  -30.8965   27.0247 H   0  0  0  0  0  0
  -26.2982  -29.6683   24.1306 H   0  0  0  0  0  0
  -27.4060  -29.7303   25.4805 H   0  0  0  0  0  0
  -27.8856  -30.4224   23.9517 H   0  0  0  0  0  0
  -27.2662  -33.3673   26.1996 H   0  0  0  0  0  0
  -28.3887  -32.6870   25.0324 H   0  0  0  0  0  0
  -28.0696  -31.8508   26.5441 H   0  0  0  0  0  0
  -28.2584  -38.0101   24.7491 H   0  0  0  0  0  0
  -28.1096  -36.2634   24.6304 H   0  0  0  0  0  0
  -27.2302  -37.1457   25.8862 H   0  0  0  0  0  0
  -20.9410  -29.8743   21.6825 H   0  0  0  0  0  0
  -26.0162  -38.2829   24.1396 H   0  0  0  0  0  0
  -26.2336  -19.4110   18.8424 H   0  0  0  0  0  0
  -26.5317  -24.3024   21.6310 H   0  0  0  0  0  0
  -26.9221  -22.6240   21.9662 H   0  0  0  0  0  0
  -26.2745  -23.0894   20.3863 H   0  0  0  0  0  0
  -30.7109  -17.6642   21.5134 H   0  0  0  0  0  0
  -31.0766  -17.5091   19.8279 H   0  0  0  0  0  0
  -27.7060  -24.7903   18.8848 H   0  0  0  0  0  0
  -29.3735  -24.9116   19.2067 H   0  0  0  0  0  0
  -28.9282  -23.9718   21.5643 H   0  0  0  0  0  0
  -26.8264  -17.1456   18.4450 H   0  0  0  0  0  0
  -28.3061  -16.5023   18.8313 H   0  0  0  0  0  0
  -30.1061  -22.4213   20.5886 H   0  0  0  0  0  0
  -28.8492  -15.8135   20.7244 H   0  0  0  0  0  0
  1 25  1  0  0  0
  1 30  2  0  0  0
  1 83  1  0  0  0
  2  3  1  0  0  0
  2 25  1  0  0  0
  2 84  1  0  0  0
  2 85  1  0  0  0
  3  4  1  0  0  0
  3 86  1  0  0  0
  3 87  1  0  0  0
  4  5  1  0  0  0
  4 88  1  0  0  0
  4 89  1  0  0  0
  5  6  1  0  0  0
  5 26  1  0  0  0
  5 90  1  0  0  0
  6 25  1  0  0  0
  6 91  1  0  0  0
  6 92  1  0  0  0
  7  8  2  0  0  0
  7 26  1  0  0  0
  7 29  1  0  0  0
  8  9  1  0  0  0
  8 22  1  0  0  0
  9 10  1  0  0  0
  9 27  2  0  0  0
 10 11  2  0  0  0
 10 15  1  0  0  0
 11 12  1  0  0  0
 11 93  1  0  0  0
 12 13  2  0  0  0
 12 94  1  0  0  0
 13 14  1  0  0  0
 13 31  1  0  0  0
 14 15  2  0  0  0
 14 95  1  0  0  0
 15 96  1  0  0  0
 16 17  2  0  0  0
 16 21  1  0  0  0
 16 31  1  0  0  0
 17 18  1  0  0  0
 17 97  1  0  0  0
 18 19  2  0  0  0
 18 98  1  0  0  0
 19 20  1  0  0  0
 19 24  1  0  0  0
 20 21  2  0  0  0
 20 99  1  0  0  0
 21 23  1  0  0  0
 22 28  1  0  0  0
 22 32  2  0  0  0
 26 27  1  0  0  0
 28100  1  0  0  0
 28101  1  0  0  0
 29102  1  0  0  0
 29103  1  0  0  0
 33 34  1  0  0  0
 33 66  1  0  0  0
 33 70  2  0  0  0
 34 36  1  0  0  0
 34 59  1  0  0  0
 34104  1  0  0  0
 35 44  2  0  0  0
 35 45  1  0  0  0
 35 68  1  0  0  0
 36 56  1  0  0  0
 36105  1  0  0  0
 37 39  1  0  0  0
 37 47  1  0  0  0
 37 66  1  0  0  0
 37106  1  0  0  0
 38 43  2  0  0  0
 38 46  1  0  0  0
 38 47  1  0  0  0
 39 64  1  0  0  0
 39 67  2  0  0  0
 40 52  1  0  0  0
 40 53  2  0  0  0
 40 58  1  0  0  0
 41107  1  0  0  0
 41108  1  0  0  0
 41109  1  0  0  0
 41 48  1  0  0  0
 42 43  1  0  0  0
 42 66  1  0  0  0
 42110  1  0  0  0
 42111  1  0  0  0
 43 44  1  0  0  0
 44112  1  0  0  0
 45 46  2  0  0  0
 45113  1  0  0  0
 46114  1  0  0  0
 47115  1  0  0  0
 47116  1  0  0  0
 48 56  1  0  0  0
 48 65  1  0  0  0
 48117  1  0  0  0
 49 50  1  0  0  0
 49 53  1  0  0  0
 49 64  1  0  0  0
 49118  1  0  0  0
 50 51  1  0  0  0
 50119  1  0  0  0
 50120  1  0  0  0
 51 52  1  0  0  0
 51121  1  0  0  0
 51122  1  0  0  0
 52123  1  0  0  0
 52124  1  0  0  0
 53 54  1  0  0  0
 54 55  2  0  0  0
 54125  1  0  0  0
 55 57  1  0  0  0
 55126  1  0  0  0
 56 69  2  0  0  0
 57 58  2  0  0  0
 57127  1  0  0  0
 58128  1  0  0  0
 59 60  1  0  0  0
 59 61  1  0  0  0
 59 62  1  0  0  0
 60129  1  0  0  0
 60130  1  0  0  0
 60131  1  0  0  0
 61132  1  0  0  0
 61133  1  0  0  0
 61134  1  0  0  0
 62135  1  0  0  0
 62136  1  0  0  0
 62137  1  0  0  0
 63 65  1  0  0  0
 63138  1  0  0  0
 63139  1  0  0  0
 63140  1  0  0  0
 64141  1  0  0  0
 65142  1  0  0  0
 68 77  1  0  0  0
 71 72  2  0  0  0
 71 79  1  0  0  0
 71143  1  0  0  0
 72 73  1  0  0  0
 72 81  1  0  0  0
 73 76  1  0  0  0
 73 80  2  0  0  0
 74 79  2  0  0  0
 74 80  1  0  0  0
 74 82  1  0  0  0
 75144  1  0  0  0
 75145  1  0  0  0
 75146  1  0  0  0
 75 78  1  0  0  0
 76 83  1  0  0  0
 76147  1  0  0  0
 76148  1  0  0  0
 77 78  1  0  0  0
 77149  1  0  0  0
 77150  1  0  0  0
 78 82  1  0  0  0
 78151  1  0  0  0
 81152  1  0  0  0
 81153  1  0  0  0
 82154  1  0  0  0
 83155  1  0  0  0
M  ISO  4   1 100  68 101  77 101  83 100
M  END
> <chiral flag>
0

> <version>
0

> <s_m_source_file>
/data/baiqing/PycharmProjects/Reinvent-master-3.2/result/LINK_invent/BTK/process_docking_weight1_custom_product_contain_oxygen_bond_distance_aromatic_linkinvent_7_9_3/rearranged_h_0197.sdf

> <i_m_source_file_index>
54

> <r_mmod_Potential_Energy-OPLS-2005>
-375.154510498047

> <r_mmod_Stretch_Energy-OPLS-2005>
135.189712524414

> <r_mmod_Bend_Energy-OPLS-2005>
208.353698730469

> <r_mmod_Torsional_Energy-OPLS-2005>
203.652252197266

> <r_mmod_Improper_Torsional_Energy-OPLS-2005>
11.8906164169312

> <r_mmod_Van_der_Waal_Energy-OPLS-2005>
140.354049682617

> <r_mmod_Electrostatic_Energy-OPLS-2005>
-935.399291992188

> <r_mmod_Solvation_Energy-OPLS-2005>
-240.691757202148

> <b_mmod_Minimization_Converged-OPLS-2005>
0

> <r_mmod_RMS_Derivative-OPLS-2005>
2.48320627212524

$$$$
54
                    3D
 Structure written by MMmdl.
150158  0  0  1  0            999 V2000
  -30.6173  -14.7795   20.4364 C   0  0  0  0  0  0
  -30.4296  -12.4715   19.4914 C   0  0  0  0  0  0
  -29.5148  -12.5078   18.2471 C   0  0  0  0  0  0
  -28.0404  -12.3317   18.6571 C   0  0  0  0  0  0
  -27.6391  -13.2396   19.8509 C   0  0  2  0  0  0
  -28.6829  -13.2022   20.9894 C   0  0  0  0  0  0
  -25.2483  -13.8216   20.5701 C   0  0  0  0  0  0
  -24.1791  -13.0445   20.9224 C   0  0  0  0  0  0
  -24.6399  -11.6931   20.8762 C   0  0  0  0  0  0
  -23.9075  -10.4296   21.0409 C   0  0  0  0  0  0
  -24.3619   -9.4208   21.9190 C   0  0  0  0  0  0
  -23.6290   -8.2245   22.0756 C   0  0  0  0  0  0
  -22.4273   -8.0282   21.3543 C   0  0  0  0  0  0
  -21.9913   -9.0258   20.4648 C   0  0  0  0  0  0
  -22.7242  -10.2138   20.3059 C   0  0  0  0  0  0
  -21.6861   -6.0733   22.5277 C   0  0  0  0  0  0
  -21.4014   -6.5634   23.8211 C   0  0  0  0  0  0
  -21.3660   -5.6786   24.9172 C   0  0  0  0  0  0
  -21.6053   -4.3050   24.7222 C   0  0  0  0  0  0
  -21.8816   -3.8142   23.4343 C   0  0  0  0  0  0
  -21.9189   -4.6959   22.3400 C   0  0  0  0  0  0
  -22.7803  -13.5215   21.1858 C   0  0  0  0  0  0
  -22.1662   -4.2143   21.0979 F   0  0  0  0  0  0
  -21.5625   -3.4537   25.7736 F   0  0  0  0  0  0
  -29.9822  -13.5532   20.4045 N   0  0  0  0  0  0
  -26.2923  -12.9440   20.3291 N   0  0  0  0  0  0
  -25.9332  -11.6577   20.5772 N   0  0  0  0  0  0
  -22.0451  -12.8221   22.0427 N   0  0  0  0  0  0
  -25.4132  -15.1949   20.4069 N   0  0  0  0  0  0
  -31.8041  -14.8437   20.1076 O   0  0  0  0  0  0
  -21.6642   -6.8879   21.4237 O   0  0  0  0  0  0
  -22.3486  -14.5521   20.6701 O   0  0  0  0  0  0
  -24.6343  -31.8531   23.1975 C   0  0  0  0  0  0
  -25.9154  -32.4742   23.8330 C   0  0  1  0  0  0
  -27.2106  -27.2269   20.1324 C   0  0  0  0  0  0
  -25.5942  -33.8549   24.2254 N   0  0  0  0  0  0
  -23.4326  -30.4776   21.5416 C   0  0  2  0  0  0
  -24.8779  -28.9232   20.1061 C   0  0  0  0  0  0
  -22.7513  -29.4601   22.4888 C   0  0  0  0  0  0
  -18.0292  -28.1403   22.8484 C   0  0  0  0  0  0
  -24.1490  -36.7281   23.2640 C   0  0  0  0  0  0
  -25.9817  -30.7539   21.3834 C   0  0  0  0  0  0
  -26.0513  -29.3745   20.7238 C   0  0  0  0  0  0
  -27.2190  -28.5397   20.7268 C   0  0  0  0  0  0
  -26.0177  -26.8627   19.4660 C   0  0  0  0  0  0
  -24.8696  -27.6775   19.4635 C   0  0  0  0  0  0
  -23.6522  -29.8166   20.1559 C   0  0  0  0  0  0
  -25.4116  -36.3066   24.0325 C   0  0  1  0  0  0
  -20.5899  -28.3721   23.1257 C   0  0  2  0  0  0
  -20.6781  -26.9434   22.5410 C   0  0  0  0  0  0
  -19.5753  -26.6395   21.5218 C   0  0  0  0  0  0
  -18.1931  -26.7946   22.1629 C   0  0  0  0  0  0
  -19.1544  -28.8878   23.2869 C   0  0  0  0  0  0
  -18.9466  -30.1476   23.8891 C   0  0  0  0  0  0
  -17.6464  -30.6600   24.0565 C   0  0  0  0  0  0
  -25.9059  -34.9433   23.5091 C   0  0  0  0  0  0
  -16.5355  -29.9096   23.6334 C   0  0  0  0  0  0
  -16.7279  -28.6516   23.0356 C   0  0  0  0  0  0
  -26.4508  -31.6579   25.0732 C   0  0  0  0  0  0
  -25.3721  -31.3741   26.1445 C   0  0  0  0  0  0
  -27.0359  -30.2990   24.6244 C   0  0  0  0  0  0
  -27.6054  -32.4328   25.7514 C   0  0  0  0  0  0
  -27.5579  -37.1798   24.8464 C   0  0  0  0  0  0
  -21.4218  -29.3059   22.3634 N   0  0  0  0  0  0
  -26.4289  -37.3770   23.9405 N   0  0  0  0  0  0
  -24.7023  -31.0464   22.0968 N   0  0  0  0  0  0
  -23.4189  -28.8140   23.3007 O   0  0  0  0  0  0
  -28.2814  -26.2940   20.2173 O   0  0  0  0  0  0
  -26.5635  -34.8913   22.4664 O   0  0  0  0  0  0
  -23.5485  -32.1373   23.7250 O   0  0  0  0  0  0
  -29.7378  -18.7273   20.4695 C   0  0  0  0  0  0
  -29.2303  -20.8787   20.5061 C   0  0  0  0  0  0
  -28.8374  -23.6827   22.1336 C   0  0  0  0  0  0
  -30.2586  -17.3111   19.9643 C   0  0  0  0  0  0
  -28.0243  -24.8138   19.9806 C   0  0  0  0  0  0
  -28.9340  -23.6009   20.6009 C   0  0  2  0  0  0
  -29.0280  -19.6944   19.8003 N   0  0  0  0  0  0
  -30.0018  -20.6851   21.5713 N   0  0  0  0  0  0
  -28.6488  -22.1766   20.1104 N   0  0  0  0  0  0
  -29.8769  -15.9508   20.5727 N   0  0  0  0  0  0
  -30.3356  -19.3026   21.5526 O   0  0  0  0  0  0
  -31.4729  -12.5856   19.1903 H   0  0  0  0  0  0
  -30.3677  -11.5019   19.9871 H   0  0  0  0  0  0
  -29.8024  -11.7274   17.5415 H   0  0  0  0  0  0
  -29.6420  -13.4567   17.7238 H   0  0  0  0  0  0
  -27.8968  -11.2849   18.9258 H   0  0  0  0  0  0
  -27.3862  -12.5193   17.8051 H   0  0  0  0  0  0
  -27.6267  -14.2559   19.4597 H   0  0  0  0  0  0
  -28.7224  -12.2156   21.4531 H   0  0  0  0  0  0
  -28.4170  -13.9054   21.7804 H   0  0  0  0  0  0
  -25.2760   -9.5689   22.4769 H   0  0  0  0  0  0
  -24.0003   -7.4638   22.7475 H   0  0  0  0  0  0
  -21.0847   -8.8774   19.8954 H   0  0  0  0  0  0
  -22.3698  -10.9674   19.6172 H   0  0  0  0  0  0
  -21.2015   -7.6146   23.9711 H   0  0  0  0  0  0
  -21.1487   -6.0520   25.9076 H   0  0  0  0  0  0
  -22.0599   -2.7602   23.2846 H   0  0  0  0  0  0
  -22.4050  -11.9897   22.4855 H   0  0  0  0  0  0
  -21.1063  -13.1238   22.2607 H   0  0  0  0  0  0
  -24.6332  -15.8379   20.4915 H   0  0  0  0  0  0
  -26.2461  -15.6317   20.0345 H   0  0  0  0  0  0
  -26.7219  -32.5375   23.1068 H   0  0  0  0  0  0
  -25.0082  -33.9696   25.0394 H   0  0  0  0  0  0
  -22.7312  -31.3020   21.3973 H   0  0  0  0  0  0
  -23.3754  -35.9612   23.3296 H   0  0  0  0  0  0
  -24.3582  -36.8911   22.2056 H   0  0  0  0  0  0
  -23.7239  -37.6479   23.6672 H   0  0  0  0  0  0
  -26.1266  -31.5124   20.6129 H   0  0  0  0  0  0
  -26.8568  -30.8010   22.0207 H   0  0  0  0  0  0
  -28.1111  -28.8779   21.2354 H   0  0  0  0  0  0
  -25.9356  -25.9174   18.9509 H   0  0  0  0  0  0
  -23.9752  -27.3325   18.9630 H   0  0  0  0  0  0
  -23.7848  -30.5971   19.4061 H   0  0  0  0  0  0
  -22.7676  -29.2587   19.8436 H   0  0  0  0  0  0
  -25.1299  -36.1915   25.0820 H   0  0  0  0  0  0
  -21.0002  -28.3303   24.1373 H   0  0  0  0  0  0
  -20.5684  -26.2331   23.3618 H   0  0  0  0  0  0
  -21.6647  -26.7452   22.1199 H   0  0  0  0  0  0
  -19.6914  -25.6301   21.1254 H   0  0  0  0  0  0
  -19.6688  -27.3200   20.6741 H   0  0  0  0  0  0
  -17.4204  -26.6696   21.4030 H   0  0  0  0  0  0
  -18.0331  -26.0089   22.9027 H   0  0  0  0  0  0
  -19.7941  -30.7300   24.2249 H   0  0  0  0  0  0
  -17.5017  -31.6279   24.5174 H   0  0  0  0  0  0
  -15.5355  -30.2999   23.7663 H   0  0  0  0  0  0
  -15.8681  -28.0836   22.7073 H   0  0  0  0  0  0
  -24.5909  -30.7075   25.7779 H   0  0  0  0  0  0
  -24.8897  -32.2911   26.4839 H   0  0  0  0  0  0
  -25.8026  -30.8948   27.0244 H   0  0  0  0  0  0
  -26.2954  -29.6732   24.1250 H   0  0  0  0  0  0
  -27.4010  -29.7264   25.4779 H   0  0  0  0  0  0
  -27.8848  -30.4261   23.9520 H   0  0  0  0  0  0
  -27.2659  -33.3642   26.2061 H   0  0  0  0  0  0
  -28.3882  -32.6860   25.0353 H   0  0  0  0  0  0
  -28.0700  -31.8469   26.5456 H   0  0  0  0  0  0
  -28.2590  -38.0104   24.7516 H   0  0  0  0  0  0
  -28.1083  -36.2630   24.6285 H   0  0  0  0  0  0
  -27.2297  -37.1441   25.8869 H   0  0  0  0  0  0
  -20.9403  -29.8778   21.6838 H   0  0  0  0  0  0
  -26.0162  -38.2842   24.1414 H   0  0  0  0  0  0
  -29.6041  -23.0875   22.6279 H   0  0  0  0  0  0
  -27.8629  -23.3482   22.4922 H   0  0  0  0  0  0
  -28.9740  -24.7091   22.4755 H   0  0  0  0  0  0
  -31.3466  -17.3814   19.9621 H   0  0  0  0  0  0
  -29.9907  -17.2478   18.9096 H   0  0  0  0  0  0
  -27.0131  -24.5975   20.3273 H   0  0  0  0  0  0
  -27.9980  -24.6813   18.8982 H   0  0  0  0  0  0
  -29.9672  -23.8102   20.3182 H   0  0  0  0  0  0
  -28.0848  -22.1205   19.2692 H   0  0  0  0  0  0
  -28.9156  -15.8568   20.8607 H   0  0  0  0  0  0
  1 25  1  0  0  0
  1 30  2  0  0  0
  1 80  1  0  0  0
  2  3  1  0  0  0
  2 25  1  0  0  0
  2 82  1  0  0  0
  2 83  1  0  0  0
  3  4  1  0  0  0
  3 84  1  0  0  0
  3 85  1  0  0  0
  4  5  1  0  0  0
  4 86  1  0  0  0
  4 87  1  0  0  0
  5  6  1  0  0  0
  5 26  1  0  0  0
  5 88  1  0  0  0
  6 25  1  0  0  0
  6 89  1  0  0  0
  6 90  1  0  0  0
  7  8  2  0  0  0
  7 26  1  0  0  0
  7 29  1  0  0  0
  8  9  1  0  0  0
  8 22  1  0  0  0
  9 10  1  0  0  0
  9 27  2  0  0  0
 10 11  2  0  0  0
 10 15  1  0  0  0
 11 12  1  0  0  0
 11 91  1  0  0  0
 12 13  2  0  0  0
 12 92  1  0  0  0
 13 14  1  0  0  0
 13 31  1  0  0  0
 14 15  2  0  0  0
 14 93  1  0  0  0
 15 94  1  0  0  0
 16 17  2  0  0  0
 16 21  1  0  0  0
 16 31  1  0  0  0
 17 18  1  0  0  0
 17 95  1  0  0  0
 18 19  2  0  0  0
 18 96  1  0  0  0
 19 20  1  0  0  0
 19 24  1  0  0  0
 20 21  2  0  0  0
 20 97  1  0  0  0
 21 23  1  0  0  0
 22 28  1  0  0  0
 22 32  2  0  0  0
 26 27  1  0  0  0
 28 98  1  0  0  0
 28 99  1  0  0  0
 29100  1  0  0  0
 29101  1  0  0  0
 33 34  1  0  0  0
 33 66  1  0  0  0
 33 70  2  0  0  0
 34 36  1  0  0  0
 34 59  1  0  0  0
 34102  1  0  0  0
 35 44  2  0  0  0
 35 45  1  0  0  0
 35 68  1  0  0  0
 36 56  1  0  0  0
 36103  1  0  0  0
 37 39  1  0  0  0
 37 47  1  0  0  0
 37 66  1  0  0  0
 37104  1  0  0  0
 38 43  2  0  0  0
 38 46  1  0  0  0
 38 47  1  0  0  0
 39 64  1  0  0  0
 39 67  2  0  0  0
 40 52  1  0  0  0
 40 53  2  0  0  0
 40 58  1  0  0  0
 41105  1  0  0  0
 41106  1  0  0  0
 41107  1  0  0  0
 41 48  1  0  0  0
 42 43  1  0  0  0
 42 66  1  0  0  0
 42108  1  0  0  0
 42109  1  0  0  0
 43 44  1  0  0  0
 44110  1  0  0  0
 45 46  2  0  0  0
 45111  1  0  0  0
 46112  1  0  0  0
 47113  1  0  0  0
 47114  1  0  0  0
 48 56  1  0  0  0
 48 65  1  0  0  0
 48115  1  0  0  0
 49 50  1  0  0  0
 49 53  1  0  0  0
 49 64  1  0  0  0
 49116  1  0  0  0
 50 51  1  0  0  0
 50117  1  0  0  0
 50118  1  0  0  0
 51 52  1  0  0  0
 51119  1  0  0  0
 51120  1  0  0  0
 52121  1  0  0  0
 52122  1  0  0  0
 53 54  1  0  0  0
 54 55  2  0  0  0
 54123  1  0  0  0
 55 57  1  0  0  0
 55124  1  0  0  0
 56 69  2  0  0  0
 57 58  2  0  0  0
 57125  1  0  0  0
 58126  1  0  0  0
 59 60  1  0  0  0
 59 61  1  0  0  0
 59 62  1  0  0  0
 60127  1  0  0  0
 60128  1  0  0  0
 60129  1  0  0  0
 61130  1  0  0  0
 61131  1  0  0  0
 61132  1  0  0  0
 62133  1  0  0  0
 62134  1  0  0  0
 62135  1  0  0  0
 63 65  1  0  0  0
 63136  1  0  0  0
 63137  1  0  0  0
 63138  1  0  0  0
 64139  1  0  0  0
 65140  1  0  0  0
 68 75  1  0  0  0
 71 74  1  0  0  0
 71 77  2  0  0  0
 71 81  1  0  0  0
 72 77  1  0  0  0
 72 78  2  0  0  0
 72 79  1  0  0  0
 73141  1  0  0  0
 73142  1  0  0  0
 73143  1  0  0  0
 73 76  1  0  0  0
 74 80  1  0  0  0
 74144  1  0  0  0
 74145  1  0  0  0
 75 76  1  0  0  0
 75146  1  0  0  0
 75147  1  0  0  0
 76 79  1  0  0  0
 76148  1  0  0  0
 78 81  1  0  0  0
 79149  1  0  0  0
 80150  1  0  0  0
M  ISO  4   1 100  68 101  75 101  80 100
M  END
> <chiral flag>
0

> <version>
0

> <s_m_source_file>
/data/baiqing/PycharmProjects/Reinvent-master-3.2/result/LINK_invent/BTK/process_docking_weight1_custom_product_contain_oxygen_bond_distance_aromatic_linkinvent_7_9_3/rearranged_h_0197.sdf

> <i_m_source_file_index>
55

> <r_mmod_Potential_Energy-OPLS-2005>
-50.5714454650879

> <r_mmod_Stretch_Energy-OPLS-2005>
134.389022827148

> <r_mmod_Bend_Energy-OPLS-2005>
202.508453369141

> <r_mmod_Torsional_Energy-OPLS-2005>
204.125

> <r_mmod_Improper_Torsional_Energy-OPLS-2005>
10.3793077468872

> <r_mmod_Van_der_Waal_Energy-OPLS-2005>
121.580238342285

> <r_mmod_Electrostatic_Energy-OPLS-2005>
-584.075561523438

> <r_mmod_Solvation_Energy-OPLS-2005>
-246.357681274414

> <b_mmod_Minimization_Converged-OPLS-2005>
0

> <r_mmod_RMS_Derivative-OPLS-2005>
1.80033016204834

$$$$
55
                    3D
 Structure written by MMmdl.
152160  0  0  1  0            999 V2000
  -30.5867  -14.7047   20.4797 C   0  0  0  0  0  0
  -30.4385  -12.4277   19.4611 C   0  0  0  0  0  0
  -29.5081  -12.5115   18.2292 C   0  0  0  0  0  0
  -28.0317  -12.3399   18.6407 C   0  0  0  0  0  0
  -27.6463  -13.2221   19.8572 C   0  0  2  0  0  0
  -28.6904  -13.0999   20.9893 C   0  0  0  0  0  0
  -25.2518  -13.8191   20.5673 C   0  0  0  0  0  0
  -24.1805  -13.0446   20.9218 C   0  0  0  0  0  0
  -24.6383  -11.6922   20.8765 C   0  0  0  0  0  0
  -23.9064  -10.4292   21.0421 C   0  0  0  0  0  0
  -24.3615   -9.4197   21.9186 C   0  0  0  0  0  0
  -23.6290   -8.2230   22.0744 C   0  0  0  0  0  0
  -22.4272   -8.0274   21.3536 C   0  0  0  0  0  0
  -21.9910   -9.0255   20.4640 C   0  0  0  0  0  0
  -22.7243  -10.2134   20.3058 C   0  0  0  0  0  0
  -21.6850   -6.0733   22.5288 C   0  0  0  0  0  0
  -21.4007   -6.5636   23.8222 C   0  0  0  0  0  0
  -21.3658   -5.6790   24.9182 C   0  0  0  0  0  0
  -21.6047   -4.3055   24.7233 C   0  0  0  0  0  0
  -21.8815   -3.8146   23.4356 C   0  0  0  0  0  0
  -21.9187   -4.6962   22.3411 C   0  0  0  0  0  0
  -22.7822  -13.5221   21.1896 C   0  0  0  0  0  0
  -22.1657   -4.2148   21.0989 F   0  0  0  0  0  0
  -21.5632   -3.4536   25.7744 F   0  0  0  0  0  0
  -30.0007  -13.4607   20.4263 N   0  0  0  0  0  0
  -26.2943  -12.9376   20.3289 N   0  0  0  0  0  0
  -25.9309  -11.6530   20.5764 N   0  0  0  0  0  0
  -22.0463  -12.8202   22.0451 N   0  0  0  0  0  0
  -25.4213  -15.1908   20.4025 N   0  0  0  0  0  0
  -31.7550  -14.8570   20.1016 O   0  0  0  0  0  0
  -21.6634   -6.8876   21.4247 O   0  0  0  0  0  0
  -22.3506  -14.5524   20.6747 O   0  0  0  0  0  0
  -24.6289  -31.8565   23.1991 C   0  0  0  0  0  0
  -25.9122  -32.4762   23.8330 C   0  0  1  0  0  0
  -27.2064  -27.2687   20.1264 C   0  0  0  0  0  0
  -25.5916  -33.8565   24.2261 N   0  0  0  0  0  0
  -23.4229  -30.4824   21.5401 C   0  0  2  0  0  0
  -24.8689  -28.9356   20.1032 C   0  0  0  0  0  0
  -22.7476  -29.4613   22.4874 C   0  0  0  0  0  0
  -18.0289  -28.1390   22.8464 C   0  0  0  0  0  0
  -24.1496  -36.7281   23.2640 C   0  0  0  0  0  0
  -25.9699  -30.7723   21.3777 C   0  0  0  0  0  0
  -26.0392  -29.3961   20.7193 C   0  0  0  0  0  0
  -27.2094  -28.5726   20.7248 C   0  0  0  0  0  0
  -26.0211  -26.8875   19.4569 C   0  0  0  0  0  0
  -24.8653  -27.6896   19.4601 C   0  0  0  0  0  0
  -23.6405  -29.8225   20.1535 C   0  0  0  0  0  0
  -25.4114  -36.3066   24.0331 C   0  0  1  0  0  0
  -20.5897  -28.3698   23.1260 C   0  0  2  0  0  0
  -20.6781  -26.9413   22.5405 C   0  0  0  0  0  0
  -19.5756  -26.6393   21.5198 C   0  0  0  0  0  0
  -18.1936  -26.7928   22.1619 C   0  0  0  0  0  0
  -19.1546  -28.8851   23.2863 C   0  0  0  0  0  0
  -18.9474  -30.1451   23.8887 C   0  0  0  0  0  0
  -17.6480  -30.6586   24.0563 C   0  0  0  0  0  0
  -25.9054  -34.9435   23.5098 C   0  0  0  0  0  0
  -16.5364  -29.9091   23.6331 C   0  0  0  0  0  0
  -16.7279  -28.6514   23.0330 C   0  0  0  0  0  0
  -26.4506  -31.6562   25.0701 C   0  0  0  0  0  0
  -25.3739  -31.3699   26.1430 C   0  0  0  0  0  0
  -27.0343  -30.2985   24.6150 C   0  0  0  0  0  0
  -27.6068  -32.4279   25.7469 C   0  0  0  0  0  0
  -27.5575  -37.1787   24.8466 C   0  0  0  0  0  0
  -21.4182  -29.3045   22.3636 N   0  0  0  0  0  0
  -26.4287  -37.3764   23.9417 N   0  0  0  0  0  0
  -24.6930  -31.0546   22.0956 N   0  0  0  0  0  0
  -23.4186  -28.8139   23.2958 O   0  0  0  0  0  0
  -28.2975  -26.3763   20.2185 O   0  0  0  0  0  0
  -26.5637  -34.8910   22.4681 O   0  0  0  0  0  0
  -23.5439  -32.1380   23.7291 O   0  0  0  0  0  0
  -30.4723  -19.3333   19.9425 C   0  0  0  0  0  0
  -29.4234  -19.7913   20.7238 C   0  0  0  0  0  0
  -29.8156  -17.2211   20.6796 C   0  0  0  0  0  0
  -29.0214  -21.1881   21.1308 C   0  0  0  0  0  0
  -30.3512  -24.3408   21.0998 C   0  0  0  0  0  0
  -28.1127  -24.9033   19.9664 C   0  0  0  0  0  0
  -28.9325  -23.8221   20.8338 C   0  0  1  0  0  0
  -30.6861  -17.9182   19.9252 N   0  0  0  0  0  0
  -28.6514  -21.3169   22.4134 N   0  0  0  0  0  0
  -29.7649  -15.7541   20.8383 N   0  0  0  0  0  0
  -29.0182  -22.3522   20.3661 N   0  3  0  0  0  0
  -28.6350  -18.3503   21.4258 S   0  0  0  0  0  0
  -31.4768  -12.5630   19.1560 H   0  0  0  0  0  0
  -30.3877  -11.4371   19.9160 H   0  0  0  0  0  0
  -29.7810  -11.7514   17.4955 H   0  0  0  0  0  0
  -29.6397  -13.4742   17.7342 H   0  0  0  0  0  0
  -27.8792  -11.2896   18.8898 H   0  0  0  0  0  0
  -27.3744  -12.5496   17.7957 H   0  0  0  0  0  0
  -27.6563  -14.2519   19.5005 H   0  0  0  0  0  0
  -28.7137  -12.0814   21.3798 H   0  0  0  0  0  0
  -28.4252  -13.7348   21.8349 H   0  0  0  0  0  0
  -25.2757   -9.5672   22.4760 H   0  0  0  0  0  0
  -24.0003   -7.4616   22.7450 H   0  0  0  0  0  0
  -21.0844   -8.8784   19.8940 H   0  0  0  0  0  0
  -22.3711  -10.9675   19.6168 H   0  0  0  0  0  0
  -21.1995   -7.6142   23.9728 H   0  0  0  0  0  0
  -21.1485   -6.0516   25.9086 H   0  0  0  0  0  0
  -22.0593   -2.7608   23.2861 H   0  0  0  0  0  0
  -22.4066  -11.9864   22.4852 H   0  0  0  0  0  0
  -21.1073  -13.1218   22.2646 H   0  0  0  0  0  0
  -24.6449  -15.8382   20.4837 H   0  0  0  0  0  0
  -26.2509  -15.6196   20.0146 H   0  0  0  0  0  0
  -26.7182  -32.5421   23.1055 H   0  0  0  0  0  0
  -25.0031  -33.9705   25.0383 H   0  0  0  0  0  0
  -22.7190  -31.3050   21.3955 H   0  0  0  0  0  0
  -23.3748  -35.9626   23.3315 H   0  0  0  0  0  0
  -24.3590  -36.8893   22.2054 H   0  0  0  0  0  0
  -23.7273  -37.6492   23.6662 H   0  0  0  0  0  0
  -26.1097  -31.5314   20.6069 H   0  0  0  0  0  0
  -26.8488  -30.8226   22.0089 H   0  0  0  0  0  0
  -28.1015  -28.9126   21.2323 H   0  0  0  0  0  0
  -25.9505  -25.9486   18.9288 H   0  0  0  0  0  0
  -23.9727  -27.3378   18.9610 H   0  0  0  0  0  0
  -23.7656  -30.6019   19.4009 H   0  0  0  0  0  0
  -22.7575  -29.2588   19.8462 H   0  0  0  0  0  0
  -25.1299  -36.1902   25.0823 H   0  0  0  0  0  0
  -21.0017  -28.3291   24.1371 H   0  0  0  0  0  0
  -20.5663  -26.2310   23.3614 H   0  0  0  0  0  0
  -21.6654  -26.7424   22.1204 H   0  0  0  0  0  0
  -19.6933  -25.6304   21.1221 H   0  0  0  0  0  0
  -19.6708  -27.3206   20.6725 H   0  0  0  0  0  0
  -17.4210  -26.6648   21.4027 H   0  0  0  0  0  0
  -18.0346  -26.0085   22.9032 H   0  0  0  0  0  0
  -19.7957  -30.7259   24.2255 H   0  0  0  0  0  0
  -17.5047  -31.6263   24.5172 H   0  0  0  0  0  0
  -15.5369  -30.3003   23.7670 H   0  0  0  0  0  0
  -15.8672  -28.0856   22.7032 H   0  0  0  0  0  0
  -24.5943  -30.7008   25.7774 H   0  0  0  0  0  0
  -24.8895  -32.2854   26.4829 H   0  0  0  0  0  0
  -25.8076  -30.8910   27.0215 H   0  0  0  0  0  0
  -26.2906  -29.6736   24.1190 H   0  0  0  0  0  0
  -27.4082  -29.7255   25.4644 H   0  0  0  0  0  0
  -27.8770  -30.4265   23.9357 H   0  0  0  0  0  0
  -27.2693  -33.3586   26.2026 H   0  0  0  0  0  0
  -28.3879  -32.6818   25.0295 H   0  0  0  0  0  0
  -28.0722  -31.8408   26.5394 H   0  0  0  0  0  0
  -28.2569  -38.0101   24.7523 H   0  0  0  0  0  0
  -28.1091  -36.2634   24.6271 H   0  0  0  0  0  0
  -27.2295  -37.1401   25.8867 H   0  0  0  0  0  0
  -20.9354  -29.8821   21.6892 H   0  0  0  0  0  0
  -26.0163  -38.2835   24.1435 H   0  0  0  0  0  0
  -31.1750  -19.9580   19.4096 H   0  0  0  0  0  0
  -30.3396  -25.1112   21.8715 H   0  0  0  0  0  0
  -30.7827  -24.7788   20.2004 H   0  0  0  0  0  0
  -31.0155  -23.5463   21.4398 H   0  0  0  0  0  0
  -28.2899  -24.7235   18.9063 H   0  0  0  0  0  0
  -27.0717  -24.6353   20.1403 H   0  0  0  0  0  0
  -28.4340  -23.7954   21.8027 H   0  0  0  0  0  0
  -28.6580  -20.5083   23.0168 H   0  0  0  0  0  0
  -28.3356  -22.1832   22.8152 H   0  0  0  0  0  0
  -28.8939  -15.4317   21.2288 H   0  0  0  0  0  0
  -29.2460  -22.2380   19.3873 H   0  0  0  0  0  0
  1 25  1  0  0  0
  1 30  2  0  0  0
  1 80  1  0  0  0
  2  3  1  0  0  0
  2 25  1  0  0  0
  2 83  1  0  0  0
  2 84  1  0  0  0
  3  4  1  0  0  0
  3 85  1  0  0  0
  3 86  1  0  0  0
  4  5  1  0  0  0
  4 87  1  0  0  0
  4 88  1  0  0  0
  5  6  1  0  0  0
  5 26  1  0  0  0
  5 89  1  0  0  0
  6 25  1  0  0  0
  6 90  1  0  0  0
  6 91  1  0  0  0
  7  8  2  0  0  0
  7 26  1  0  0  0
  7 29  1  0  0  0
  8  9  1  0  0  0
  8 22  1  0  0  0
  9 10  1  0  0  0
  9 27  2  0  0  0
 10 11  2  0  0  0
 10 15  1  0  0  0
 11 12  1  0  0  0
 11 92  1  0  0  0
 12 13  2  0  0  0
 12 93  1  0  0  0
 13 14  1  0  0  0
 13 31  1  0  0  0
 14 15  2  0  0  0
 14 94  1  0  0  0
 15 95  1  0  0  0
 16 17  2  0  0  0
 16 21  1  0  0  0
 16 31  1  0  0  0
 17 18  1  0  0  0
 17 96  1  0  0  0
 18 19  2  0  0  0
 18 97  1  0  0  0
 19 20  1  0  0  0
 19 24  1  0  0  0
 20 21  2  0  0  0
 20 98  1  0  0  0
 21 23  1  0  0  0
 22 28  1  0  0  0
 22 32  2  0  0  0
 26 27  1  0  0  0
 28 99  1  0  0  0
 28100  1  0  0  0
 29101  1  0  0  0
 29102  1  0  0  0
 33 34  1  0  0  0
 33 66  1  0  0  0
 33 70  2  0  0  0
 34 36  1  0  0  0
 34 59  1  0  0  0
 34103  1  0  0  0
 35 44  2  0  0  0
 35 45  1  0  0  0
 35 68  1  0  0  0
 36 56  1  0  0  0
 36104  1  0  0  0
 37 39  1  0  0  0
 37 47  1  0  0  0
 37 66  1  0  0  0
 37105  1  0  0  0
 38 43  2  0  0  0
 38 46  1  0  0  0
 38 47  1  0  0  0
 39 64  1  0  0  0
 39 67  2  0  0  0
 40 52  1  0  0  0
 40 53  2  0  0  0
 40 58  1  0  0  0
 41106  1  0  0  0
 41107  1  0  0  0
 41108  1  0  0  0
 41 48  1  0  0  0
 42 43  1  0  0  0
 42 66  1  0  0  0
 42109  1  0  0  0
 42110  1  0  0  0
 43 44  1  0  0  0
 44111  1  0  0  0
 45 46  2  0  0  0
 45112  1  0  0  0
 46113  1  0  0  0
 47114  1  0  0  0
 47115  1  0  0  0
 48 56  1  0  0  0
 48 65  1  0  0  0
 48116  1  0  0  0
 49 50  1  0  0  0
 49 53  1  0  0  0
 49 64  1  0  0  0
 49117  1  0  0  0
 50 51  1  0  0  0
 50118  1  0  0  0
 50119  1  0  0  0
 51 52  1  0  0  0
 51120  1  0  0  0
 51121  1  0  0  0
 52122  1  0  0  0
 52123  1  0  0  0
 53 54  1  0  0  0
 54 55  2  0  0  0
 54124  1  0  0  0
 55 57  1  0  0  0
 55125  1  0  0  0
 56 69  2  0  0  0
 57 58  2  0  0  0
 57126  1  0  0  0
 58127  1  0  0  0
 59 60  1  0  0  0
 59 61  1  0  0  0
 59 62  1  0  0  0
 60128  1  0  0  0
 60129  1  0  0  0
 60130  1  0  0  0
 61131  1  0  0  0
 61132  1  0  0  0
 61133  1  0  0  0
 62134  1  0  0  0
 62135  1  0  0  0
 62136  1  0  0  0
 63 65  1  0  0  0
 63137  1  0  0  0
 63138  1  0  0  0
 63139  1  0  0  0
 64140  1  0  0  0
 65141  1  0  0  0
 68 76  1  0  0  0
 71 72  2  0  0  0
 71 78  1  0  0  0
 71142  1  0  0  0
 72 74  1  0  0  0
 72 82  1  0  0  0
 73 78  2  0  0  0
 73 80  1  0  0  0
 73 82  1  0  0  0
 74 79  1  0  0  0
 74 81  2  0  0  0
 75143  1  0  0  0
 75144  1  0  0  0
 75145  1  0  0  0
 75 77  1  0  0  0
 76 77  1  0  0  0
 76146  1  0  0  0
 76147  1  0  0  0
 77 81  1  0  0  0
 77148  1  0  0  0
 79149  1  0  0  0
 79150  1  0  0  0
 80151  1  0  0  0
 81152  1  0  0  0
M  CHG  1  81   1
M  ISO  4   1 100  68 101  76 101  80 100
M  END
> <chiral flag>
0

> <version>
0

> <s_m_source_file>
/data/baiqing/PycharmProjects/Reinvent-master-3.2/result/LINK_invent/BTK/process_docking_weight1_custom_product_contain_oxygen_bond_distance_aromatic_linkinvent_7_9_3/rearranged_h_0197.sdf

> <i_m_source_file_index>
56

> <r_mmod_Potential_Energy-OPLS-2005>
-102.36727142334

> <r_mmod_Stretch_Energy-OPLS-2005>
103.305503845215

> <r_mmod_Bend_Energy-OPLS-2005>
162.619018554688

> <r_mmod_Torsional_Energy-OPLS-2005>
210.318420410156

> <r_mmod_Improper_Torsional_Energy-OPLS-2005>
4.53076457977295

> <r_mmod_Van_der_Waal_Energy-OPLS-2005>
124.677558898926

> <r_mmod_Electrostatic_Energy-OPLS-2005>
-294.98046875

> <r_mmod_Solvation_Energy-OPLS-2005>
-487.958831787109

> <b_mmod_Minimization_Converged-OPLS-2005>
0

> <r_mmod_RMS_Derivative-OPLS-2005>
2.02603101730347

$$$$
56
                    3D
 Structure written by MMmdl.
152160  0  0  1  0            999 V2000
  -30.6730  -14.6456   20.4763 C   0  0  0  0  0  0
  -30.4176  -12.3958   19.4614 C   0  0  0  0  0  0
  -29.4994  -12.4939   18.2257 C   0  0  0  0  0  0
  -28.0242  -12.3379   18.6404 C   0  0  0  0  0  0
  -27.6436  -13.2296   19.8534 C   0  0  2  0  0  0
  -28.6895  -13.1414   20.9866 C   0  0  0  0  0  0
  -25.2508  -13.8199   20.5694 C   0  0  0  0  0  0
  -24.1797  -13.0442   20.9196 C   0  0  0  0  0  0
  -24.6390  -11.6920   20.8747 C   0  0  0  0  0  0
  -23.9070  -10.4295   21.0407 C   0  0  0  0  0  0
  -24.3620   -9.4209   21.9184 C   0  0  0  0  0  0
  -23.6294   -8.2245   22.0756 C   0  0  0  0  0  0
  -22.4277   -8.0282   21.3545 C   0  0  0  0  0  0
  -21.9914   -9.0255   20.4647 C   0  0  0  0  0  0
  -22.7243  -10.2134   20.3055 C   0  0  0  0  0  0
  -21.6855   -6.0736   22.5278 C   0  0  0  0  0  0
  -21.4015   -6.5641   23.8211 C   0  0  0  0  0  0
  -21.3659   -5.6793   24.9174 C   0  0  0  0  0  0
  -21.6045   -4.3056   24.7224 C   0  0  0  0  0  0
  -21.8820   -3.8146   23.4346 C   0  0  0  0  0  0
  -21.9193   -4.6963   22.3402 C   0  0  0  0  0  0
  -22.7818  -13.5222   21.1859 C   0  0  0  0  0  0
  -22.1662   -4.2148   21.0980 F   0  0  0  0  0  0
  -21.5627   -3.4539   25.7737 F   0  0  0  0  0  0
  -29.9985  -13.4551   20.4033 N   0  0  0  0  0  0
  -26.2945  -12.9410   20.3307 N   0  0  0  0  0  0
  -25.9323  -11.6550   20.5769 N   0  0  0  0  0  0
  -22.0471  -12.8206   22.0418 N   0  0  0  0  0  0
  -25.4187  -15.1922   20.4120 N   0  0  0  0  0  0
  -31.8604  -14.7101   20.1509 O   0  0  0  0  0  0
  -21.6640   -6.8879   21.4241 O   0  0  0  0  0  0
  -22.3497  -14.5527   20.6710 O   0  0  0  0  0  0
  -24.6258  -31.8600   23.2028 C   0  0  0  0  0  0
  -25.9106  -32.4782   23.8358 C   0  0  1  0  0  0
  -27.2185  -27.3219   20.1238 C   0  0  0  0  0  0
  -25.5922  -33.8581   24.2282 N   0  0  0  0  0  0
  -23.4200  -30.4833   21.5451 C   0  0  2  0  0  0
  -24.8678  -28.9394   20.1097 C   0  0  0  0  0  0
  -22.7475  -29.4623   22.4936 C   0  0  0  0  0  0
  -18.0286  -28.1387   22.8491 C   0  0  0  0  0  0
  -24.1487  -36.7294   23.2638 C   0  0  0  0  0  0
  -25.9608  -30.7923   21.3735 C   0  0  0  0  0  0
  -26.0366  -29.4199   20.7160 C   0  0  0  0  0  0
  -27.2198  -28.6227   20.7125 C   0  0  0  0  0  0
  -26.0355  -26.8968   19.4839 C   0  0  0  0  0  0
  -24.8688  -27.6833   19.4828 C   0  0  0  0  0  0
  -23.6351  -29.8186   20.1601 C   0  0  0  0  0  0
  -25.4111  -36.3085   24.0331 C   0  0  1  0  0  0
  -20.5886  -28.3693   23.1284 C   0  0  2  0  0  0
  -20.6774  -26.9416   22.5412 C   0  0  0  0  0  0
  -19.5749  -26.6388   21.5215 C   0  0  0  0  0  0
  -18.1929  -26.7932   22.1627 C   0  0  0  0  0  0
  -19.1538  -28.8857   23.2884 C   0  0  0  0  0  0
  -18.9460  -30.1458   23.8901 C   0  0  0  0  0  0
  -17.6461  -30.6590   24.0565 C   0  0  0  0  0  0
  -25.9050  -34.9454   23.5108 C   0  0  0  0  0  0
  -16.5351  -29.9089   23.6331 C   0  0  0  0  0  0
  -16.7274  -28.6505   23.0356 C   0  0  0  0  0  0
  -26.4492  -31.6590   25.0726 C   0  0  0  0  0  0
  -25.3728  -31.3723   26.1454 C   0  0  0  0  0  0
  -27.0338  -30.3017   24.6176 C   0  0  0  0  0  0
  -27.6054  -32.4324   25.7495 C   0  0  0  0  0  0
  -27.5584  -37.1793   24.8459 C   0  0  0  0  0  0
  -21.4188  -29.3044   22.3677 N   0  0  0  0  0  0
  -26.4286  -37.3784   23.9419 N   0  0  0  0  0  0
  -24.6878  -31.0613   22.0978 N   0  0  0  0  0  0
  -23.4198  -28.8161   23.3015 O   0  0  0  0  0  0
  -28.3035  -26.4385   20.1620 O   0  0  0  0  0  0
  -26.5619  -34.8921   22.4674 O   0  0  0  0  0  0
  -23.5421  -32.1394   23.7358 O   0  0  0  0  0  0
  -28.3783  -20.2536   21.6056 C   0  0  0  0  0  0
  -29.8383  -20.7861   19.8005 C   0  0  0  0  0  0
  -28.8871  -21.2582   20.7386 C   0  0  0  0  0  0
  -28.8425  -18.9018   21.5610 C   0  0  0  0  0  0
  -29.8261  -18.5395   20.6009 C   0  0  0  0  0  0
  -28.7453  -23.8350   20.2893 C   0  0  0  0  0  0
  -30.6072  -17.1683   20.5681 C   0  0  0  0  0  0
  -28.0290  -25.1419   20.8313 C   0  0  0  0  0  0
  -30.2813  -19.4915   19.7385 N   0  0  0  0  0  0
  -28.3627  -17.9786   22.4964 N   0  0  0  0  0  0
  -28.4187  -22.6445   20.8904 N   0  0  0  0  0  0
  -29.9744  -15.8051   20.6952 N   0  0  0  0  0  0
  -29.5586  -23.9045   19.3651 O   0  0  0  0  0  0
  -31.4623  -12.4894   19.1598 H   0  0  0  0  0  0
  -30.3299  -11.4149   19.9314 H   0  0  0  0  0  0
  -29.7648  -11.7287   17.4951 H   0  0  0  0  0  0
  -29.6444  -13.4551   17.7297 H   0  0  0  0  0  0
  -27.8643  -11.2881   18.8892 H   0  0  0  0  0  0
  -27.3691  -12.5513   17.7948 H   0  0  0  0  0  0
  -27.6466  -14.2560   19.4860 H   0  0  0  0  0  0
  -28.7012  -12.1443   21.4287 H   0  0  0  0  0  0
  -28.4432  -13.8324   21.7945 H   0  0  0  0  0  0
  -25.2766   -9.5684   22.4759 H   0  0  0  0  0  0
  -24.0001   -7.4638   22.7478 H   0  0  0  0  0  0
  -21.0846   -8.8775   19.8952 H   0  0  0  0  0  0
  -22.3702  -10.9673   19.6163 H   0  0  0  0  0  0
  -21.2010   -7.6149   23.9714 H   0  0  0  0  0  0
  -21.1481   -6.0524   25.9076 H   0  0  0  0  0  0
  -22.0599   -2.7608   23.2846 H   0  0  0  0  0  0
  -22.4097  -11.9868   22.4797 H   0  0  0  0  0  0
  -21.1089  -13.1224   22.2632 H   0  0  0  0  0  0
  -24.6566  -15.8481   20.5443 H   0  0  0  0  0  0
  -26.2793  -15.6420   20.1274 H   0  0  0  0  0  0
  -26.7173  -32.5455   23.1107 H   0  0  0  0  0  0
  -25.0068  -33.9729   25.0426 H   0  0  0  0  0  0
  -22.7139  -31.3040   21.4024 H   0  0  0  0  0  0
  -23.3759  -35.9615   23.3282 H   0  0  0  0  0  0
  -24.3583  -36.8934   22.2056 H   0  0  0  0  0  0
  -23.7225  -37.6484   23.6671 H   0  0  0  0  0  0
  -26.0902  -31.5556   20.6051 H   0  0  0  0  0  0
  -26.8416  -30.8422   22.0019 H   0  0  0  0  0  0
  -28.1165  -28.9832   21.1972 H   0  0  0  0  0  0
  -26.0047  -25.9316   18.9983 H   0  0  0  0  0  0
  -23.9748  -27.3118   19.0011 H   0  0  0  0  0  0
  -23.7532  -30.5955   19.4039 H   0  0  0  0  0  0
  -22.7554  -29.2473   19.8582 H   0  0  0  0  0  0
  -25.1287  -36.1936   25.0823 H   0  0  0  0  0  0
  -20.9980  -28.3270   24.1403 H   0  0  0  0  0  0
  -20.5683  -26.2302   23.3611 H   0  0  0  0  0  0
  -21.6641  -26.7449   22.1203 H   0  0  0  0  0  0
  -19.6911  -25.6299   21.1244 H   0  0  0  0  0  0
  -19.6686  -27.3199   20.6745 H   0  0  0  0  0  0
  -17.4201  -26.6685   21.4028 H   0  0  0  0  0  0
  -18.0326  -26.0073   22.9021 H   0  0  0  0  0  0
  -19.7936  -30.7274   24.2273 H   0  0  0  0  0  0
  -17.5015  -31.6270   24.5167 H   0  0  0  0  0  0
  -15.5352  -30.2992   23.7654 H   0  0  0  0  0  0
  -15.8673  -28.0824   22.7073 H   0  0  0  0  0  0
  -24.5904  -30.7072   25.7779 H   0  0  0  0  0  0
  -24.8916  -32.2886   26.4882 H   0  0  0  0  0  0
  -25.8054  -30.8898   27.0227 H   0  0  0  0  0  0
  -26.2911  -29.6766   24.1205 H   0  0  0  0  0  0
  -27.4045  -29.7275   25.4677 H   0  0  0  0  0  0
  -27.8776  -30.4309   23.9394 H   0  0  0  0  0  0
  -27.2671  -33.3629   26.2067 H   0  0  0  0  0  0
  -28.3866  -32.6877   25.0322 H   0  0  0  0  0  0
  -28.0721  -31.8453   26.5414 H   0  0  0  0  0  0
  -28.2574  -38.0120   24.7553 H   0  0  0  0  0  0
  -28.1110  -36.2653   24.6223 H   0  0  0  0  0  0
  -27.2310  -37.1370   25.8862 H   0  0  0  0  0  0
  -20.9366  -29.8766   21.6887 H   0  0  0  0  0  0
  -26.0167  -38.2852   24.1452 H   0  0  0  0  0  0
  -27.6442  -20.5313   22.3482 H   0  0  0  0  0  0
  -30.2864  -21.4572   19.0836 H   0  0  0  0  0  0
  -31.3555  -17.2386   21.3583 H   0  0  0  0  0  0
  -31.1797  -17.1649   19.6388 H   0  0  0  0  0  0
  -28.3305  -25.2604   21.8724 H   0  0  0  0  0  0
  -26.9617  -24.9227   20.8700 H   0  0  0  0  0  0
  -27.8546  -18.3248   23.3061 H   0  0  0  0  0  0
  -28.9331  -17.1675   22.7158 H   0  0  0  0  0  0
  -27.7264  -22.7662   21.6182 H   0  0  0  0  0  0
  -28.9853  -15.7635   20.8870 H   0  0  0  0  0  0
  1 25  1  0  0  0
  1 30  2  0  0  0
  1 82  1  0  0  0
  2  3  1  0  0  0
  2 25  1  0  0  0
  2 84  1  0  0  0
  2 85  1  0  0  0
  3  4  1  0  0  0
  3 86  1  0  0  0
  3 87  1  0  0  0
  4  5  1  0  0  0
  4 88  1  0  0  0
  4 89  1  0  0  0
  5  6  1  0  0  0
  5 26  1  0  0  0
  5 90  1  0  0  0
  6 25  1  0  0  0
  6 91  1  0  0  0
  6 92  1  0  0  0
  7  8  2  0  0  0
  7 26  1  0  0  0
  7 29  1  0  0  0
  8  9  1  0  0  0
  8 22  1  0  0  0
  9 10  1  0  0  0
  9 27  2  0  0  0
 10 11  2  0  0  0
 10 15  1  0  0  0
 11 12  1  0  0  0
 11 93  1  0  0  0
 12 13  2  0  0  0
 12 94  1  0  0  0
 13 14  1  0  0  0
 13 31  1  0  0  0
 14 15  2  0  0  0
 14 95  1  0  0  0
 15 96  1  0  0  0
 16 17  2  0  0  0
 16 21  1  0  0  0
 16 31  1  0  0  0
 17 18  1  0  0  0
 17 97  1  0  0  0
 18 19  2  0  0  0
 18 98  1  0  0  0
 19 20  1  0  0  0
 19 24  1  0  0  0
 20 21  2  0  0  0
 20 99  1  0  0  0
 21 23  1  0  0  0
 22 28  1  0  0  0
 22 32  2  0  0  0
 26 27  1  0  0  0
 28100  1  0  0  0
 28101  1  0  0  0
 29102  1  0  0  0
 29103  1  0  0  0
 33 34  1  0  0  0
 33 66  1  0  0  0
 33 70  2  0  0  0
 34 36  1  0  0  0
 34 59  1  0  0  0
 34104  1  0  0  0
 35 44  2  0  0  0
 35 45  1  0  0  0
 35 68  1  0  0  0
 36 56  1  0  0  0
 36105  1  0  0  0
 37 39  1  0  0  0
 37 47  1  0  0  0
 37 66  1  0  0  0
 37106  1  0  0  0
 38 43  2  0  0  0
 38 46  1  0  0  0
 38 47  1  0  0  0
 39 64  1  0  0  0
 39 67  2  0  0  0
 40 52  1  0  0  0
 40 53  2  0  0  0
 40 58  1  0  0  0
 41107  1  0  0  0
 41108  1  0  0  0
 41109  1  0  0  0
 41 48  1  0  0  0
 42 43  1  0  0  0
 42 66  1  0  0  0
 42110  1  0  0  0
 42111  1  0  0  0
 43 44  1  0  0  0
 44112  1  0  0  0
 45 46  2  0  0  0
 45113  1  0  0  0
 46114  1  0  0  0
 47115  1  0  0  0
 47116  1  0  0  0
 48 56  1  0  0  0
 48 65  1  0  0  0
 48117  1  0  0  0
 49 50  1  0  0  0
 49 53  1  0  0  0
 49 64  1  0  0  0
 49118  1  0  0  0
 50 51  1  0  0  0
 50119  1  0  0  0
 50120  1  0  0  0
 51 52  1  0  0  0
 51121  1  0  0  0
 51122  1  0  0  0
 52123  1  0  0  0
 52124  1  0  0  0
 53 54  1  0  0  0
 54 55  2  0  0  0
 54125  1  0  0  0
 55 57  1  0  0  0
 55126  1  0  0  0
 56 69  2  0  0  0
 57 58  2  0  0  0
 57127  1  0  0  0
 58128  1  0  0  0
 59 60  1  0  0  0
 59 61  1  0  0  0
 59 62  1  0  0  0
 60129  1  0  0  0
 60130  1  0  0  0
 60131  1  0  0  0
 61132  1  0  0  0
 61133  1  0  0  0
 61134  1  0  0  0
 62135  1  0  0  0
 62136  1  0  0  0
 62137  1  0  0  0
 63 65  1  0  0  0
 63138  1  0  0  0
 63139  1  0  0  0
 63140  1  0  0  0
 64141  1  0  0  0
 65142  1  0  0  0
 68 78  1  0  0  0
 71 73  2  0  0  0
 71 74  1  0  0  0
 71143  1  0  0  0
 72 73  1  0  0  0
 72 79  2  0  0  0
 72144  1  0  0  0
 73 81  1  0  0  0
 74 75  2  0  0  0
 74 80  1  0  0  0
 75 77  1  0  0  0
 75 79  1  0  0  0
 76 78  1  0  0  0
 76 81  1  0  0  0
 76 83  2  0  0  0
 77 82  1  0  0  0
 77145  1  0  0  0
 77146  1  0  0  0
 78147  1  0  0  0
 78148  1  0  0  0
 80149  1  0  0  0
 80150  1  0  0  0
 81151  1  0  0  0
 82152  1  0  0  0
M  ISO  4   1 100  68 101  78 101  82 100
M  END
> <chiral flag>
0

> <version>
0

> <s_m_source_file>
/data/baiqing/PycharmProjects/Reinvent-master-3.2/result/LINK_invent/BTK/process_docking_weight1_custom_product_contain_oxygen_bond_distance_aromatic_linkinvent_7_9_3/rearranged_h_0197.sdf

> <i_m_source_file_index>
57

> <r_mmod_Potential_Energy-OPLS-2005>
-103.349655151367

> <r_mmod_Stretch_Energy-OPLS-2005>
79.9664077758789

> <r_mmod_Bend_Energy-OPLS-2005>
155.873260498047

> <r_mmod_Torsional_Energy-OPLS-2005>
232.691513061523

> <r_mmod_Improper_Torsional_Energy-OPLS-2005>
8.63166999816895

> <r_mmod_Van_der_Waal_Energy-OPLS-2005>
144.468185424805

> <r_mmod_Electrostatic_Energy-OPLS-2005>
-517.427307128906

> <r_mmod_Solvation_Energy-OPLS-2005>
-262.550933837891

> <b_mmod_Minimization_Converged-OPLS-2005>
0

> <r_mmod_RMS_Derivative-OPLS-2005>
0.315798431634903

$$$$
57
                    3D
 Structure written by MMmdl.
155163  0  0  1  0            999 V2000
  -30.5713  -14.6775   20.4948 C   0  0  0  0  0  0
  -30.4368  -12.4161   19.4513 C   0  0  0  0  0  0
  -29.5099  -12.5307   18.2181 C   0  0  0  0  0  0
  -28.0295  -12.3638   18.6220 C   0  0  0  0  0  0
  -27.6491  -13.2195   19.8595 C   0  0  2  0  0  0
  -28.6903  -13.0579   20.9896 C   0  0  0  0  0  0
  -25.2536  -13.8168   20.5659 C   0  0  0  0  0  0
  -24.1803  -13.0438   20.9187 C   0  0  0  0  0  0
  -24.6370  -11.6906   20.8705 C   0  0  0  0  0  0
  -23.9047  -10.4291   21.0381 C   0  0  0  0  0  0
  -24.3607   -9.4212   21.9169 C   0  0  0  0  0  0
  -23.6304   -8.2238   22.0736 C   0  0  0  0  0  0
  -22.4288   -8.0266   21.3540 C   0  0  0  0  0  0
  -21.9905   -9.0229   20.4645 C   0  0  0  0  0  0
  -22.7212  -10.2119   20.3050 C   0  0  0  0  0  0
  -21.6856   -6.0736   22.5290 C   0  0  0  0  0  0
  -21.4002   -6.5638   23.8223 C   0  0  0  0  0  0
  -21.3659   -5.6791   24.9178 C   0  0  0  0  0  0
  -21.6047   -4.3055   24.7225 C   0  0  0  0  0  0
  -21.8820   -3.8148   23.4344 C   0  0  0  0  0  0
  -21.9181   -4.6963   22.3400 C   0  0  0  0  0  0
  -22.7833  -13.5238   21.1849 C   0  0  0  0  0  0
  -22.1670   -4.2150   21.0982 F   0  0  0  0  0  0
  -21.5628   -3.4532   25.7733 F   0  0  0  0  0  0
  -30.0001  -13.4284   20.4356 N   0  0  0  0  0  0
  -26.2950  -12.9364   20.3257 N   0  0  0  0  0  0
  -25.9294  -11.6514   20.5681 N   0  0  0  0  0  0
  -22.0468  -12.8239   22.0406 N   0  0  0  0  0  0
  -25.4252  -15.1874   20.4053 N   0  0  0  0  0  0
  -31.7332  -14.8501   20.1082 O   0  0  0  0  0  0
  -21.6650   -6.8865   21.4252 O   0  0  0  0  0  0
  -22.3521  -14.5554   20.6698 O   0  0  0  0  0  0
  -24.6272  -31.8602   23.1993 C   0  0  0  0  0  0
  -25.9122  -32.4781   23.8329 C   0  0  1  0  0  0
  -27.2242  -27.3189   20.1356 C   0  0  0  0  0  0
  -25.5931  -33.8572   24.2257 N   0  0  0  0  0  0
  -23.4212  -30.4815   21.5416 C   0  0  2  0  0  0
  -24.8668  -28.9243   20.1180 C   0  0  0  0  0  0
  -22.7478  -29.4638   22.4943 C   0  0  0  0  0  0
  -18.0291  -28.1391   22.8490 C   0  0  0  0  0  0
  -24.1489  -36.7301   23.2639 C   0  0  0  0  0  0
  -25.9598  -30.7923   21.3651 C   0  0  0  0  0  0
  -26.0351  -29.4157   20.7160 C   0  0  0  0  0  0
  -27.2205  -28.6253   20.7119 C   0  0  0  0  0  0
  -26.0367  -26.8683   19.5253 C   0  0  0  0  0  0
  -24.8681  -27.6550   19.5151 C   0  0  0  0  0  0
  -23.6364  -29.8080   20.1598 C   0  0  0  0  0  0
  -25.4115  -36.3086   24.0328 C   0  0  1  0  0  0
  -20.5891  -28.3701   23.1285 C   0  0  2  0  0  0
  -20.6783  -26.9424   22.5412 C   0  0  0  0  0  0
  -19.5753  -26.6380   21.5219 C   0  0  0  0  0  0
  -18.1935  -26.7939   22.1628 C   0  0  0  0  0  0
  -19.1544  -28.8858   23.2882 C   0  0  0  0  0  0
  -18.9465  -30.1467   23.8895 C   0  0  0  0  0  0
  -17.6463  -30.6592   24.0569 C   0  0  0  0  0  0
  -25.9051  -34.9456   23.5089 C   0  0  0  0  0  0
  -16.5355  -29.9094   23.6329 C   0  0  0  0  0  0
  -16.7272  -28.6510   23.0344 C   0  0  0  0  0  0
  -26.4473  -31.6604   25.0718 C   0  0  0  0  0  0
  -25.3692  -31.3758   26.1439 C   0  0  0  0  0  0
  -27.0317  -30.3042   24.6158 C   0  0  0  0  0  0
  -27.6025  -32.4340   25.7491 C   0  0  0  0  0  0
  -27.5584  -37.1810   24.8459 C   0  0  0  0  0  0
  -21.4195  -29.3056   22.3670 N   0  0  0  0  0  0
  -26.4286  -37.3791   23.9415 N   0  0  0  0  0  0
  -24.6885  -31.0611   22.0937 N   0  0  0  0  0  0
  -23.4196  -28.8199   23.3038 O   0  0  0  0  0  0
  -28.3426  -26.4835   20.1291 O   0  0  0  0  0  0
  -26.5607  -34.8934   22.4647 O   0  0  0  0  0  0
  -23.5437  -32.1386   23.7337 O   0  0  0  0  0  0
  -29.5723  -19.2752   21.4822 C   0  0  0  0  0  0
  -29.1526  -19.8386   20.2448 C   0  0  0  0  0  0
  -29.0216  -18.8390   19.2493 C   0  0  0  0  0  0
  -29.6997  -17.0963   20.6266 C   0  0  0  0  0  0
  -30.3187  -22.6331   21.3433 C   0  0  0  0  0  0
  -28.5039  -23.8110   19.9657 C   0  0  0  0  0  0
  -28.2407  -25.1585   20.7855 C   0  0  0  0  0  0
  -28.9055  -22.4642   20.7545 C   0  0  1  0  0  0
  -29.8205  -17.9385   21.6639 N   0  0  0  0  0  0
  -29.2741  -17.5176   19.4282 N   0  0  0  0  0  0
  -28.5591  -19.2057   17.9923 N   0  0  0  0  0  0
  -28.8335  -21.2163   19.9245 N   0  0  0  0  0  0
  -29.7417  -15.7065   20.8881 N   0  0  0  0  0  0
  -31.4793  -12.5482   19.1570 H   0  0  0  0  0  0
  -30.3743  -11.4168   19.8835 H   0  0  0  0  0  0
  -29.7827  -11.7857   17.4696 H   0  0  0  0  0  0
  -29.6509  -13.5034   17.7428 H   0  0  0  0  0  0
  -27.8606  -11.3093   18.8354 H   0  0  0  0  0  0
  -27.3806  -12.6097   17.7788 H   0  0  0  0  0  0
  -27.6708  -14.2582   19.5306 H   0  0  0  0  0  0
  -28.7070  -12.0263   21.3460 H   0  0  0  0  0  0
  -28.4275  -13.6642   21.8562 H   0  0  0  0  0  0
  -25.2747   -9.5717   22.4734 H   0  0  0  0  0  0
  -24.0028   -7.4631   22.7447 H   0  0  0  0  0  0
  -21.0838   -8.8734   19.8946 H   0  0  0  0  0  0
  -22.3653  -10.9654   19.6157 H   0  0  0  0  0  0
  -21.2012   -7.6144   23.9735 H   0  0  0  0  0  0
  -21.1479   -6.0510   25.9087 H   0  0  0  0  0  0
  -22.0596   -2.7602   23.2836 H   0  0  0  0  0  0
  -22.4079  -11.9936   22.4870 H   0  0  0  0  0  0
  -21.1068  -13.1256   22.2555 H   0  0  0  0  0  0
  -24.6479  -15.8334   20.4916 H   0  0  0  0  0  0
  -26.2507  -15.6146   20.0062 H   0  0  0  0  0  0
  -26.7203  -32.5444   23.1090 H   0  0  0  0  0  0
  -25.0110  -33.9690   25.0424 H   0  0  0  0  0  0
  -22.7139  -31.3003   21.3940 H   0  0  0  0  0  0
  -23.3763  -35.9622   23.3281 H   0  0  0  0  0  0
  -24.3598  -36.8941   22.2061 H   0  0  0  0  0  0
  -23.7216  -37.6488   23.6666 H   0  0  0  0  0  0
  -26.0794  -31.5477   20.5878 H   0  0  0  0  0  0
  -26.8445  -30.8504   21.9878 H   0  0  0  0  0  0
  -28.1241  -28.9971   21.1746 H   0  0  0  0  0  0
  -26.0122  -25.8911   19.0646 H   0  0  0  0  0  0
  -23.9702  -27.2663   19.0543 H   0  0  0  0  0  0
  -23.7601  -30.5767   19.3958 H   0  0  0  0  0  0
  -22.7559  -29.2374   19.8609 H   0  0  0  0  0  0
  -25.1295  -36.1942   25.0820 H   0  0  0  0  0  0
  -20.9985  -28.3293   24.1408 H   0  0  0  0  0  0
  -20.5724  -26.2318   23.3623 H   0  0  0  0  0  0
  -21.6651  -26.7485   22.1193 H   0  0  0  0  0  0
  -19.6925  -25.6286   21.1261 H   0  0  0  0  0  0
  -19.6693  -27.3182   20.6742 H   0  0  0  0  0  0
  -17.4219  -26.6691   21.4012 H   0  0  0  0  0  0
  -18.0333  -26.0076   22.9017 H   0  0  0  0  0  0
  -19.7933  -30.7282   24.2270 H   0  0  0  0  0  0
  -17.5013  -31.6273   24.5168 H   0  0  0  0  0  0
  -15.5358  -30.2992   23.7643 H   0  0  0  0  0  0
  -15.8680  -28.0830   22.7051 H   0  0  0  0  0  0
  -24.5838  -30.7149   25.7753 H   0  0  0  0  0  0
  -24.8915  -32.2936   26.4876 H   0  0  0  0  0  0
  -25.7994  -30.8905   27.0207 H   0  0  0  0  0  0
  -26.2891  -29.6813   24.1165 H   0  0  0  0  0  0
  -27.4013  -29.7288   25.4652 H   0  0  0  0  0  0
  -27.8747  -30.4354   23.9376 H   0  0  0  0  0  0
  -27.2627  -33.3636   26.2063 H   0  0  0  0  0  0
  -28.3830  -32.6913   25.0320 H   0  0  0  0  0  0
  -28.0695  -31.8475   26.5410 H   0  0  0  0  0  0
  -28.2584  -38.0126   24.7548 H   0  0  0  0  0  0
  -28.1090  -36.2662   24.6225 H   0  0  0  0  0  0
  -27.2313  -37.1400   25.8862 H   0  0  0  0  0  0
  -20.9391  -29.8768   21.6864 H   0  0  0  0  0  0
  -26.0172  -38.2866   24.1424 H   0  0  0  0  0  0
  -29.6772  -19.8917   22.3622 H   0  0  0  0  0  0
  -30.3151  -23.3546   22.1611 H   0  0  0  0  0  0
  -31.0265  -22.9889   20.5925 H   0  0  0  0  0  0
  -30.7305  -21.7160   21.7541 H   0  0  0  0  0  0
  -29.2805  -24.0124   19.2271 H   0  0  0  0  0  0
  -27.6028  -23.6252   19.3786 H   0  0  0  0  0  0
  -28.9756  -25.2041   21.5891 H   0  0  0  0  0  0
  -27.2795  -25.0680   21.2920 H   0  0  0  0  0  0
  -28.1982  -22.3356   21.5778 H   0  0  0  0  0  0
  -28.7064  -20.1720   17.7369 H   0  0  0  0  0  0
  -28.7055  -18.5543   17.2346 H   0  0  0  0  0  0
  -28.2833  -21.3086   19.0733 H   0  0  0  0  0  0
  -28.8835  -15.3649   21.2859 H   0  0  0  0  0  0
  1 25  1  0  0  0
  1 30  2  0  0  0
  1 83  1  0  0  0
  2  3  1  0  0  0
  2 25  1  0  0  0
  2 84  1  0  0  0
  2 85  1  0  0  0
  3  4  1  0  0  0
  3 86  1  0  0  0
  3 87  1  0  0  0
  4  5  1  0  0  0
  4 88  1  0  0  0
  4 89  1  0  0  0
  5  6  1  0  0  0
  5 26  1  0  0  0
  5 90  1  0  0  0
  6 25  1  0  0  0
  6 91  1  0  0  0
  6 92  1  0  0  0
  7  8  2  0  0  0
  7 26  1  0  0  0
  7 29  1  0  0  0
  8  9  1  0  0  0
  8 22  1  0  0  0
  9 10  1  0  0  0
  9 27  2  0  0  0
 10 11  2  0  0  0
 10 15  1  0  0  0
 11 12  1  0  0  0
 11 93  1  0  0  0
 12 13  2  0  0  0
 12 94  1  0  0  0
 13 14  1  0  0  0
 13 31  1  0  0  0
 14 15  2  0  0  0
 14 95  1  0  0  0
 15 96  1  0  0  0
 16 17  2  0  0  0
 16 21  1  0  0  0
 16 31  1  0  0  0
 17 18  1  0  0  0
 17 97  1  0  0  0
 18 19  2  0  0  0
 18 98  1  0  0  0
 19 20  1  0  0  0
 19 24  1  0  0  0
 20 21  2  0  0  0
 20 99  1  0  0  0
 21 23  1  0  0  0
 22 28  1  0  0  0
 22 32  2  0  0  0
 26 27  1  0  0  0
 28100  1  0  0  0
 28101  1  0  0  0
 29102  1  0  0  0
 29103  1  0  0  0
 33 34  1  0  0  0
 33 66  1  0  0  0
 33 70  2  0  0  0
 34 36  1  0  0  0
 34 59  1  0  0  0
 34104  1  0  0  0
 35 44  2  0  0  0
 35 45  1  0  0  0
 35 68  1  0  0  0
 36 56  1  0  0  0
 36105  1  0  0  0
 37 39  1  0  0  0
 37 47  1  0  0  0
 37 66  1  0  0  0
 37106  1  0  0  0
 38 43  2  0  0  0
 38 46  1  0  0  0
 38 47  1  0  0  0
 39 64  1  0  0  0
 39 67  2  0  0  0
 40 52  1  0  0  0
 40 53  2  0  0  0
 40 58  1  0  0  0
 41107  1  0  0  0
 41108  1  0  0  0
 41109  1  0  0  0
 41 48  1  0  0  0
 42 43  1  0  0  0
 42 66  1  0  0  0
 42110  1  0  0  0
 42111  1  0  0  0
 43 44  1  0  0  0
 44112  1  0  0  0
 45 46  2  0  0  0
 45113  1  0  0  0
 46114  1  0  0  0
 47115  1  0  0  0
 47116  1  0  0  0
 48 56  1  0  0  0
 48 65  1  0  0  0
 48117  1  0  0  0
 49 50  1  0  0  0
 49 53  1  0  0  0
 49 64  1  0  0  0
 49118  1  0  0  0
 50 51  1  0  0  0
 50119  1  0  0  0
 50120  1  0  0  0
 51 52  1  0  0  0
 51121  1  0  0  0
 51122  1  0  0  0
 52123  1  0  0  0
 52124  1  0  0  0
 53 54  1  0  0  0
 54 55  2  0  0  0
 54125  1  0  0  0
 55 57  1  0  0  0
 55126  1  0  0  0
 56 69  2  0  0  0
 57 58  2  0  0  0
 57127  1  0  0  0
 58128  1  0  0  0
 59 60  1  0  0  0
 59 61  1  0  0  0
 59 62  1  0  0  0
 60129  1  0  0  0
 60130  1  0  0  0
 60131  1  0  0  0
 61132  1  0  0  0
 61133  1  0  0  0
 61134  1  0  0  0
 62135  1  0  0  0
 62136  1  0  0  0
 62137  1  0  0  0
 63 65  1  0  0  0
 63138  1  0  0  0
 63139  1  0  0  0
 63140  1  0  0  0
 64141  1  0  0  0
 65142  1  0  0  0
 68 77  1  0  0  0
 71 72  2  0  0  0
 71 79  1  0  0  0
 71143  1  0  0  0
 72 73  1  0  0  0
 72 82  1  0  0  0
 73 80  2  0  0  0
 73 81  1  0  0  0
 74 79  2  0  0  0
 74 80  1  0  0  0
 74 83  1  0  0  0
 75144  1  0  0  0
 75145  1  0  0  0
 75146  1  0  0  0
 75 78  1  0  0  0
 76 77  1  0  0  0
 76 78  1  0  0  0
 76147  1  0  0  0
 76148  1  0  0  0
 77149  1  0  0  0
 77150  1  0  0  0
 78 82  1  0  0  0
 78151  1  0  0  0
 81152  1  0  0  0
 81153  1  0  0  0
 82154  1  0  0  0
 83155  1  0  0  0
M  ISO  4   1 100  68 101  77 101  83 100
M  END
> <chiral flag>
0

> <version>
0

> <s_m_source_file>
/data/baiqing/PycharmProjects/Reinvent-master-3.2/result/LINK_invent/BTK/process_docking_weight1_custom_product_contain_oxygen_bond_distance_aromatic_linkinvent_7_9_3/rearranged_h_0197.sdf

> <i_m_source_file_index>
58

> <r_mmod_Potential_Energy-OPLS-2005>
-385.035919189453

> <r_mmod_Stretch_Energy-OPLS-2005>
82.4156951904297

> <r_mmod_Bend_Energy-OPLS-2005>
170.327072143555

> <r_mmod_Torsional_Energy-OPLS-2005>
257.573852539062

> <r_mmod_Improper_Torsional_Energy-OPLS-2005>
10.0493698120117

> <r_mmod_Van_der_Waal_Energy-OPLS-2005>
145.269943237305

> <r_mmod_Electrostatic_Energy-OPLS-2005>
-867.243591308594

> <r_mmod_Solvation_Energy-OPLS-2005>
-237.451019287109

> <b_mmod_Minimization_Converged-OPLS-2005>
0

> <r_mmod_RMS_Derivative-OPLS-2005>
3.25726366043091

$$$$
58
                    3D
 Structure written by MMmdl.
160168  0  0  1  0            999 V2000
  -30.6710  -14.4885   20.5442 C   0  0  0  0  0  0
  -30.4139  -12.3059   19.4359 C   0  0  0  0  0  0
  -29.5025  -12.5201   18.2098 C   0  0  0  0  0  0
  -28.0205  -12.3782   18.6085 C   0  0  0  0  0  0
  -27.6581  -13.2090   19.8703 C   0  0  2  0  0  0
  -28.6920  -12.9940   20.9997 C   0  0  0  0  0  0
  -25.2575  -13.8173   20.5641 C   0  0  0  0  0  0
  -24.1840  -13.0445   20.9135 C   0  0  0  0  0  0
  -24.6373  -11.6909   20.8683 C   0  0  0  0  0  0
  -23.9043  -10.4309   21.0355 C   0  0  0  0  0  0
  -24.3622   -9.4248   21.9138 C   0  0  0  0  0  0
  -23.6316   -8.2274   22.0722 C   0  0  0  0  0  0
  -22.4301   -8.0280   21.3529 C   0  0  0  0  0  0
  -21.9921   -9.0238   20.4632 C   0  0  0  0  0  0
  -22.7215  -10.2129   20.3022 C   0  0  0  0  0  0
  -21.6885   -6.0733   22.5263 C   0  0  0  0  0  0
  -21.4044   -6.5646   23.8191 C   0  0  0  0  0  0
  -21.3657   -5.6788   24.9152 C   0  0  0  0  0  0
  -21.6052   -4.3053   24.7217 C   0  0  0  0  0  0
  -21.8824   -3.8144   23.4341 C   0  0  0  0  0  0
  -21.9224   -4.6963   22.3394 C   0  0  0  0  0  0
  -22.7871  -13.5252   21.1807 C   0  0  0  0  0  0
  -22.1675   -4.2142   21.0967 F   0  0  0  0  0  0
  -21.5622   -3.4527   25.7728 F   0  0  0  0  0  0
  -30.0292  -13.2911   20.4582 N   0  0  0  0  0  0
  -26.2987  -12.9332   20.3285 N   0  0  0  0  0  0
  -25.9293  -11.6489   20.5705 N   0  0  0  0  0  0
  -22.0527  -12.8243   22.0376 N   0  0  0  0  0  0
  -25.4315  -15.1891   20.4064 N   0  0  0  0  0  0
  -31.7824  -14.6886   20.0481 O   0  0  0  0  0  0
  -21.6675   -6.8863   21.4219 O   0  0  0  0  0  0
  -22.3539  -14.5543   20.6627 O   0  0  0  0  0  0
  -24.6164  -31.8721   23.2124 C   0  0  0  0  0  0
  -25.9106  -32.4813   23.8389 C   0  0  1  0  0  0
  -27.2170  -27.4237   20.1044 C   0  0  0  0  0  0
  -25.5985  -33.8607   24.2338 N   0  0  0  0  0  0
  -23.4008  -30.4942   21.5583 C   0  0  2  0  0  0
  -24.8419  -28.9736   20.1034 C   0  0  0  0  0  0
  -22.7443  -29.4629   22.5053 C   0  0  0  0  0  0
  -18.0278  -28.1357   22.8532 C   0  0  0  0  0  0
  -24.1500  -36.7302   23.2645 C   0  0  0  0  0  0
  -25.9286  -30.8377   21.3636 C   0  0  0  0  0  0
  -26.0056  -29.4755   20.7013 C   0  0  0  0  0  0
  -27.1997  -28.7147   20.6899 C   0  0  0  0  0  0
  -26.0395  -26.9433   19.4961 C   0  0  0  0  0  0
  -24.8560  -27.7059   19.4945 C   0  0  0  0  0  0
  -23.6027  -29.8401   20.1646 C   0  0  0  0  0  0
  -25.4127  -36.3103   24.0325 C   0  0  1  0  0  0
  -20.5881  -28.3627   23.1390 C   0  0  2  0  0  0
  -20.6792  -26.9377   22.5462 C   0  0  0  0  0  0
  -19.5757  -26.6374   21.5276 C   0  0  0  0  0  0
  -18.1917  -26.7921   22.1634 C   0  0  0  0  0  0
  -19.1536  -28.8824   23.2936 C   0  0  0  0  0  0
  -18.9439  -30.1435   23.8900 C   0  0  0  0  0  0
  -17.6433  -30.6567   24.0560 C   0  0  0  0  0  0
  -25.9064  -34.9479   23.5104 C   0  0  0  0  0  0
  -16.5332  -29.9026   23.6344 C   0  0  0  0  0  0
  -16.7270  -28.6462   23.0365 C   0  0  0  0  0  0
  -26.4544  -31.6567   25.0705 C   0  0  0  0  0  0
  -25.3820  -31.3630   26.1446 C   0  0  0  0  0  0
  -27.0405  -30.3024   24.6063 C   0  0  0  0  0  0
  -27.6114  -32.4297   25.7456 C   0  0  0  0  0  0
  -27.5584  -37.1803   24.8470 C   0  0  0  0  0  0
  -21.4184  -29.2964   22.3791 N   0  0  0  0  0  0
  -26.4303  -37.3801   23.9403 N   0  0  0  0  0  0
  -24.6665  -31.0814   22.1040 N   0  0  0  0  0  0
  -23.4223  -28.8228   23.3158 O   0  0  0  0  0  0
  -28.3617  -26.6514   20.0957 O   0  0  0  0  0  0
  -26.5599  -34.8947   22.4664 O   0  0  0  0  0  0
  -23.5371  -32.1528   23.7516 O   0  0  0  0  0  0
  -28.9560  -18.6459   19.1658 C   0  0  0  0  0  0
  -29.4611  -19.0262   20.3909 C   0  0  0  0  0  0
  -29.7194  -16.7337   20.5071 C   0  0  0  0  0  0
  -28.0654  -24.0099   18.6092 C   0  0  0  0  0  0
  -30.3404  -24.5459   19.5232 C   0  0  0  0  0  0
  -30.5593  -20.5150   21.9923 C   0  0  0  0  0  0
  -28.8907  -22.8346   20.7305 C   0  0  0  0  0  0
  -29.4300  -21.5437   20.0203 C   0  0  0  0  0  0
  -28.2670  -25.3490   20.7267 C   0  0  0  0  0  0
  -28.8919  -24.1725   19.8967 C   0  0  0  0  0  0
  -29.8550  -17.9031   21.1551 N   0  0  0  0  0  0
  -29.9744  -15.4804   21.1304 N   0  0  0  0  0  0
  -29.6058  -20.3607   20.8921 N   0  0  0  0  0  0
  -29.0363  -16.9167   18.8987 S   0  0  0  0  0  0
  -31.4650  -12.3833   19.1496 H   0  0  0  0  0  0
  -30.2858  -11.2959   19.8254 H   0  0  0  0  0  0
  -29.7485  -11.7992   17.4292 H   0  0  0  0  0  0
  -29.6816  -13.5113   17.7879 H   0  0  0  0  0  0
  -27.8292  -11.3208   18.7919 H   0  0  0  0  0  0
  -27.3784  -12.6594   17.7718 H   0  0  0  0  0  0
  -27.6994  -14.2584   19.5804 H   0  0  0  0  0  0
  -28.6619  -11.9635   21.3556 H   0  0  0  0  0  0
  -28.4378  -13.6051   21.8660 H   0  0  0  0  0  0
  -25.2767   -9.5766   22.4705 H   0  0  0  0  0  0
  -24.0044   -7.4692   22.7458 H   0  0  0  0  0  0
  -21.0843   -8.8742   19.8956 H   0  0  0  0  0  0
  -22.3629  -10.9664   19.6141 H   0  0  0  0  0  0
  -21.2021   -7.6142   23.9696 H   0  0  0  0  0  0
  -21.1470   -6.0510   25.9054 H   0  0  0  0  0  0
  -22.0609   -2.7602   23.2844 H   0  0  0  0  0  0
  -22.4171  -11.9961   22.4853 H   0  0  0  0  0  0
  -21.1101  -13.1212   22.2470 H   0  0  0  0  0  0
  -24.6583  -15.8391   20.4918 H   0  0  0  0  0  0
  -26.2813  -15.6329   20.0851 H   0  0  0  0  0  0
  -26.7157  -32.5537   23.1128 H   0  0  0  0  0  0
  -25.0206  -33.9750   25.0527 H   0  0  0  0  0  0
  -22.6878  -31.3117   21.4335 H   0  0  0  0  0  0
  -23.3778  -35.9619   23.3325 H   0  0  0  0  0  0
  -24.3589  -36.8921   22.2057 H   0  0  0  0  0  0
  -23.7224  -37.6497   23.6662 H   0  0  0  0  0  0
  -26.0452  -31.6151   20.6084 H   0  0  0  0  0  0
  -26.8140  -30.8745   21.9855 H   0  0  0  0  0  0
  -28.0975  -29.1078   21.1465 H   0  0  0  0  0  0
  -26.0349  -25.9734   19.0246 H   0  0  0  0  0  0
  -23.9658  -27.3121   19.0254 H   0  0  0  0  0  0
  -23.7027  -30.6313   19.4180 H   0  0  0  0  0  0
  -22.7280  -29.2564   19.8694 H   0  0  0  0  0  0
  -25.1294  -36.1958   25.0808 H   0  0  0  0  0  0
  -20.9912  -28.3154   24.1544 H   0  0  0  0  0  0
  -20.5808  -26.2205   23.3633 H   0  0  0  0  0  0
  -21.6653  -26.7494   22.1195 H   0  0  0  0  0  0
  -19.6921  -25.6299   21.1271 H   0  0  0  0  0  0
  -19.6714  -27.3246   20.6874 H   0  0  0  0  0  0
  -17.4254  -26.6810   21.3944 H   0  0  0  0  0  0
  -18.0183  -25.9997   22.8949 H   0  0  0  0  0  0
  -19.7903  -30.7297   24.2255 H   0  0  0  0  0  0
  -17.4950  -31.6249   24.5146 H   0  0  0  0  0  0
  -15.5310  -30.2886   23.7680 H   0  0  0  0  0  0
  -15.8692  -28.0748   22.7055 H   0  0  0  0  0  0
  -24.5977  -30.7015   25.7742 H   0  0  0  0  0  0
  -24.9055  -32.2779   26.4972 H   0  0  0  0  0  0
  -25.8176  -30.8710   27.0153 H   0  0  0  0  0  0
  -26.2924  -29.6692   24.1279 H   0  0  0  0  0  0
  -27.4401  -29.7315   25.4461 H   0  0  0  0  0  0
  -27.8654  -30.4385   23.9063 H   0  0  0  0  0  0
  -27.2727  -33.3575   26.2077 H   0  0  0  0  0  0
  -28.3882  -32.6900   25.0248 H   0  0  0  0  0  0
  -28.0857  -31.8427   26.5338 H   0  0  0  0  0  0
  -28.2611  -38.0096   24.7518 H   0  0  0  0  0  0
  -28.1059  -36.2626   24.6272 H   0  0  0  0  0  0
  -27.2313  -37.1423   25.8880 H   0  0  0  0  0  0
  -20.9388  -29.8544   21.6871 H   0  0  0  0  0  0
  -26.0195  -38.2882   24.1397 H   0  0  0  0  0  0
  -28.5509  -19.2644   18.3732 H   0  0  0  0  0  0
  -28.5216  -23.3088   17.9106 H   0  0  0  0  0  0
  -27.9865  -24.9638   18.0854 H   0  0  0  0  0  0
  -27.0532  -23.6680   18.8299 H   0  0  0  0  0  0
  -30.8182  -23.7993   18.8876 H   0  0  0  0  0  0
  -30.9583  -24.6642   20.4127 H   0  0  0  0  0  0
  -30.3768  -25.4846   18.9673 H   0  0  0  0  0  0
  -30.1154  -20.2229   22.9466 H   0  0  0  0  0  0
  -30.9292  -21.5354   22.0888 H   0  0  0  0  0  0
  -31.4323  -19.8834   21.8176 H   0  0  0  0  0  0
  -29.4606  -23.0122   21.6403 H   0  0  0  0  0  0
  -27.8740  -22.6340   21.0725 H   0  0  0  0  0  0
  -30.4023  -21.7490   19.5678 H   0  0  0  0  0  0
  -28.7421  -21.3041   19.2090 H   0  0  0  0  0  0
  -28.7922  -25.4361   21.6781 H   0  0  0  0  0  0
  -27.2384  -25.0964   20.9897 H   0  0  0  0  0  0
  -29.2045  -15.1438   21.6838 H   0  0  0  0  0  0
  1 25  1  0  0  0
  1 30  2  0  0  0
  1 82  1  0  0  0
  2  3  1  0  0  0
  2 25  1  0  0  0
  2 85  1  0  0  0
  2 86  1  0  0  0
  3  4  1  0  0  0
  3 87  1  0  0  0
  3 88  1  0  0  0
  4  5  1  0  0  0
  4 89  1  0  0  0
  4 90  1  0  0  0
  5  6  1  0  0  0
  5 26  1  0  0  0
  5 91  1  0  0  0
  6 25  1  0  0  0
  6 92  1  0  0  0
  6 93  1  0  0  0
  7  8  2  0  0  0
  7 26  1  0  0  0
  7 29  1  0  0  0
  8  9  1  0  0  0
  8 22  1  0  0  0
  9 10  1  0  0  0
  9 27  2  0  0  0
 10 11  2  0  0  0
 10 15  1  0  0  0
 11 12  1  0  0  0
 11 94  1  0  0  0
 12 13  2  0  0  0
 12 95  1  0  0  0
 13 14  1  0  0  0
 13 31  1  0  0  0
 14 15  2  0  0  0
 14 96  1  0  0  0
 15 97  1  0  0  0
 16 17  2  0  0  0
 16 21  1  0  0  0
 16 31  1  0  0  0
 17 18  1  0  0  0
 17 98  1  0  0  0
 18 19  2  0  0  0
 18 99  1  0  0  0
 19 20  1  0  0  0
 19 24  1  0  0  0
 20 21  2  0  0  0
 20100  1  0  0  0
 21 23  1  0  0  0
 22 28  1  0  0  0
 22 32  2  0  0  0
 26 27  1  0  0  0
 28101  1  0  0  0
 28102  1  0  0  0
 29103  1  0  0  0
 29104  1  0  0  0
 33 34  1  0  0  0
 33 66  1  0  0  0
 33 70  2  0  0  0
 34 36  1  0  0  0
 34 59  1  0  0  0
 34105  1  0  0  0
 35 44  2  0  0  0
 35 45  1  0  0  0
 35 68  1  0  0  0
 36 56  1  0  0  0
 36106  1  0  0  0
 37 39  1  0  0  0
 37 47  1  0  0  0
 37 66  1  0  0  0
 37107  1  0  0  0
 38 43  2  0  0  0
 38 46  1  0  0  0
 38 47  1  0  0  0
 39 64  1  0  0  0
 39 67  2  0  0  0
 40 52  1  0  0  0
 40 53  2  0  0  0
 40 58  1  0  0  0
 41108  1  0  0  0
 41109  1  0  0  0
 41110  1  0  0  0
 41 48  1  0  0  0
 42 43  1  0  0  0
 42 66  1  0  0  0
 42111  1  0  0  0
 42112  1  0  0  0
 43 44  1  0  0  0
 44113  1  0  0  0
 45 46  2  0  0  0
 45114  1  0  0  0
 46115  1  0  0  0
 47116  1  0  0  0
 47117  1  0  0  0
 48 56  1  0  0  0
 48 65  1  0  0  0
 48118  1  0  0  0
 49 50  1  0  0  0
 49 53  1  0  0  0
 49 64  1  0  0  0
 49119  1  0  0  0
 50 51  1  0  0  0
 50120  1  0  0  0
 50121  1  0  0  0
 51 52  1  0  0  0
 51122  1  0  0  0
 51123  1  0  0  0
 52124  1  0  0  0
 52125  1  0  0  0
 53 54  1  0  0  0
 54 55  2  0  0  0
 54126  1  0  0  0
 55 57  1  0  0  0
 55127  1  0  0  0
 56 69  2  0  0  0
 57 58  2  0  0  0
 57128  1  0  0  0
 58129  1  0  0  0
 59 60  1  0  0  0
 59 61  1  0  0  0
 59 62  1  0  0  0
 60130  1  0  0  0
 60131  1  0  0  0
 60132  1  0  0  0
 61133  1  0  0  0
 61134  1  0  0  0
 61135  1  0  0  0
 62136  1  0  0  0
 62137  1  0  0  0
 62138  1  0  0  0
 63 65  1  0  0  0
 63139  1  0  0  0
 63140  1  0  0  0
 63141  1  0  0  0
 64142  1  0  0  0
 65143  1  0  0  0
 68 79  1  0  0  0
 71 72  2  0  0  0
 71 84  1  0  0  0
 71144  1  0  0  0
 72 81  1  0  0  0
 72 83  1  0  0  0
 73 81  2  0  0  0
 73 82  1  0  0  0
 73 84  1  0  0  0
 74145  1  0  0  0
 74146  1  0  0  0
 74147  1  0  0  0
 74 80  1  0  0  0
 75 80  1  0  0  0
 75148  1  0  0  0
 75149  1  0  0  0
 75150  1  0  0  0
 76 83  1  0  0  0
 76151  1  0  0  0
 76152  1  0  0  0
 76153  1  0  0  0
 77 78  1  0  0  0
 77 80  1  0  0  0
 77154  1  0  0  0
 77155  1  0  0  0
 78 83  1  0  0  0
 78156  1  0  0  0
 78157  1  0  0  0
 79 80  1  0  0  0
 79158  1  0  0  0
 79159  1  0  0  0
 82160  1  0  0  0
M  ISO  4   1 100  68 101  79 101  82 100
M  END
> <chiral flag>
0

> <version>
0

> <s_m_source_file>
/data/baiqing/PycharmProjects/Reinvent-master-3.2/result/LINK_invent/BTK/process_docking_weight1_custom_product_contain_oxygen_bond_distance_aromatic_linkinvent_7_9_3/rearranged_h_0197.sdf

> <i_m_source_file_index>
59

> <r_mmod_Potential_Energy-OPLS-2005>
-132.995941162109

> <r_mmod_Stretch_Energy-OPLS-2005>
44.5228843688965

> <r_mmod_Bend_Energy-OPLS-2005>
104.463371276855

> <r_mmod_Torsional_Energy-OPLS-2005>
261.937805175781

> <r_mmod_Improper_Torsional_Energy-OPLS-2005>
8.43972873687744

> <r_mmod_Van_der_Waal_Energy-OPLS-2005>
129.24592590332

> <r_mmod_Electrostatic_Energy-OPLS-2005>
-466.920623779297

> <r_mmod_Solvation_Energy-OPLS-2005>
-229.59098815918

> <b_mmod_Minimization_Converged-OPLS-2005>
0

> <r_mmod_RMS_Derivative-OPLS-2005>
5.21061611175537

$$$$
59
                    3D
 Structure written by MMmdl.
165173  0  0  1  0            999 V2000
  -30.6467  -14.5179   20.5876 C   0  0  0  0  0  0
  -30.4362  -12.3302   19.4383 C   0  0  0  0  0  0
  -29.4946  -12.4758   18.2224 C   0  0  0  0  0  0
  -28.0155  -12.3320   18.6385 C   0  0  0  0  0  0
  -27.6576  -13.1936   19.8761 C   0  0  2  0  0  0
  -28.6963  -12.9824   20.9998 C   0  0  0  0  0  0
  -25.2594  -13.8139   20.5688 C   0  0  0  0  0  0
  -24.1848  -13.0401   20.9233 C   0  0  0  0  0  0
  -24.6391  -11.6884   20.8776 C   0  0  0  0  0  0
  -23.9059  -10.4267   21.0420 C   0  0  0  0  0  0
  -24.3618   -9.4183   21.9204 C   0  0  0  0  0  0
  -23.6300   -8.2214   22.0740 C   0  0  0  0  0  0
  -22.4287   -8.0278   21.3531 C   0  0  0  0  0  0
  -21.9913   -9.0246   20.4636 C   0  0  0  0  0  0
  -22.7222  -10.2137   20.3069 C   0  0  0  0  0  0
  -21.6845   -6.0773   22.5285 C   0  0  0  0  0  0
  -21.4009   -6.5669   23.8223 C   0  0  0  0  0  0
  -21.3649   -5.6812   24.9187 C   0  0  0  0  0  0
  -21.6047   -4.3075   24.7230 C   0  0  0  0  0  0
  -21.8810   -3.8172   23.4347 C   0  0  0  0  0  0
  -21.9186   -4.7000   22.3409 C   0  0  0  0  0  0
  -22.7884  -13.5210   21.1899 C   0  0  0  0  0  0
  -22.1665   -4.2179   21.0988 F   0  0  0  0  0  0
  -21.5607   -3.4552   25.7741 F   0  0  0  0  0  0
  -30.0248  -13.3124   20.4559 N   0  0  0  0  0  0
  -26.2992  -12.9272   20.3367 N   0  0  0  0  0  0
  -25.9304  -11.6449   20.5827 N   0  0  0  0  0  0
  -22.0564  -12.8171   22.0484 N   0  0  0  0  0  0
  -25.4273  -15.1851   20.4112 N   0  0  0  0  0  0
  -31.7799  -14.7352   20.1440 O   0  0  0  0  0  0
  -21.6628   -6.8895   21.4245 O   0  0  0  0  0  0
  -22.3546  -14.5507   20.6767 O   0  0  0  0  0  0
  -24.6147  -31.8684   23.2122 C   0  0  0  0  0  0
  -25.9058  -32.4819   23.8412 C   0  0  1  0  0  0
  -27.2177  -27.4308   20.0927 C   0  0  0  0  0  0
  -25.5920  -33.8623   24.2367 N   0  0  0  0  0  0
  -23.3997  -30.4884   21.5621 C   0  0  2  0  0  0
  -24.8348  -28.9555   20.1153 C   0  0  0  0  0  0
  -22.7437  -29.4620   22.5121 C   0  0  0  0  0  0
  -18.0241  -28.1332   22.8480 C   0  0  0  0  0  0
  -24.1468  -36.7350   23.2632 C   0  0  0  0  0  0
  -25.9216  -30.8381   21.3494 C   0  0  0  0  0  0
  -25.9984  -29.4691   20.7020 C   0  0  0  0  0  0
  -27.1950  -28.7182   20.6783 C   0  0  0  0  0  0
  -26.0379  -26.9351   19.4937 C   0  0  0  0  0  0
  -24.8508  -27.6908   19.5032 C   0  0  0  0  0  0
  -23.5976  -29.8227   20.1755 C   0  0  0  0  0  0
  -25.4077  -36.3129   24.0352 C   0  0  1  0  0  0
  -20.5829  -28.3602   23.1374 C   0  0  2  0  0  0
  -20.6731  -26.9370   22.5421 C   0  0  0  0  0  0
  -19.5728  -26.6374   21.5193 C   0  0  0  0  0  0
  -18.1907  -26.7877   22.1615 C   0  0  0  0  0  0
  -19.1485  -28.8797   23.2900 C   0  0  0  0  0  0
  -18.9419  -30.1410   23.8895 C   0  0  0  0  0  0
  -17.6418  -30.6548   24.0546 C   0  0  0  0  0  0
  -25.9021  -34.9478   23.5164 C   0  0  0  0  0  0
  -16.5309  -29.9042   23.6315 C   0  0  0  0  0  0
  -16.7226  -28.6453   23.0351 C   0  0  0  0  0  0
  -26.4447  -31.6567   25.0732 C   0  0  0  0  0  0
  -25.3769  -31.3666   26.1540 C   0  0  0  0  0  0
  -27.0234  -30.3015   24.6035 C   0  0  0  0  0  0
  -27.6060  -32.4250   25.7506 C   0  0  0  0  0  0
  -27.5561  -37.1834   24.8466 C   0  0  0  0  0  0
  -21.4158  -29.3003   22.3858 N   0  0  0  0  0  0
  -26.4276  -37.3808   23.9412 N   0  0  0  0  0  0
  -24.6662  -31.0786   22.1002 N   0  0  0  0  0  0
  -23.4233  -28.8223   23.3190 O   0  0  0  0  0  0
  -28.3828  -26.6922   20.1149 O   0  0  0  0  0  0
  -26.5588  -34.8916   22.4731 O   0  0  0  0  0  0
  -23.5334  -32.1417   23.7539 O   0  0  0  0  0  0
  -30.8773  -17.5110   22.0523 C   0  0  0  0  0  0
  -29.3753  -19.0345   20.4032 C   0  0  0  0  0  0
  -30.0414  -16.8989   21.0878 C   0  0  0  0  0  0
  -30.2203  -19.6304   21.3752 C   0  0  0  0  0  0
  -31.3816  -21.4502   18.6702 C   0  0  0  0  0  0
  -31.7140  -23.7893   19.4578 C   0  0  0  0  0  0
  -28.0403  -22.8295   22.1370 C   0  0  0  0  0  0
  -29.3468  -24.7979   21.2587 C   0  0  0  0  0  0
  -28.2575  -25.2651   20.2707 C   0  0  0  0  0  0
  -31.3695  -22.3674   19.9097 C   0  0  0  0  0  0
  -29.4419  -23.2837   21.6707 C   0  0  2  0  0  0
  -30.0576  -22.1404   20.7493 C   0  0  2  0  0  0
  -29.2841  -17.6807   20.2660 N   0  0  0  0  0  0
  -30.9723  -18.8587   22.1901 N   0  0  0  0  0  0
  -29.8770  -15.4844   21.1353 N   0  0  0  0  0  0
  -30.3428  -21.0051   21.6433 N   0  0  0  0  0  0
  -31.4708  -12.4687   19.1240 H   0  0  0  0  0  0
  -30.3869  -11.3220   19.8497 H   0  0  0  0  0  0
  -29.7375  -11.7153   17.4767 H   0  0  0  0  0  0
  -29.6551  -13.4446   17.7480 H   0  0  0  0  0  0
  -27.8399  -11.2797   18.8660 H   0  0  0  0  0  0
  -27.3557  -12.5647   17.8028 H   0  0  0  0  0  0
  -27.7017  -14.2350   19.5601 H   0  0  0  0  0  0
  -28.6886  -11.9453   21.3387 H   0  0  0  0  0  0
  -28.4359  -13.5624   21.8850 H   0  0  0  0  0  0
  -25.2767   -9.5687   22.4780 H   0  0  0  0  0  0
  -24.0026   -7.4611   22.7445 H   0  0  0  0  0  0
  -21.0836   -8.8791   19.8928 H   0  0  0  0  0  0
  -22.3685  -10.9719   19.6202 H   0  0  0  0  0  0
  -21.2013   -7.6170   23.9749 H   0  0  0  0  0  0
  -21.1468   -6.0540   25.9096 H   0  0  0  0  0  0
  -22.0595   -2.7637   23.2839 H   0  0  0  0  0  0
  -22.4182  -11.9801   22.4790 H   0  0  0  0  0  0
  -21.1215  -13.1188   22.2781 H   0  0  0  0  0  0
  -24.6500  -15.8280   20.5234 H   0  0  0  0  0  0
  -26.2677  -15.6386   20.0726 H   0  0  0  0  0  0
  -26.7162  -32.5517   23.1206 H   0  0  0  0  0  0
  -25.0072  -33.9779   25.0502 H   0  0  0  0  0  0
  -22.6848  -31.3029   21.4349 H   0  0  0  0  0  0
  -23.3706  -35.9707   23.3292 H   0  0  0  0  0  0
  -24.3589  -36.8964   22.2050 H   0  0  0  0  0  0
  -23.7234  -37.6573   23.6627 H   0  0  0  0  0  0
  -26.0101  -31.5977   20.5710 H   0  0  0  0  0  0
  -26.8224  -30.9107   21.9479 H   0  0  0  0  0  0
  -28.0953  -29.1179   21.1259 H   0  0  0  0  0  0
  -26.0194  -25.9651   19.0168 H   0  0  0  0  0  0
  -23.9607  -27.2903   19.0372 H   0  0  0  0  0  0
  -23.6909  -30.5966   19.4128 H   0  0  0  0  0  0
  -22.7166  -29.2427   19.8948 H   0  0  0  0  0  0
  -25.1232  -36.2021   25.0846 H   0  0  0  0  0  0
  -20.9806  -28.3086   24.1533 H   0  0  0  0  0  0
  -20.5629  -26.2203   23.3580 H   0  0  0  0  0  0
  -21.6616  -26.7442   22.1245 H   0  0  0  0  0  0
  -19.6918  -25.6302   21.1192 H   0  0  0  0  0  0
  -19.6649  -27.3214   20.6746 H   0  0  0  0  0  0
  -17.4190  -26.6577   21.4013 H   0  0  0  0  0  0
  -18.0325  -26.0000   22.8993 H   0  0  0  0  0  0
  -19.7907  -30.7205   24.2265 H   0  0  0  0  0  0
  -17.4985  -31.6228   24.5163 H   0  0  0  0  0  0
  -15.5321  -30.2959   23.7620 H   0  0  0  0  0  0
  -15.8621  -28.0769   22.7088 H   0  0  0  0  0  0
  -24.5946  -30.6966   25.7928 H   0  0  0  0  0  0
  -24.8934  -32.2798   26.5017 H   0  0  0  0  0  0
  -25.8180  -30.8863   27.0291 H   0  0  0  0  0  0
  -26.2716  -29.6860   24.1065 H   0  0  0  0  0  0
  -27.3993  -29.7154   25.4431 H   0  0  0  0  0  0
  -27.8554  -30.4340   23.9127 H   0  0  0  0  0  0
  -27.2710  -33.3544   26.2116 H   0  0  0  0  0  0
  -28.3858  -32.6823   25.0334 H   0  0  0  0  0  0
  -28.0728  -31.8356   26.5410 H   0  0  0  0  0  0
  -28.2613  -38.0089   24.7512 H   0  0  0  0  0  0
  -28.1041  -36.2668   24.6292 H   0  0  0  0  0  0
  -27.2335  -37.1479   25.8879 H   0  0  0  0  0  0
  -20.9346  -29.8732   21.7072 H   0  0  0  0  0  0
  -26.0183  -38.2901   24.1390 H   0  0  0  0  0  0
  -31.4255  -16.9241   22.7751 H   0  0  0  0  0  0
  -28.7482  -19.6300   19.7551 H   0  0  0  0  0  0
  -32.3471  -21.4835   18.1599 H   0  0  0  0  0  0
  -30.6268  -21.7513   17.9436 H   0  0  0  0  0  0
  -31.1903  -20.4096   18.9254 H   0  0  0  0  0  0
  -32.5765  -23.7904   18.7928 H   0  0  0  0  0  0
  -32.0141  -24.4036   20.3057 H   0  0  0  0  0  0
  -30.8900  -24.2624   18.9248 H   0  0  0  0  0  0
  -27.5548  -23.5732   22.7674 H   0  0  0  0  0  0
  -28.0676  -21.9016   22.7110 H   0  0  0  0  0  0
  -27.3962  -22.6552   21.2726 H   0  0  0  0  0  0
  -29.1609  -25.3519   22.1809 H   0  0  0  0  0  0
  -30.2891  -25.2207   20.9524 H   0  0  0  0  0  0
  -27.2834  -24.9951   20.6810 H   0  0  0  0  0  0
  -28.3471  -24.7712   19.3055 H   0  0  0  0  0  0
  -32.2280  -22.0681   20.5120 H   0  0  0  0  0  0
  -30.0652  -23.3262   22.5682 H   0  0  0  0  0  0
  -29.2757  -21.8507   20.0426 H   0  0  0  0  0  0
  -28.9706  -15.1720   21.4424 H   0  0  0  0  0  0
  -31.0462  -21.2119   22.3437 H   0  0  0  0  0  0
  1 25  1  0  0  0
  1 30  2  0  0  0
  1 85  1  0  0  0
  2  3  1  0  0  0
  2 25  1  0  0  0
  2 87  1  0  0  0
  2 88  1  0  0  0
  3  4  1  0  0  0
  3 89  1  0  0  0
  3 90  1  0  0  0
  4  5  1  0  0  0
  4 91  1  0  0  0
  4 92  1  0  0  0
  5  6  1  0  0  0
  5 26  1  0  0  0
  5 93  1  0  0  0
  6 25  1  0  0  0
  6 94  1  0  0  0
  6 95  1  0  0  0
  7  8  2  0  0  0
  7 26  1  0  0  0
  7 29  1  0  0  0
  8  9  1  0  0  0
  8 22  1  0  0  0
  9 10  1  0  0  0
  9 27  2  0  0  0
 10 11  2  0  0  0
 10 15  1  0  0  0
 11 12  1  0  0  0
 11 96  1  0  0  0
 12 13  2  0  0  0
 12 97  1  0  0  0
 13 14  1  0  0  0
 13 31  1  0  0  0
 14 15  2  0  0  0
 14 98  1  0  0  0
 15 99  1  0  0  0
 16 17  2  0  0  0
 16 21  1  0  0  0
 16 31  1  0  0  0
 17 18  1  0  0  0
 17100  1  0  0  0
 18 19  2  0  0  0
 18101  1  0  0  0
 19 20  1  0  0  0
 19 24  1  0  0  0
 20 21  2  0  0  0
 20102  1  0  0  0
 21 23  1  0  0  0
 22 28  1  0  0  0
 22 32  2  0  0  0
 26 27  1  0  0  0
 28103  1  0  0  0
 28104  1  0  0  0
 29105  1  0  0  0
 29106  1  0  0  0
 33 34  1  0  0  0
 33 66  1  0  0  0
 33 70  2  0  0  0
 34 36  1  0  0  0
 34 59  1  0  0  0
 34107  1  0  0  0
 35 44  2  0  0  0
 35 45  1  0  0  0
 35 68  1  0  0  0
 36 56  1  0  0  0
 36108  1  0  0  0
 37 39  1  0  0  0
 37 47  1  0  0  0
 37 66  1  0  0  0
 37109  1  0  0  0
 38 43  2  0  0  0
 38 46  1  0  0  0
 38 47  1  0  0  0
 39 64  1  0  0  0
 39 67  2  0  0  0
 40 52  1  0  0  0
 40 53  2  0  0  0
 40 58  1  0  0  0
 41110  1  0  0  0
 41111  1  0  0  0
 41112  1  0  0  0
 41 48  1  0  0  0
 42 43  1  0  0  0
 42 66  1  0  0  0
 42113  1  0  0  0
 42114  1  0  0  0
 43 44  1  0  0  0
 44115  1  0  0  0
 45 46  2  0  0  0
 45116  1  0  0  0
 46117  1  0  0  0
 47118  1  0  0  0
 47119  1  0  0  0
 48 56  1  0  0  0
 48 65  1  0  0  0
 48120  1  0  0  0
 49 50  1  0  0  0
 49 53  1  0  0  0
 49 64  1  0  0  0
 49121  1  0  0  0
 50 51  1  0  0  0
 50122  1  0  0  0
 50123  1  0  0  0
 51 52  1  0  0  0
 51124  1  0  0  0
 51125  1  0  0  0
 52126  1  0  0  0
 52127  1  0  0  0
 53 54  1  0  0  0
 54 55  2  0  0  0
 54128  1  0  0  0
 55 57  1  0  0  0
 55129  1  0  0  0
 56 69  2  0  0  0
 57 58  2  0  0  0
 57130  1  0  0  0
 58131  1  0  0  0
 59 60  1  0  0  0
 59 61  1  0  0  0
 59 62  1  0  0  0
 60132  1  0  0  0
 60133  1  0  0  0
 60134  1  0  0  0
 61135  1  0  0  0
 61136  1  0  0  0
 61137  1  0  0  0
 62138  1  0  0  0
 62139  1  0  0  0
 62140  1  0  0  0
 63 65  1  0  0  0
 63141  1  0  0  0
 63142  1  0  0  0
 63143  1  0  0  0
 64144  1  0  0  0
 65145  1  0  0  0
 68 79  1  0  0  0
 71 73  2  0  0  0
 71 84  1  0  0  0
 71146  1  0  0  0
 72 74  1  0  0  0
 72 83  2  0  0  0
 72147  1  0  0  0
 73 83  1  0  0  0
 73 85  1  0  0  0
 74 84  2  0  0  0
 74 86  1  0  0  0
 75148  1  0  0  0
 75149  1  0  0  0
 75150  1  0  0  0
 75 80  1  0  0  0
 76 80  1  0  0  0
 76151  1  0  0  0
 76152  1  0  0  0
 76153  1  0  0  0
 77154  1  0  0  0
 77155  1  0  0  0
 77156  1  0  0  0
 77 81  1  0  0  0
 78 79  1  0  0  0
 78 81  1  0  0  0
 78157  1  0  0  0
 78158  1  0  0  0
 79159  1  0  0  0
 79160  1  0  0  0
 80 82  1  0  0  0
 80161  1  0  0  0
 81 82  1  0  0  0
 81162  1  0  0  0
 82 86  1  0  0  0
 82163  1  0  0  0
 85164  1  0  0  0
 86165  1  0  0  0
M  ISO  4   1 100  68 101  79 101  85 100
M  END
> <chiral flag>
0

> <version>
0

> <s_m_source_file>
/data/baiqing/PycharmProjects/Reinvent-master-3.2/result/LINK_invent/BTK/process_docking_weight1_custom_product_contain_oxygen_bond_distance_aromatic_linkinvent_7_9_3/rearranged_h_0197.sdf

> <i_m_source_file_index>
60

> <r_mmod_Potential_Energy-OPLS-2005>
5.41226530075073

> <r_mmod_Stretch_Energy-OPLS-2005>
48.3039894104004

> <r_mmod_Bend_Energy-OPLS-2005>
168.734115600586

> <r_mmod_Torsional_Energy-OPLS-2005>
271.716491699219

> <r_mmod_Improper_Torsional_Energy-OPLS-2005>
6.1036262512207

> <r_mmod_Van_der_Waal_Energy-OPLS-2005>
164.70866394043

> <r_mmod_Electrostatic_Energy-OPLS-2005>
-463.420562744141

> <r_mmod_Solvation_Energy-OPLS-2005>
-208.368408203125

> <b_mmod_Minimization_Converged-OPLS-2005>
0

> <r_mmod_RMS_Derivative-OPLS-2005>
5.59012269973755

$$$$
60
                    3D
 Structure written by MMmdl.
151159  0  0  1  0            999 V2000
  -30.5977  -14.7237   20.4772 C   0  0  0  0  0  0
  -30.4382  -12.4410   19.4736 C   0  0  0  0  0  0
  -29.5145  -12.5190   18.2370 C   0  0  0  0  0  0
  -28.0380  -12.3458   18.6446 C   0  0  0  0  0  0
  -27.6494  -13.2278   19.8612 C   0  0  2  0  0  0
  -28.6922  -13.1238   20.9965 C   0  0  0  0  0  0
  -25.2540  -13.8191   20.5699 C   0  0  0  0  0  0
  -24.1816  -13.0445   20.9197 C   0  0  0  0  0  0
  -24.6397  -11.6919   20.8737 C   0  0  0  0  0  0
  -23.9073  -10.4297   21.0400 C   0  0  0  0  0  0
  -24.3620   -9.4211   21.9180 C   0  0  0  0  0  0
  -23.6291   -8.2251   22.0755 C   0  0  0  0  0  0
  -22.4273   -8.0290   21.3549 C   0  0  0  0  0  0
  -21.9910   -9.0263   20.4651 C   0  0  0  0  0  0
  -22.7245  -10.2138   20.3054 C   0  0  0  0  0  0
  -21.6855   -6.0738   22.5277 C   0  0  0  0  0  0
  -21.4017   -6.5638   23.8211 C   0  0  0  0  0  0
  -21.3660   -5.6790   24.9172 C   0  0  0  0  0  0
  -21.6041   -4.3055   24.7224 C   0  0  0  0  0  0
  -21.8819   -3.8148   23.4346 C   0  0  0  0  0  0
  -21.9192   -4.6964   22.3402 C   0  0  0  0  0  0
  -22.7836  -13.5236   21.1856 C   0  0  0  0  0  0
  -22.1662   -4.2150   21.0979 F   0  0  0  0  0  0
  -21.5626   -3.4539   25.7739 F   0  0  0  0  0  0
  -30.0009  -13.4832   20.4310 N   0  0  0  0  0  0
  -26.2969  -12.9391   20.3310 N   0  0  0  0  0  0
  -25.9330  -11.6534   20.5745 N   0  0  0  0  0  0
  -22.0470  -12.8234   22.0413 N   0  0  0  0  0  0
  -25.4249  -15.1915   20.4125 N   0  0  0  0  0  0
  -31.7575  -14.8713   20.0810 O   0  0  0  0  0  0
  -21.6639   -6.8885   21.4243 O   0  0  0  0  0  0
  -22.3524  -14.5541   20.6700 O   0  0  0  0  0  0
  -24.6306  -31.8555   23.1994 C   0  0  0  0  0  0
  -25.9135  -32.4753   23.8338 C   0  0  1  0  0  0
  -27.2208  -27.2634   20.1307 C   0  0  0  0  0  0
  -25.5934  -33.8557   24.2260 N   0  0  0  0  0  0
  -23.4272  -30.4783   21.5421 C   0  0  2  0  0  0
  -24.8761  -28.9294   20.1072 C   0  0  0  0  0  0
  -22.7502  -29.4593   22.4910 C   0  0  0  0  0  0
  -18.0290  -28.1377   22.8482 C   0  0  0  0  0  0
  -24.1491  -36.7280   23.2638 C   0  0  0  0  0  0
  -25.9735  -30.7679   21.3816 C   0  0  0  0  0  0
  -26.0457  -29.3915   20.7235 C   0  0  0  0  0  0
  -27.2183  -28.5694   20.7281 C   0  0  0  0  0  0
  -26.0331  -26.8819   19.4633 C   0  0  0  0  0  0
  -24.8757  -27.6831   19.4653 C   0  0  0  0  0  0
  -23.6457  -29.8145   20.1571 C   0  0  0  0  0  0
  -25.4115  -36.3066   24.0326 C   0  0  1  0  0  0
  -20.5893  -28.3686   23.1269 C   0  0  2  0  0  0
  -20.6776  -26.9404   22.5406 C   0  0  0  0  0  0
  -19.5752  -26.6375   21.5207 C   0  0  0  0  0  0
  -18.1933  -26.7919   22.1621 C   0  0  0  0  0  0
  -19.1544  -28.8850   23.2869 C   0  0  0  0  0  0
  -18.9465  -30.1450   23.8888 C   0  0  0  0  0  0
  -17.6466  -30.6580   24.0556 C   0  0  0  0  0  0
  -25.9059  -34.9437   23.5097 C   0  0  0  0  0  0
  -16.5358  -29.9077   23.6328 C   0  0  0  0  0  0
  -16.7276  -28.6491   23.0354 C   0  0  0  0  0  0
  -26.4503  -31.6575   25.0726 C   0  0  0  0  0  0
  -25.3728  -31.3726   26.1446 C   0  0  0  0  0  0
  -27.0350  -30.2987   24.6219 C   0  0  0  0  0  0
  -27.6057  -32.4314   25.7498 C   0  0  0  0  0  0
  -27.5579  -37.1794   24.8463 C   0  0  0  0  0  0
  -21.4207  -29.3034   22.3659 N   0  0  0  0  0  0
  -26.4289  -37.3766   23.9411 N   0  0  0  0  0  0
  -24.6957  -31.0524   22.0968 N   0  0  0  0  0  0
  -23.4205  -28.8130   23.3003 O   0  0  0  0  0  0
  -28.3119  -26.3635   20.2211 O   0  0  0  0  0  0
  -26.5632  -34.8913   22.4667 O   0  0  0  0  0  0
  -23.5457  -32.1377   23.7292 O   0  0  0  0  0  0
  -30.7717  -17.9030   19.6032 C   0  0  0  0  0  0
  -29.2944  -18.3322   21.1700 C   0  0  0  0  0  0
  -29.9532  -17.2567   20.5757 C   0  0  0  0  0  0
  -28.9868  -23.7224   20.6255 C   0  0  0  0  0  0
  -29.5406  -21.0062   21.0482 C   0  0  0  0  0  0
  -28.1096  -24.8972   19.9361 C   0  0  0  0  0  0
  -28.8678  -22.1689   20.1408 C   0  0  1  0  0  0
  -30.6359  -19.2425   19.6233 N   0  0  0  0  0  0
  -29.7241  -19.5552   20.5908 N   0  0  0  0  0  0
  -29.8148  -15.8034   20.8475 N   0  0  0  0  0  0
  -27.4920  -21.8534   19.9919 O   0  0  0  0  0  0
  -31.4798  -12.5671   19.1733 H   0  0  0  0  0  0
  -30.3797  -11.4542   19.9351 H   0  0  0  0  0  0
  -29.7923  -11.7581   17.5062 H   0  0  0  0  0  0
  -29.6478  -13.4811   17.7403 H   0  0  0  0  0  0
  -27.8832  -11.2940   18.8870 H   0  0  0  0  0  0
  -27.3859  -12.5624   17.7976 H   0  0  0  0  0  0
  -27.6554  -14.2571   19.5022 H   0  0  0  0  0  0
  -28.7199  -12.1122   21.4036 H   0  0  0  0  0  0
  -28.4247  -13.7748   21.8302 H   0  0  0  0  0  0
  -25.2760   -9.5686   22.4763 H   0  0  0  0  0  0
  -23.9999   -7.4640   22.7472 H   0  0  0  0  0  0
  -21.0842   -8.8780   19.8957 H   0  0  0  0  0  0
  -22.3697  -10.9676   19.6166 H   0  0  0  0  0  0
  -21.2013   -7.6146   23.9717 H   0  0  0  0  0  0
  -21.1480   -6.0519   25.9076 H   0  0  0  0  0  0
  -22.0597   -2.7610   23.2845 H   0  0  0  0  0  0
  -22.4071  -11.9894   22.4808 H   0  0  0  0  0  0
  -21.1090  -13.1269   22.2608 H   0  0  0  0  0  0
  -24.6595  -15.8474   20.5254 H   0  0  0  0  0  0
  -26.2723  -15.6293   20.0737 H   0  0  0  0  0  0
  -26.7202  -32.5401   23.1081 H   0  0  0  0  0  0
  -25.0074  -33.9698   25.0401 H   0  0  0  0  0  0
  -22.7225  -31.2998   21.3974 H   0  0  0  0  0  0
  -23.3756  -35.9609   23.3292 H   0  0  0  0  0  0
  -24.3583  -36.8914   22.2054 H   0  0  0  0  0  0
  -23.7246  -37.6478   23.6673 H   0  0  0  0  0  0
  -26.1165  -31.5283   20.6125 H   0  0  0  0  0  0
  -26.8494  -30.8149   22.0167 H   0  0  0  0  0  0
  -28.1086  -28.9146   21.2347 H   0  0  0  0  0  0
  -25.9638  -25.9402   18.9404 H   0  0  0  0  0  0
  -23.9847  -27.3286   18.9654 H   0  0  0  0  0  0
  -23.7694  -30.5918   19.4021 H   0  0  0  0  0  0
  -22.7643  -29.2474   19.8518 H   0  0  0  0  0  0
  -25.1295  -36.1913   25.0818 H   0  0  0  0  0  0
  -20.9984  -28.3263   24.1390 H   0  0  0  0  0  0
  -20.5667  -26.2296   23.3608 H   0  0  0  0  0  0
  -21.6646  -26.7424   22.1207 H   0  0  0  0  0  0
  -19.6915  -25.6286   21.1237 H   0  0  0  0  0  0
  -19.6686  -27.3185   20.6737 H   0  0  0  0  0  0
  -17.4199  -26.6660   21.4027 H   0  0  0  0  0  0
  -18.0336  -26.0063   22.9019 H   0  0  0  0  0  0
  -19.7944  -30.7266   24.2256 H   0  0  0  0  0  0
  -17.5021  -31.6262   24.5154 H   0  0  0  0  0  0
  -15.5358  -30.2977   23.7654 H   0  0  0  0  0  0
  -15.8673  -28.0806   22.7085 H   0  0  0  0  0  0
  -24.5905  -30.7075   25.7773 H   0  0  0  0  0  0
  -24.8921  -32.2897   26.4860 H   0  0  0  0  0  0
  -25.8044  -30.8907   27.0228 H   0  0  0  0  0  0
  -26.2935  -29.6729   24.1238 H   0  0  0  0  0  0
  -27.4019  -29.7256   25.4745 H   0  0  0  0  0  0
  -27.8819  -30.4251   23.9471 H   0  0  0  0  0  0
  -27.2669  -33.3622   26.2059 H   0  0  0  0  0  0
  -28.3875  -32.6859   25.0330 H   0  0  0  0  0  0
  -28.0714  -31.8450   26.5429 H   0  0  0  0  0  0
  -28.2587  -38.0101   24.7522 H   0  0  0  0  0  0
  -28.1086  -36.2634   24.6271 H   0  0  0  0  0  0
  -27.2301  -37.1421   25.8867 H   0  0  0  0  0  0
  -20.9392  -29.8757   21.6867 H   0  0  0  0  0  0
  -26.0163  -38.2838   24.1416 H   0  0  0  0  0  0
  -31.4534  -17.4571   18.8922 H   0  0  0  0  0  0
  -28.5884  -18.3413   21.9886 H   0  0  0  0  0  0
  -28.7774  -23.7557   21.6952 H   0  0  0  0  0  0
  -30.0365  -24.0041   20.5419 H   0  0  0  0  0  0
  -29.0156  -20.9712   22.0033 H   0  0  0  0  0  0
  -30.5395  -21.3564   21.3101 H   0  0  0  0  0  0
  -27.0853  -24.6346   20.1984 H   0  0  0  0  0  0
  -28.1829  -24.7793   18.8547 H   0  0  0  0  0  0
  -29.3188  -22.1085   19.1492 H   0  0  0  0  0  0
  -28.9488  -15.5327   21.2890 H   0  0  0  0  0  0
  -27.0860  -21.8674   20.8538 H   0  0  0  0  0  0
  1 25  1  0  0  0
  1 30  2  0  0  0
  1 80  1  0  0  0
  2  3  1  0  0  0
  2 25  1  0  0  0
  2 82  1  0  0  0
  2 83  1  0  0  0
  3  4  1  0  0  0
  3 84  1  0  0  0
  3 85  1  0  0  0
  4  5  1  0  0  0
  4 86  1  0  0  0
  4 87  1  0  0  0
  5  6  1  0  0  0
  5 26  1  0  0  0
  5 88  1  0  0  0
  6 25  1  0  0  0
  6 89  1  0  0  0
  6 90  1  0  0  0
  7  8  2  0  0  0
  7 26  1  0  0  0
  7 29  1  0  0  0
  8  9  1  0  0  0
  8 22  1  0  0  0
  9 10  1  0  0  0
  9 27  2  0  0  0
 10 11  2  0  0  0
 10 15  1  0  0  0
 11 12  1  0  0  0
 11 91  1  0  0  0
 12 13  2  0  0  0
 12 92  1  0  0  0
 13 14  1  0  0  0
 13 31  1  0  0  0
 14 15  2  0  0  0
 14 93  1  0  0  0
 15 94  1  0  0  0
 16 17  2  0  0  0
 16 21  1  0  0  0
 16 31  1  0  0  0
 17 18  1  0  0  0
 17 95  1  0  0  0
 18 19  2  0  0  0
 18 96  1  0  0  0
 19 20  1  0  0  0
 19 24  1  0  0  0
 20 21  2  0  0  0
 20 97  1  0  0  0
 21 23  1  0  0  0
 22 28  1  0  0  0
 22 32  2  0  0  0
 26 27  1  0  0  0
 28 98  1  0  0  0
 28 99  1  0  0  0
 29100  1  0  0  0
 29101  1  0  0  0
 33 34  1  0  0  0
 33 66  1  0  0  0
 33 70  2  0  0  0
 34 36  1  0  0  0
 34 59  1  0  0  0
 34102  1  0  0  0
 35 44  2  0  0  0
 35 45  1  0  0  0
 35 68  1  0  0  0
 36 56  1  0  0  0
 36103  1  0  0  0
 37 39  1  0  0  0
 37 47  1  0  0  0
 37 66  1  0  0  0
 37104  1  0  0  0
 38 43  2  0  0  0
 38 46  1  0  0  0
 38 47  1  0  0  0
 39 64  1  0  0  0
 39 67  2  0  0  0
 40 52  1  0  0  0
 40 53  2  0  0  0
 40 58  1  0  0  0
 41105  1  0  0  0
 41106  1  0  0  0
 41107  1  0  0  0
 41 48  1  0  0  0
 42 43  1  0  0  0
 42 66  1  0  0  0
 42108  1  0  0  0
 42109  1  0  0  0
 43 44  1  0  0  0
 44110  1  0  0  0
 45 46  2  0  0  0
 45111  1  0  0  0
 46112  1  0  0  0
 47113  1  0  0  0
 47114  1  0  0  0
 48 56  1  0  0  0
 48 65  1  0  0  0
 48115  1  0  0  0
 49 50  1  0  0  0
 49 53  1  0  0  0
 49 64  1  0  0  0
 49116  1  0  0  0
 50 51  1  0  0  0
 50117  1  0  0  0
 50118  1  0  0  0
 51 52  1  0  0  0
 51119  1  0  0  0
 51120  1  0  0  0
 52121  1  0  0  0
 52122  1  0  0  0
 53 54  1  0  0  0
 54 55  2  0  0  0
 54123  1  0  0  0
 55 57  1  0  0  0
 55124  1  0  0  0
 56 69  2  0  0  0
 57 58  2  0  0  0
 57125  1  0  0  0
 58126  1  0  0  0
 59 60  1  0  0  0
 59 61  1  0  0  0
 59 62  1  0  0  0
 60127  1  0  0  0
 60128  1  0  0  0
 60129  1  0  0  0
 61130  1  0  0  0
 61131  1  0  0  0
 61132  1  0  0  0
 62133  1  0  0  0
 62134  1  0  0  0
 62135  1  0  0  0
 63 65  1  0  0  0
 63136  1  0  0  0
 63137  1  0  0  0
 63138  1  0  0  0
 64139  1  0  0  0
 65140  1  0  0  0
 68 76  1  0  0  0
 71 73  1  0  0  0
 71 78  2  0  0  0
 71141  1  0  0  0
 72 73  2  0  0  0
 72 79  1  0  0  0
 72142  1  0  0  0
 73 80  1  0  0  0
 74 76  1  0  0  0
 74 77  1  0  0  0
 74143  1  0  0  0
 74144  1  0  0  0
 75 77  1  0  0  0
 75 79  1  0  0  0
 75145  1  0  0  0
 75146  1  0  0  0
 76147  1  0  0  0
 76148  1  0  0  0
 77 81  1  0  0  0
 77149  1  0  0  0
 78 79  1  0  0  0
 80150  1  0  0  0
 81151  1  0  0  0
M  ISO  4   1 100  68 101  76 101  80 100
M  END
> <chiral flag>
0

> <version>
0

> <s_m_source_file>
/data/baiqing/PycharmProjects/Reinvent-master-3.2/result/LINK_invent/BTK/process_docking_weight1_custom_product_contain_oxygen_bond_distance_aromatic_linkinvent_7_9_3/rearranged_h_0197.sdf

> <i_m_source_file_index>
61

> <r_mmod_Potential_Energy-OPLS-2005>
142.535018920898

> <r_mmod_Stretch_Energy-OPLS-2005>
118.53653717041

> <r_mmod_Bend_Energy-OPLS-2005>
173.806503295898

> <r_mmod_Torsional_Energy-OPLS-2005>
225.137451171875

> <r_mmod_Improper_Torsional_Energy-OPLS-2005>
4.74770784378052

> <r_mmod_Van_der_Waal_Energy-OPLS-2005>
118.517921447754

> <r_mmod_Electrostatic_Energy-OPLS-2005>
-327.47998046875

> <r_mmod_Solvation_Energy-OPLS-2005>
-251.29167175293

> <b_mmod_Minimization_Converged-OPLS-2005>
0

> <r_mmod_RMS_Derivative-OPLS-2005>
0.743552803993225

$$$$
61
                    3D
 Structure written by MMmdl.
163171  0  0  1  0            999 V2000
  -30.6652  -14.5569   20.5232 C   0  0  0  0  0  0
  -30.4267  -12.3439   19.4434 C   0  0  0  0  0  0
  -29.5005  -12.4991   18.2180 C   0  0  0  0  0  0
  -28.0209  -12.3560   18.6276 C   0  0  0  0  0  0
  -27.6554  -13.2144   19.8682 C   0  0  2  0  0  0
  -28.6979  -13.0370   20.9957 C   0  0  0  0  0  0
  -25.2559  -13.8176   20.5685 C   0  0  0  0  0  0
  -24.1825  -13.0441   20.9195 C   0  0  0  0  0  0
  -24.6390  -11.6911   20.8745 C   0  0  0  0  0  0
  -23.9065  -10.4291   21.0406 C   0  0  0  0  0  0
  -24.3619   -9.4204   21.9181 C   0  0  0  0  0  0
  -23.6297   -8.2239   22.0749 C   0  0  0  0  0  0
  -22.4277   -8.0281   21.3548 C   0  0  0  0  0  0
  -21.9914   -9.0248   20.4642 C   0  0  0  0  0  0
  -22.7241  -10.2129   20.3050 C   0  0  0  0  0  0
  -21.6851   -6.0738   22.5282 C   0  0  0  0  0  0
  -21.4006   -6.5641   23.8216 C   0  0  0  0  0  0
  -21.3658   -5.6793   24.9180 C   0  0  0  0  0  0
  -21.6044   -4.3054   24.7228 C   0  0  0  0  0  0
  -21.8820   -3.8147   23.4349 C   0  0  0  0  0  0
  -21.9190   -4.6966   22.3405 C   0  0  0  0  0  0
  -22.7847  -13.5226   21.1869 C   0  0  0  0  0  0
  -22.1662   -4.2153   21.0983 F   0  0  0  0  0  0
  -21.5631   -3.4535   25.7738 F   0  0  0  0  0  0
  -30.0228  -13.3546   20.4388 N   0  0  0  0  0  0
  -26.2989  -12.9357   20.3337 N   0  0  0  0  0  0
  -25.9319  -11.6512   20.5775 N   0  0  0  0  0  0
  -22.0490  -12.8205   22.0418 N   0  0  0  0  0  0
  -25.4272  -15.1896   20.4096 N   0  0  0  0  0  0
  -31.8239  -14.6933   20.1158 O   0  0  0  0  0  0
  -21.6643   -6.8877   21.4241 O   0  0  0  0  0  0
  -22.3528  -14.5531   20.6718 O   0  0  0  0  0  0
  -24.6188  -31.8641   23.2076 C   0  0  0  0  0  0
  -25.9057  -32.4802   23.8385 C   0  0  1  0  0  0
  -27.2313  -27.3957   20.1124 C   0  0  0  0  0  0
  -25.5899  -33.8596   24.2325 N   0  0  0  0  0  0
  -23.4097  -30.4887   21.5471 C   0  0  2  0  0  0
  -24.8596  -28.9492   20.1120 C   0  0  0  0  0  0
  -22.7424  -29.4650   22.4947 C   0  0  0  0  0  0
  -18.0274  -28.1378   22.8485 C   0  0  0  0  0  0
  -24.1482  -36.7283   23.2642 C   0  0  0  0  0  0
  -25.9433  -30.8185   21.3676 C   0  0  0  0  0  0
  -26.0223  -29.4500   20.7151 C   0  0  0  0  0  0
  -27.2151  -28.6832   20.7091 C   0  0  0  0  0  0
  -26.0569  -26.9209   19.4958 C   0  0  0  0  0  0
  -24.8743  -27.6855   19.4957 C   0  0  0  0  0  0
  -23.6225  -29.8194   20.1617 C   0  0  0  0  0  0
  -25.4104  -36.3088   24.0342 C   0  0  1  0  0  0
  -20.5869  -28.3669   23.1298 C   0  0  2  0  0  0
  -20.6776  -26.9400   22.5419 C   0  0  0  0  0  0
  -19.5759  -26.6381   21.5215 C   0  0  0  0  0  0
  -18.1932  -26.7930   22.1609 C   0  0  0  0  0  0
  -19.1527  -28.8839   23.2898 C   0  0  0  0  0  0
  -18.9461  -30.1441   23.8904 C   0  0  0  0  0  0
  -17.6464  -30.6590   24.0567 C   0  0  0  0  0  0
  -25.9028  -34.9457   23.5127 C   0  0  0  0  0  0
  -16.5351  -29.9096   23.6327 C   0  0  0  0  0  0
  -16.7264  -28.6512   23.0344 C   0  0  0  0  0  0
  -26.4482  -31.6584   25.0716 C   0  0  0  0  0  0
  -25.3750  -31.3690   26.1464 C   0  0  0  0  0  0
  -27.0328  -30.3026   24.6099 C   0  0  0  0  0  0
  -27.6055  -32.4300   25.7482 C   0  0  0  0  0  0
  -27.5577  -37.1793   24.8469 C   0  0  0  0  0  0
  -21.4145  -29.3044   22.3698 N   0  0  0  0  0  0
  -26.4285  -37.3777   23.9422 N   0  0  0  0  0  0
  -24.6758  -31.0720   22.0985 N   0  0  0  0  0  0
  -23.4182  -28.8193   23.3005 O   0  0  0  0  0  0
  -28.3476  -26.5780   20.1231 O   0  0  0  0  0  0
  -26.5596  -34.8920   22.4693 O   0  0  0  0  0  0
  -23.5371  -32.1388   23.7456 O   0  0  0  0  0  0
  -31.0726  -18.9559   19.9312 C   0  0  0  0  0  0
  -29.8619  -19.5314   20.3052 C   0  0  0  0  0  0
  -30.0771  -17.0253   20.6954 C   0  0  0  0  0  0
  -32.1825  -19.7333   19.3300 C   0  0  0  0  0  0
  -25.6082  -19.8473   18.0581 C   0  0  0  0  0  0
  -26.9228  -20.5074   18.4933 C   0  0  0  0  0  0
  -28.9797  -24.1392   20.7636 C   0  0  0  0  0  0
  -26.9476  -20.8088   20.0030 C   0  0  0  0  0  0
  -28.1206  -23.0628   20.0319 C   0  0  0  0  0  0
  -28.2753  -25.5044   21.0952 C   0  0  0  0  0  0
  -28.2078  -21.5579   20.5088 C   0  0  2  0  0  0
  -31.1694  -17.5640   20.1469 N   0  0  0  0  0  0
  -33.2907  -19.2223   18.9853 N   0  0  0  0  0  0
  -29.4745  -20.9024   20.1203 N   0  0  0  0  0  0
  -29.9066  -15.6088   20.9358 N   0  0  0  0  0  0
  -28.8534  -18.2708   21.0422 S   0  0  0  0  0  0
  -31.4700  -12.4471   19.1402 H   0  0  0  0  0  0
  -30.3415  -11.3420   19.8661 H   0  0  0  0  0  0
  -29.7529  -11.7546   17.4605 H   0  0  0  0  0  0
  -29.6606  -13.4728   17.7530 H   0  0  0  0  0  0
  -27.8384  -11.3026   18.8415 H   0  0  0  0  0  0
  -27.3708  -12.6102   17.7895 H   0  0  0  0  0  0
  -27.6857  -14.2556   19.5460 H   0  0  0  0  0  0
  -28.6888  -12.0105   21.3648 H   0  0  0  0  0  0
  -28.4553  -13.6615   21.8570 H   0  0  0  0  0  0
  -25.2766   -9.5681   22.4756 H   0  0  0  0  0  0
  -24.0013   -7.4623   22.7459 H   0  0  0  0  0  0
  -21.0853   -8.8755   19.8942 H   0  0  0  0  0  0
  -22.3698  -10.9662   19.6155 H   0  0  0  0  0  0
  -21.1994   -7.6148   23.9723 H   0  0  0  0  0  0
  -21.1478   -6.0522   25.9087 H   0  0  0  0  0  0
  -22.0601   -2.7607   23.2846 H   0  0  0  0  0  0
  -22.4110  -11.9863   22.4796 H   0  0  0  0  0  0
  -21.1098  -13.1210   22.2615 H   0  0  0  0  0  0
  -24.6567  -15.8405   20.5166 H   0  0  0  0  0  0
  -26.2682  -15.6276   20.0563 H   0  0  0  0  0  0
  -26.7128  -32.5503   23.1152 H   0  0  0  0  0  0
  -25.0099  -33.9767   25.0502 H   0  0  0  0  0  0
  -22.7020  -31.3080   21.4057 H   0  0  0  0  0  0
  -23.3754  -35.9604   23.3300 H   0  0  0  0  0  0
  -24.3593  -36.8902   22.2061 H   0  0  0  0  0  0
  -23.7218  -37.6480   23.6652 H   0  0  0  0  0  0
  -26.0656  -31.5824   20.5983 H   0  0  0  0  0  0
  -26.8280  -30.8700   21.9904 H   0  0  0  0  0  0
  -28.1106  -29.0648   21.1810 H   0  0  0  0  0  0
  -26.0578  -25.9461   19.0284 H   0  0  0  0  0  0
  -23.9842  -27.2947   19.0218 H   0  0  0  0  0  0
  -23.7360  -30.5942   19.4032 H   0  0  0  0  0  0
  -22.7455  -29.2422   19.8609 H   0  0  0  0  0  0
  -25.1290  -36.1942   25.0833 H   0  0  0  0  0  0
  -20.9969  -28.3239   24.1412 H   0  0  0  0  0  0
  -20.5678  -26.2274   23.3606 H   0  0  0  0  0  0
  -21.6647  -26.7455   22.1203 H   0  0  0  0  0  0
  -19.6927  -25.6293   21.1240 H   0  0  0  0  0  0
  -19.6711  -27.3201   20.6753 H   0  0  0  0  0  0
  -17.4207  -26.6665   21.4010 H   0  0  0  0  0  0
  -18.0338  -26.0081   22.9008 H   0  0  0  0  0  0
  -19.7943  -30.7254   24.2275 H   0  0  0  0  0  0
  -17.5029  -31.6273   24.5170 H   0  0  0  0  0  0
  -15.5351  -30.3011   23.7664 H   0  0  0  0  0  0
  -15.8652  -28.0849   22.7049 H   0  0  0  0  0  0
  -24.5917  -30.7048   25.7793 H   0  0  0  0  0  0
  -24.8952  -32.2852   26.4910 H   0  0  0  0  0  0
  -25.8105  -30.8846   27.0214 H   0  0  0  0  0  0
  -26.2881  -29.6765   24.1168 H   0  0  0  0  0  0
  -27.4144  -29.7271   25.4545 H   0  0  0  0  0  0
  -27.8692  -30.4373   23.9239 H   0  0  0  0  0  0
  -27.2681  -33.3606   26.2063 H   0  0  0  0  0  0
  -28.3860  -32.6848   25.0297 H   0  0  0  0  0  0
  -28.0720  -31.8411   26.5393 H   0  0  0  0  0  0
  -28.2584  -38.0097   24.7525 H   0  0  0  0  0  0
  -28.1086  -36.2633   24.6283 H   0  0  0  0  0  0
  -27.2304  -37.1419   25.8873 H   0  0  0  0  0  0
  -20.9296  -29.8744   21.6904 H   0  0  0  0  0  0
  -26.0166  -38.2851   24.1434 H   0  0  0  0  0  0
  -32.0155  -20.8039   19.1878 H   0  0  0  0  0  0
  -25.6159  -19.6286   16.9905 H   0  0  0  0  0  0
  -24.7543  -20.4968   18.2545 H   0  0  0  0  0  0
  -25.4414  -18.9085   18.5880 H   0  0  0  0  0  0
  -27.0672  -21.4245   17.9222 H   0  0  0  0  0  0
  -27.7549  -19.8523   18.2338 H   0  0  0  0  0  0
  -29.9133  -24.3137   20.2282 H   0  0  0  0  0  0
  -29.2766  -23.7035   21.7183 H   0  0  0  0  0  0
  -26.7943  -19.8878   20.5586 H   0  0  0  0  0  0
  -26.0637  -21.3975   20.2542 H   0  0  0  0  0  0
  -28.3001  -23.1333   18.9587 H   0  0  0  0  0  0
  -27.0831  -23.3782   20.1481 H   0  0  0  0  0  0
  -28.7518  -25.9054   21.9908 H   0  0  0  0  0  0
  -27.2458  -25.3061   21.4017 H   0  0  0  0  0  0
  -28.1639  -21.5558   21.5997 H   0  0  0  0  0  0
  -33.2707  -18.2273   19.1919 H   0  0  0  0  0  0
  -30.1333  -21.5300   19.6692 H   0  0  0  0  0  0
  -29.0091  -15.3482   21.3132 H   0  0  0  0  0  0
  1 25  1  0  0  0
  1 30  2  0  0  0
  1 85  1  0  0  0
  2  3  1  0  0  0
  2 25  1  0  0  0
  2 87  1  0  0  0
  2 88  1  0  0  0
  3  4  1  0  0  0
  3 89  1  0  0  0
  3 90  1  0  0  0
  4  5  1  0  0  0
  4 91  1  0  0  0
  4 92  1  0  0  0
  5  6  1  0  0  0
  5 26  1  0  0  0
  5 93  1  0  0  0
  6 25  1  0  0  0
  6 94  1  0  0  0
  6 95  1  0  0  0
  7  8  2  0  0  0
  7 26  1  0  0  0
  7 29  1  0  0  0
  8  9  1  0  0  0
  8 22  1  0  0  0
  9 10  1  0  0  0
  9 27  2  0  0  0
 10 11  2  0  0  0
 10 15  1  0  0  0
 11 12  1  0  0  0
 11 96  1  0  0  0
 12 13  2  0  0  0
 12 97  1  0  0  0
 13 14  1  0  0  0
 13 31  1  0  0  0
 14 15  2  0  0  0
 14 98  1  0  0  0
 15 99  1  0  0  0
 16 17  2  0  0  0
 16 21  1  0  0  0
 16 31  1  0  0  0
 17 18  1  0  0  0
 17100  1  0  0  0
 18 19  2  0  0  0
 18101  1  0  0  0
 19 20  1  0  0  0
 19 24  1  0  0  0
 20 21  2  0  0  0
 20102  1  0  0  0
 21 23  1  0  0  0
 22 28  1  0  0  0
 22 32  2  0  0  0
 26 27  1  0  0  0
 28103  1  0  0  0
 28104  1  0  0  0
 29105  1  0  0  0
 29106  1  0  0  0
 33 34  1  0  0  0
 33 66  1  0  0  0
 33 70  2  0  0  0
 34 36  1  0  0  0
 34 59  1  0  0  0
 34107  1  0  0  0
 35 44  2  0  0  0
 35 45  1  0  0  0
 35 68  1  0  0  0
 36 56  1  0  0  0
 36108  1  0  0  0
 37 39  1  0  0  0
 37 47  1  0  0  0
 37 66  1  0  0  0
 37109  1  0  0  0
 38 43  2  0  0  0
 38 46  1  0  0  0
 38 47  1  0  0  0
 39 64  1  0  0  0
 39 67  2  0  0  0
 40 52  1  0  0  0
 40 53  2  0  0  0
 40 58  1  0  0  0
 41110  1  0  0  0
 41111  1  0  0  0
 41112  1  0  0  0
 41 48  1  0  0  0
 42 43  1  0  0  0
 42 66  1  0  0  0
 42113  1  0  0  0
 42114  1  0  0  0
 43 44  1  0  0  0
 44115  1  0  0  0
 45 46  2  0  0  0
 45116  1  0  0  0
 46117  1  0  0  0
 47118  1  0  0  0
 47119  1  0  0  0
 48 56  1  0  0  0
 48 65  1  0  0  0
 48120  1  0  0  0
 49 50  1  0  0  0
 49 53  1  0  0  0
 49 64  1  0  0  0
 49121  1  0  0  0
 50 51  1  0  0  0
 50122  1  0  0  0
 50123  1  0  0  0
 51 52  1  0  0  0
 51124  1  0  0  0
 51125  1  0  0  0
 52126  1  0  0  0
 52127  1  0  0  0
 53 54  1  0  0  0
 54 55  2  0  0  0
 54128  1  0  0  0
 55 57  1  0  0  0
 55129  1  0  0  0
 56 69  2  0  0  0
 57 58  2  0  0  0
 57130  1  0  0  0
 58131  1  0  0  0
 59 60  1  0  0  0
 59 61  1  0  0  0
 59 62  1  0  0  0
 60132  1  0  0  0
 60133  1  0  0  0
 60134  1  0  0  0
 61135  1  0  0  0
 61136  1  0  0  0
 61137  1  0  0  0
 62138  1  0  0  0
 62139  1  0  0  0
 62140  1  0  0  0
 63 65  1  0  0  0
 63141  1  0  0  0
 63142  1  0  0  0
 63143  1  0  0  0
 64144  1  0  0  0
 65145  1  0  0  0
 68 80  1  0  0  0
 71 72  2  0  0  0
 71 74  1  0  0  0
 71 82  1  0  0  0
 72 84  1  0  0  0
 72 86  1  0  0  0
 73 82  2  0  0  0
 73 85  1  0  0  0
 73 86  1  0  0  0
 74 83  2  0  0  0
 74146  1  0  0  0
 75 76  1  0  0  0
 75147  1  0  0  0
 75148  1  0  0  0
 75149  1  0  0  0
 76 78  1  0  0  0
 76150  1  0  0  0
 76151  1  0  0  0
 77 79  1  0  0  0
 77 80  1  0  0  0
 77152  1  0  0  0
 77153  1  0  0  0
 78154  1  0  0  0
 78155  1  0  0  0
 78 81  1  0  0  0
 79 81  1  0  0  0
 79156  1  0  0  0
 79157  1  0  0  0
 80158  1  0  0  0
 80159  1  0  0  0
 81 84  1  0  0  0
 81160  1  0  0  0
 83161  1  0  0  0
 84162  1  0  0  0
 85163  1  0  0  0
M  ISO  4   1 100  68 101  80 101  85 100
M  END
> <chiral flag>
0

> <version>
0

> <s_m_source_file>
/data/baiqing/PycharmProjects/Reinvent-master-3.2/result/LINK_invent/BTK/process_docking_weight1_custom_product_contain_oxygen_bond_distance_aromatic_linkinvent_7_9_3/rearranged_h_0197.sdf

> <i_m_source_file_index>
62

> <r_mmod_Potential_Energy-OPLS-2005>
60.1158828735352

> <r_mmod_Stretch_Energy-OPLS-2005>
54.0960121154785

> <r_mmod_Bend_Energy-OPLS-2005>
136.292587280273

> <r_mmod_Torsional_Energy-OPLS-2005>
251.745880126953

> <r_mmod_Improper_Torsional_Energy-OPLS-2005>
3.88942646980286

> <r_mmod_Van_der_Waal_Energy-OPLS-2005>
126.58863067627

> <r_mmod_Electrostatic_Energy-OPLS-2005>
-302.786224365234

> <r_mmod_Solvation_Energy-OPLS-2005>
-234.625518798828

> <b_mmod_Minimization_Converged-OPLS-2005>
0

> <r_mmod_RMS_Derivative-OPLS-2005>
1.57756352424622

$$$$
62
                    3D
 Structure written by MMmdl.
161169  0  0  1  0            999 V2000
  -30.5886  -14.7321   20.4540 C   0  0  0  0  0  0
  -30.4460  -12.4444   19.4555 C   0  0  0  0  0  0
  -29.5111  -12.5017   18.2259 C   0  0  0  0  0  0
  -28.0371  -12.3256   18.6452 C   0  0  0  0  0  0
  -27.6463  -13.2193   19.8518 C   0  0  2  0  0  0
  -28.6974  -13.1331   20.9812 C   0  0  0  0  0  0
  -25.2549  -13.8167   20.5688 C   0  0  0  0  0  0
  -24.1832  -13.0430   20.9215 C   0  0  0  0  0  0
  -24.6408  -11.6901   20.8756 C   0  0  0  0  0  0
  -23.9072  -10.4286   21.0410 C   0  0  0  0  0  0
  -24.3623   -9.4201   21.9188 C   0  0  0  0  0  0
  -23.6297   -8.2237   22.0754 C   0  0  0  0  0  0
  -22.4281   -8.0277   21.3540 C   0  0  0  0  0  0
  -21.9913   -9.0254   20.4646 C   0  0  0  0  0  0
  -22.7243  -10.2132   20.3057 C   0  0  0  0  0  0
  -21.6851   -6.0733   22.5277 C   0  0  0  0  0  0
  -21.4014   -6.5636   23.8213 C   0  0  0  0  0  0
  -21.3660   -5.6790   24.9174 C   0  0  0  0  0  0
  -21.6042   -4.3053   24.7222 C   0  0  0  0  0  0
  -21.8821   -3.8144   23.4346 C   0  0  0  0  0  0
  -21.9197   -4.6960   22.3402 C   0  0  0  0  0  0
  -22.7855  -13.5225   21.1869 C   0  0  0  0  0  0
  -22.1666   -4.2143   21.0981 F   0  0  0  0  0  0
  -21.5628   -3.4537   25.7741 F   0  0  0  0  0  0
  -29.9969  -13.4917   20.3968 N   0  0  0  0  0  0
  -26.2970  -12.9345   20.3291 N   0  0  0  0  0  0
  -25.9333  -11.6501   20.5762 N   0  0  0  0  0  0
  -22.0499  -12.8207   22.0416 N   0  0  0  0  0  0
  -25.4226  -15.1890   20.4077 N   0  0  0  0  0  0
  -31.7863  -14.8637   20.1803 O   0  0  0  0  0  0
  -21.6643   -6.8878   21.4242 O   0  0  0  0  0  0
  -22.3544  -14.5532   20.6714 O   0  0  0  0  0  0
  -24.6291  -31.8569   23.1971 C   0  0  0  0  0  0
  -25.9133  -32.4761   23.8322 C   0  0  1  0  0  0
  -27.2245  -27.2822   20.1257 C   0  0  0  0  0  0
  -25.5936  -33.8558   24.2256 N   0  0  0  0  0  0
  -23.4232  -30.4779   21.5406 C   0  0  2  0  0  0
  -24.8707  -28.9178   20.1165 C   0  0  0  0  0  0
  -22.7481  -29.4614   22.4912 C   0  0  0  0  0  0
  -18.0295  -28.1395   22.8495 C   0  0  0  0  0  0
  -24.1484  -36.7273   23.2645 C   0  0  0  0  0  0
  -25.9666  -30.7742   21.3731 C   0  0  0  0  0  0
  -26.0422  -29.3963   20.7186 C   0  0  0  0  0  0
  -27.2247  -28.5943   20.7047 C   0  0  0  0  0  0
  -26.0289  -26.8522   19.5165 C   0  0  0  0  0  0
  -24.8682  -27.6528   19.5070 C   0  0  0  0  0  0
  -23.6417  -29.8066   20.1586 C   0  0  0  0  0  0
  -25.4112  -36.3065   24.0329 C   0  0  1  0  0  0
  -20.5896  -28.3707   23.1278 C   0  0  2  0  0  0
  -20.6779  -26.9425   22.5402 C   0  0  0  0  0  0
  -19.5748  -26.6395   21.5211 C   0  0  0  0  0  0
  -18.1934  -26.7936   22.1636 C   0  0  0  0  0  0
  -19.1552  -28.8868   23.2884 C   0  0  0  0  0  0
  -18.9470  -30.1477   23.8890 C   0  0  0  0  0  0
  -17.6466  -30.6594   24.0577 C   0  0  0  0  0  0
  -25.9054  -34.9442   23.5093 C   0  0  0  0  0  0
  -16.5357  -29.9094   23.6340 C   0  0  0  0  0  0
  -16.7286  -28.6515   23.0361 C   0  0  0  0  0  0
  -26.4500  -31.6575   25.0706 C   0  0  0  0  0  0
  -25.3732  -31.3729   26.1444 C   0  0  0  0  0  0
  -27.0354  -30.2992   24.6182 C   0  0  0  0  0  0
  -27.6045  -32.4322   25.7489 C   0  0  0  0  0  0
  -27.5571  -37.1800   24.8474 C   0  0  0  0  0  0
  -21.4188  -29.3054   22.3658 N   0  0  0  0  0  0
  -26.4283  -37.3760   23.9412 N   0  0  0  0  0  0
  -24.6922  -31.0553   22.0931 N   0  0  0  0  0  0
  -23.4199  -28.8166   23.3013 O   0  0  0  0  0  0
  -28.3429  -26.4321   20.0940 O   0  0  0  0  0  0
  -26.5623  -34.8918   22.4664 O   0  0  0  0  0  0
  -23.5450  -32.1409   23.7284 O   0  0  0  0  0  0
  -30.5503  -19.3171   21.4921 C   0  0  0  0  0  0
  -29.5373  -19.8721   20.6983 C   0  0  0  0  0  0
  -29.8853  -17.2756   20.5885 C   0  0  0  0  0  0
  -31.3392  -24.5886   18.8402 C   0  0  0  0  0  0
  -32.4682  -24.8966   21.0669 C   0  0  0  0  0  0
  -30.7590  -23.0187   20.8850 C   0  0  0  0  0  0
  -28.2501  -25.0476   20.6529 C   0  0  0  0  0  0
  -31.8101  -23.8787   20.1221 C   0  0  0  0  0  0
  -29.5265  -22.4986   20.1035 C   0  0  2  0  0  0
  -28.4527  -23.6905   19.7692 C   0  0  1  0  0  0
  -30.7626  -17.9112   21.3746 N   0  0  0  0  0  0
  -28.9389  -21.2111   20.6509 N   0  0  0  0  0  0
  -29.7235  -15.8071   20.5395 N   0  0  0  0  0  0
  -27.2001  -23.0321   19.6230 O   0  0  0  0  0  0
  -28.7661  -18.4899   19.8599 S   0  0  0  0  0  0
  -31.4456  -20.1262   22.6911 Cl  0  0  0  0  0  0
  -31.4828  -12.5886   19.1461 H   0  0  0  0  0  0
  -30.4055  -11.4621   19.9286 H   0  0  0  0  0  0
  -29.7886  -11.7304   17.5053 H   0  0  0  0  0  0
  -29.6359  -13.4563   17.7125 H   0  0  0  0  0  0
  -27.8937  -11.2767   18.9061 H   0  0  0  0  0  0
  -27.3768  -12.5212   17.7994 H   0  0  0  0  0  0
  -27.6432  -14.2410   19.4750 H   0  0  0  0  0  0
  -28.7338  -12.1285   21.4055 H   0  0  0  0  0  0
  -28.4392  -13.7997   21.8060 H   0  0  0  0  0  0
  -25.2768   -9.5673   22.4757 H   0  0  0  0  0  0
  -24.0004   -7.4628   22.7464 H   0  0  0  0  0  0
  -21.0843   -8.8771   19.8951 H   0  0  0  0  0  0
  -22.3703  -10.9673   19.6162 H   0  0  0  0  0  0
  -21.2006   -7.6143   23.9707 H   0  0  0  0  0  0
  -21.1481   -6.0524   25.9074 H   0  0  0  0  0  0
  -22.0601   -2.7607   23.2849 H   0  0  0  0  0  0
  -22.4127  -11.9873   22.4802 H   0  0  0  0  0  0
  -21.1114  -13.1217   22.2617 H   0  0  0  0  0  0
  -24.6443  -15.8318   20.5071 H   0  0  0  0  0  0
  -26.2420  -15.6273   20.0100 H   0  0  0  0  0  0
  -26.7208  -32.5416   23.1076 H   0  0  0  0  0  0
  -25.0072  -33.9692   25.0400 H   0  0  0  0  0  0
  -22.7177  -31.2976   21.3932 H   0  0  0  0  0  0
  -23.3736  -35.9618   23.3316 H   0  0  0  0  0  0
  -24.3566  -36.8883   22.2055 H   0  0  0  0  0  0
  -23.7250  -37.6482   23.6665 H   0  0  0  0  0  0
  -26.1042  -31.5320   20.6016 H   0  0  0  0  0  0
  -26.8447  -30.8253   22.0056 H   0  0  0  0  0  0
  -28.1317  -28.9636   21.1621 H   0  0  0  0  0  0
  -25.9893  -25.8823   19.0425 H   0  0  0  0  0  0
  -23.9707  -27.2806   19.0339 H   0  0  0  0  0  0
  -23.7697  -30.5806   19.4010 H   0  0  0  0  0  0
  -22.7591  -29.2421   19.8529 H   0  0  0  0  0  0
  -25.1291  -36.1899   25.0817 H   0  0  0  0  0  0
  -21.0012  -28.3286   24.1399 H   0  0  0  0  0  0
  -20.5668  -26.2318   23.3607 H   0  0  0  0  0  0
  -21.6650  -26.7439   22.1206 H   0  0  0  0  0  0
  -19.6900  -25.6304   21.1259 H   0  0  0  0  0  0
  -19.6687  -27.3195   20.6730 H   0  0  0  0  0  0
  -17.4197  -26.6704   21.4041 H   0  0  0  0  0  0
  -18.0343  -26.0054   22.9014 H   0  0  0  0  0  0
  -19.7939  -30.7319   24.2228 H   0  0  0  0  0  0
  -17.5017  -31.6269   24.5200 H   0  0  0  0  0  0
  -15.5364  -30.3012   23.7649 H   0  0  0  0  0  0
  -15.8683  -28.0847   22.7070 H   0  0  0  0  0  0
  -24.5909  -30.7065   25.7796 H   0  0  0  0  0  0
  -24.8932  -32.2904   26.4853 H   0  0  0  0  0  0
  -25.8080  -30.8934   27.0227 H   0  0  0  0  0  0
  -26.2942  -29.6725   24.1212 H   0  0  0  0  0  0
  -27.4050  -29.7258   25.4691 H   0  0  0  0  0  0
  -27.8805  -30.4254   23.9411 H   0  0  0  0  0  0
  -27.2635  -33.3629   26.2033 H   0  0  0  0  0  0
  -28.3880  -32.6872   25.0342 H   0  0  0  0  0  0
  -28.0680  -31.8467   26.5440 H   0  0  0  0  0  0
  -28.2603  -38.0077   24.7487 H   0  0  0  0  0  0
  -28.1045  -36.2617   24.6332 H   0  0  0  0  0  0
  -27.2289  -37.1477   25.8874 H   0  0  0  0  0  0
  -20.9362  -29.8754   21.6854 H   0  0  0  0  0  0
  -26.0152  -38.2829   24.1407 H   0  0  0  0  0  0
  -32.1633  -25.1302   18.3776 H   0  0  0  0  0  0
  -30.5586  -25.3208   19.0391 H   0  0  0  0  0  0
  -30.9818  -23.8796   18.0916 H   0  0  0  0  0  0
  -33.2850  -25.4239   20.5729 H   0  0  0  0  0  0
  -32.8820  -24.4111   21.9515 H   0  0  0  0  0  0
  -31.7481  -25.6464   21.4018 H   0  0  0  0  0  0
  -30.4367  -23.5127   21.8002 H   0  0  0  0  0  0
  -31.3301  -22.1711   21.2353 H   0  0  0  0  0  0
  -29.0002  -25.0518   21.4394 H   0  0  0  0  0  0
  -27.3186  -24.9662   21.2151 H   0  0  0  0  0  0
  -32.5952  -23.1914   19.7996 H   0  0  0  0  0  0
  -29.9088  -22.1703   19.1352 H   0  0  0  0  0  0
  -28.6918  -24.0355   18.7627 H   0  0  0  0  0  0
  -27.9525  -21.2162   20.3912 H   0  0  0  0  0  0
  -28.7611  -15.5152   20.5295 H   0  0  0  0  0  0
  -26.6739  -23.5485   19.0215 H   0  0  0  0  0  0
  1 25  1  0  0  0
  1 30  2  0  0  0
  1 83  1  0  0  0
  2  3  1  0  0  0
  2 25  1  0  0  0
  2 87  1  0  0  0
  2 88  1  0  0  0
  3  4  1  0  0  0
  3 89  1  0  0  0
  3 90  1  0  0  0
  4  5  1  0  0  0
  4 91  1  0  0  0
  4 92  1  0  0  0
  5  6  1  0  0  0
  5 26  1  0  0  0
  5 93  1  0  0  0
  6 25  1  0  0  0
  6 94  1  0  0  0
  6 95  1  0  0  0
  7  8  2  0  0  0
  7 26  1  0  0  0
  7 29  1  0  0  0
  8  9  1  0  0  0
  8 22  1  0  0  0
  9 10  1  0  0  0
  9 27  2  0  0  0
 10 11  2  0  0  0
 10 15  1  0  0  0
 11 12  1  0  0  0
 11 96  1  0  0  0
 12 13  2  0  0  0
 12 97  1  0  0  0
 13 14  1  0  0  0
 13 31  1  0  0  0
 14 15  2  0  0  0
 14 98  1  0  0  0
 15 99  1  0  0  0
 16 17  2  0  0  0
 16 21  1  0  0  0
 16 31  1  0  0  0
 17 18  1  0  0  0
 17100  1  0  0  0
 18 19  2  0  0  0
 18101  1  0  0  0
 19 20  1  0  0  0
 19 24  1  0  0  0
 20 21  2  0  0  0
 20102  1  0  0  0
 21 23  1  0  0  0
 22 28  1  0  0  0
 22 32  2  0  0  0
 26 27  1  0  0  0
 28103  1  0  0  0
 28104  1  0  0  0
 29105  1  0  0  0
 29106  1  0  0  0
 33 34  1  0  0  0
 33 66  1  0  0  0
 33 70  2  0  0  0
 34 36  1  0  0  0
 34 59  1  0  0  0
 34107  1  0  0  0
 35 44  2  0  0  0
 35 45  1  0  0  0
 35 68  1  0  0  0
 36 56  1  0  0  0
 36108  1  0  0  0
 37 39  1  0  0  0
 37 47  1  0  0  0
 37 66  1  0  0  0
 37109  1  0  0  0
 38 43  2  0  0  0
 38 46  1  0  0  0
 38 47  1  0  0  0
 39 64  1  0  0  0
 39 67  2  0  0  0
 40 52  1  0  0  0
 40 53  2  0  0  0
 40 58  1  0  0  0
 41110  1  0  0  0
 41111  1  0  0  0
 41112  1  0  0  0
 41 48  1  0  0  0
 42 43  1  0  0  0
 42 66  1  0  0  0
 42113  1  0  0  0
 42114  1  0  0  0
 43 44  1  0  0  0
 44115  1  0  0  0
 45 46  2  0  0  0
 45116  1  0  0  0
 46117  1  0  0  0
 47118  1  0  0  0
 47119  1  0  0  0
 48 56  1  0  0  0
 48 65  1  0  0  0
 48120  1  0  0  0
 49 50  1  0  0  0
 49 53  1  0  0  0
 49 64  1  0  0  0
 49121  1  0  0  0
 50 51  1  0  0  0
 50122  1  0  0  0
 50123  1  0  0  0
 51 52  1  0  0  0
 51124  1  0  0  0
 51125  1  0  0  0
 52126  1  0  0  0
 52127  1  0  0  0
 53 54  1  0  0  0
 54 55  2  0  0  0
 54128  1  0  0  0
 55 57  1  0  0  0
 55129  1  0  0  0
 56 69  2  0  0  0
 57 58  2  0  0  0
 57130  1  0  0  0
 58131  1  0  0  0
 59 60  1  0  0  0
 59 61  1  0  0  0
 59 62  1  0  0  0
 60132  1  0  0  0
 60133  1  0  0  0
 60134  1  0  0  0
 61135  1  0  0  0
 61136  1  0  0  0
 61137  1  0  0  0
 62138  1  0  0  0
 62139  1  0  0  0
 62140  1  0  0  0
 63 65  1  0  0  0
 63141  1  0  0  0
 63142  1  0  0  0
 63143  1  0  0  0
 64144  1  0  0  0
 65145  1  0  0  0
 68 77  1  0  0  0
 71 72  2  0  0  0
 71 81  1  0  0  0
 71 86  1  0  0  0
 72 82  1  0  0  0
 72 85  1  0  0  0
 73 81  2  0  0  0
 73 83  1  0  0  0
 73 85  1  0  0  0
 74146  1  0  0  0
 74147  1  0  0  0
 74148  1  0  0  0
 74 78  1  0  0  0
 75 78  1  0  0  0
 75149  1  0  0  0
 75150  1  0  0  0
 75151  1  0  0  0
 76 78  1  0  0  0
 76152  1  0  0  0
 76153  1  0  0  0
 76 79  1  0  0  0
 77 80  1  0  0  0
 77154  1  0  0  0
 77155  1  0  0  0
 78156  1  0  0  0
 79 80  1  0  0  0
 79 82  1  0  0  0
 79157  1  0  0  0
 80 84  1  0  0  0
 80158  1  0  0  0
 82159  1  0  0  0
 83160  1  0  0  0
 84161  1  0  0  0
M  ISO  4   1 100  68 101  77 101  83 100
M  END
> <chiral flag>
0

> <version>
0

> <s_m_source_file>
/data/baiqing/PycharmProjects/Reinvent-master-3.2/result/LINK_invent/BTK/process_docking_weight1_custom_product_contain_oxygen_bond_distance_aromatic_linkinvent_7_9_3/rearranged_h_0197.sdf

> <i_m_source_file_index>
63

> <r_mmod_Potential_Energy-OPLS-2005>
282.161163330078

> <r_mmod_Stretch_Energy-OPLS-2005>
117.510047912598

> <r_mmod_Bend_Energy-OPLS-2005>
200.731811523438

> <r_mmod_Torsional_Energy-OPLS-2005>
329.255920410156

> <r_mmod_Improper_Torsional_Energy-OPLS-2005>
13.394003868103

> <r_mmod_Van_der_Waal_Energy-OPLS-2005>
119.83349609375

> <r_mmod_Electrostatic_Energy-OPLS-2005>
-338.789489746094

> <r_mmod_Solvation_Energy-OPLS-2005>
-233.888229370117

> <b_mmod_Minimization_Converged-OPLS-2005>
0

> <r_mmod_RMS_Derivative-OPLS-2005>
2.3415732383728

$$$$
63
                    3D
 Structure written by MMmdl.
158166  0  0  1  0            999 V2000
  -30.6653  -14.5644   20.4875 C   0  0  0  0  0  0
  -30.4259  -12.3289   19.4741 C   0  0  0  0  0  0
  -29.5153  -12.4673   18.2341 C   0  0  0  0  0  0
  -28.0309  -12.3371   18.6381 C   0  0  0  0  0  0
  -27.6569  -13.2091   19.8686 C   0  0  2  0  0  0
  -28.6958  -13.0560   21.0029 C   0  0  0  0  0  0
  -25.2604  -13.8137   20.5749 C   0  0  0  0  0  0
  -24.1836  -13.0424   20.9166 C   0  0  0  0  0  0
  -24.6362  -11.6878   20.8705 C   0  0  0  0  0  0
  -23.9012  -10.4273   21.0393 C   0  0  0  0  0  0
  -24.3566   -9.4175   21.9178 C   0  0  0  0  0  0
  -23.6247   -8.2198   22.0740 C   0  0  0  0  0  0
  -22.4232   -8.0241   21.3529 C   0  0  0  0  0  0
  -21.9871   -9.0200   20.4627 C   0  0  0  0  0  0
  -22.7187  -10.2086   20.3043 C   0  0  0  0  0  0
  -21.6813   -6.0718   22.5301 C   0  0  0  0  0  0
  -21.3986   -6.5619   23.8238 C   0  0  0  0  0  0
  -21.3671   -5.6764   24.9195 C   0  0  0  0  0  0
  -21.6053   -4.3025   24.7224 C   0  0  0  0  0  0
  -21.8815   -3.8134   23.4342 C   0  0  0  0  0  0
  -21.9153   -4.6953   22.3402 C   0  0  0  0  0  0
  -22.7860  -13.5211   21.1821 C   0  0  0  0  0  0
  -22.1615   -4.2162   21.0962 F   0  0  0  0  0  0
  -21.5650   -3.4494   25.7724 F   0  0  0  0  0  0
  -30.0190  -13.3613   20.4424 N   0  0  0  0  0  0
  -26.3014  -12.9311   20.3365 N   0  0  0  0  0  0
  -25.9299  -11.6467   20.5758 N   0  0  0  0  0  0
  -22.0498  -12.8215   22.0358 N   0  0  0  0  0  0
  -25.4368  -15.1872   20.4293 N   0  0  0  0  0  0
  -31.8267  -14.6836   20.0872 O   0  0  0  0  0  0
  -21.6565   -6.8863   21.4270 O   0  0  0  0  0  0
  -22.3573  -14.5556   20.6713 O   0  0  0  0  0  0
  -24.6184  -31.8645   23.2133 C   0  0  0  0  0  0
  -25.9068  -32.4796   23.8422 C   0  0  1  0  0  0
  -27.2155  -27.3777   20.1006 C   0  0  0  0  0  0
  -25.5920  -33.8599   24.2353 N   0  0  0  0  0  0
  -23.4071  -30.4948   21.5525 C   0  0  2  0  0  0
  -24.8494  -28.9624   20.1103 C   0  0  0  0  0  0
  -22.7422  -29.4657   22.4960 C   0  0  0  0  0  0
  -18.0302  -28.1333   22.8534 C   0  0  0  0  0  0
  -24.1478  -36.7306   23.2628 C   0  0  0  0  0  0
  -25.9421  -30.8117   21.3773 C   0  0  0  0  0  0
  -26.0146  -29.4450   20.7201 C   0  0  0  0  0  0
  -27.1997  -28.6611   20.7128 C   0  0  0  0  0  0
  -26.0246  -26.9344   19.4743 C   0  0  0  0  0  0
  -24.8554  -27.7127   19.4754 C   0  0  0  0  0  0
  -23.6193  -29.8391   20.1630 C   0  0  0  0  0  0
  -25.4098  -36.3107   24.0349 C   0  0  1  0  0  0
  -20.5894  -28.3661   23.1286 C   0  0  2  0  0  0
  -20.6818  -26.9416   22.5341 C   0  0  0  0  0  0
  -19.5771  -26.6389   21.5173 C   0  0  0  0  0  0
  -18.1960  -26.7896   22.1625 C   0  0  0  0  0  0
  -19.1546  -28.8804   23.2932 C   0  0  0  0  0  0
  -18.9440  -30.1414   23.8948 C   0  0  0  0  0  0
  -17.6426  -30.6543   24.0527 C   0  0  0  0  0  0
  -25.9022  -34.9460   23.5139 C   0  0  0  0  0  0
  -16.5333  -29.9040   23.6270 C   0  0  0  0  0  0
  -16.7282  -28.6435   23.0379 C   0  0  0  0  0  0
  -26.4499  -31.6582   25.0745 C   0  0  0  0  0  0
  -25.3745  -31.3695   26.1473 C   0  0  0  0  0  0
  -27.0320  -30.3031   24.6113 C   0  0  0  0  0  0
  -27.6108  -32.4273   25.7487 C   0  0  0  0  0  0
  -27.5594  -37.1814   24.8472 C   0  0  0  0  0  0
  -21.4147  -29.3063   22.3718 N   0  0  0  0  0  0
  -26.4301  -37.3777   23.9419 N   0  0  0  0  0  0
  -24.6741  -31.0720   22.1064 N   0  0  0  0  0  0
  -23.4192  -28.8156   23.2957 O   0  0  0  0  0  0
  -28.3575  -26.5793   20.1356 O   0  0  0  0  0  0
  -26.5564  -34.8918   22.4697 O   0  0  0  0  0  0
  -23.5378  -32.1414   23.7533 O   0  0  0  0  0  0
  -30.0043  -19.3331   20.6412 C   0  0  0  0  0  0
  -30.7781  -19.1854   19.5154 C   0  0  0  0  0  0
  -30.1394  -17.0154   20.4517 C   0  0  0  0  0  0
  -29.1601  -20.3739   22.7940 C   0  0  0  0  0  0
  -28.9185  -22.6148   18.2630 C   0  0  0  0  0  0
  -29.4201  -24.2613   20.2006 C   0  0  0  0  0  0
  -28.7415  -21.6829   20.6377 C   0  0  0  0  0  0
  -28.1793  -25.1539   19.8912 C   0  0  0  0  0  0
  -29.6812  -20.6514   21.3701 C   0  0  2  0  0  0
  -29.4197  -22.7557   19.7117 C   0  0  1  0  0  0
  -29.5986  -18.0552   21.1275 N   0  0  0  0  0  0
  -29.9265  -15.6450   20.8508 N   0  0  0  0  0  0
  -31.3425  -20.2144   18.8401 F   0  0  0  0  0  0
  -31.0601  -17.5353   19.0325 S   0  0  0  0  0  0
  -31.4778  -12.4116   19.2005 H   0  0  0  0  0  0
  -30.3190  -11.3388   19.9193 H   0  0  0  0  0  0
  -29.7675  -11.7003   17.5013 H   0  0  0  0  0  0
  -29.6930  -13.4270   17.7481 H   0  0  0  0  0  0
  -27.8525  -11.2862   18.8632 H   0  0  0  0  0  0
  -27.3838  -12.5744   17.7934 H   0  0  0  0  0  0
  -27.6859  -14.2432   19.5236 H   0  0  0  0  0  0
  -28.6910  -12.0371   21.3952 H   0  0  0  0  0  0
  -28.4534  -13.7006   21.8493 H   0  0  0  0  0  0
  -25.2724   -9.5602   22.4764 H   0  0  0  0  0  0
  -23.9949   -7.4563   22.7460 H   0  0  0  0  0  0
  -21.0797   -8.8661   19.8952 H   0  0  0  0  0  0
  -22.3633  -10.9581   19.6123 H   0  0  0  0  0  0
  -21.1987   -7.6126   23.9733 H   0  0  0  0  0  0
  -21.1514   -6.0493   25.9094 H   0  0  0  0  0  0
  -22.0593   -2.7599   23.2817 H   0  0  0  0  0  0
  -22.4076  -11.9871   22.4804 H   0  0  0  0  0  0
  -21.1145  -13.1309   22.2589 H   0  0  0  0  0  0
  -24.6769  -15.8448   20.5667 H   0  0  0  0  0  0
  -26.2892  -15.6292   20.1107 H   0  0  0  0  0  0
  -26.7117  -32.5500   23.1162 H   0  0  0  0  0  0
  -25.0144  -33.9731   25.0555 H   0  0  0  0  0  0
  -22.6985  -31.3140   21.4172 H   0  0  0  0  0  0
  -23.3746  -35.9635   23.3294 H   0  0  0  0  0  0
  -24.3574  -36.8908   22.2041 H   0  0  0  0  0  0
  -23.7227  -37.6520   23.6622 H   0  0  0  0  0  0
  -26.0567  -31.5749   20.6088 H   0  0  0  0  0  0
  -26.8296  -30.8670   21.9970 H   0  0  0  0  0  0
  -28.0938  -29.0218   21.2008 H   0  0  0  0  0  0
  -25.9660  -25.9813   18.9736 H   0  0  0  0  0  0
  -23.9668  -27.3509   18.9745 H   0  0  0  0  0  0
  -23.7391  -30.6187   19.4084 H   0  0  0  0  0  0
  -22.7384  -29.2705   19.8586 H   0  0  0  0  0  0
  -25.1273  -36.1978   25.0848 H   0  0  0  0  0  0
  -21.0037  -28.3190   24.1391 H   0  0  0  0  0  0
  -20.5758  -26.2269   23.3507 H   0  0  0  0  0  0
  -21.6682  -26.7464   22.1104 H   0  0  0  0  0  0
  -19.6917  -25.6301   21.1216 H   0  0  0  0  0  0
  -19.6663  -27.3197   20.6703 H   0  0  0  0  0  0
  -17.4234  -26.6721   21.4014 H   0  0  0  0  0  0
  -18.0327  -25.9985   22.8972 H   0  0  0  0  0  0
  -19.7919  -30.7214   24.2357 H   0  0  0  0  0  0
  -17.4931  -31.6232   24.5093 H   0  0  0  0  0  0
  -15.5315  -30.2929   23.7510 H   0  0  0  0  0  0
  -15.8700  -28.0719   22.7138 H   0  0  0  0  0  0
  -24.5949  -30.6999   25.7819 H   0  0  0  0  0  0
  -24.8872  -32.2833   26.4881 H   0  0  0  0  0  0
  -25.8070  -30.8901   27.0259 H   0  0  0  0  0  0
  -26.2867  -29.6806   24.1143 H   0  0  0  0  0  0
  -27.4091  -29.7249   25.4563 H   0  0  0  0  0  0
  -27.8704  -30.4387   23.9279 H   0  0  0  0  0  0
  -27.2798  -33.3595   26.2083 H   0  0  0  0  0  0
  -28.3907  -32.6786   25.0281 H   0  0  0  0  0  0
  -28.0777  -31.8349   26.5369 H   0  0  0  0  0  0
  -28.2608  -38.0102   24.7505 H   0  0  0  0  0  0
  -28.1088  -36.2650   24.6316 H   0  0  0  0  0  0
  -27.2302  -37.1483   25.8861 H   0  0  0  0  0  0
  -20.9259  -29.8817   21.7013 H   0  0  0  0  0  0
  -26.0199  -38.2864   24.1411 H   0  0  0  0  0  0
  -29.8793  -19.7837   23.3625 H   0  0  0  0  0  0
  -28.2223  -19.8167   22.7688 H   0  0  0  0  0  0
  -28.9861  -21.2987   23.3442 H   0  0  0  0  0  0
  -29.3524  -23.3770   17.6143 H   0  0  0  0  0  0
  -27.8328  -22.7017   18.2001 H   0  0  0  0  0  0
  -29.1881  -21.6423   17.8492 H   0  0  0  0  0  0
  -29.6261  -24.2921   21.2698 H   0  0  0  0  0  0
  -30.2765  -24.7550   19.7349 H   0  0  0  0  0  0
  -28.1915  -22.2472   21.3907 H   0  0  0  0  0  0
  -27.9636  -21.1348   20.1048 H   0  0  0  0  0  0
  -27.3433  -24.7789   20.4843 H   0  0  0  0  0  0
  -27.9134  -25.0294   18.8430 H   0  0  0  0  0  0
  -30.6279  -21.1707   21.5272 H   0  0  0  0  0  0
  -30.4755  -22.4838   19.6746 H   0  0  0  0  0  0
  -29.0607  -15.4604   21.3292 H   0  0  0  0  0  0
  1 25  1  0  0  0
  1 30  2  0  0  0
  1 82  1  0  0  0
  2  3  1  0  0  0
  2 25  1  0  0  0
  2 85  1  0  0  0
  2 86  1  0  0  0
  3  4  1  0  0  0
  3 87  1  0  0  0
  3 88  1  0  0  0
  4  5  1  0  0  0
  4 89  1  0  0  0
  4 90  1  0  0  0
  5  6  1  0  0  0
  5 26  1  0  0  0
  5 91  1  0  0  0
  6 25  1  0  0  0
  6 92  1  0  0  0
  6 93  1  0  0  0
  7  8  2  0  0  0
  7 26  1  0  0  0
  7 29  1  0  0  0
  8  9  1  0  0  0
  8 22  1  0  0  0
  9 10  1  0  0  0
  9 27  2  0  0  0
 10 11  2  0  0  0
 10 15  1  0  0  0
 11 12  1  0  0  0
 11 94  1  0  0  0
 12 13  2  0  0  0
 12 95  1  0  0  0
 13 14  1  0  0  0
 13 31  1  0  0  0
 14 15  2  0  0  0
 14 96  1  0  0  0
 15 97  1  0  0  0
 16 17  2  0  0  0
 16 21  1  0  0  0
 16 31  1  0  0  0
 17 18  1  0  0  0
 17 98  1  0  0  0
 18 19  2  0  0  0
 18 99  1  0  0  0
 19 20  1  0  0  0
 19 24  1  0  0  0
 20 21  2  0  0  0
 20100  1  0  0  0
 21 23  1  0  0  0
 22 28  1  0  0  0
 22 32  2  0  0  0
 26 27  1  0  0  0
 28101  1  0  0  0
 28102  1  0  0  0
 29103  1  0  0  0
 29104  1  0  0  0
 33 34  1  0  0  0
 33 66  1  0  0  0
 33 70  2  0  0  0
 34 36  1  0  0  0
 34 59  1  0  0  0
 34105  1  0  0  0
 35 44  2  0  0  0
 35 45  1  0  0  0
 35 68  1  0  0  0
 36 56  1  0  0  0
 36106  1  0  0  0
 37 39  1  0  0  0
 37 47  1  0  0  0
 37 66  1  0  0  0
 37107  1  0  0  0
 38 43  2  0  0  0
 38 46  1  0  0  0
 38 47  1  0  0  0
 39 64  1  0  0  0
 39 67  2  0  0  0
 40 52  1  0  0  0
 40 53  2  0  0  0
 40 58  1  0  0  0
 41108  1  0  0  0
 41109  1  0  0  0
 41110  1  0  0  0
 41 48  1  0  0  0
 42 43  1  0  0  0
 42 66  1  0  0  0
 42111  1  0  0  0
 42112  1  0  0  0
 43 44  1  0  0  0
 44113  1  0  0  0
 45 46  2  0  0  0
 45114  1  0  0  0
 46115  1  0  0  0
 47116  1  0  0  0
 47117  1  0  0  0
 48 56  1  0  0  0
 48 65  1  0  0  0
 48118  1  0  0  0
 49 50  1  0  0  0
 49 53  1  0  0  0
 49 64  1  0  0  0
 49119  1  0  0  0
 50 51  1  0  0  0
 50120  1  0  0  0
 50121  1  0  0  0
 51 52  1  0  0  0
 51122  1  0  0  0
 51123  1  0  0  0
 52124  1  0  0  0
 52125  1  0  0  0
 53 54  1  0  0  0
 54 55  2  0  0  0
 54126  1  0  0  0
 55 57  1  0  0  0
 55127  1  0  0  0
 56 69  2  0  0  0
 57 58  2  0  0  0
 57128  1  0  0  0
 58129  1  0  0  0
 59 60  1  0  0  0
 59 61  1  0  0  0
 59 62  1  0  0  0
 60130  1  0  0  0
 60131  1  0  0  0
 60132  1  0  0  0
 61133  1  0  0  0
 61134  1  0  0  0
 61135  1  0  0  0
 62136  1  0  0  0
 62137  1  0  0  0
 62138  1  0  0  0
 63 65  1  0  0  0
 63139  1  0  0  0
 63140  1  0  0  0
 63141  1  0  0  0
 64142  1  0  0  0
 65143  1  0  0  0
 68 78  1  0  0  0
 71 72  2  0  0  0
 71 79  1  0  0  0
 71 81  1  0  0  0
 72 83  1  0  0  0
 72 84  1  0  0  0
 73 81  2  0  0  0
 73 82  1  0  0  0
 73 84  1  0  0  0
 74144  1  0  0  0
 74145  1  0  0  0
 74146  1  0  0  0
 74 79  1  0  0  0
 75147  1  0  0  0
 75148  1  0  0  0
 75149  1  0  0  0
 75 80  1  0  0  0
 76 78  1  0  0  0
 76 80  1  0  0  0
 76150  1  0  0  0
 76151  1  0  0  0
 77 79  1  0  0  0
 77 80  1  0  0  0
 77152  1  0  0  0
 77153  1  0  0  0
 78154  1  0  0  0
 78155  1  0  0  0
 79156  1  0  0  0
 80157  1  0  0  0
 82158  1  0  0  0
M  ISO  4   1 100  68 101  78 101  82 100
M  END
> <chiral flag>
0

> <version>
0

> <s_m_source_file>
/data/baiqing/PycharmProjects/Reinvent-master-3.2/result/LINK_invent/BTK/process_docking_weight1_custom_product_contain_oxygen_bond_distance_aromatic_linkinvent_7_9_3/rearranged_h_0197.sdf

> <i_m_source_file_index>
64

> <r_mmod_Potential_Energy-OPLS-2005>
8.03060913085938

> <r_mmod_Stretch_Energy-OPLS-2005>
53.6474647521973

> <r_mmod_Bend_Energy-OPLS-2005>
120.714981079102

> <r_mmod_Torsional_Energy-OPLS-2005>
243.399490356445

> <r_mmod_Improper_Torsional_Energy-OPLS-2005>
3.85773801803589

> <r_mmod_Van_der_Waal_Energy-OPLS-2005>
132.694427490234

> <r_mmod_Electrostatic_Energy-OPLS-2005>
-379.157623291016

> <r_mmod_Solvation_Energy-OPLS-2005>
-196.679397583008

> <b_mmod_Minimization_Converged-OPLS-2005>
0

> <r_mmod_RMS_Derivative-OPLS-2005>
4.29196071624756

$$$$
64
                    3D
 Structure written by MMmdl.
144151  0  0  1  0            999 V2000
  -30.1625  -16.0118   20.3037 C   0  0  0  0  0  0
  -30.3951  -13.3719   19.5264 C   0  0  0  0  0  0
  -29.5609  -12.7554   18.3547 C   0  0  0  0  0  0
  -28.1683  -12.3141   18.8222 C   0  0  0  0  0  0
  -27.5843  -13.3442   19.8082 C   0  0  2  0  0  0
  -28.5806  -13.8357   20.8953 C   0  0  0  0  0  0
  -25.2243  -13.8298   20.5838 C   0  0  0  0  0  0
  -24.1682  -13.0402   20.9316 C   0  0  0  0  0  0
  -24.6452  -11.6938   20.8770 C   0  0  0  0  0  0
  -23.9157  -10.4276   21.0388 C   0  0  0  0  0  0
  -24.3678   -9.4189   21.9176 C   0  0  0  0  0  0
  -23.6327   -8.2238   22.0752 C   0  0  0  0  0  0
  -22.4307   -8.0286   21.3543 C   0  0  0  0  0  0
  -21.9961   -9.0261   20.4639 C   0  0  0  0  0  0
  -22.7317  -10.2125   20.3040 C   0  0  0  0  0  0
  -21.6859   -6.0744   22.5280 C   0  0  0  0  0  0
  -21.4020   -6.5642   23.8215 C   0  0  0  0  0  0
  -21.3662   -5.6792   24.9175 C   0  0  0  0  0  0
  -21.6046   -4.3055   24.7222 C   0  0  0  0  0  0
  -21.8818   -3.8149   23.4341 C   0  0  0  0  0  0
  -21.9195   -4.6970   22.3400 C   0  0  0  0  0  0
  -22.7683  -13.5107   21.1935 C   0  0  0  0  0  0
  -22.1661   -4.2155   21.0978 F   0  0  0  0  0  0
  -21.5629   -3.4537   25.7733 F   0  0  0  0  0  0
  -29.6817  -14.5817   20.2029 N   0  0  0  0  0  0
  -26.2767  -12.9725   20.3312 N   0  0  0  0  0  0
  -25.9421  -11.6751   20.5705 N   0  0  0  0  0  0
  -22.0364  -12.8080   22.0494 N   0  0  0  0  0  0
  -25.3691  -15.2033   20.4238 N   0  0  0  0  0  0
  -31.4108  -15.8773   20.2582 O   0  0  0  0  0  0
  -21.6651   -6.8894   21.4245 O   0  0  0  0  0  0
  -22.3344  -14.5399   20.6765 O   0  0  0  0  0  0
  -24.7083  -31.7704   23.1302 C   0  0  0  0  0  0
  -25.9542  -32.4321   23.7946 C   0  0  1  0  0  0
  -27.2406  -26.4461   20.2452 C   0  0  0  0  0  0
  -25.6013  -33.8160   24.1805 N   0  0  0  0  0  0
  -23.5462  -30.3610   21.4905 C   0  0  2  0  0  0
  -25.0063  -28.6453   20.1317 C   0  0  0  0  0  0
  -22.7876  -29.4165   22.4644 C   0  0  0  0  0  0
  -18.0355  -28.1433   22.8441 C   0  0  0  0  0  0
  -24.1496  -36.7088   23.2660 C   0  0  0  0  0  0
  -26.1377  -30.4196   21.4328 C   0  0  0  0  0  0
  -26.2016  -28.9547   20.7906 C   0  0  0  0  0  0
  -27.2931  -27.8940   20.8018 C   0  0  0  0  0  0
  -26.0055  -26.4104   19.5284 C   0  0  0  0  0  0
  -24.9623  -27.4012   19.4752 C   0  0  0  0  0  0
  -23.8150  -29.6322   20.1388 C   0  0  0  0  0  0
  -25.4156  -36.2809   24.0265 C   0  0  1  0  0  0
  -20.6002  -28.3808   23.1089 C   0  0  2  0  0  0
  -20.6806  -26.9442   22.5405 C   0  0  0  0  0  0
  -19.5787  -26.6360   21.5216 C   0  0  0  0  0  0
  -18.1971  -26.7954   22.1614 C   0  0  0  0  0  0
  -19.1628  -28.8950   23.2738 C   0  0  0  0  0  0
  -18.9529  -30.1526   23.8796 C   0  0  0  0  0  0
  -17.6516  -30.6609   24.0544 C   0  0  0  0  0  0
  -25.9154  -34.9208   23.4892 C   0  0  0  0  0  0
  -16.5404  -29.9086   23.6358 C   0  0  0  0  0  0
  -16.7333  -28.6510   23.0373 C   0  0  0  0  0  0
  -26.4637  -31.6466   25.0676 C   0  0  0  0  0  0
  -25.3635  -31.3856   26.1244 C   0  0  0  0  0  0
  -27.0612  -30.2776   24.6766 C   0  0  0  0  0  0
  -27.6034  -32.4392   25.7508 C   0  0  0  0  0  0
  -27.5557  -37.1697   24.8464 C   0  0  0  0  0  0
  -21.4500  -29.3006   22.3383 N   0  0  0  0  0  0
  -26.4258  -37.3600   23.9412 N   0  0  0  0  0  0
  -24.8241  -30.8898   22.0696 N   0  0  0  0  0  0
  -23.4198  -28.7806   23.3110 O   0  0  0  0  0  0
  -28.1907  -25.1221   20.2572 O   0  0  0  0  0  0
  -26.5830  -34.8834   22.4534 O   0  0  0  0  0  0
  -23.6048  -32.0897   23.6095 O   0  0  0  0  0  0
  -27.9760  -17.2559   20.0523 C   0  0  0  0  0  0
  -29.4888  -19.3764   20.4848 C   0  0  0  0  0  0
  -28.0758  -23.2377   20.4097 C   0  0  0  0  0  0
  -28.6363  -21.2348   20.0018 C   0  0  1  0  0  0
  -29.3972  -17.4805   20.2812 N   0  0  0  0  0  0
  -28.9620  -21.3161   18.6261 O   0  0  0  0  0  0
  -31.3495  -13.6994   19.1128 H   0  0  0  0  0  0
  -30.6629  -12.6059   20.2564 H   0  0  0  0  0  0
  -30.0935  -11.9168   17.9043 H   0  0  0  0  0  0
  -29.4522  -13.5056   17.5702 H   0  0  0  0  0  0
  -28.2677  -11.3511   19.3242 H   0  0  0  0  0  0
  -27.5022  -12.1579   17.9728 H   0  0  0  0  0  0
  -27.3920  -14.2102   19.1741 H   0  0  0  0  0  0
  -28.9348  -13.0186   21.5255 H   0  0  0  0  0  0
  -28.0783  -14.5309   21.5693 H   0  0  0  0  0  0
  -25.2816   -9.5658   22.4763 H   0  0  0  0  0  0
  -24.0022   -7.4627   22.7476 H   0  0  0  0  0  0
  -21.0892   -8.8793   19.8942 H   0  0  0  0  0  0
  -22.3780  -10.9668   19.6149 H   0  0  0  0  0  0
  -21.2012   -7.6151   23.9720 H   0  0  0  0  0  0
  -21.1487   -6.0521   25.9079 H   0  0  0  0  0  0
  -22.0596   -2.7612   23.2840 H   0  0  0  0  0  0
  -22.4023  -11.9769   22.4900 H   0  0  0  0  0  0
  -21.0961  -13.1055   22.2686 H   0  0  0  0  0  0
  -24.5884  -15.8410   20.5342 H   0  0  0  0  0  0
  -26.2083  -15.6556   20.0893 H   0  0  0  0  0  0
  -26.7653  -32.4730   23.0676 H   0  0  0  0  0  0
  -25.0024  -33.9153   24.9870 H   0  0  0  0  0  0
  -22.8866  -31.2046   21.2768 H   0  0  0  0  0  0
  -23.3786  -35.9386   23.3243 H   0  0  0  0  0  0
  -24.3559  -36.8846   22.2092 H   0  0  0  0  0  0
  -23.7228  -37.6224   23.6809 H   0  0  0  0  0  0
  -26.3658  -31.1259   20.6335 H   0  0  0  0  0  0
  -26.9795  -30.4986   22.1080 H   0  0  0  0  0  0
  -28.1935  -28.1549   21.3401 H   0  0  0  0  0  0
  -25.7973  -25.4883   19.0041 H   0  0  0  0  0  0
  -24.0684  -27.1497   18.9214 H   0  0  0  0  0  0
  -24.0123  -30.3792   19.3692 H   0  0  0  0  0  0
  -22.9146  -29.1112   19.8090 H   0  0  0  0  0  0
  -25.1376  -36.1533   25.0752 H   0  0  0  0  0  0
  -21.0075  -28.3452   24.1220 H   0  0  0  0  0  0
  -20.5641  -26.2441   23.3693 H   0  0  0  0  0  0
  -21.6666  -26.7340   22.1241 H   0  0  0  0  0  0
  -19.6940  -25.6245   21.1311 H   0  0  0  0  0  0
  -19.6736  -27.3114   20.6702 H   0  0  0  0  0  0
  -17.4239  -26.6697   21.4017 H   0  0  0  0  0  0
  -18.0355  -26.0121   22.9032 H   0  0  0  0  0  0
  -19.8006  -30.7366   24.2121 H   0  0  0  0  0  0
  -17.5067  -31.6278   24.5165 H   0  0  0  0  0  0
  -15.5401  -30.2957   23.7739 H   0  0  0  0  0  0
  -15.8734  -28.0794   22.7147 H   0  0  0  0  0  0
  -24.5858  -30.7171   25.7532 H   0  0  0  0  0  0
  -24.8789  -32.3100   26.4393 H   0  0  0  0  0  0
  -25.7753  -30.9195   27.0203 H   0  0  0  0  0  0
  -26.3380  -29.6308   24.1789 H   0  0  0  0  0  0
  -27.3963  -29.7331   25.5605 H   0  0  0  0  0  0
  -27.9386  -30.3842   24.0387 H   0  0  0  0  0  0
  -27.2537  -33.3790   26.1792 H   0  0  0  0  0  0
  -28.3989  -32.6800   25.0445 H   0  0  0  0  0  0
  -28.0543  -31.8728   26.5666 H   0  0  0  0  0  0
  -28.2516  -38.0045   24.7527 H   0  0  0  0  0  0
  -28.1109  -36.2564   24.6270 H   0  0  0  0  0  0
  -27.2274  -37.1300   25.8865 H   0  0  0  0  0  0
  -20.9868  -29.8622   21.6373 H   0  0  0  0  0  0
  -26.0061  -38.2632   24.1439 H   0  0  0  0  0  0
  -27.4565  -18.1742   19.7788 H   0  0  0  0  0  0
  -27.8143  -16.5481   19.2381 H   0  0  0  0  0  0
  -27.5118  -16.8686   20.9594 H   0  0  0  0  0  0
  -30.5485  -19.5467   20.2950 H   0  0  0  0  0  0
  -29.4301  -19.4167   21.5728 H   0  0  0  0  0  0
  -27.9369  -23.1759   21.4892 H   0  0  0  0  0  0
  -27.0569  -23.1782   20.0263 H   0  0  0  0  0  0
  -27.6118  -20.8603   20.0302 H   0  0  0  0  0  0
  -28.3334  -21.9054   18.2163 H   0  0  0  0  0  0
  1 25  1  0  0  0
  1 30  2  0  0  0
  1 75  1  0  0  0
  2  3  1  0  0  0
  2 25  1  0  0  0
  2 77  1  0  0  0
  2 78  1  0  0  0
  3  4  1  0  0  0
  3 79  1  0  0  0
  3 80  1  0  0  0
  4  5  1  0  0  0
  4 81  1  0  0  0
  4 82  1  0  0  0
  5  6  1  0  0  0
  5 26  1  0  0  0
  5 83  1  0  0  0
  6 25  1  0  0  0
  6 84  1  0  0  0
  6 85  1  0  0  0
  7  8  2  0  0  0
  7 26  1  0  0  0
  7 29  1  0  0  0
  8  9  1  0  0  0
  8 22  1  0  0  0
  9 10  1  0  0  0
  9 27  2  0  0  0
 10 11  2  0  0  0
 10 15  1  0  0  0
 11 12  1  0  0  0
 11 86  1  0  0  0
 12 13  2  0  0  0
 12 87  1  0  0  0
 13 14  1  0  0  0
 13 31  1  0  0  0
 14 15  2  0  0  0
 14 88  1  0  0  0
 15 89  1  0  0  0
 16 17  2  0  0  0
 16 21  1  0  0  0
 16 31  1  0  0  0
 17 18  1  0  0  0
 17 90  1  0  0  0
 18 19  2  0  0  0
 18 91  1  0  0  0
 19 20  1  0  0  0
 19 24  1  0  0  0
 20 21  2  0  0  0
 20 92  1  0  0  0
 21 23  1  0  0  0
 22 28  1  0  0  0
 22 32  2  0  0  0
 26 27  1  0  0  0
 28 93  1  0  0  0
 28 94  1  0  0  0
 29 95  1  0  0  0
 29 96  1  0  0  0
 33 34  1  0  0  0
 33 66  1  0  0  0
 33 70  2  0  0  0
 34 36  1  0  0  0
 34 59  1  0  0  0
 34 97  1  0  0  0
 35 44  2  0  0  0
 35 45  1  0  0  0
 35 68  1  0  0  0
 36 56  1  0  0  0
 36 98  1  0  0  0
 37 39  1  0  0  0
 37 47  1  0  0  0
 37 66  1  0  0  0
 37 99  1  0  0  0
 38 43  2  0  0  0
 38 46  1  0  0  0
 38 47  1  0  0  0
 39 64  1  0  0  0
 39 67  2  0  0  0
 40 52  1  0  0  0
 40 53  2  0  0  0
 40 58  1  0  0  0
 41100  1  0  0  0
 41101  1  0  0  0
 41102  1  0  0  0
 41 48  1  0  0  0
 42 43  1  0  0  0
 42 66  1  0  0  0
 42103  1  0  0  0
 42104  1  0  0  0
 43 44  1  0  0  0
 44105  1  0  0  0
 45 46  2  0  0  0
 45106  1  0  0  0
 46107  1  0  0  0
 47108  1  0  0  0
 47109  1  0  0  0
 48 56  1  0  0  0
 48 65  1  0  0  0
 48110  1  0  0  0
 49 50  1  0  0  0
 49 53  1  0  0  0
 49 64  1  0  0  0
 49111  1  0  0  0
 50 51  1  0  0  0
 50112  1  0  0  0
 50113  1  0  0  0
 51 52  1  0  0  0
 51114  1  0  0  0
 51115  1  0  0  0
 52116  1  0  0  0
 52117  1  0  0  0
 53 54  1  0  0  0
 54 55  2  0  0  0
 54118  1  0  0  0
 55 57  1  0  0  0
 55119  1  0  0  0
 56 69  2  0  0  0
 57 58  2  0  0  0
 57120  1  0  0  0
 58121  1  0  0  0
 59 60  1  0  0  0
 59 61  1  0  0  0
 59 62  1  0  0  0
 60122  1  0  0  0
 60123  1  0  0  0
 60124  1  0  0  0
 61125  1  0  0  0
 61126  1  0  0  0
 61127  1  0  0  0
 62128  1  0  0  0
 62129  1  0  0  0
 62130  1  0  0  0
 63 65  1  0  0  0
 63131  1  0  0  0
 63132  1  0  0  0
 63133  1  0  0  0
 64134  1  0  0  0
 65135  1  0  0  0
 68 73  1  0  0  0
 71 75  1  0  0  0
 71136  1  0  0  0
 71137  1  0  0  0
 71138  1  0  0  0
 72 74  1  0  0  0
 72 75  1  0  0  0
 72139  1  0  0  0
 72140  1  0  0  0
 73 74  1  0  0  0
 73141  1  0  0  0
 73142  1  0  0  0
 74 76  1  0  0  0
 74143  1  0  0  0
 76144  1  0  0  0
M  ISO  4   1 100  68 101  73 101  75 100
M  END
> <chiral flag>
0

> <version>
0

> <s_m_source_file>
/data/baiqing/PycharmProjects/Reinvent-master-3.2/result/LINK_invent/BTK/process_docking_weight1_custom_product_contain_oxygen_bond_distance_aromatic_linkinvent_7_9_3/rearranged_h_0197.sdf

> <i_m_source_file_index>
65

> <r_mmod_Potential_Energy-OPLS-2005>
4291.55810546875

> <r_mmod_Stretch_Energy-OPLS-2005>
1934.8173828125

> <r_mmod_Bend_Energy-OPLS-2005>
920.867614746094

> <r_mmod_Torsional_Energy-OPLS-2005>
324.5625

> <r_mmod_Improper_Torsional_Energy-OPLS-2005>
4.17789268493652

> <r_mmod_Van_der_Waal_Energy-OPLS-2005>
110.336242675781

> <r_mmod_Electrostatic_Energy-OPLS-2005>
-294.465423583984

> <r_mmod_Solvation_Energy-OPLS-2005>
-245.174575805664

> <b_mmod_Minimization_Converged-OPLS-2005>
0

> <r_mmod_RMS_Derivative-OPLS-2005>
0.574461698532104

$$$$
65
                    3D
 Structure written by MMmdl.
150158  0  0  1  0            999 V2000
  -30.6025  -14.8147   20.4364 C   0  0  0  0  0  0
  -30.4192  -12.5001   19.4991 C   0  0  0  0  0  0
  -29.5132  -12.5320   18.2469 C   0  0  0  0  0  0
  -28.0489  -12.3018   18.6624 C   0  0  0  0  0  0
  -27.6254  -13.2398   19.8252 C   0  0  2  0  0  0
  -28.6584  -13.2582   20.9764 C   0  0  0  0  0  0
  -25.2447  -13.8214   20.5682 C   0  0  0  0  0  0
  -24.1761  -13.0420   20.9228 C   0  0  0  0  0  0
  -24.6369  -11.6912   20.8703 C   0  0  0  0  0  0
  -23.9054  -10.4279   21.0379 C   0  0  0  0  0  0
  -24.3611   -9.4204   21.9167 C   0  0  0  0  0  0
  -23.6286   -8.2232   22.0741 C   0  0  0  0  0  0
  -22.4278   -8.0259   21.3526 C   0  0  0  0  0  0
  -21.9910   -9.0228   20.4636 C   0  0  0  0  0  0
  -22.7225  -10.2115   20.3034 C   0  0  0  0  0  0
  -21.6859   -6.0733   22.5279 C   0  0  0  0  0  0
  -21.4015   -6.5641   23.8211 C   0  0  0  0  0  0
  -21.3661   -5.6789   24.9175 C   0  0  0  0  0  0
  -21.6056   -4.3057   24.7229 C   0  0  0  0  0  0
  -21.8810   -3.8152   23.4355 C   0  0  0  0  0  0
  -21.9194   -4.6960   22.3412 C   0  0  0  0  0  0
  -22.7794  -13.5185   21.1925 C   0  0  0  0  0  0
  -22.1652   -4.2145   21.0989 F   0  0  0  0  0  0
  -21.5628   -3.4540   25.7751 F   0  0  0  0  0  0
  -29.9717  -13.5886   20.4066 N   0  0  0  0  0  0
  -26.2836  -12.9427   20.3132 N   0  0  0  0  0  0
  -25.9289  -11.6547   20.5643 N   0  0  0  0  0  0
  -22.0505  -12.8099   22.0492 N   0  0  0  0  0  0
  -25.4160  -15.1931   20.4151 N   0  0  0  0  0  0
  -31.7726  -14.9020   20.0552 O   0  0  0  0  0  0
  -21.6635   -6.8872   21.4245 O   0  0  0  0  0  0
  -22.3452  -14.5494   20.6828 O   0  0  0  0  0  0
  -24.6342  -31.8518   23.1986 C   0  0  0  0  0  0
  -25.9172  -32.4718   23.8311 C   0  0  1  0  0  0
  -27.2086  -27.2392   20.1190 C   0  0  0  0  0  0
  -25.5964  -33.8530   24.2241 N   0  0  0  0  0  0
  -23.4300  -30.4802   21.5388 C   0  0  2  0  0  0
  -24.8676  -28.9185   20.1094 C   0  0  0  0  0  0
  -22.7508  -29.4623   22.4882 C   0  0  0  0  0  0
  -18.0316  -28.1362   22.8463 C   0  0  0  0  0  0
  -24.1501  -36.7295   23.2647 C   0  0  0  0  0  0
  -25.9754  -30.7545   21.3814 C   0  0  0  0  0  0
  -26.0422  -29.3782   20.7198 C   0  0  0  0  0  0
  -27.2073  -28.5485   20.7169 C   0  0  0  0  0  0
  -26.0055  -26.8481   19.4870 C   0  0  0  0  0  0
  -24.8567  -27.6634   19.4858 C   0  0  0  0  0  0
  -23.6436  -29.8123   20.1554 C   0  0  0  0  0  0
  -25.4130  -36.3063   24.0333 C   0  0  1  0  0  0
  -20.5918  -28.3720   23.1276 C   0  0  2  0  0  0
  -20.6815  -26.9416   22.5443 C   0  0  0  0  0  0
  -19.5831  -26.6398   21.5204 C   0  0  0  0  0  0
  -18.1988  -26.7908   22.1577 C   0  0  0  0  0  0
  -19.1556  -28.8848   23.2867 C   0  0  0  0  0  0
  -18.9431  -30.1447   23.8915 C   0  0  0  0  0  0
  -17.6423  -30.6539   24.0558 C   0  0  0  0  0  0
  -25.9067  -34.9422   23.5079 C   0  0  0  0  0  0
  -16.5333  -29.9032   23.6284 C   0  0  0  0  0  0
  -16.7307  -28.6442   23.0321 C   0  0  0  0  0  0
  -26.4524  -31.6561   25.0731 C   0  0  0  0  0  0
  -25.3746  -31.3727   26.1458 C   0  0  0  0  0  0
  -27.0379  -30.2974   24.6254 C   0  0  0  0  0  0
  -27.6062  -32.4299   25.7515 C   0  0  0  0  0  0
  -27.5589  -37.1814   24.8474 C   0  0  0  0  0  0
  -21.4217  -29.3079   22.3649 N   0  0  0  0  0  0
  -26.4316  -37.3768   23.9388 N   0  0  0  0  0  0
  -24.6996  -31.0479   22.0945 N   0  0  0  0  0  0
  -23.4164  -28.8173   23.3019 O   0  0  0  0  0  0
  -28.3280  -26.3747   20.1931 O   0  0  0  0  0  0
  -26.5652  -34.8910   22.4652 O   0  0  0  0  0  0
  -23.5488  -32.1345   23.7284 O   0  0  0  0  0  0
  -29.9519  -18.8384   22.1535 C   0  0  0  0  0  0
  -29.7466  -20.0902   22.7562 C   0  0  0  0  0  0
  -29.7383  -18.7296   20.7770 C   0  0  0  0  0  0
  -29.1676  -21.0667   20.7638 C   0  0  0  0  0  0
  -30.0749  -17.3567   20.0356 C   0  0  0  0  0  0
  -28.5439  -23.6688   20.6798 C   0  0  0  0  0  0
  -28.3599  -24.9490   19.6968 C   0  0  0  0  0  0
  -29.3591  -21.1855   22.0646 N   0  0  0  0  0  0
  -29.3386  -19.8837   20.0970 N   0  0  0  0  0  0
  -28.8100  -22.2851   20.0895 N   0  0  0  0  0  0
  -29.8518  -15.9652   20.6527 N   0  0  0  0  0  0
  -31.4663  -12.6007   19.2111 H   0  0  0  0  0  0
  -30.3405  -11.5424   20.0122 H   0  0  0  0  0  0
  -29.8284  -11.7782   17.5261 H   0  0  0  0  0  0
  -29.6026  -13.4972   17.7454 H   0  0  0  0  0  0
  -27.9539  -11.2624   18.9723 H   0  0  0  0  0  0
  -27.3841  -12.4194   17.8059 H   0  0  0  0  0  0
  -27.5873  -14.2374   19.3847 H   0  0  0  0  0  0
  -28.6976  -12.2998   21.4945 H   0  0  0  0  0  0
  -28.3661  -14.0057   21.7176 H   0  0  0  0  0  0
  -25.2773   -9.5672   22.4716 H   0  0  0  0  0  0
  -24.0012   -7.4631   22.7453 H   0  0  0  0  0  0
  -21.0836   -8.8731   19.8950 H   0  0  0  0  0  0
  -22.3683  -10.9629   19.6115 H   0  0  0  0  0  0
  -21.2003   -7.6146   23.9710 H   0  0  0  0  0  0
  -21.1496   -6.0529   25.9076 H   0  0  0  0  0  0
  -22.0603   -2.7612   23.2857 H   0  0  0  0  0  0
  -22.4158  -11.9663   22.4662 H   0  0  0  0  0  0
  -21.1167  -13.1082   22.2907 H   0  0  0  0  0  0
  -24.6447  -15.8456   20.5113 H   0  0  0  0  0  0
  -26.2495  -15.6310   20.0429 H   0  0  0  0  0  0
  -26.7249  -32.5327   23.1045 H   0  0  0  0  0  0
  -25.0067  -33.9655   25.0364 H   0  0  0  0  0  0
  -22.7306  -31.3059   21.3953 H   0  0  0  0  0  0
  -23.3750  -35.9639   23.3304 H   0  0  0  0  0  0
  -24.3627  -36.8921   22.2068 H   0  0  0  0  0  0
  -23.7265  -37.6508   23.6660 H   0  0  0  0  0  0
  -26.1264  -31.5157   20.6158 H   0  0  0  0  0  0
  -26.8506  -30.7932   22.0187 H   0  0  0  0  0  0
  -28.1055  -28.8883   21.2115 H   0  0  0  0  0  0
  -25.8936  -25.8921   19.0015 H   0  0  0  0  0  0
  -23.9557  -27.3005   19.0074 H   0  0  0  0  0  0
  -23.7732  -30.5870   19.3991 H   0  0  0  0  0  0
  -22.7551  -29.2533   19.8514 H   0  0  0  0  0  0
  -25.1300  -36.1929   25.0838 H   0  0  0  0  0  0
  -21.0040  -28.3359   24.1391 H   0  0  0  0  0  0
  -20.5671  -26.2300   23.3629 H   0  0  0  0  0  0
  -21.6714  -26.7467   22.1299 H   0  0  0  0  0  0
  -19.7060  -25.6321   21.1224 H   0  0  0  0  0  0
  -19.6785  -27.3207   20.6735 H   0  0  0  0  0  0
  -17.4286  -26.6673   21.3949 H   0  0  0  0  0  0
  -18.0352  -26.0021   22.8950 H   0  0  0  0  0  0
  -19.7909  -30.7269   24.2301 H   0  0  0  0  0  0
  -17.4973  -31.6226   24.5162 H   0  0  0  0  0  0
  -15.5343  -30.2918   23.7618 H   0  0  0  0  0  0
  -15.8715  -28.0775   22.7009 H   0  0  0  0  0  0
  -24.5903  -30.7094   25.7792 H   0  0  0  0  0  0
  -24.8965  -32.2902   26.4890 H   0  0  0  0  0  0
  -25.8073  -30.8895   27.0227 H   0  0  0  0  0  0
  -26.2977  -29.6719   24.1247 H   0  0  0  0  0  0
  -27.4017  -29.7246   25.4788 H   0  0  0  0  0  0
  -27.8866  -30.4246   23.9531 H   0  0  0  0  0  0
  -27.2654  -33.3581   26.2120 H   0  0  0  0  0  0
  -28.3869  -32.6899   25.0348 H   0  0  0  0  0  0
  -28.0738  -31.8411   26.5423 H   0  0  0  0  0  0
  -28.2600  -38.0109   24.7470 H   0  0  0  0  0  0
  -28.1076  -36.2627   24.6323 H   0  0  0  0  0  0
  -27.2312  -37.1505   25.8886 H   0  0  0  0  0  0
  -20.9402  -29.8754   21.6824 H   0  0  0  0  0  0
  -26.0186  -38.2848   24.1349 H   0  0  0  0  0  0
  -30.3036  -17.9989   22.7371 H   0  0  0  0  0  0
  -29.9156  -20.2195   23.8163 H   0  0  0  0  0  0
  -29.5255  -17.3662   19.0933 H   0  0  0  0  0  0
  -31.1258  -17.4370   19.7488 H   0  0  0  0  0  0
  -29.3631  -23.8916   21.3594 H   0  0  0  0  0  0
  -27.6511  -23.6002   21.3035 H   0  0  0  0  0  0
  -29.2344  -24.9287   19.0464 H   0  0  0  0  0  0
  -27.5477  -24.7412   19.0085 H   0  0  0  0  0  0
  -28.6810  -22.1973   19.0883 H   0  0  0  0  0  0
  -28.9344  -15.8273   21.0430 H   0  0  0  0  0  0
  1 25  1  0  0  0
  1 30  2  0  0  0
  1 81  1  0  0  0
  2  3  1  0  0  0
  2 25  1  0  0  0
  2 82  1  0  0  0
  2 83  1  0  0  0
  3  4  1  0  0  0
  3 84  1  0  0  0
  3 85  1  0  0  0
  4  5  1  0  0  0
  4 86  1  0  0  0
  4 87  1  0  0  0
  5  6  1  0  0  0
  5 26  1  0  0  0
  5 88  1  0  0  0
  6 25  1  0  0  0
  6 89  1  0  0  0
  6 90  1  0  0  0
  7  8  2  0  0  0
  7 26  1  0  0  0
  7 29  1  0  0  0
  8  9  1  0  0  0
  8 22  1  0  0  0
  9 10  1  0  0  0
  9 27  2  0  0  0
 10 11  2  0  0  0
 10 15  1  0  0  0
 11 12  1  0  0  0
 11 91  1  0  0  0
 12 13  2  0  0  0
 12 92  1  0  0  0
 13 14  1  0  0  0
 13 31  1  0  0  0
 14 15  2  0  0  0
 14 93  1  0  0  0
 15 94  1  0  0  0
 16 17  2  0  0  0
 16 21  1  0  0  0
 16 31  1  0  0  0
 17 18  1  0  0  0
 17 95  1  0  0  0
 18 19  2  0  0  0
 18 96  1  0  0  0
 19 20  1  0  0  0
 19 24  1  0  0  0
 20 21  2  0  0  0
 20 97  1  0  0  0
 21 23  1  0  0  0
 22 28  1  0  0  0
 22 32  2  0  0  0
 26 27  1  0  0  0
 28 98  1  0  0  0
 28 99  1  0  0  0
 29100  1  0  0  0
 29101  1  0  0  0
 33 34  1  0  0  0
 33 66  1  0  0  0
 33 70  2  0  0  0
 34 36  1  0  0  0
 34 59  1  0  0  0
 34102  1  0  0  0
 35 44  2  0  0  0
 35 45  1  0  0  0
 35 68  1  0  0  0
 36 56  1  0  0  0
 36103  1  0  0  0
 37 39  1  0  0  0
 37 47  1  0  0  0
 37 66  1  0  0  0
 37104  1  0  0  0
 38 43  2  0  0  0
 38 46  1  0  0  0
 38 47  1  0  0  0
 39 64  1  0  0  0
 39 67  2  0  0  0
 40 52  1  0  0  0
 40 53  2  0  0  0
 40 58  1  0  0  0
 41105  1  0  0  0
 41106  1  0  0  0
 41107  1  0  0  0
 41 48  1  0  0  0
 42 43  1  0  0  0
 42 66  1  0  0  0
 42108  1  0  0  0
 42109  1  0  0  0
 43 44  1  0  0  0
 44110  1  0  0  0
 45 46  2  0  0  0
 45111  1  0  0  0
 46112  1  0  0  0
 47113  1  0  0  0
 47114  1  0  0  0
 48 56  1  0  0  0
 48 65  1  0  0  0
 48115  1  0  0  0
 49 50  1  0  0  0
 49 53  1  0  0  0
 49 64  1  0  0  0
 49116  1  0  0  0
 50 51  1  0  0  0
 50117  1  0  0  0
 50118  1  0  0  0
 51 52  1  0  0  0
 51119  1  0  0  0
 51120  1  0  0  0
 52121  1  0  0  0
 52122  1  0  0  0
 53 54  1  0  0  0
 54 55  2  0  0  0
 54123  1  0  0  0
 55 57  1  0  0  0
 55124  1  0  0  0
 56 69  2  0  0  0
 57 58  2  0  0  0
 57125  1  0  0  0
 58126  1  0  0  0
 59 60  1  0  0  0
 59 61  1  0  0  0
 59 62  1  0  0  0
 60127  1  0  0  0
 60128  1  0  0  0
 60129  1  0  0  0
 61130  1  0  0  0
 61131  1  0  0  0
 61132  1  0  0  0
 62133  1  0  0  0
 62134  1  0  0  0
 62135  1  0  0  0
 63 65  1  0  0  0
 63136  1  0  0  0
 63137  1  0  0  0
 63138  1  0  0  0
 64139  1  0  0  0
 65140  1  0  0  0
 68 77  1  0  0  0
 71 72  2  0  0  0
 71 73  1  0  0  0
 71141  1  0  0  0
 72 78  1  0  0  0
 72142  1  0  0  0
 73 75  1  0  0  0
 73 79  2  0  0  0
 74 78  2  0  0  0
 74 79  1  0  0  0
 74 80  1  0  0  0
 75 81  1  0  0  0
 75143  1  0  0  0
 75144  1  0  0  0
 76 77  1  0  0  0
 76 80  1  0  0  0
 76145  1  0  0  0
 76146  1  0  0  0
 77147  1  0  0  0
 77148  1  0  0  0
 80149  1  0  0  0
 81150  1  0  0  0
M  ISO  4   1 100  68 101  77 101  81 100
M  END
> <chiral flag>
0

> <version>
0

> <s_m_source_file>
/data/baiqing/PycharmProjects/Reinvent-master-3.2/result/LINK_invent/BTK/process_docking_weight1_custom_product_contain_oxygen_bond_distance_aromatic_linkinvent_7_9_3/rearranged_h_0197.sdf

> <i_m_source_file_index>
66

> <r_mmod_Potential_Energy-OPLS-2005>
-559.912902832031

> <r_mmod_Stretch_Energy-OPLS-2005>
124.226570129395

> <r_mmod_Bend_Energy-OPLS-2005>
184.921432495117

> <r_mmod_Torsional_Energy-OPLS-2005>
191.717437744141

> <r_mmod_Improper_Torsional_Energy-OPLS-2005>
7.0594744682312

> <r_mmod_Van_der_Waal_Energy-OPLS-2005>
147.724761962891

> <r_mmod_Electrostatic_Energy-OPLS-2005>
-1069.33154296875

> <r_mmod_Solvation_Energy-OPLS-2005>
-257.717864990234

> <b_mmod_Minimization_Converged-OPLS-2005>
0

> <r_mmod_RMS_Derivative-OPLS-2005>
6.18890810012817

$$$$
66
                    3D
 Structure written by MMmdl.
151159  0  0  1  0            999 V2000
  -30.7566  -14.4506   20.5251 C   0  0  0  0  0  0
  -30.4051  -12.2799   19.4210 C   0  0  0  0  0  0
  -29.4835  -12.4692   18.2028 C   0  0  0  0  0  0
  -28.0069  -12.3564   18.6243 C   0  0  0  0  0  0
  -27.6630  -13.2179   19.8710 C   0  0  2  0  0  0
  -28.7089  -13.0492   20.9954 C   0  0  0  0  0  0
  -25.2658  -13.8243   20.5735 C   0  0  0  0  0  0
  -24.1893  -13.0497   20.9186 C   0  0  0  0  0  0
  -24.6441  -11.6963   20.8759 C   0  0  0  0  0  0
  -23.9120  -10.4337   21.0435 C   0  0  0  0  0  0
  -24.3654   -9.4233   21.9197 C   0  0  0  0  0  0
  -23.6307   -8.2278   22.0763 C   0  0  0  0  0  0
  -22.4287   -8.0321   21.3556 C   0  0  0  0  0  0
  -21.9952   -9.0317   20.4668 C   0  0  0  0  0  0
  -22.7299  -10.2187   20.3084 C   0  0  0  0  0  0
  -21.6842   -6.0776   22.5286 C   0  0  0  0  0  0
  -21.4015   -6.5678   23.8220 C   0  0  0  0  0  0
  -21.3635   -5.6812   24.9171 C   0  0  0  0  0  0
  -21.6025   -4.3078   24.7214 C   0  0  0  0  0  0
  -21.8820   -3.8189   23.4335 C   0  0  0  0  0  0
  -21.9198   -4.7014   22.3394 C   0  0  0  0  0  0
  -22.7928  -13.5304   21.1815 C   0  0  0  0  0  0
  -22.1669   -4.2193   21.0971 F   0  0  0  0  0  0
  -21.5598   -3.4555   25.7727 F   0  0  0  0  0  0
  -30.0373  -13.3004   20.4181 N   0  0  0  0  0  0
  -26.3072  -12.9395   20.3425 N   0  0  0  0  0  0
  -25.9368  -11.6549   20.5845 N   0  0  0  0  0  0
  -22.0563  -12.8267   22.0350 N   0  0  0  0  0  0
  -25.4497  -15.1948   20.4141 N   0  0  0  0  0  0
  -31.9047  -14.5508   20.0939 O   0  0  0  0  0  0
  -21.6641   -6.8924   21.4247 O   0  0  0  0  0  0
  -22.3602  -14.5580   20.6643 O   0  0  0  0  0  0
  -24.6211  -31.8686   23.2104 C   0  0  0  0  0  0
  -25.9098  -32.4818   23.8413 C   0  0  1  0  0  0
  -27.2387  -27.4142   20.0755 C   0  0  0  0  0  0
  -25.5952  -33.8616   24.2357 N   0  0  0  0  0  0
  -23.4081  -30.4969   21.5527 C   0  0  2  0  0  0
  -24.8542  -28.9597   20.1139 C   0  0  0  0  0  0
  -22.7420  -29.4742   22.5005 C   0  0  0  0  0  0
  -18.0310  -28.1400   22.8512 C   0  0  0  0  0  0
  -24.1485  -36.7287   23.2642 C   0  0  0  0  0  0
  -25.9446  -30.8234   21.3698 C   0  0  0  0  0  0
  -26.0203  -29.4591   20.7073 C   0  0  0  0  0  0
  -27.2186  -28.6999   20.6743 C   0  0  0  0  0  0
  -26.0548  -26.9468   19.4618 C   0  0  0  0  0  0
  -24.8690  -27.7026   19.4869 C   0  0  0  0  0  0
  -23.6135  -29.8252   20.1706 C   0  0  0  0  0  0
  -25.4107  -36.3114   24.0362 C   0  0  1  0  0  0
  -20.5899  -28.3732   23.1310 C   0  0  2  0  0  0
  -20.6846  -26.9473   22.5406 C   0  0  0  0  0  0
  -19.5795  -26.6416   21.5251 C   0  0  0  0  0  0
  -18.2000  -26.7931   22.1685 C   0  0  0  0  0  0
  -19.1548  -28.8885   23.2912 C   0  0  0  0  0  0
  -18.9466  -30.1483   23.8924 C   0  0  0  0  0  0
  -17.6470  -30.6617   24.0575 C   0  0  0  0  0  0
  -25.9056  -34.9480   23.5156 C   0  0  0  0  0  0
  -16.5377  -29.9108   23.6350 C   0  0  0  0  0  0
  -16.7305  -28.6523   23.0388 C   0  0  0  0  0  0
  -26.4502  -31.6604   25.0753 C   0  0  0  0  0  0
  -25.3721  -31.3727   26.1465 C   0  0  0  0  0  0
  -27.0380  -30.3045   24.6200 C   0  0  0  0  0  0
  -27.6113  -32.4303   25.7482 C   0  0  0  0  0  0
  -27.5585  -37.1810   24.8485 C   0  0  0  0  0  0
  -21.4152  -29.3098   22.3690 N   0  0  0  0  0  0
  -26.4299  -37.3790   23.9424 N   0  0  0  0  0  0
  -24.6766  -31.0789   22.1009 N   0  0  0  0  0  0
  -23.4152  -28.8300   23.3094 O   0  0  0  0  0  0
  -28.3859  -26.6351   20.0615 O   0  0  0  0  0  0
  -26.5593  -34.8929   22.4704 O   0  0  0  0  0  0
  -23.5403  -32.1503   23.7463 O   0  0  0  0  0  0
  -30.2571  -19.3046   20.4015 C   0  0  0  0  0  0
  -28.0541  -19.8142   20.9787 C   0  0  0  0  0  0
  -29.2450  -20.3147   20.5098 C   0  0  0  0  0  0
  -29.8515  -18.0710   20.8670 C   0  0  0  0  0  0
  -28.8287  -22.7840   20.6191 C   0  0  0  0  0  0
  -30.7382  -16.8681   21.0902 C   0  0  0  0  0  0
  -29.1581  -24.1759   20.0187 C   0  0  0  0  0  0
  -28.2225  -25.2938   20.5843 C   0  0  0  0  0  0
  -29.4701  -21.6888   20.1432 N   0  0  0  0  0  0
  -30.1097  -15.5370   20.9840 N   0  0  0  0  0  0
  -27.9998  -22.7088   21.5311 O   0  0  0  0  0  0
  -28.1654  -18.1053   21.3216 S   0  0  0  0  0  0
  -31.4504  -12.3332   19.1085 H   0  0  0  0  0  0
  -30.2751  -11.2817   19.8406 H   0  0  0  0  0  0
  -29.7001  -11.7173   17.4429 H   0  0  0  0  0  0
  -29.6685  -13.4406   17.7418 H   0  0  0  0  0  0
  -27.8050  -11.3032   18.8277 H   0  0  0  0  0  0
  -27.3580  -12.6306   17.7915 H   0  0  0  0  0  0
  -27.7010  -14.2611   19.5530 H   0  0  0  0  0  0
  -28.6728  -12.0482   21.4268 H   0  0  0  0  0  0
  -28.4882  -13.7309   21.8193 H   0  0  0  0  0  0
  -25.2802   -9.5656   22.4770 H   0  0  0  0  0  0
  -24.0000   -7.4657   22.7477 H   0  0  0  0  0  0
  -21.0890   -8.8881   19.8962 H   0  0  0  0  0  0
  -22.3796  -10.9752   19.6197 H   0  0  0  0  0  0
  -21.2020   -7.6192   23.9732 H   0  0  0  0  0  0
  -21.1429   -6.0548   25.9065 H   0  0  0  0  0  0
  -22.0611   -2.7659   23.2829 H   0  0  0  0  0  0
  -22.4174  -11.9907   22.4702 H   0  0  0  0  0  0
  -21.1213  -13.1339   22.2610 H   0  0  0  0  0  0
  -24.7113  -15.8776   20.5410 H   0  0  0  0  0  0
  -26.3163  -15.6130   20.0977 H   0  0  0  0  0  0
  -26.7175  -32.5499   23.1181 H   0  0  0  0  0  0
  -25.0134  -33.9783   25.0526 H   0  0  0  0  0  0
  -22.7009  -31.3163   21.4116 H   0  0  0  0  0  0
  -23.3767  -35.9597   23.3326 H   0  0  0  0  0  0
  -24.3590  -36.8857   22.2054 H   0  0  0  0  0  0
  -23.7210  -37.6502   23.6612 H   0  0  0  0  0  0
  -26.0794  -31.5944   20.6107 H   0  0  0  0  0  0
  -26.8238  -30.8598   21.9996 H   0  0  0  0  0  0
  -28.1189  -29.0966   21.1213 H   0  0  0  0  0  0
  -26.0400  -25.9975   18.9451 H   0  0  0  0  0  0
  -23.9764  -27.3178   19.0135 H   0  0  0  0  0  0
  -23.7053  -30.5958   19.4044 H   0  0  0  0  0  0
  -22.7352  -29.2412   19.8878 H   0  0  0  0  0  0
  -25.1270  -36.2002   25.0856 H   0  0  0  0  0  0
  -20.9999  -28.3315   24.1438 H   0  0  0  0  0  0
  -20.5836  -26.2328   23.3595 H   0  0  0  0  0  0
  -21.6694  -26.7556   22.1155 H   0  0  0  0  0  0
  -19.6971  -25.6334   21.1270 H   0  0  0  0  0  0
  -19.6715  -27.3240   20.6767 H   0  0  0  0  0  0
  -17.4282  -26.6673   21.4088 H   0  0  0  0  0  0
  -18.0413  -26.0095   22.9091 H   0  0  0  0  0  0
  -19.7939  -30.7307   24.2302 H   0  0  0  0  0  0
  -17.5046  -31.6313   24.5147 H   0  0  0  0  0  0
  -15.5387  -30.3016   23.7698 H   0  0  0  0  0  0
  -15.8704  -28.0826   22.7123 H   0  0  0  0  0  0
  -24.5883  -30.7112   25.7765 H   0  0  0  0  0  0
  -24.8901  -32.2878   26.4909 H   0  0  0  0  0  0
  -25.7983  -30.8867   27.0239 H   0  0  0  0  0  0
  -26.2986  -29.6759   24.1216 H   0  0  0  0  0  0
  -27.4131  -29.7338   25.4716 H   0  0  0  0  0  0
  -27.8816  -30.4410   23.9420 H   0  0  0  0  0  0
  -27.2801  -33.3606   26.2099 H   0  0  0  0  0  0
  -28.3850  -32.6839   25.0223 H   0  0  0  0  0  0
  -28.0851  -31.8377   26.5325 H   0  0  0  0  0  0
  -28.2646  -38.0070   24.7507 H   0  0  0  0  0  0
  -28.1038  -36.2617   24.6322 H   0  0  0  0  0  0
  -27.2309  -37.1454   25.8889 H   0  0  0  0  0  0
  -20.9349  -29.8683   21.6787 H   0  0  0  0  0  0
  -26.0213  -38.2889   24.1357 H   0  0  0  0  0  0
  -31.2586  -19.5093   20.0505 H   0  0  0  0  0  0
  -27.1228  -20.3330   21.1628 H   0  0  0  0  0  0
  -31.1743  -16.9388   22.0889 H   0  0  0  0  0  0
  -31.5821  -16.9497   20.4028 H   0  0  0  0  0  0
  -29.0616  -24.1108   18.9323 H   0  0  0  0  0  0
  -30.2010  -24.4130   20.2358 H   0  0  0  0  0  0
  -28.3856  -25.3625   21.6584 H   0  0  0  0  0  0
  -27.1980  -24.9403   20.4716 H   0  0  0  0  0  0
  -30.2102  -21.8601   19.4716 H   0  0  0  0  0  0
  -29.1501  -15.4303   21.2718 H   0  0  0  0  0  0
  1 25  1  0  0  0
  1 30  2  0  0  0
  1 80  1  0  0  0
  2  3  1  0  0  0
  2 25  1  0  0  0
  2 83  1  0  0  0
  2 84  1  0  0  0
  3  4  1  0  0  0
  3 85  1  0  0  0
  3 86  1  0  0  0
  4  5  1  0  0  0
  4 87  1  0  0  0
  4 88  1  0  0  0
  5  6  1  0  0  0
  5 26  1  0  0  0
  5 89  1  0  0  0
  6 25  1  0  0  0
  6 90  1  0  0  0
  6 91  1  0  0  0
  7  8  2  0  0  0
  7 26  1  0  0  0
  7 29  1  0  0  0
  8  9  1  0  0  0
  8 22  1  0  0  0
  9 10  1  0  0  0
  9 27  2  0  0  0
 10 11  2  0  0  0
 10 15  1  0  0  0
 11 12  1  0  0  0
 11 92  1  0  0  0
 12 13  2  0  0  0
 12 93  1  0  0  0
 13 14  1  0  0  0
 13 31  1  0  0  0
 14 15  2  0  0  0
 14 94  1  0  0  0
 15 95  1  0  0  0
 16 17  2  0  0  0
 16 21  1  0  0  0
 16 31  1  0  0  0
 17 18  1  0  0  0
 17 96  1  0  0  0
 18 19  2  0  0  0
 18 97  1  0  0  0
 19 20  1  0  0  0
 19 24  1  0  0  0
 20 21  2  0  0  0
 20 98  1  0  0  0
 21 23  1  0  0  0
 22 28  1  0  0  0
 22 32  2  0  0  0
 26 27  1  0  0  0
 28 99  1  0  0  0
 28100  1  0  0  0
 29101  1  0  0  0
 29102  1  0  0  0
 33 34  1  0  0  0
 33 66  1  0  0  0
 33 70  2  0  0  0
 34 36  1  0  0  0
 34 59  1  0  0  0
 34103  1  0  0  0
 35 44  2  0  0  0
 35 45  1  0  0  0
 35 68  1  0  0  0
 36 56  1  0  0  0
 36104  1  0  0  0
 37 39  1  0  0  0
 37 47  1  0  0  0
 37 66  1  0  0  0
 37105  1  0  0  0
 38 43  2  0  0  0
 38 46  1  0  0  0
 38 47  1  0  0  0
 39 64  1  0  0  0
 39 67  2  0  0  0
 40 52  1  0  0  0
 40 53  2  0  0  0
 40 58  1  0  0  0
 41106  1  0  0  0
 41107  1  0  0  0
 41108  1  0  0  0
 41 48  1  0  0  0
 42 43  1  0  0  0
 42 66  1  0  0  0
 42109  1  0  0  0
 42110  1  0  0  0
 43 44  1  0  0  0
 44111  1  0  0  0
 45 46  2  0  0  0
 45112  1  0  0  0
 46113  1  0  0  0
 47114  1  0  0  0
 47115  1  0  0  0
 48 56  1  0  0  0
 48 65  1  0  0  0
 48116  1  0  0  0
 49 50  1  0  0  0
 49 53  1  0  0  0
 49 64  1  0  0  0
 49117  1  0  0  0
 50 51  1  0  0  0
 50118  1  0  0  0
 50119  1  0  0  0
 51 52  1  0  0  0
 51120  1  0  0  0
 51121  1  0  0  0
 52122  1  0  0  0
 52123  1  0  0  0
 53 54  1  0  0  0
 54 55  2  0  0  0
 54124  1  0  0  0
 55 57  1  0  0  0
 55125  1  0  0  0
 56 69  2  0  0  0
 57 58  2  0  0  0
 57126  1  0  0  0
 58127  1  0  0  0
 59 60  1  0  0  0
 59 61  1  0  0  0
 59 62  1  0  0  0
 60128  1  0  0  0
 60129  1  0  0  0
 60130  1  0  0  0
 61131  1  0  0  0
 61132  1  0  0  0
 61133  1  0  0  0
 62134  1  0  0  0
 62135  1  0  0  0
 62136  1  0  0  0
 63 65  1  0  0  0
 63137  1  0  0  0
 63138  1  0  0  0
 63139  1  0  0  0
 64140  1  0  0  0
 65141  1  0  0  0
 68 78  1  0  0  0
 71 73  1  0  0  0
 71 74  2  0  0  0
 71142  1  0  0  0
 72 73  2  0  0  0
 72 82  1  0  0  0
 72143  1  0  0  0
 73 79  1  0  0  0
 74 76  1  0  0  0
 74 82  1  0  0  0
 75 77  1  0  0  0
 75 79  1  0  0  0
 75 81  2  0  0  0
 76 80  1  0  0  0
 76144  1  0  0  0
 76145  1  0  0  0
 77 78  1  0  0  0
 77146  1  0  0  0
 77147  1  0  0  0
 78148  1  0  0  0
 78149  1  0  0  0
 79150  1  0  0  0
 80151  1  0  0  0
M  ISO  4   1 100  68 101  78 101  80 100
M  END
> <chiral flag>
0

> <version>
0

> <s_m_source_file>
/data/baiqing/PycharmProjects/Reinvent-master-3.2/result/LINK_invent/BTK/process_docking_weight1_custom_product_contain_oxygen_bond_distance_aromatic_linkinvent_7_9_3/rearranged_h_0197.sdf

> <i_m_source_file_index>
67

> <r_mmod_Potential_Energy-OPLS-2005>
-136.248962402344

> <r_mmod_Stretch_Energy-OPLS-2005>
40.4180908203125

> <r_mmod_Bend_Energy-OPLS-2005>
103.037628173828

> <r_mmod_Torsional_Energy-OPLS-2005>
227.050399780273

> <r_mmod_Improper_Torsional_Energy-OPLS-2005>
3.47932696342468

> <r_mmod_Van_der_Waal_Energy-OPLS-2005>
140.749542236328

> <r_mmod_Electrostatic_Energy-OPLS-2005>
-440.518585205078

> <r_mmod_Solvation_Energy-OPLS-2005>
-229.302886962891

> <b_mmod_Minimization_Converged-OPLS-2005>
0

> <r_mmod_RMS_Derivative-OPLS-2005>
4.55975675582886

$$$$
67
                    3D
 Structure written by MMmdl.
164172  0  0  1  0            999 V2000
  -30.5739  -14.8054   20.4065 C   0  0  0  0  0  0
  -30.4346  -12.4777   19.5007 C   0  0  0  0  0  0
  -29.5245  -12.5121   18.2520 C   0  0  0  0  0  0
  -28.0479  -12.3345   18.6533 C   0  0  0  0  0  0
  -27.6410  -13.2358   19.8502 C   0  0  2  0  0  0
  -28.6812  -13.1911   20.9913 C   0  0  0  0  0  0
  -25.2523  -13.8215   20.5684 C   0  0  0  0  0  0
  -24.1812  -13.0462   20.9209 C   0  0  0  0  0  0
  -24.6397  -11.6940   20.8748 C   0  0  0  0  0  0
  -23.9072  -10.4312   21.0404 C   0  0  0  0  0  0
  -24.3621   -9.4235   21.9185 C   0  0  0  0  0  0
  -23.6301   -8.2265   22.0756 C   0  0  0  0  0  0
  -22.4291   -8.0275   21.3535 C   0  0  0  0  0  0
  -21.9920   -9.0255   20.4645 C   0  0  0  0  0  0
  -22.7237  -10.2143   20.3046 C   0  0  0  0  0  0
  -21.6864   -6.0725   22.5279 C   0  0  0  0  0  0
  -21.4021   -6.5641   23.8212 C   0  0  0  0  0  0
  -21.3670   -5.6791   24.9178 C   0  0  0  0  0  0
  -21.6051   -4.3050   24.7226 C   0  0  0  0  0  0
  -21.8810   -3.8138   23.4353 C   0  0  0  0  0  0
  -21.9197   -4.6950   22.3403 C   0  0  0  0  0  0
  -22.7825  -13.5234   21.1862 C   0  0  0  0  0  0
  -22.1650   -4.2142   21.0980 F   0  0  0  0  0  0
  -21.5644   -3.4528   25.7737 F   0  0  0  0  0  0
  -29.9817  -13.5552   20.4157 N   0  0  0  0  0  0
  -26.2940  -12.9420   20.3257 N   0  0  0  0  0  0
  -25.9334  -11.6572   20.5733 N   0  0  0  0  0  0
  -22.0435  -12.8242   22.0407 N   0  0  0  0  0  0
  -25.4195  -15.1949   20.4111 N   0  0  0  0  0  0
  -31.7665  -14.8828   20.0785 O   0  0  0  0  0  0
  -21.6650   -6.8877   21.4242 O   0  0  0  0  0  0
  -22.3519  -14.5527   20.6676 O   0  0  0  0  0  0
  -24.6311  -31.8530   23.1963 C   0  0  0  0  0  0
  -25.9113  -32.4747   23.8318 C   0  0  1  0  0  0
  -27.2113  -27.2397   20.1393 C   0  0  0  0  0  0
  -25.5888  -33.8552   24.2244 N   0  0  0  0  0  0
  -23.4294  -30.4751   21.5392 C   0  0  2  0  0  0
  -24.8771  -28.9141   20.1144 C   0  0  0  0  0  0
  -22.7492  -29.4588   22.4883 C   0  0  0  0  0  0
  -18.0292  -28.1386   22.8494 C   0  0  0  0  0  0
  -24.1466  -36.7274   23.2645 C   0  0  0  0  0  0
  -25.9775  -30.7590   21.3789 C   0  0  0  0  0  0
  -26.0514  -29.3791   20.7222 C   0  0  0  0  0  0
  -27.2261  -28.5544   20.7223 C   0  0  0  0  0  0
  -26.0188  -26.8471   19.5005 C   0  0  0  0  0  0
  -24.8662  -27.6545   19.4937 C   0  0  0  0  0  0
  -23.6497  -29.8035   20.1584 C   0  0  0  0  0  0
  -25.4100  -36.3073   24.0334 C   0  0  1  0  0  0
  -20.5898  -28.3698   23.1254 C   0  0  2  0  0  0
  -20.6772  -26.9408   22.5411 C   0  0  0  0  0  0
  -19.5749  -26.6377   21.5211 C   0  0  0  0  0  0
  -18.1935  -26.7928   22.1637 C   0  0  0  0  0  0
  -19.1555  -28.8857   23.2875 C   0  0  0  0  0  0
  -18.9482  -30.1462   23.8892 C   0  0  0  0  0  0
  -17.6482  -30.6589   24.0559 C   0  0  0  0  0  0
  -25.9042  -34.9437   23.5102 C   0  0  0  0  0  0
  -16.5361  -29.9092   23.6333 C   0  0  0  0  0  0
  -16.7282  -28.6504   23.0358 C   0  0  0  0  0  0
  -26.4459  -31.6591   25.0723 C   0  0  0  0  0  0
  -25.3661  -31.3803   26.1439 C   0  0  0  0  0  0
  -27.0318  -30.2995   24.6265 C   0  0  0  0  0  0
  -27.6005  -32.4345   25.7503 C   0  0  0  0  0  0
  -27.5573  -37.1787   24.8470 C   0  0  0  0  0  0
  -21.4199  -29.3037   22.3630 N   0  0  0  0  0  0
  -26.4274  -37.3776   23.9419 N   0  0  0  0  0  0
  -24.6983  -31.0482   22.0943 N   0  0  0  0  0  0
  -23.4182  -28.8131   23.2995 O   0  0  0  0  0  0
  -28.2787  -26.3062   20.1583 O   0  0  0  0  0  0
  -26.5646  -34.8913   22.4687 O   0  0  0  0  0  0
  -23.5456  -32.1363   23.7236 O   0  0  0  0  0  0
  -29.3663  -19.5859   18.6067 C   0  0  0  0  0  0
  -29.6420  -18.3600   17.9989 C   0  0  0  0  0  0
  -29.3066  -19.6256   19.9998 C   0  0  0  0  0  0
  -29.7539  -17.2447   20.0134 C   0  0  0  0  0  0
  -31.8593  -21.7110   20.2450 C   0  0  0  0  0  0
  -30.7627  -22.8408   18.2525 C   0  0  0  0  0  0
  -28.7216  -24.9806   22.1593 C   0  0  0  0  0  0
  -28.2037  -23.4657   20.0687 C   0  0  0  0  0  0
  -30.7312  -22.6479   19.7831 C   0  0  0  0  0  0
  -29.3460  -22.3489   20.4381 C   0  0  2  0  0  0
  -28.0453  -24.9446   20.7822 C   0  0  2  0  0  0
  -29.8439  -17.2237   18.6825 N   0  0  0  0  0  0
  -29.4579  -18.4177   20.6849 N   0  0  0  0  0  0
  -29.7067  -18.2491   16.6193 N   0  0  0  0  0  0
  -28.9877  -20.8668   20.6804 N   0  0  0  0  0  0
  -29.8016  -15.9477   20.6495 N   0  0  0  0  0  0
  -31.4778  -12.6019   19.2048 H   0  0  0  0  0  0
  -30.3796  -11.5053   19.9945 H   0  0  0  0  0  0
  -29.8210  -11.7356   17.5461 H   0  0  0  0  0  0
  -29.6558  -13.4633   17.7342 H   0  0  0  0  0  0
  -27.9074  -11.2862   18.9180 H   0  0  0  0  0  0
  -27.3975  -12.5187   17.7968 H   0  0  0  0  0  0
  -27.6287  -14.2541   19.4646 H   0  0  0  0  0  0
  -28.7259  -12.1955   21.4373 H   0  0  0  0  0  0
  -28.4048  -13.8793   21.7933 H   0  0  0  0  0  0
  -25.2756   -9.5727   22.4771 H   0  0  0  0  0  0
  -24.0011   -7.4670   22.7498 H   0  0  0  0  0  0
  -21.0829   -8.8754   19.8970 H   0  0  0  0  0  0
  -22.3667  -10.9668   19.6155 H   0  0  0  0  0  0
  -21.2001   -7.6139   23.9708 H   0  0  0  0  0  0
  -21.1511   -6.0522   25.9084 H   0  0  0  0  0  0
  -22.0585   -2.7593   23.2843 H   0  0  0  0  0  0
  -22.3990  -11.9896   22.4827 H   0  0  0  0  0  0
  -21.1051  -13.1296   22.2568 H   0  0  0  0  0  0
  -24.6526  -15.8478   20.5309 H   0  0  0  0  0  0
  -26.2525  -15.6307   20.0396 H   0  0  0  0  0  0
  -26.7170  -32.5398   23.1057 H   0  0  0  0  0  0
  -24.9928  -33.9676   25.0314 H   0  0  0  0  0  0
  -22.7272  -31.2977   21.3875 H   0  0  0  0  0  0
  -23.3745  -35.9588   23.3307 H   0  0  0  0  0  0
  -24.3553  -36.8906   22.2062 H   0  0  0  0  0  0
  -23.7188  -37.6456   23.6675 H   0  0  0  0  0  0
  -26.1186  -31.5169   20.6072 H   0  0  0  0  0  0
  -26.8527  -30.8092   22.0151 H   0  0  0  0  0  0
  -28.1231  -28.9016   21.2149 H   0  0  0  0  0  0
  -25.9706  -25.8782   19.0229 H   0  0  0  0  0  0
  -23.9648  -27.2897   19.0193 H   0  0  0  0  0  0
  -23.7751  -30.5754   19.3979 H   0  0  0  0  0  0
  -22.7665  -29.2364   19.8564 H   0  0  0  0  0  0
  -25.1280  -36.1919   25.0828 H   0  0  0  0  0  0
  -21.0025  -28.3280   24.1359 H   0  0  0  0  0  0
  -20.5659  -26.2303   23.3617 H   0  0  0  0  0  0
  -21.6633  -26.7403   22.1208 H   0  0  0  0  0  0
  -19.6905  -25.6295   21.1232 H   0  0  0  0  0  0
  -19.6688  -27.3185   20.6746 H   0  0  0  0  0  0
  -17.4202  -26.6675   21.4044 H   0  0  0  0  0  0
  -18.0339  -26.0066   22.9033 H   0  0  0  0  0  0
  -19.7963  -30.7281   24.2233 H   0  0  0  0  0  0
  -17.5043  -31.6269   24.5166 H   0  0  0  0  0  0
  -15.5374  -30.2999   23.7656 H   0  0  0  0  0  0
  -15.8675  -28.0822   22.7078 H   0  0  0  0  0  0
  -24.5774  -30.7227   25.7765 H   0  0  0  0  0  0
  -24.8917  -32.3013   26.4852 H   0  0  0  0  0  0
  -25.7919  -30.8958   27.0237 H   0  0  0  0  0  0
  -26.2943  -29.6749   24.1213 H   0  0  0  0  0  0
  -27.3886  -29.7259   25.4834 H   0  0  0  0  0  0
  -27.8860  -30.4259   23.9607 H   0  0  0  0  0  0
  -27.2593  -33.3648   26.2068 H   0  0  0  0  0  0
  -28.3815  -32.6917   25.0331 H   0  0  0  0  0  0
  -28.0668  -31.8482   26.5437 H   0  0  0  0  0  0
  -28.2591  -38.0084   24.7515 H   0  0  0  0  0  0
  -28.1060  -36.2614   24.6289 H   0  0  0  0  0  0
  -27.2292  -37.1431   25.8873 H   0  0  0  0  0  0
  -20.9369  -29.8750   21.6842 H   0  0  0  0  0  0
  -26.0160  -38.2844   24.1444 H   0  0  0  0  0  0
  -29.1582  -20.4692   18.0245 H   0  0  0  0  0  0
  -32.8357  -22.1340   20.0108 H   0  0  0  0  0  0
  -31.8064  -20.7395   19.7544 H   0  0  0  0  0  0
  -31.8298  -21.5545   21.3224 H   0  0  0  0  0  0
  -31.7218  -23.2617   17.9460 H   0  0  0  0  0  0
  -30.0036  -23.5370   17.9007 H   0  0  0  0  0  0
  -30.6519  -21.9087   17.7066 H   0  0  0  0  0  0
  -28.4333  -24.1153   22.7588 H   0  0  0  0  0  0
  -28.4241  -25.8688   22.7173 H   0  0  0  0  0  0
  -29.8089  -24.9886   22.0793 H   0  0  0  0  0  0
  -27.2735  -22.9529   20.3127 H   0  0  0  0  0  0
  -28.1193  -23.5919   18.9914 H   0  0  0  0  0  0
  -30.9988  -23.6325   20.1759 H   0  0  0  0  0  0
  -29.5566  -22.5880   21.4792 H   0  0  0  0  0  0
  -26.9823  -24.9532   21.0317 H   0  0  0  0  0  0
  -29.3046  -18.9804   16.0462 H   0  0  0  0  0  0
  -29.6708  -17.3276   16.2052 H   0  0  0  0  0  0
  -28.8166  -20.6965   21.6659 H   0  0  0  0  0  0
  -28.9730  -15.7524   21.1834 H   0  0  0  0  0  0
  1 25  1  0  0  0
  1 30  2  0  0  0
  1 86  1  0  0  0
  2  3  1  0  0  0
  2 25  1  0  0  0
  2 87  1  0  0  0
  2 88  1  0  0  0
  3  4  1  0  0  0
  3 89  1  0  0  0
  3 90  1  0  0  0
  4  5  1  0  0  0
  4 91  1  0  0  0
  4 92  1  0  0  0
  5  6  1  0  0  0
  5 26  1  0  0  0
  5 93  1  0  0  0
  6 25  1  0  0  0
  6 94  1  0  0  0
  6 95  1  0  0  0
  7  8  2  0  0  0
  7 26  1  0  0  0
  7 29  1  0  0  0
  8  9  1  0  0  0
  8 22  1  0  0  0
  9 10  1  0  0  0
  9 27  2  0  0  0
 10 11  2  0  0  0
 10 15  1  0  0  0
 11 12  1  0  0  0
 11 96  1  0  0  0
 12 13  2  0  0  0
 12 97  1  0  0  0
 13 14  1  0  0  0
 13 31  1  0  0  0
 14 15  2  0  0  0
 14 98  1  0  0  0
 15 99  1  0  0  0
 16 17  2  0  0  0
 16 21  1  0  0  0
 16 31  1  0  0  0
 17 18  1  0  0  0
 17100  1  0  0  0
 18 19  2  0  0  0
 18101  1  0  0  0
 19 20  1  0  0  0
 19 24  1  0  0  0
 20 21  2  0  0  0
 20102  1  0  0  0
 21 23  1  0  0  0
 22 28  1  0  0  0
 22 32  2  0  0  0
 26 27  1  0  0  0
 28103  1  0  0  0
 28104  1  0  0  0
 29105  1  0  0  0
 29106  1  0  0  0
 33 34  1  0  0  0
 33 66  1  0  0  0
 33 70  2  0  0  0
 34 36  1  0  0  0
 34 59  1  0  0  0
 34107  1  0  0  0
 35 44  2  0  0  0
 35 45  1  0  0  0
 35 68  1  0  0  0
 36 56  1  0  0  0
 36108  1  0  0  0
 37 39  1  0  0  0
 37 47  1  0  0  0
 37 66  1  0  0  0
 37109  1  0  0  0
 38 43  2  0  0  0
 38 46  1  0  0  0
 38 47  1  0  0  0
 39 64  1  0  0  0
 39 67  2  0  0  0
 40 52  1  0  0  0
 40 53  2  0  0  0
 40 58  1  0  0  0
 41110  1  0  0  0
 41111  1  0  0  0
 41112  1  0  0  0
 41 48  1  0  0  0
 42 43  1  0  0  0
 42 66  1  0  0  0
 42113  1  0  0  0
 42114  1  0  0  0
 43 44  1  0  0  0
 44115  1  0  0  0
 45 46  2  0  0  0
 45116  1  0  0  0
 46117  1  0  0  0
 47118  1  0  0  0
 47119  1  0  0  0
 48 56  1  0  0  0
 48 65  1  0  0  0
 48120  1  0  0  0
 49 50  1  0  0  0
 49 53  1  0  0  0
 49 64  1  0  0  0
 49121  1  0  0  0
 50 51  1  0  0  0
 50122  1  0  0  0
 50123  1  0  0  0
 51 52  1  0  0  0
 51124  1  0  0  0
 51125  1  0  0  0
 52126  1  0  0  0
 52127  1  0  0  0
 53 54  1  0  0  0
 54 55  2  0  0  0
 54128  1  0  0  0
 55 57  1  0  0  0
 55129  1  0  0  0
 56 69  2  0  0  0
 57 58  2  0  0  0
 57130  1  0  0  0
 58131  1  0  0  0
 59 60  1  0  0  0
 59 61  1  0  0  0
 59 62  1  0  0  0
 60132  1  0  0  0
 60133  1  0  0  0
 60134  1  0  0  0
 61135  1  0  0  0
 61136  1  0  0  0
 61137  1  0  0  0
 62138  1  0  0  0
 62139  1  0  0  0
 62140  1  0  0  0
 63 65  1  0  0  0
 63141  1  0  0  0
 63142  1  0  0  0
 63143  1  0  0  0
 64144  1  0  0  0
 65145  1  0  0  0
 68 81  1  0  0  0
 71 72  2  0  0  0
 71 73  1  0  0  0
 71146  1  0  0  0
 72 82  1  0  0  0
 72 84  1  0  0  0
 73 83  2  0  0  0
 73 85  1  0  0  0
 74 82  2  0  0  0
 74 83  1  0  0  0
 74 86  1  0  0  0
 75147  1  0  0  0
 75148  1  0  0  0
 75149  1  0  0  0
 75 79  1  0  0  0
 76 79  1  0  0  0
 76150  1  0  0  0
 76151  1  0  0  0
 76152  1  0  0  0
 77153  1  0  0  0
 77154  1  0  0  0
 77155  1  0  0  0
 77 81  1  0  0  0
 78 81  1  0  0  0
 78156  1  0  0  0
 78157  1  0  0  0
 78 80  1  0  0  0
 79 80  1  0  0  0
 79158  1  0  0  0
 80 85  1  0  0  0
 80159  1  0  0  0
 81160  1  0  0  0
 84161  1  0  0  0
 84162  1  0  0  0
 85163  1  0  0  0
 86164  1  0  0  0
M  ISO  4   1 100  68 101  81 101  86 100
M  END
> <chiral flag>
0

> <version>
0

> <s_m_source_file>
/data/baiqing/PycharmProjects/Reinvent-master-3.2/result/LINK_invent/BTK/process_docking_weight1_custom_product_contain_oxygen_bond_distance_aromatic_linkinvent_7_9_3/rearranged_h_0197.sdf

> <i_m_source_file_index>
68

> <r_mmod_Potential_Energy-OPLS-2005>
-219.707260131836

> <r_mmod_Stretch_Energy-OPLS-2005>
149.085906982422

> <r_mmod_Bend_Energy-OPLS-2005>
259.218658447266

> <r_mmod_Torsional_Energy-OPLS-2005>
300.004272460938

> <r_mmod_Improper_Torsional_Energy-OPLS-2005>
9.12696075439453

> <r_mmod_Van_der_Waal_Energy-OPLS-2005>
137.066558837891

> <r_mmod_Electrostatic_Energy-OPLS-2005>
-942.869506835938

> <r_mmod_Solvation_Energy-OPLS-2005>
-240.108581542969

> <b_mmod_Minimization_Converged-OPLS-2005>
0

> <r_mmod_RMS_Derivative-OPLS-2005>
3.12329268455505

$$$$
68
                    3D
 Structure written by MMmdl.
146154  0  0  1  0            999 V2000
  -30.5315  -15.0657   20.3841 C   0  0  0  0  0  0
  -30.4290  -12.6656   19.5106 C   0  0  0  0  0  0
  -29.5198  -12.5331   18.2682 C   0  0  0  0  0  0
  -28.0607  -12.2973   18.6945 C   0  0  0  0  0  0
  -27.6172  -13.2591   19.8270 C   0  0  2  0  0  0
  -28.6567  -13.3690   20.9621 C   0  0  0  0  0  0
  -25.2420  -13.8232   20.5726 C   0  0  0  0  0  0
  -24.1754  -13.0440   20.9242 C   0  0  0  0  0  0
  -24.6385  -11.6932   20.8768 C   0  0  0  0  0  0
  -23.9081  -10.4296   21.0415 C   0  0  0  0  0  0
  -24.3633   -9.4206   21.9186 C   0  0  0  0  0  0
  -23.6300   -8.2244   22.0760 C   0  0  0  0  0  0
  -22.4283   -8.0285   21.3549 C   0  0  0  0  0  0
  -21.9921   -9.0262   20.4654 C   0  0  0  0  0  0
  -22.7254  -10.2135   20.3064 C   0  0  0  0  0  0
  -21.6859   -6.0745   22.5282 C   0  0  0  0  0  0
  -21.4014   -6.5644   23.8215 C   0  0  0  0  0  0
  -21.3654   -5.6796   24.9174 C   0  0  0  0  0  0
  -21.6043   -4.3059   24.7226 C   0  0  0  0  0  0
  -21.8816   -3.8153   23.4344 C   0  0  0  0  0  0
  -21.9192   -4.6973   22.3401 C   0  0  0  0  0  0
  -22.7776  -13.5205   21.1891 C   0  0  0  0  0  0
  -22.1662   -4.2155   21.0981 F   0  0  0  0  0  0
  -21.5624   -3.4542   25.7737 F   0  0  0  0  0  0
  -29.9149  -13.8027   20.3414 N   0  0  0  0  0  0
  -26.2835  -12.9479   20.3232 N   0  0  0  0  0  0
  -25.9318  -11.6598   20.5749 N   0  0  0  0  0  0
  -22.0436  -12.8191   22.0446 N   0  0  0  0  0  0
  -25.4066  -15.1961   20.4146 N   0  0  0  0  0  0
  -31.7503  -15.0305   20.1739 O   0  0  0  0  0  0
  -21.6644   -6.8884   21.4244 O   0  0  0  0  0  0
  -22.3457  -14.5510   20.6735 O   0  0  0  0  0  0
  -24.6513  -31.8371   23.1813 C   0  0  0  0  0  0
  -25.9251  -32.4661   23.8231 C   0  0  1  0  0  0
  -27.2154  -27.0638   20.1598 C   0  0  0  0  0  0
  -25.5969  -33.8469   24.2149 N   0  0  0  0  0  0
  -23.4585  -30.4537   21.5289 C   0  0  2  0  0  0
  -24.9079  -28.8654   20.1105 C   0  0  0  0  0  0
  -22.7606  -29.4513   22.4831 C   0  0  0  0  0  0
  -18.0317  -28.1400   22.8481 C   0  0  0  0  0  0
  -24.1489  -36.7235   23.2644 C   0  0  0  0  0  0
  -26.0197  -30.6875   21.3898 C   0  0  0  0  0  0
  -26.0885  -29.2918   20.7313 C   0  0  0  0  0  0
  -27.2424  -28.4092   20.7331 C   0  0  0  0  0  0
  -26.0065  -26.7535   19.5004 C   0  0  0  0  0  0
  -24.8836  -27.6129   19.4783 C   0  0  0  0  0  0
  -23.6887  -29.7779   20.1506 C   0  0  0  0  0  0
  -25.4128  -36.3018   24.0313 C   0  0  1  0  0  0
  -20.5932  -28.3739   23.1219 C   0  0  2  0  0  0
  -20.6799  -26.9434   22.5403 C   0  0  0  0  0  0
  -19.5765  -26.6382   21.5219 C   0  0  0  0  0  0
  -18.1950  -26.7938   22.1633 C   0  0  0  0  0  0
  -19.1574  -28.8888   23.2844 C   0  0  0  0  0  0
  -18.9488  -30.1482   23.8873 C   0  0  0  0  0  0
  -17.6480  -30.6597   24.0561 C   0  0  0  0  0  0
  -25.9083  -34.9393   23.5046 C   0  0  0  0  0  0
  -16.5372  -29.9085   23.6340 C   0  0  0  0  0  0
  -16.7300  -28.6503   23.0365 C   0  0  0  0  0  0
  -26.4544  -31.6554   25.0700 C   0  0  0  0  0  0
  -25.3702  -31.3762   26.1376 C   0  0  0  0  0  0
  -27.0422  -30.2944   24.6323 C   0  0  0  0  0  0
  -27.6058  -32.4333   25.7493 C   0  0  0  0  0  0
  -27.5573  -37.1782   24.8475 C   0  0  0  0  0  0
  -21.4288  -29.3054   22.3581 N   0  0  0  0  0  0
  -26.4291  -37.3736   23.9405 N   0  0  0  0  0  0
  -24.7306  -31.0156   22.0884 N   0  0  0  0  0  0
  -23.4212  -28.8076   23.3024 O   0  0  0  0  0  0
  -28.2522  -26.0390   20.2305 O   0  0  0  0  0  0
  -26.5673  -34.8904   22.4627 O   0  0  0  0  0  0
  -23.5615  -32.1279   23.6989 O   0  0  0  0  0  0
  -29.9135  -20.4802   20.4112 C   0  0  0  0  0  0
  -27.8355  -20.7450   20.1728 C   0  0  0  0  0  0
  -29.4177  -19.1260   20.3479 C   0  0  0  0  0  0
  -30.2657  -17.6875   20.3830 C   0  0  0  0  0  0
  -29.0892  -23.1709   20.3832 C   0  0  0  0  0  0
  -27.9951  -24.4719   20.0932 C   0  0  0  0  0  0
  -28.0381  -19.3890   20.1863 N   0  0  0  0  0  0
  -28.9165  -21.5561   20.3035 N   0  0  0  0  0  0
  -29.8042  -16.3204   20.4452 N   0  0  0  0  0  0
  -31.4884  -17.8618   20.3565 O   0  0  0  0  0  0
  -31.4602  -12.8185   19.1898 H   0  0  0  0  0  0
  -30.4356  -11.7390   20.0870 H   0  0  0  0  0  0
  -29.8625  -11.7167   17.6308 H   0  0  0  0  0  0
  -29.5843  -13.4423   17.6686 H   0  0  0  0  0  0
  -27.9846  -11.2652   19.0399 H   0  0  0  0  0  0
  -27.3927  -12.3787   17.8363 H   0  0  0  0  0  0
  -27.5563  -14.2421   19.3587 H   0  0  0  0  0  0
  -28.7748  -12.4207   21.4888 H   0  0  0  0  0  0
  -28.3328  -14.1010   21.7041 H   0  0  0  0  0  0
  -25.2774   -9.5682   22.4767 H   0  0  0  0  0  0
  -24.0004   -7.4636   22.7481 H   0  0  0  0  0  0
  -21.0849   -8.8789   19.8962 H   0  0  0  0  0  0
  -22.3710  -10.9682   19.6181 H   0  0  0  0  0  0
  -21.2011   -7.6153   23.9721 H   0  0  0  0  0  0
  -21.1476   -6.0526   25.9077 H   0  0  0  0  0  0
  -22.0598   -2.7615   23.2850 H   0  0  0  0  0  0
  -22.4069  -11.9848   22.4816 H   0  0  0  0  0  0
  -21.1059  -13.1220   22.2681 H   0  0  0  0  0  0
  -24.6348  -15.8446   20.5279 H   0  0  0  0  0  0
  -26.2447  -15.6406   20.0633 H   0  0  0  0  0  0
  -26.7316  -32.5239   23.0951 H   0  0  0  0  0  0
  -25.0099  -33.9564   25.0289 H   0  0  0  0  0  0
  -22.7663  -31.2833   21.3687 H   0  0  0  0  0  0
  -23.3763  -35.9556   23.3307 H   0  0  0  0  0  0
  -24.3569  -36.8864   22.2059 H   0  0  0  0  0  0
  -23.7233  -37.6423   23.6683 H   0  0  0  0  0  0
  -26.1838  -31.4382   20.6153 H   0  0  0  0  0  0
  -26.8864  -30.7388   22.0372 H   0  0  0  0  0  0
  -28.1417  -28.7331   21.2378 H   0  0  0  0  0  0
  -25.8966  -25.7952   19.0162 H   0  0  0  0  0  0
  -23.9826  -27.2799   18.9818 H   0  0  0  0  0  0
  -23.8345  -30.5502   19.3941 H   0  0  0  0  0  0
  -22.8008  -29.2252   19.8377 H   0  0  0  0  0  0
  -25.1322  -36.1842   25.0807 H   0  0  0  0  0  0
  -21.0033  -28.3336   24.1338 H   0  0  0  0  0  0
  -20.5700  -26.2355   23.3632 H   0  0  0  0  0  0
  -21.6662  -26.7438   22.1194 H   0  0  0  0  0  0
  -19.6926  -25.6285   21.1270 H   0  0  0  0  0  0
  -19.6694  -27.3178   20.6736 H   0  0  0  0  0  0
  -17.4220  -26.6692   21.4035 H   0  0  0  0  0  0
  -18.0346  -26.0082   22.9031 H   0  0  0  0  0  0
  -19.7959  -30.7310   24.2232 H   0  0  0  0  0  0
  -17.5029  -31.6276   24.5165 H   0  0  0  0  0  0
  -15.5369  -30.2981   23.7670 H   0  0  0  0  0  0
  -15.8704  -28.0811   22.7097 H   0  0  0  0  0  0
  -24.5892  -30.7106   25.7686 H   0  0  0  0  0  0
  -24.8880  -32.2951   26.4722 H   0  0  0  0  0  0
  -25.7958  -30.8980   27.0207 H   0  0  0  0  0  0
  -26.3061  -29.6645   24.1315 H   0  0  0  0  0  0
  -27.4008  -29.7266   25.4919 H   0  0  0  0  0  0
  -27.8978  -30.4170   23.9678 H   0  0  0  0  0  0
  -27.2648  -33.3664   26.1989 H   0  0  0  0  0  0
  -28.3913  -32.6842   25.0352 H   0  0  0  0  0  0
  -28.0680  -31.8509   26.5473 H   0  0  0  0  0  0
  -28.2603  -38.0066   24.7505 H   0  0  0  0  0  0
  -28.1057  -36.2597   24.6335 H   0  0  0  0  0  0
  -27.2286  -37.1469   25.8876 H   0  0  0  0  0  0
  -20.9520  -29.8744   21.6724 H   0  0  0  0  0  0
  -26.0155  -38.2806   24.1390 H   0  0  0  0  0  0
  -30.9524  -20.7584   20.5317 H   0  0  0  0  0  0
  -26.8436  -21.1624   20.0659 H   0  0  0  0  0  0
  -29.4680  -23.3491   21.3890 H   0  0  0  0  0  0
  -29.9447  -23.3828   19.7425 H   0  0  0  0  0  0
  -27.1233  -24.2724   20.7169 H   0  0  0  0  0  0
  -27.6446  -24.3314   19.0706 H   0  0  0  0  0  0
  -28.8042  -16.2412   20.5165 H   0  0  0  0  0  0
  1 25  1  0  0  0
  1 30  2  0  0  0
  1 79  1  0  0  0
  2  3  1  0  0  0
  2 25  1  0  0  0
  2 81  1  0  0  0
  2 82  1  0  0  0
  3  4  1  0  0  0
  3 83  1  0  0  0
  3 84  1  0  0  0
  4  5  1  0  0  0
  4 85  1  0  0  0
  4 86  1  0  0  0
  5  6  1  0  0  0
  5 26  1  0  0  0
  5 87  1  0  0  0
  6 25  1  0  0  0
  6 88  1  0  0  0
  6 89  1  0  0  0
  7  8  2  0  0  0
  7 26  1  0  0  0
  7 29  1  0  0  0
  8  9  1  0  0  0
  8 22  1  0  0  0
  9 10  1  0  0  0
  9 27  2  0  0  0
 10 11  2  0  0  0
 10 15  1  0  0  0
 11 12  1  0  0  0
 11 90  1  0  0  0
 12 13  2  0  0  0
 12 91  1  0  0  0
 13 14  1  0  0  0
 13 31  1  0  0  0
 14 15  2  0  0  0
 14 92  1  0  0  0
 15 93  1  0  0  0
 16 17  2  0  0  0
 16 21  1  0  0  0
 16 31  1  0  0  0
 17 18  1  0  0  0
 17 94  1  0  0  0
 18 19  2  0  0  0
 18 95  1  0  0  0
 19 20  1  0  0  0
 19 24  1  0  0  0
 20 21  2  0  0  0
 20 96  1  0  0  0
 21 23  1  0  0  0
 22 28  1  0  0  0
 22 32  2  0  0  0
 26 27  1  0  0  0
 28 97  1  0  0  0
 28 98  1  0  0  0
 29 99  1  0  0  0
 29100  1  0  0  0
 33 34  1  0  0  0
 33 66  1  0  0  0
 33 70  2  0  0  0
 34 36  1  0  0  0
 34 59  1  0  0  0
 34101  1  0  0  0
 35 44  2  0  0  0
 35 45  1  0  0  0
 35 68  1  0  0  0
 36 56  1  0  0  0
 36102  1  0  0  0
 37 39  1  0  0  0
 37 47  1  0  0  0
 37 66  1  0  0  0
 37103  1  0  0  0
 38 43  2  0  0  0
 38 46  1  0  0  0
 38 47  1  0  0  0
 39 64  1  0  0  0
 39 67  2  0  0  0
 40 52  1  0  0  0
 40 53  2  0  0  0
 40 58  1  0  0  0
 41104  1  0  0  0
 41105  1  0  0  0
 41106  1  0  0  0
 41 48  1  0  0  0
 42 43  1  0  0  0
 42 66  1  0  0  0
 42107  1  0  0  0
 42108  1  0  0  0
 43 44  1  0  0  0
 44109  1  0  0  0
 45 46  2  0  0  0
 45110  1  0  0  0
 46111  1  0  0  0
 47112  1  0  0  0
 47113  1  0  0  0
 48 56  1  0  0  0
 48 65  1  0  0  0
 48114  1  0  0  0
 49 50  1  0  0  0
 49 53  1  0  0  0
 49 64  1  0  0  0
 49115  1  0  0  0
 50 51  1  0  0  0
 50116  1  0  0  0
 50117  1  0  0  0
 51 52  1  0  0  0
 51118  1  0  0  0
 51119  1  0  0  0
 52120  1  0  0  0
 52121  1  0  0  0
 53 54  1  0  0  0
 54 55  2  0  0  0
 54122  1  0  0  0
 55 57  1  0  0  0
 55123  1  0  0  0
 56 69  2  0  0  0
 57 58  2  0  0  0
 57124  1  0  0  0
 58125  1  0  0  0
 59 60  1  0  0  0
 59 61  1  0  0  0
 59 62  1  0  0  0
 60126  1  0  0  0
 60127  1  0  0  0
 60128  1  0  0  0
 61129  1  0  0  0
 61130  1  0  0  0
 61131  1  0  0  0
 62132  1  0  0  0
 62133  1  0  0  0
 62134  1  0  0  0
 63 65  1  0  0  0
 63135  1  0  0  0
 63136  1  0  0  0
 63137  1  0  0  0
 64138  1  0  0  0
 65139  1  0  0  0
 68 76  1  0  0  0
 71 73  2  0  0  0
 71 78  1  0  0  0
 71140  1  0  0  0
 72 77  2  0  0  0
 72 78  1  0  0  0
 72141  1  0  0  0
 73 74  1  0  0  0
 73 77  1  0  0  0
 74 79  1  0  0  0
 74 80  2  0  0  0
 75 76  1  0  0  0
 75 78  1  0  0  0
 75142  1  0  0  0
 75143  1  0  0  0
 76144  1  0  0  0
 76145  1  0  0  0
 79146  1  0  0  0
M  ISO  4   1 100  68 101  76 101  79 100
M  END
> <chiral flag>
0

> <version>
0

> <s_m_source_file>
/data/baiqing/PycharmProjects/Reinvent-master-3.2/result/LINK_invent/BTK/process_docking_weight1_custom_product_contain_oxygen_bond_distance_aromatic_linkinvent_7_9_3/rearranged_h_0197.sdf

> <i_m_source_file_index>
69

> <r_mmod_Potential_Energy-OPLS-2005>
629.178833007812

> <r_mmod_Stretch_Energy-OPLS-2005>
340.029937744141

> <r_mmod_Bend_Energy-OPLS-2005>
322.197143554688

> <r_mmod_Torsional_Energy-OPLS-2005>
228.970504760742

> <r_mmod_Improper_Torsional_Energy-OPLS-2005>
4.56408262252808

> <r_mmod_Van_der_Waal_Energy-OPLS-2005>
114.121841430664

> <r_mmod_Electrostatic_Energy-OPLS-2005>
-415.109191894531

> <r_mmod_Solvation_Energy-OPLS-2005>
-238.28401184082

> <b_mmod_Minimization_Converged-OPLS-2005>
0

> <r_mmod_RMS_Derivative-OPLS-2005>
1.14304876327515

$$$$
69
                    3D
 Structure written by MMmdl.
152160  0  0  1  0            999 V2000
  -30.6712  -14.5388   20.5146 C   0  0  0  0  0  0
  -30.4183  -12.3283   19.4483 C   0  0  0  0  0  0
  -29.4973  -12.4891   18.2200 C   0  0  0  0  0  0
  -28.0188  -12.3417   18.6322 C   0  0  0  0  0  0
  -27.6519  -13.2106   19.8657 C   0  0  2  0  0  0
  -28.6935  -13.0465   20.9963 C   0  0  0  0  0  0
  -25.2549  -13.8183   20.5681 C   0  0  0  0  0  0
  -24.1810  -13.0443   20.9193 C   0  0  0  0  0  0
  -24.6370  -11.6918   20.8738 C   0  0  0  0  0  0
  -23.9044  -10.4293   21.0404 C   0  0  0  0  0  0
  -24.3604   -9.4203   21.9175 C   0  0  0  0  0  0
  -23.6282   -8.2240   22.0744 C   0  0  0  0  0  0
  -22.4262   -8.0271   21.3542 C   0  0  0  0  0  0
  -21.9893   -9.0242   20.4644 C   0  0  0  0  0  0
  -22.7222  -10.2122   20.3050 C   0  0  0  0  0  0
  -21.6847   -6.0720   22.5279 C   0  0  0  0  0  0
  -21.4019   -6.5631   23.8210 C   0  0  0  0  0  0
  -21.3662   -5.6789   24.9177 C   0  0  0  0  0  0
  -21.6041   -4.3048   24.7231 C   0  0  0  0  0  0
  -21.8828   -3.8134   23.4355 C   0  0  0  0  0  0
  -21.9197   -4.6949   22.3408 C   0  0  0  0  0  0
  -22.7835  -13.5230   21.1865 C   0  0  0  0  0  0
  -22.1659   -4.2130   21.0985 F   0  0  0  0  0  0
  -21.5632   -3.4538   25.7750 F   0  0  0  0  0  0
  -30.0156  -13.3482   20.4322 N   0  0  0  0  0  0
  -26.2961  -12.9343   20.3343 N   0  0  0  0  0  0
  -25.9291  -11.6498   20.5768 N   0  0  0  0  0  0
  -22.0490  -12.8198   22.0426 N   0  0  0  0  0  0
  -25.4270  -15.1902   20.4091 N   0  0  0  0  0  0
  -31.8343  -14.6711   20.1241 O   0  0  0  0  0  0
  -21.6639   -6.8858   21.4236 O   0  0  0  0  0  0
  -22.3513  -14.5539   20.6719 O   0  0  0  0  0  0
  -24.6169  -31.8639   23.2060 C   0  0  0  0  0  0
  -25.9053  -32.4789   23.8371 C   0  0  1  0  0  0
  -27.2338  -27.3787   20.1046 C   0  0  0  0  0  0
  -25.5894  -33.8592   24.2301 N   0  0  0  0  0  0
  -23.4083  -30.4867   21.5453 C   0  0  2  0  0  0
  -24.8570  -28.9444   20.1084 C   0  0  0  0  0  0
  -22.7411  -29.4654   22.4943 C   0  0  0  0  0  0
  -18.0277  -28.1382   22.8503 C   0  0  0  0  0  0
  -24.1487  -36.7306   23.2641 C   0  0  0  0  0  0
  -25.9422  -30.8092   21.3710 C   0  0  0  0  0  0
  -26.0172  -29.4407   20.7139 C   0  0  0  0  0  0
  -27.2036  -28.6640   20.7094 C   0  0  0  0  0  0
  -26.0510  -26.9093   19.4882 C   0  0  0  0  0  0
  -24.8731  -27.6829   19.4889 C   0  0  0  0  0  0
  -23.6195  -29.8158   20.1599 C   0  0  0  0  0  0
  -25.4110  -36.3098   24.0332 C   0  0  1  0  0  0
  -20.5865  -28.3699   23.1296 C   0  0  2  0  0  0
  -20.6769  -26.9416   22.5458 C   0  0  0  0  0  0
  -19.5745  -26.6353   21.5279 C   0  0  0  0  0  0
  -18.1919  -26.7913   22.1673 C   0  0  0  0  0  0
  -19.1525  -28.8868   23.2881 C   0  0  0  0  0  0
  -18.9443  -30.1474   23.8882 C   0  0  0  0  0  0
  -17.6438  -30.6600   24.0547 C   0  0  0  0  0  0
  -25.9043  -34.9461   23.5119 C   0  0  0  0  0  0
  -16.5336  -29.9088   23.6332 C   0  0  0  0  0  0
  -16.7266  -28.6494   23.0369 C   0  0  0  0  0  0
  -26.4471  -31.6597   25.0723 C   0  0  0  0  0  0
  -25.3720  -31.3718   26.1460 C   0  0  0  0  0  0
  -27.0313  -30.3026   24.6163 C   0  0  0  0  0  0
  -27.6041  -32.4327   25.7474 C   0  0  0  0  0  0
  -27.5580  -37.1810   24.8463 C   0  0  0  0  0  0
  -21.4134  -29.3045   22.3670 N   0  0  0  0  0  0
  -26.4299  -37.3781   23.9396 N   0  0  0  0  0  0
  -24.6733  -31.0696   22.0980 N   0  0  0  0  0  0
  -23.4162  -28.8217   23.3019 O   0  0  0  0  0  0
  -28.4027  -26.6281   20.1659 O   0  0  0  0  0  0
  -26.5611  -34.8915   22.4686 O   0  0  0  0  0  0
  -23.5347  -32.1422   23.7427 O   0  0  0  0  0  0
  -28.3063  -18.2211   21.5655 C   0  0  0  0  0  0
  -29.4662  -18.1899   20.8284 C   0  0  0  0  0  0
  -28.9551  -20.4533   20.7042 C   0  0  0  0  0  0
  -30.4024  -17.0112   20.5533 C   0  0  0  0  0  0
  -28.7286  -23.0848   21.0438 C   0  0  0  0  0  0
  -28.5191  -25.3266   19.5277 C   0  0  0  0  0  0
  -27.8391  -24.0810   20.2139 C   0  0  1  0  0  0
  -29.7918  -19.4739   20.3234 N   0  0  0  0  0  0
  -29.1098  -21.8133   20.3708 N   0  0  0  0  0  0
  -29.9286  -15.6302   20.8206 N   0  0  0  0  0  0
  -27.2618  -23.2406   19.2380 O   0  0  0  0  0  0
  -27.6474  -19.8424   21.7122 S   0  0  0  0  0  0
  -31.4653  -12.4165   19.1526 H   0  0  0  0  0  0
  -30.3118  -11.3317   19.8808 H   0  0  0  0  0  0
  -29.7486  -11.7495   17.4589 H   0  0  0  0  0  0
  -29.6586  -13.4666   17.7619 H   0  0  0  0  0  0
  -27.8461  -11.2887   18.8591 H   0  0  0  0  0  0
  -27.3655  -12.5790   17.7915 H   0  0  0  0  0  0
  -27.6792  -14.2476   19.5321 H   0  0  0  0  0  0
  -28.6803  -12.0270   21.3857 H   0  0  0  0  0  0
  -28.4592  -13.6940   21.8424 H   0  0  0  0  0  0
  -25.2752   -9.5684   22.4738 H   0  0  0  0  0  0
  -23.9993   -7.4639   22.7459 H   0  0  0  0  0  0
  -21.0827   -8.8760   19.8954 H   0  0  0  0  0  0
  -22.3677  -10.9652   19.6157 H   0  0  0  0  0  0
  -21.2009   -7.6138   23.9712 H   0  0  0  0  0  0
  -21.1476   -6.0517   25.9082 H   0  0  0  0  0  0
  -22.0604   -2.7591   23.2872 H   0  0  0  0  0  0
  -22.4101  -11.9845   22.4779 H   0  0  0  0  0  0
  -21.1120  -13.1224   22.2677 H   0  0  0  0  0  0
  -24.6553  -15.8418   20.4992 H   0  0  0  0  0  0
  -26.2719  -15.6261   20.0627 H   0  0  0  0  0  0
  -26.7108  -32.5490   23.1116 H   0  0  0  0  0  0
  -25.0023  -33.9753   25.0432 H   0  0  0  0  0  0
  -22.7008  -31.3065   21.4030 H   0  0  0  0  0  0
  -23.3748  -35.9643   23.3315 H   0  0  0  0  0  0
  -24.3585  -36.8919   22.2057 H   0  0  0  0  0  0
  -23.7251  -37.6516   23.6653 H   0  0  0  0  0  0
  -26.0705  -31.5763   20.6061 H   0  0  0  0  0  0
  -26.8241  -30.8557   21.9985 H   0  0  0  0  0  0
  -28.0979  -29.0384   21.1880 H   0  0  0  0  0  0
  -26.0136  -25.9400   19.0139 H   0  0  0  0  0  0
  -23.9819  -27.2996   19.0122 H   0  0  0  0  0  0
  -23.7221  -30.5885   19.3971 H   0  0  0  0  0  0
  -22.7430  -29.2330   19.8690 H   0  0  0  0  0  0
  -25.1298  -36.1970   25.0827 H   0  0  0  0  0  0
  -20.9970  -28.3304   24.1421 H   0  0  0  0  0  0
  -20.5696  -26.2333   23.3688 H   0  0  0  0  0  0
  -21.6631  -26.7441   22.1243 H   0  0  0  0  0  0
  -19.6913  -25.6245   21.1358 H   0  0  0  0  0  0
  -19.6698  -27.3138   20.6778 H   0  0  0  0  0  0
  -17.4184  -26.6601   21.4083 H   0  0  0  0  0  0
  -18.0337  -26.0090   22.9114 H   0  0  0  0  0  0
  -19.7918  -30.7319   24.2208 H   0  0  0  0  0  0
  -17.4971  -31.6298   24.5108 H   0  0  0  0  0  0
  -15.5323  -30.2969   23.7629 H   0  0  0  0  0  0
  -15.8673  -28.0792   22.7101 H   0  0  0  0  0  0
  -24.5895  -30.7071   25.7784 H   0  0  0  0  0  0
  -24.8905  -32.2870   26.4900 H   0  0  0  0  0  0
  -25.8052  -30.8882   27.0225 H   0  0  0  0  0  0
  -26.2874  -29.6763   24.1224 H   0  0  0  0  0  0
  -27.4058  -29.7298   25.4663 H   0  0  0  0  0  0
  -27.8718  -30.4313   23.9340 H   0  0  0  0  0  0
  -27.2662  -33.3616   26.2071 H   0  0  0  0  0  0
  -28.3821  -32.6913   25.0283 H   0  0  0  0  0  0
  -28.0740  -31.8454   26.5374 H   0  0  0  0  0  0
  -28.2611  -38.0095   24.7504 H   0  0  0  0  0  0
  -28.1068  -36.2634   24.6302 H   0  0  0  0  0  0
  -27.2296  -37.1469   25.8866 H   0  0  0  0  0  0
  -20.9301  -29.8734   21.6859 H   0  0  0  0  0  0
  -26.0195  -38.2864   24.1389 H   0  0  0  0  0  0
  -27.8097  -17.4000   22.0657 H   0  0  0  0  0  0
  -31.3212  -17.1621   21.1224 H   0  0  0  0  0  0
  -30.7072  -17.0477   19.5052 H   0  0  0  0  0  0
  -28.1819  -22.8167   21.9499 H   0  0  0  0  0  0
  -29.6274  -23.5931   21.3966 H   0  0  0  0  0  0
  -28.1680  -25.4342   18.5011 H   0  0  0  0  0  0
  -29.5831  -25.1135   19.4166 H   0  0  0  0  0  0
  -27.0337  -24.4505   20.8515 H   0  0  0  0  0  0
  -29.9292  -21.9398   19.7832 H   0  0  0  0  0  0
  -28.9662  -15.4983   21.0898 H   0  0  0  0  0  0
  -27.8104  -22.4533   19.3038 H   0  0  0  0  0  0
  1 25  1  0  0  0
  1 30  2  0  0  0
  1 80  1  0  0  0
  2  3  1  0  0  0
  2 25  1  0  0  0
  2 83  1  0  0  0
  2 84  1  0  0  0
  3  4  1  0  0  0
  3 85  1  0  0  0
  3 86  1  0  0  0
  4  5  1  0  0  0
  4 87  1  0  0  0
  4 88  1  0  0  0
  5  6  1  0  0  0
  5 26  1  0  0  0
  5 89  1  0  0  0
  6 25  1  0  0  0
  6 90  1  0  0  0
  6 91  1  0  0  0
  7  8  2  0  0  0
  7 26  1  0  0  0
  7 29  1  0  0  0
  8  9  1  0  0  0
  8 22  1  0  0  0
  9 10  1  0  0  0
  9 27  2  0  0  0
 10 11  2  0  0  0
 10 15  1  0  0  0
 11 12  1  0  0  0
 11 92  1  0  0  0
 12 13  2  0  0  0
 12 93  1  0  0  0
 13 14  1  0  0  0
 13 31  1  0  0  0
 14 15  2  0  0  0
 14 94  1  0  0  0
 15 95  1  0  0  0
 16 17  2  0  0  0
 16 21  1  0  0  0
 16 31  1  0  0  0
 17 18  1  0  0  0
 17 96  1  0  0  0
 18 19  2  0  0  0
 18 97  1  0  0  0
 19 20  1  0  0  0
 19 24  1  0  0  0
 20 21  2  0  0  0
 20 98  1  0  0  0
 21 23  1  0  0  0
 22 28  1  0  0  0
 22 32  2  0  0  0
 26 27  1  0  0  0
 28 99  1  0  0  0
 28100  1  0  0  0
 29101  1  0  0  0
 29102  1  0  0  0
 33 34  1  0  0  0
 33 66  1  0  0  0
 33 70  2  0  0  0
 34 36  1  0  0  0
 34 59  1  0  0  0
 34103  1  0  0  0
 35 44  2  0  0  0
 35 45  1  0  0  0
 35 68  1  0  0  0
 36 56  1  0  0  0
 36104  1  0  0  0
 37 39  1  0  0  0
 37 47  1  0  0  0
 37 66  1  0  0  0
 37105  1  0  0  0
 38 43  2  0  0  0
 38 46  1  0  0  0
 38 47  1  0  0  0
 39 64  1  0  0  0
 39 67  2  0  0  0
 40 52  1  0  0  0
 40 53  2  0  0  0
 40 58  1  0  0  0
 41106  1  0  0  0
 41107  1  0  0  0
 41108  1  0  0  0
 41 48  1  0  0  0
 42 43  1  0  0  0
 42 66  1  0  0  0
 42109  1  0  0  0
 42110  1  0  0  0
 43 44  1  0  0  0
 44111  1  0  0  0
 45 46  2  0  0  0
 45112  1  0  0  0
 46113  1  0  0  0
 47114  1  0  0  0
 47115  1  0  0  0
 48 56  1  0  0  0
 48 65  1  0  0  0
 48116  1  0  0  0
 49 50  1  0  0  0
 49 53  1  0  0  0
 49 64  1  0  0  0
 49117  1  0  0  0
 50 51  1  0  0  0
 50118  1  0  0  0
 50119  1  0  0  0
 51 52  1  0  0  0
 51120  1  0  0  0
 51121  1  0  0  0
 52122  1  0  0  0
 52123  1  0  0  0
 53 54  1  0  0  0
 54 55  2  0  0  0
 54124  1  0  0  0
 55 57  1  0  0  0
 55125  1  0  0  0
 56 69  2  0  0  0
 57 58  2  0  0  0
 57126  1  0  0  0
 58127  1  0  0  0
 59 60  1  0  0  0
 59 61  1  0  0  0
 59 62  1  0  0  0
 60128  1  0  0  0
 60129  1  0  0  0
 60130  1  0  0  0
 61131  1  0  0  0
 61132  1  0  0  0
 61133  1  0  0  0
 62134  1  0  0  0
 62135  1  0  0  0
 62136  1  0  0  0
 63 65  1  0  0  0
 63137  1  0  0  0
 63138  1  0  0  0
 63139  1  0  0  0
 64140  1  0  0  0
 65141  1  0  0  0
 68 76  1  0  0  0
 71 72  2  0  0  0
 71 82  1  0  0  0
 71142  1  0  0  0
 72 74  1  0  0  0
 72 78  1  0  0  0
 73 78  2  0  0  0
 73 79  1  0  0  0
 73 82  1  0  0  0
 74 80  1  0  0  0
 74143  1  0  0  0
 74144  1  0  0  0
 75 77  1  0  0  0
 75 79  1  0  0  0
 75145  1  0  0  0
 75146  1  0  0  0
 76 77  1  0  0  0
 76147  1  0  0  0
 76148  1  0  0  0
 77 81  1  0  0  0
 77149  1  0  0  0
 79150  1  0  0  0
 80151  1  0  0  0
 81152  1  0  0  0
M  ISO  4   1 100  68 101  76 101  80 100
M  END
> <chiral flag>
0

> <version>
0

> <s_m_source_file>
/data/baiqing/PycharmProjects/Reinvent-master-3.2/result/LINK_invent/BTK/process_docking_weight1_custom_product_contain_oxygen_bond_distance_aromatic_linkinvent_7_9_3/rearranged_h_0197.sdf

> <i_m_source_file_index>
70

> <r_mmod_Potential_Energy-OPLS-2005>
-256.595001220703

> <r_mmod_Stretch_Energy-OPLS-2005>
48.977783203125

> <r_mmod_Bend_Energy-OPLS-2005>
123.672454833984

> <r_mmod_Torsional_Energy-OPLS-2005>
239.216522216797

> <r_mmod_Improper_Torsional_Energy-OPLS-2005>
7.51880645751953

> <r_mmod_Van_der_Waal_Energy-OPLS-2005>
133.392349243164

> <r_mmod_Electrostatic_Energy-OPLS-2005>
-595.460571289062

> <r_mmod_Solvation_Energy-OPLS-2005>
-239.425247192383

> <b_mmod_Minimization_Converged-OPLS-2005>
0

> <r_mmod_RMS_Derivative-OPLS-2005>
2.39066386222839

$$$$
70
                    3D
 Structure written by MMmdl.
166174  0  0  1  0            999 V2000
  -30.6831  -14.5570   20.5517 C   0  0  0  0  0  0
  -30.4332  -12.3592   19.4229 C   0  0  0  0  0  0
  -29.5017  -12.5078   18.2024 C   0  0  0  0  0  0
  -28.0240  -12.3557   18.6185 C   0  0  0  0  0  0
  -27.6558  -13.2131   19.8592 C   0  0  2  0  0  0
  -28.7039  -13.0462   20.9827 C   0  0  0  0  0  0
  -25.2571  -13.8157   20.5675 C   0  0  0  0  0  0
  -24.1836  -13.0425   20.9183 C   0  0  0  0  0  0
  -24.6405  -11.6893   20.8726 C   0  0  0  0  0  0
  -23.9057  -10.4284   21.0401 C   0  0  0  0  0  0
  -24.3611   -9.4201   21.9184 C   0  0  0  0  0  0
  -23.6284   -8.2237   22.0752 C   0  0  0  0  0  0
  -22.4269   -8.0274   21.3542 C   0  0  0  0  0  0
  -21.9895   -9.0251   20.4645 C   0  0  0  0  0  0
  -22.7231  -10.2131   20.3056 C   0  0  0  0  0  0
  -21.6851   -6.0730   22.5276 C   0  0  0  0  0  0
  -21.4014   -6.5627   23.8218 C   0  0  0  0  0  0
  -21.3660   -5.6782   24.9174 C   0  0  0  0  0  0
  -21.6047   -4.3043   24.7226 C   0  0  0  0  0  0
  -21.8818   -3.8133   23.4347 C   0  0  0  0  0  0
  -21.9193   -4.6956   22.3407 C   0  0  0  0  0  0
  -22.7861  -13.5230   21.1834 C   0  0  0  0  0  0
  -22.1668   -4.2139   21.0981 F   0  0  0  0  0  0
  -21.5633   -3.4525   25.7742 F   0  0  0  0  0  0
  -30.0193  -13.3708   20.4103 N   0  0  0  0  0  0
  -26.3002  -12.9343   20.3288 N   0  0  0  0  0  0
  -25.9326  -11.6496   20.5707 N   0  0  0  0  0  0
  -22.0481  -12.8247   22.0396 N   0  0  0  0  0  0
  -25.4228  -15.1890   20.4104 N   0  0  0  0  0  0
  -31.8535  -14.6898   20.1759 O   0  0  0  0  0  0
  -21.6630   -6.8870   21.4243 O   0  0  0  0  0  0
  -22.3557  -14.5531   20.6665 O   0  0  0  0  0  0
  -24.6221  -31.8649   23.2075 C   0  0  0  0  0  0
  -25.9089  -32.4804   23.8380 C   0  0  1  0  0  0
  -27.2226  -27.3655   20.0985 C   0  0  0  0  0  0
  -25.5929  -33.8604   24.2314 N   0  0  0  0  0  0
  -23.4123  -30.4921   21.5508 C   0  0  2  0  0  0
  -24.8562  -28.9581   20.1135 C   0  0  0  0  0  0
  -22.7448  -29.4654   22.4961 C   0  0  0  0  0  0
  -18.0283  -28.1379   22.8489 C   0  0  0  0  0  0
  -24.1493  -36.7303   23.2637 C   0  0  0  0  0  0
  -25.9514  -30.8097   21.3722 C   0  0  0  0  0  0
  -26.0252  -29.4424   20.7129 C   0  0  0  0  0  0
  -27.2117  -28.6575   20.6978 C   0  0  0  0  0  0
  -26.0235  -26.9251   19.4846 C   0  0  0  0  0  0
  -24.8544  -27.7021   19.4942 C   0  0  0  0  0  0
  -23.6231  -29.8321   20.1645 C   0  0  0  0  0  0
  -25.4111  -36.3099   24.0337 C   0  0  1  0  0  0
  -20.5881  -28.3675   23.1300 C   0  0  2  0  0  0
  -20.6778  -26.9404   22.5412 C   0  0  0  0  0  0
  -19.5753  -26.6385   21.5212 C   0  0  0  0  0  0
  -18.1929  -26.7921   22.1625 C   0  0  0  0  0  0
  -19.1533  -28.8842   23.2891 C   0  0  0  0  0  0
  -18.9457  -30.1450   23.8902 C   0  0  0  0  0  0
  -17.6456  -30.6585   24.0561 C   0  0  0  0  0  0
  -25.9042  -34.9467   23.5118 C   0  0  0  0  0  0
  -16.5347  -29.9083   23.6334 C   0  0  0  0  0  0
  -16.7268  -28.6502   23.0347 C   0  0  0  0  0  0
  -26.4490  -31.6588   25.0725 C   0  0  0  0  0  0
  -25.3736  -31.3713   26.1459 C   0  0  0  0  0  0
  -27.0319  -30.3018   24.6136 C   0  0  0  0  0  0
  -27.6064  -32.4307   25.7486 C   0  0  0  0  0  0
  -27.5584  -37.1805   24.8462 C   0  0  0  0  0  0
  -21.4164  -29.3041   22.3699 N   0  0  0  0  0  0
  -26.4294  -37.3786   23.9409 N   0  0  0  0  0  0
  -24.6811  -31.0698   22.1010 N   0  0  0  0  0  0
  -23.4193  -28.8181   23.3011 O   0  0  0  0  0  0
  -28.3578  -26.5487   20.1291 O   0  0  0  0  0  0
  -26.5600  -34.8923   22.4677 O   0  0  0  0  0  0
  -23.5399  -32.1430   23.7435 O   0  0  0  0  0  0
  -30.4151  -18.9495   23.1568 C   0  0  0  0  0  0
  -30.9418  -17.7071   23.5112 C   0  0  0  0  0  0
  -29.8583  -19.0825   21.8861 C   0  0  0  0  0  0
  -30.2441  -16.8098   21.5221 C   0  0  0  0  0  0
  -32.6565  -20.4799   19.7211 C   0  0  0  0  0  0
  -31.2316  -22.4704   22.8036 C   0  0  0  0  0  0
  -32.4427  -20.9257   21.1743 C   0  0  0  0  0  0
  -28.8582  -22.6634   20.7082 C   0  0  0  0  0  0
  -28.1234  -25.1060   20.0377 C   0  0  0  0  0  0
  -31.2638  -21.9065   21.3703 C   0  0  1  0  0  0
  -29.8735  -21.4446   20.8195 C   0  0  1  0  0  0
  -29.3214  -24.1062   20.2402 C   0  0  2  0  0  0
  -30.8467  -16.6438   22.6959 N   0  0  0  0  0  0
  -29.7447  -17.9892   21.0803 N   0  0  0  0  0  0
  -29.2367  -20.3098   21.5492 N   0  0  0  0  0  0
  -29.9135  -15.6355   20.8604 N   0  0  0  0  0  0
  -30.0001  -23.9855   18.9980 O   0  0  0  0  0  0
  -31.4756  -12.4728   19.1188 H   0  0  0  0  0  0
  -30.3562  -11.3565   19.8466 H   0  0  0  0  0  0
  -29.7537  -11.7674   17.4417 H   0  0  0  0  0  0
  -29.6566  -13.4833   17.7379 H   0  0  0  0  0  0
  -27.8517  -11.3015   18.8359 H   0  0  0  0  0  0
  -27.3708  -12.6049   17.7810 H   0  0  0  0  0  0
  -27.6778  -14.2520   19.5299 H   0  0  0  0  0  0
  -28.7049  -12.0221   21.3608 H   0  0  0  0  0  0
  -28.4657  -13.6798   21.8386 H   0  0  0  0  0  0
  -25.2763   -9.5682   22.4745 H   0  0  0  0  0  0
  -23.9998   -7.4631   22.7471 H   0  0  0  0  0  0
  -21.0826   -8.8775   19.8960 H   0  0  0  0  0  0
  -22.3694  -10.9668   19.6152 H   0  0  0  0  0  0
  -21.2005   -7.6137   23.9716 H   0  0  0  0  0  0
  -21.1483   -6.0508   25.9080 H   0  0  0  0  0  0
  -22.0597   -2.7594   23.2845 H   0  0  0  0  0  0
  -22.4077  -11.9928   22.4838 H   0  0  0  0  0  0
  -21.1094  -13.1294   22.2543 H   0  0  0  0  0  0
  -24.6410  -15.8271   20.5136 H   0  0  0  0  0  0
  -26.2506  -15.6402   20.0435 H   0  0  0  0  0  0
  -26.7152  -32.5490   23.1129 H   0  0  0  0  0  0
  -25.0087  -33.9759   25.0467 H   0  0  0  0  0  0
  -22.7029  -31.3113   21.4130 H   0  0  0  0  0  0
  -23.3760  -35.9630   23.3297 H   0  0  0  0  0  0
  -24.3588  -36.8919   22.2051 H   0  0  0  0  0  0
  -23.7245  -37.6508   23.6649 H   0  0  0  0  0  0
  -26.0759  -31.5760   20.6058 H   0  0  0  0  0  0
  -26.8348  -30.8569   21.9972 H   0  0  0  0  0  0
  -28.1097  -29.0261   21.1731 H   0  0  0  0  0  0
  -25.9439  -25.9720   18.9871 H   0  0  0  0  0  0
  -23.9567  -27.3247   19.0245 H   0  0  0  0  0  0
  -23.7352  -30.6102   19.4084 H   0  0  0  0  0  0
  -22.7443  -29.2578   19.8654 H   0  0  0  0  0  0
  -25.1290  -36.1959   25.0831 H   0  0  0  0  0  0
  -20.9975  -28.3250   24.1422 H   0  0  0  0  0  0
  -20.5696  -26.2277   23.3603 H   0  0  0  0  0  0
  -21.6647  -26.7456   22.1195 H   0  0  0  0  0  0
  -19.6915  -25.6299   21.1234 H   0  0  0  0  0  0
  -19.6694  -27.3207   20.6750 H   0  0  0  0  0  0
  -17.4203  -26.6680   21.4021 H   0  0  0  0  0  0
  -18.0326  -26.0061   22.9023 H   0  0  0  0  0  0
  -19.7930  -30.7267   24.2274 H   0  0  0  0  0  0
  -17.5008  -31.6267   24.5159 H   0  0  0  0  0  0
  -15.5344  -30.2980   23.7652 H   0  0  0  0  0  0
  -15.8673  -28.0820   22.7051 H   0  0  0  0  0  0
  -24.5911  -30.7058   25.7793 H   0  0  0  0  0  0
  -24.8922  -32.2873   26.4892 H   0  0  0  0  0  0
  -25.8073  -30.8888   27.0226 H   0  0  0  0  0  0
  -26.2874  -29.6775   24.1177 H   0  0  0  0  0  0
  -27.4056  -29.7259   25.4613 H   0  0  0  0  0  0
  -27.8729  -30.4316   23.9319 H   0  0  0  0  0  0
  -27.2692  -33.3614   26.2057 H   0  0  0  0  0  0
  -28.3872  -32.6850   25.0306 H   0  0  0  0  0  0
  -28.0725  -31.8425   26.5400 H   0  0  0  0  0  0
  -28.2600  -38.0106   24.7520 H   0  0  0  0  0  0
  -28.1085  -36.2638   24.6273 H   0  0  0  0  0  0
  -27.2303  -37.1446   25.8865 H   0  0  0  0  0  0
  -20.9325  -29.8761   21.6920 H   0  0  0  0  0  0
  -26.0185  -38.2865   24.1405 H   0  0  0  0  0  0
  -30.4543  -19.7587   23.8684 H   0  0  0  0  0  0
  -31.3968  -17.5495   24.4775 H   0  0  0  0  0  0
  -33.6015  -19.9466   19.6143 H   0  0  0  0  0  0
  -32.6811  -21.3331   19.0423 H   0  0  0  0  0  0
  -31.8649  -19.8080   19.3902 H   0  0  0  0  0  0
  -32.1279  -23.0622   22.9958 H   0  0  0  0  0  0
  -31.2062  -21.6928   23.5611 H   0  0  0  0  0  0
  -30.3790  -23.1268   22.9722 H   0  0  0  0  0  0
  -33.3548  -21.4241   21.5049 H   0  0  0  0  0  0
  -32.3586  -20.0523   21.8149 H   0  0  0  0  0  0
  -28.3971  -22.8036   21.6863 H   0  0  0  0  0  0
  -28.0366  -22.3441   20.0647 H   0  0  0  0  0  0
  -27.3755  -24.8700   20.7972 H   0  0  0  0  0  0
  -27.6742  -24.8590   19.0765 H   0  0  0  0  0  0
  -31.5500  -22.7548   20.7492 H   0  0  0  0  0  0
  -30.0328  -21.0959   19.7989 H   0  0  0  0  0  0
  -30.0023  -24.5243   20.9825 H   0  0  0  0  0  0
  -28.7884  -20.6788   22.3785 H   0  0  0  0  0  0
  -28.9246  -15.4642   20.8159 H   0  0  0  0  0  0
  -29.3751  -23.6832   18.3471 H   0  0  0  0  0  0
  1 25  1  0  0  0
  1 30  2  0  0  0
  1 86  1  0  0  0
  2  3  1  0  0  0
  2 25  1  0  0  0
  2 88  1  0  0  0
  2 89  1  0  0  0
  3  4  1  0  0  0
  3 90  1  0  0  0
  3 91  1  0  0  0
  4  5  1  0  0  0
  4 92  1  0  0  0
  4 93  1  0  0  0
  5  6  1  0  0  0
  5 26  1  0  0  0
  5 94  1  0  0  0
  6 25  1  0  0  0
  6 95  1  0  0  0
  6 96  1  0  0  0
  7  8  2  0  0  0
  7 26  1  0  0  0
  7 29  1  0  0  0
  8  9  1  0  0  0
  8 22  1  0  0  0
  9 10  1  0  0  0
  9 27  2  0  0  0
 10 11  2  0  0  0
 10 15  1  0  0  0
 11 12  1  0  0  0
 11 97  1  0  0  0
 12 13  2  0  0  0
 12 98  1  0  0  0
 13 14  1  0  0  0
 13 31  1  0  0  0
 14 15  2  0  0  0
 14 99  1  0  0  0
 15100  1  0  0  0
 16 17  2  0  0  0
 16 21  1  0  0  0
 16 31  1  0  0  0
 17 18  1  0  0  0
 17101  1  0  0  0
 18 19  2  0  0  0
 18102  1  0  0  0
 19 20  1  0  0  0
 19 24  1  0  0  0
 20 21  2  0  0  0
 20103  1  0  0  0
 21 23  1  0  0  0
 22 28  1  0  0  0
 22 32  2  0  0  0
 26 27  1  0  0  0
 28104  1  0  0  0
 28105  1  0  0  0
 29106  1  0  0  0
 29107  1  0  0  0
 33 34  1  0  0  0
 33 66  1  0  0  0
 33 70  2  0  0  0
 34 36  1  0  0  0
 34 59  1  0  0  0
 34108  1  0  0  0
 35 44  2  0  0  0
 35 45  1  0  0  0
 35 68  1  0  0  0
 36 56  1  0  0  0
 36109  1  0  0  0
 37 39  1  0  0  0
 37 47  1  0  0  0
 37 66  1  0  0  0
 37110  1  0  0  0
 38 43  2  0  0  0
 38 46  1  0  0  0
 38 47  1  0  0  0
 39 64  1  0  0  0
 39 67  2  0  0  0
 40 52  1  0  0  0
 40 53  2  0  0  0
 40 58  1  0  0  0
 41111  1  0  0  0
 41112  1  0  0  0
 41113  1  0  0  0
 41 48  1  0  0  0
 42 43  1  0  0  0
 42 66  1  0  0  0
 42114  1  0  0  0
 42115  1  0  0  0
 43 44  1  0  0  0
 44116  1  0  0  0
 45 46  2  0  0  0
 45117  1  0  0  0
 46118  1  0  0  0
 47119  1  0  0  0
 47120  1  0  0  0
 48 56  1  0  0  0
 48 65  1  0  0  0
 48121  1  0  0  0
 49 50  1  0  0  0
 49 53  1  0  0  0
 49 64  1  0  0  0
 49122  1  0  0  0
 50 51  1  0  0  0
 50123  1  0  0  0
 50124  1  0  0  0
 51 52  1  0  0  0
 51125  1  0  0  0
 51126  1  0  0  0
 52127  1  0  0  0
 52128  1  0  0  0
 53 54  1  0  0  0
 54 55  2  0  0  0
 54129  1  0  0  0
 55 57  1  0  0  0
 55130  1  0  0  0
 56 69  2  0  0  0
 57 58  2  0  0  0
 57131  1  0  0  0
 58132  1  0  0  0
 59 60  1  0  0  0
 59 61  1  0  0  0
 59 62  1  0  0  0
 60133  1  0  0  0
 60134  1  0  0  0
 60135  1  0  0  0
 61136  1  0  0  0
 61137  1  0  0  0
 61138  1  0  0  0
 62139  1  0  0  0
 62140  1  0  0  0
 62141  1  0  0  0
 63 65  1  0  0  0
 63142  1  0  0  0
 63143  1  0  0  0
 63144  1  0  0  0
 64145  1  0  0  0
 65146  1  0  0  0
 68 79  1  0  0  0
 71 72  2  0  0  0
 71 73  1  0  0  0
 71147  1  0  0  0
 72 83  1  0  0  0
 72148  1  0  0  0
 73 84  2  0  0  0
 73 85  1  0  0  0
 74 83  2  0  0  0
 74 84  1  0  0  0
 74 86  1  0  0  0
 75 77  1  0  0  0
 75149  1  0  0  0
 75150  1  0  0  0
 75151  1  0  0  0
 76152  1  0  0  0
 76153  1  0  0  0
 76154  1  0  0  0
 76 80  1  0  0  0
 77 80  1  0  0  0
 77155  1  0  0  0
 77156  1  0  0  0
 78 82  1  0  0  0
 78157  1  0  0  0
 78158  1  0  0  0
 78 81  1  0  0  0
 79 82  1  0  0  0
 79159  1  0  0  0
 79160  1  0  0  0
 80 81  1  0  0  0
 80161  1  0  0  0
 81 85  1  0  0  0
 81162  1  0  0  0
 82 87  1  0  0  0
 82163  1  0  0  0
 85164  1  0  0  0
 86165  1  0  0  0
 87166  1  0  0  0
M  ISO  4   1 100  68 101  79 101  86 100
M  END
> <chiral flag>
0

> <version>
0

> <s_m_source_file>
/data/baiqing/PycharmProjects/Reinvent-master-3.2/result/LINK_invent/BTK/process_docking_weight1_custom_product_contain_oxygen_bond_distance_aromatic_linkinvent_7_9_3/rearranged_h_0197.sdf

> <i_m_source_file_index>
71

> <r_mmod_Potential_Energy-OPLS-2005>
-417.00927734375

> <r_mmod_Stretch_Energy-OPLS-2005>
60.916862487793

> <r_mmod_Bend_Energy-OPLS-2005>
147.086151123047

> <r_mmod_Torsional_Energy-OPLS-2005>
287.417602539062

> <r_mmod_Improper_Torsional_Energy-OPLS-2005>
14.3435621261597

> <r_mmod_Van_der_Waal_Energy-OPLS-2005>
158.898544311523

> <r_mmod_Electrostatic_Energy-OPLS-2005>
-857.414978027344

> <r_mmod_Solvation_Energy-OPLS-2005>
-257.996704101562

> <b_mmod_Minimization_Converged-OPLS-2005>
0

> <r_mmod_RMS_Derivative-OPLS-2005>
1.56269347667694

$$$$
71
                    3D
 Structure written by MMmdl.
157165  0  0  1  0            999 V2000
  -30.6290  -14.7367   20.4442 C   0  0  0  0  0  0
  -30.4262  -12.4449   19.4824 C   0  0  0  0  0  0
  -29.5120  -12.5082   18.2397 C   0  0  0  0  0  0
  -28.0367  -12.3375   18.6487 C   0  0  0  0  0  0
  -27.6425  -13.2370   19.8518 C   0  0  2  0  0  0
  -28.6850  -13.1747   20.9896 C   0  0  0  0  0  0
  -25.2508  -13.8212   20.5698 C   0  0  0  0  0  0
  -24.1805  -13.0449   20.9204 C   0  0  0  0  0  0
  -24.6400  -11.6928   20.8741 C   0  0  0  0  0  0
  -23.9077  -10.4303   21.0396 C   0  0  0  0  0  0
  -24.3628   -9.4216   21.9171 C   0  0  0  0  0  0
  -23.6307   -8.2248   22.0744 C   0  0  0  0  0  0
  -22.4290   -8.0283   21.3536 C   0  0  0  0  0  0
  -21.9922   -9.0257   20.4638 C   0  0  0  0  0  0
  -22.7249  -10.2138   20.3049 C   0  0  0  0  0  0
  -21.6859   -6.0741   22.5277 C   0  0  0  0  0  0
  -21.4018   -6.5642   23.8212 C   0  0  0  0  0  0
  -21.3661   -5.6790   24.9169 C   0  0  0  0  0  0
  -21.6050   -4.3055   24.7220 C   0  0  0  0  0  0
  -21.8820   -3.8147   23.4341 C   0  0  0  0  0  0
  -21.9195   -4.6967   22.3400 C   0  0  0  0  0  0
  -22.7826  -13.5226   21.1862 C   0  0  0  0  0  0
  -22.1662   -4.2152   21.0976 F   0  0  0  0  0  0
  -21.5627   -3.4536   25.7731 F   0  0  0  0  0  0
  -29.9908  -13.5151   20.4122 N   0  0  0  0  0  0
  -26.2939  -12.9427   20.3278 N   0  0  0  0  0  0
  -25.9332  -11.6564   20.5743 N   0  0  0  0  0  0
  -22.0467  -12.8217   22.0415 N   0  0  0  0  0  0
  -25.4195  -15.1936   20.4126 N   0  0  0  0  0  0
  -31.8269  -14.7849   20.1448 O   0  0  0  0  0  0
  -21.6648   -6.8884   21.4241 O   0  0  0  0  0  0
  -22.3510  -14.5525   20.6701 O   0  0  0  0  0  0
  -24.6324  -31.8555   23.1997 C   0  0  0  0  0  0
  -25.9153  -32.4754   23.8339 C   0  0  1  0  0  0
  -27.2104  -27.2531   20.1285 C   0  0  0  0  0  0
  -25.5944  -33.8556   24.2259 N   0  0  0  0  0  0
  -23.4287  -30.4811   21.5419 C   0  0  2  0  0  0
  -24.8751  -28.9340   20.1033 C   0  0  0  0  0  0
  -22.7508  -29.4610   22.4894 C   0  0  0  0  0  0
  -18.0296  -28.1389   22.8472 C   0  0  0  0  0  0
  -24.1490  -36.7291   23.2640 C   0  0  0  0  0  0
  -25.9760  -30.7655   21.3823 C   0  0  0  0  0  0
  -26.0462  -29.3889   20.7221 C   0  0  0  0  0  0
  -27.2156  -28.5599   20.7269 C   0  0  0  0  0  0
  -26.0232  -26.8870   19.4515 C   0  0  0  0  0  0
  -24.8705  -27.6927   19.4537 C   0  0  0  0  0  0
  -23.6472  -29.8213   20.1549 C   0  0  0  0  0  0
  -25.4115  -36.3073   24.0328 C   0  0  1  0  0  0
  -20.5898  -28.3709   23.1250 C   0  0  2  0  0  0
  -20.6777  -26.9425   22.5395 C   0  0  0  0  0  0
  -19.5756  -26.6382   21.5197 C   0  0  0  0  0  0
  -18.1939  -26.7928   22.1614 C   0  0  0  0  0  0
  -19.1549  -28.8864   23.2857 C   0  0  0  0  0  0
  -18.9470  -30.1460   23.8885 C   0  0  0  0  0  0
  -17.6470  -30.6588   24.0560 C   0  0  0  0  0  0
  -25.9056  -34.9442   23.5095 C   0  0  0  0  0  0
  -16.5361  -29.9086   23.6326 C   0  0  0  0  0  0
  -16.7282  -28.6505   23.0342 C   0  0  0  0  0  0
  -26.4510  -31.6577   25.0733 C   0  0  0  0  0  0
  -25.3726  -31.3720   26.1448 C   0  0  0  0  0  0
  -27.0361  -30.2992   24.6228 C   0  0  0  0  0  0
  -27.6066  -32.4312   25.7507 C   0  0  0  0  0  0
  -27.5579  -37.1804   24.8465 C   0  0  0  0  0  0
  -21.4214  -29.3061   22.3644 N   0  0  0  0  0  0
  -26.4289  -37.3773   23.9409 N   0  0  0  0  0  0
  -24.6982  -31.0517   22.0977 N   0  0  0  0  0  0
  -23.4206  -28.8146   23.2992 O   0  0  0  0  0  0
  -28.2846  -26.3304   20.2238 O   0  0  0  0  0  0
  -26.5625  -34.8918   22.4662 O   0  0  0  0  0  0
  -23.5472  -32.1384   23.7286 O   0  0  0  0  0  0
  -30.8867  -17.4434   18.9995 C   0  0  0  0  0  0
  -30.5113  -19.8437   18.9928 C   0  0  0  0  0  0
  -31.1001  -18.7070   18.4188 C   0  0  0  0  0  0
  -30.0900  -17.2876   20.1548 C   0  0  0  0  0  0
  -29.6989  -19.7153   20.1264 C   0  0  0  0  0  0
  -28.7250  -22.1625   19.9395 C   0  0  0  0  0  0
  -28.0226  -24.8635   19.9723 C   0  0  0  0  0  0
  -32.0210  -18.8812   17.2260 C   0  0  1  0  0  0
  -28.8765  -23.6332   20.6101 C   0  0  1  0  0  0
  -29.5046  -18.4498   20.6826 N   0  0  0  0  0  0
  -33.2400  -19.5437   17.6289 N   0  0  0  0  0  0
  -29.8830  -15.8962   20.6497 N   0  0  0  0  0  0
  -29.1488  -20.9177   20.7072 N   0  0  0  0  0  0
  -28.4398  -23.4662   21.9502 O   0  0  0  0  0  0
  -32.3466  -17.7183   16.6620 F   0  0  0  0  0  0
  -31.4708  -12.5502   19.1845 H   0  0  0  0  0  0
  -30.3541  -11.4692   19.9647 H   0  0  0  0  0  0
  -29.7942  -11.7362   17.5226 H   0  0  0  0  0  0
  -29.6462  -13.4629   17.7287 H   0  0  0  0  0  0
  -27.8874  -11.2888   18.9074 H   0  0  0  0  0  0
  -27.3832  -12.5338   17.7983 H   0  0  0  0  0  0
  -27.6359  -14.2591   19.4722 H   0  0  0  0  0  0
  -28.7131  -12.1803   21.4374 H   0  0  0  0  0  0
  -28.4225  -13.8636   21.7941 H   0  0  0  0  0  0
  -25.2769   -9.5702   22.4745 H   0  0  0  0  0  0
  -24.0016   -7.4650   22.7474 H   0  0  0  0  0  0
  -21.0847   -8.8785   19.8956 H   0  0  0  0  0  0
  -22.3701  -10.9677   19.6164 H   0  0  0  0  0  0
  -21.2013   -7.6150   23.9717 H   0  0  0  0  0  0
  -21.1480   -6.0515   25.9072 H   0  0  0  0  0  0
  -22.0597   -2.7611   23.2835 H   0  0  0  0  0  0
  -22.4090  -11.9893   22.4828 H   0  0  0  0  0  0
  -21.1080  -13.1233   22.2603 H   0  0  0  0  0  0
  -24.6518  -15.8462   20.5272 H   0  0  0  0  0  0
  -26.2652  -15.6345   20.0732 H   0  0  0  0  0  0
  -26.7223  -32.5399   23.1079 H   0  0  0  0  0  0
  -25.0080  -33.9683   25.0397 H   0  0  0  0  0  0
  -22.7262  -31.3047   21.3973 H   0  0  0  0  0  0
  -23.3749  -35.9627   23.3297 H   0  0  0  0  0  0
  -24.3584  -36.8920   22.2057 H   0  0  0  0  0  0
  -23.7244  -37.6493   23.6664 H   0  0  0  0  0  0
  -26.1145  -31.5284   20.6150 H   0  0  0  0  0  0
  -26.8535  -30.8120   22.0154 H   0  0  0  0  0  0
  -28.1066  -28.8977   21.2370 H   0  0  0  0  0  0
  -25.9472  -25.9515   18.9189 H   0  0  0  0  0  0
  -23.9805  -27.3477   18.9456 H   0  0  0  0  0  0
  -23.7741  -30.6004   19.4023 H   0  0  0  0  0  0
  -22.7644  -29.2579   19.8469 H   0  0  0  0  0  0
  -25.1295  -36.1919   25.0821 H   0  0  0  0  0  0
  -20.9986  -28.3290   24.1372 H   0  0  0  0  0  0
  -20.5646  -26.2337   23.3608 H   0  0  0  0  0  0
  -21.6650  -26.7430   22.1212 H   0  0  0  0  0  0
  -19.6918  -25.6285   21.1247 H   0  0  0  0  0  0
  -19.6687  -27.3174   20.6711 H   0  0  0  0  0  0
  -17.4202  -26.6659   21.4025 H   0  0  0  0  0  0
  -18.0358  -26.0071   22.9017 H   0  0  0  0  0  0
  -19.7948  -30.7272   24.2253 H   0  0  0  0  0  0
  -17.5028  -31.6266   24.5171 H   0  0  0  0  0  0
  -15.5360  -30.2986   23.7654 H   0  0  0  0  0  0
  -15.8682  -28.0824   22.7052 H   0  0  0  0  0  0
  -24.5916  -30.7053   25.7775 H   0  0  0  0  0  0
  -24.8895  -32.2882   26.4856 H   0  0  0  0  0  0
  -25.8044  -30.8913   27.0236 H   0  0  0  0  0  0
  -26.2951  -29.6727   24.1249 H   0  0  0  0  0  0
  -27.4033  -29.7267   25.4756 H   0  0  0  0  0  0
  -27.8833  -30.4262   23.9485 H   0  0  0  0  0  0
  -27.2686  -33.3621   26.2067 H   0  0  0  0  0  0
  -28.3890  -32.6850   25.0343 H   0  0  0  0  0  0
  -28.0719  -31.8441   26.5435 H   0  0  0  0  0  0
  -28.2597  -38.0102   24.7511 H   0  0  0  0  0  0
  -28.1073  -36.2633   24.6286 H   0  0  0  0  0  0
  -27.2302  -37.1456   25.8871 H   0  0  0  0  0  0
  -20.9403  -29.8820   21.6877 H   0  0  0  0  0  0
  -26.0168  -38.2851   24.1394 H   0  0  0  0  0  0
  -31.3525  -16.5897   18.5305 H   0  0  0  0  0  0
  -30.7220  -20.8090   18.5561 H   0  0  0  0  0  0
  -29.2067  -22.1897   18.9631 H   0  0  0  0  0  0
  -27.6675  -22.0164   19.7155 H   0  0  0  0  0  0
  -26.9890  -24.6372   20.2358 H   0  0  0  0  0  0
  -28.0775  -24.7499   18.8889 H   0  0  0  0  0  0
  -31.5090  -19.4664   16.4588 H   0  0  0  0  0  0
  -29.9336  -23.9033   20.6137 H   0  0  0  0  0  0
  -33.0840  -19.8249   18.5901 H   0  0  0  0  0  0
  -33.2812  -20.4189   17.1221 H   0  0  0  0  0  0
  -28.9861  -15.7389   21.0802 H   0  0  0  0  0  0
  -28.6714  -20.8189   21.5972 H   0  0  0  0  0  0
  -28.6010  -24.2897   22.4028 H   0  0  0  0  0  0
  1 25  1  0  0  0
  1 30  2  0  0  0
  1 82  1  0  0  0
  2  3  1  0  0  0
  2 25  1  0  0  0
  2 86  1  0  0  0
  2 87  1  0  0  0
  3  4  1  0  0  0
  3 88  1  0  0  0
  3 89  1  0  0  0
  4  5  1  0  0  0
  4 90  1  0  0  0
  4 91  1  0  0  0
  5  6  1  0  0  0
  5 26  1  0  0  0
  5 92  1  0  0  0
  6 25  1  0  0  0
  6 93  1  0  0  0
  6 94  1  0  0  0
  7  8  2  0  0  0
  7 26  1  0  0  0
  7 29  1  0  0  0
  8  9  1  0  0  0
  8 22  1  0  0  0
  9 10  1  0  0  0
  9 27  2  0  0  0
 10 11  2  0  0  0
 10 15  1  0  0  0
 11 12  1  0  0  0
 11 95  1  0  0  0
 12 13  2  0  0  0
 12 96  1  0  0  0
 13 14  1  0  0  0
 13 31  1  0  0  0
 14 15  2  0  0  0
 14 97  1  0  0  0
 15 98  1  0  0  0
 16 17  2  0  0  0
 16 21  1  0  0  0
 16 31  1  0  0  0
 17 18  1  0  0  0
 17 99  1  0  0  0
 18 19  2  0  0  0
 18100  1  0  0  0
 19 20  1  0  0  0
 19 24  1  0  0  0
 20 21  2  0  0  0
 20101  1  0  0  0
 21 23  1  0  0  0
 22 28  1  0  0  0
 22 32  2  0  0  0
 26 27  1  0  0  0
 28102  1  0  0  0
 28103  1  0  0  0
 29104  1  0  0  0
 29105  1  0  0  0
 33 34  1  0  0  0
 33 66  1  0  0  0
 33 70  2  0  0  0
 34 36  1  0  0  0
 34 59  1  0  0  0
 34106  1  0  0  0
 35 44  2  0  0  0
 35 45  1  0  0  0
 35 68  1  0  0  0
 36 56  1  0  0  0
 36107  1  0  0  0
 37 39  1  0  0  0
 37 47  1  0  0  0
 37 66  1  0  0  0
 37108  1  0  0  0
 38 43  2  0  0  0
 38 46  1  0  0  0
 38 47  1  0  0  0
 39 64  1  0  0  0
 39 67  2  0  0  0
 40 52  1  0  0  0
 40 53  2  0  0  0
 40 58  1  0  0  0
 41109  1  0  0  0
 41110  1  0  0  0
 41111  1  0  0  0
 41 48  1  0  0  0
 42 43  1  0  0  0
 42 66  1  0  0  0
 42112  1  0  0  0
 42113  1  0  0  0
 43 44  1  0  0  0
 44114  1  0  0  0
 45 46  2  0  0  0
 45115  1  0  0  0
 46116  1  0  0  0
 47117  1  0  0  0
 47118  1  0  0  0
 48 56  1  0  0  0
 48 65  1  0  0  0
 48119  1  0  0  0
 49 50  1  0  0  0
 49 53  1  0  0  0
 49 64  1  0  0  0
 49120  1  0  0  0
 50 51  1  0  0  0
 50121  1  0  0  0
 50122  1  0  0  0
 51 52  1  0  0  0
 51123  1  0  0  0
 51124  1  0  0  0
 52125  1  0  0  0
 52126  1  0  0  0
 53 54  1  0  0  0
 54 55  2  0  0  0
 54127  1  0  0  0
 55 57  1  0  0  0
 55128  1  0  0  0
 56 69  2  0  0  0
 57 58  2  0  0  0
 57129  1  0  0  0
 58130  1  0  0  0
 59 60  1  0  0  0
 59 61  1  0  0  0
 59 62  1  0  0  0
 60131  1  0  0  0
 60132  1  0  0  0
 60133  1  0  0  0
 61134  1  0  0  0
 61135  1  0  0  0
 61136  1  0  0  0
 62137  1  0  0  0
 62138  1  0  0  0
 62139  1  0  0  0
 63 65  1  0  0  0
 63140  1  0  0  0
 63141  1  0  0  0
 63142  1  0  0  0
 64143  1  0  0  0
 65144  1  0  0  0
 68 77  1  0  0  0
 71 73  2  0  0  0
 71 74  1  0  0  0
 71145  1  0  0  0
 72 73  1  0  0  0
 72 75  2  0  0  0
 72146  1  0  0  0
 73 78  1  0  0  0
 74 80  2  0  0  0
 74 82  1  0  0  0
 75 80  1  0  0  0
 75 83  1  0  0  0
 76 79  1  0  0  0
 76 83  1  0  0  0
 76147  1  0  0  0
 76148  1  0  0  0
 77 79  1  0  0  0
 77149  1  0  0  0
 77150  1  0  0  0
 78 81  1  0  0  0
 78 85  1  0  0  0
 78151  1  0  0  0
 79 84  1  0  0  0
 79152  1  0  0  0
 81153  1  0  0  0
 81154  1  0  0  0
 82155  1  0  0  0
 83156  1  0  0  0
 84157  1  0  0  0
M  ISO  4   1 100  68 101  77 101  82 100
M  END
> <chiral flag>
0

> <version>
0

> <s_m_source_file>
/data/baiqing/PycharmProjects/Reinvent-master-3.2/result/LINK_invent/BTK/process_docking_weight1_custom_product_contain_oxygen_bond_distance_aromatic_linkinvent_7_9_3/rearranged_h_0197.sdf

> <i_m_source_file_index>
72

> <r_mmod_Potential_Energy-OPLS-2005>
-195.841262817383

> <r_mmod_Stretch_Energy-OPLS-2005>
127.842849731445

> <r_mmod_Bend_Energy-OPLS-2005>
174.505065917969

> <r_mmod_Torsional_Energy-OPLS-2005>
259.145233154297

> <r_mmod_Improper_Torsional_Energy-OPLS-2005>
5.80675315856934

> <r_mmod_Van_der_Waal_Energy-OPLS-2005>
154.304458618164

> <r_mmod_Electrostatic_Energy-OPLS-2005>
-734.06982421875

> <r_mmod_Solvation_Energy-OPLS-2005>
-272.903869628906

> <b_mmod_Minimization_Converged-OPLS-2005>
0

> <r_mmod_RMS_Derivative-OPLS-2005>
1.14960587024689

$$$$
72
                    3D
 Structure written by MMmdl.
152160  0  0  1  0            999 V2000
  -31.3555  -13.8663   19.6591 C   0  0  0  0  0  0
  -29.6925  -14.1776   20.7223 C   0  0  0  0  0  0
  -28.7057  -14.6138   19.5409 C   0  0  0  0  0  0
  -27.8894  -13.6128   18.7431 C   0  0  0  0  0  0
  -27.6339  -12.9557   20.0436 C   0  0  2  0  0  0
  -29.0205  -12.1878   20.3356 C   0  0  0  0  0  0
  -25.2861  -13.7102   20.5947 C   0  0  0  0  0  0
  -24.1734  -13.0037   20.9031 C   0  0  0  0  0  0
  -24.5883  -11.6211   20.8440 C   0  0  0  0  0  0
  -23.8317  -10.3997   21.0502 C   0  0  0  0  0  0
  -24.3105   -9.4069   21.9083 C   0  0  0  0  0  0
  -23.6030   -8.2091   22.0751 C   0  0  0  0  0  0
  -22.3928   -8.0048   21.3614 C   0  0  0  0  0  0
  -21.9381   -9.0052   20.4659 C   0  0  0  0  0  0
  -22.6617  -10.2000   20.3036 C   0  0  0  0  0  0
  -21.6801   -6.0513   22.5324 C   0  0  0  0  0  0
  -21.3977   -6.5556   23.8081 C   0  0  0  0  0  0
  -21.3589   -5.6792   24.9184 C   0  0  0  0  0  0
  -21.6027   -4.3074   24.7386 C   0  0  0  0  0  0
  -21.8765   -3.8053   23.4494 C   0  0  0  0  0  0
  -21.9108   -4.6833   22.3400 C   0  0  0  0  0  0
  -22.7924  -13.5342   21.1913 C   0  0  0  0  0  0
  -22.1495   -4.2009   21.1019 F   0  0  0  0  0  0
  -21.5592   -3.4384   25.7835 F   0  0  0  0  0  0
  -30.3145  -13.1025   20.2633 N   0  0  0  0  0  0
  -26.2741  -12.7304   20.3267 N   0  0  0  0  0  0
  -25.8684  -11.4854   20.5475 N   0  0  0  0  0  0
  -22.0609  -12.8549   22.0510 N   0  0  0  0  0  0
  -25.5315  -15.0842   20.4790 N   0  0  0  0  0  0
  -32.3654  -14.1356   20.2778 O   0  0  0  0  0  0
  -21.6431   -6.8645   21.4151 O   0  0  0  0  0  0
  -22.3937  -14.6129   20.7269 O   0  0  0  0  0  0
  -24.6399  -31.8501   23.1930 C   0  0  0  0  0  0
  -25.9066  -32.4708   23.8459 C   0  0  1  0  0  0
  -27.2287  -27.2177   20.0556 C   0  0  0  0  0  0
  -25.5832  -33.8598   24.2326 N   0  0  0  0  0  0
  -23.4573  -30.4666   21.5488 C   0  0  2  0  0  0
  -24.9015  -28.8926   20.1347 C   0  0  0  0  0  0
  -22.7607  -29.4452   22.5023 C   0  0  0  0  0  0
  -18.0279  -28.1394   22.8485 C   0  0  0  0  0  0
  -24.1419  -36.7228   23.2678 C   0  0  0  0  0  0
  -26.0159  -30.7355   21.3720 C   0  0  0  0  0  0
  -26.0746  -29.3573   20.7193 C   0  0  0  0  0  0
  -27.2622  -28.5353   20.6469 C   0  0  0  0  0  0
  -25.9844  -26.8020   19.5230 C   0  0  0  0  0  0
  -24.8440  -27.6225   19.5418 C   0  0  0  0  0  0
  -23.6840  -29.8074   20.1659 C   0  0  0  0  0  0
  -25.4048  -36.3083   24.0375 C   0  0  1  0  0  0
  -20.5860  -28.3627   23.1280 C   0  0  2  0  0  0
  -20.6767  -26.9343   22.5469 C   0  0  0  0  0  0
  -19.5730  -26.6339   21.5263 C   0  0  0  0  0  0
  -18.1870  -26.7922   22.1641 C   0  0  0  0  0  0
  -19.1534  -28.8887   23.2837 C   0  0  0  0  0  0
  -18.9455  -30.1496   23.8889 C   0  0  0  0  0  0
  -17.6454  -30.6610   24.0560 C   0  0  0  0  0  0
  -25.8973  -34.9468   23.5105 C   0  0  0  0  0  0
  -16.5345  -29.9120   23.6379 C   0  0  0  0  0  0
  -16.7253  -28.6534   23.0374 C   0  0  0  0  0  0
  -26.4447  -31.6631   25.0936 C   0  0  0  0  0  0
  -25.3687  -31.3748   26.1663 C   0  0  0  0  0  0
  -27.0302  -30.3057   24.6422 C   0  0  0  0  0  0
  -27.5993  -32.4379   25.7651 C   0  0  0  0  0  0
  -27.5518  -37.1802   24.8491 C   0  0  0  0  0  0
  -21.4305  -29.2909   22.3698 N   0  0  0  0  0  0
  -26.4240  -37.3764   23.9426 N   0  0  0  0  0  0
  -24.7298  -31.0358   22.0903 N   0  0  0  0  0  0
  -23.4335  -28.7970   23.3117 O   0  0  0  0  0  0
  -28.3767  -26.3811   19.9476 O   0  0  0  0  0  0
  -26.5583  -34.8983   22.4708 O   0  0  0  0  0  0
  -23.5459  -32.1328   23.7195 O   0  0  0  0  0  0
  -29.4872  -17.6355   18.1394 C   0  0  0  0  0  0
  -28.9088  -18.9554   18.3567 C   0  0  0  0  0  0
  -30.8465  -17.5106   18.3325 C   0  0  0  0  0  0
  -29.7735  -19.9948   18.6284 C   0  0  0  0  0  0
  -29.5782  -22.3870   19.5936 C   0  0  0  0  0  0
  -31.8013  -16.2009   18.4193 C   0  0  0  0  0  0
  -28.2212  -24.9093   19.6460 C   0  0  0  0  0  0
  -29.3920  -23.9033   19.1111 C   0  0  1  0  0  0
  -29.4439  -21.3694   18.6773 N   0  0  0  0  0  0
  -31.2673  -14.7263   18.5549 N   0  0  0  0  0  0
  -29.9642  -22.1898   20.7452 O   0  0  0  0  0  0
  -30.7007  -24.4524   19.1119 O   0  0  0  0  0  0
  -31.3919  -19.2422   18.5441 S   0  0  0  0  0  0
  -29.2688  -13.9303   21.7301 H   0  0  0  0  0  0
  -30.2095  -15.0822   21.1657 H   0  0  0  0  0  0
  -29.1407  -15.4373   19.0794 H   0  0  0  0  0  0
  -28.0392  -15.3557   20.0267 H   0  0  0  0  0  0
  -28.5809  -13.2262   17.9995 H   0  0  0  0  0  0
  -27.0347  -14.1849   18.3383 H   0  0  0  0  0  0
  -27.4952  -13.5375   20.9798 H   0  0  0  0  0  0
  -29.0077  -11.3867   19.5761 H   0  0  0  0  0  0
  -28.9968  -11.6246   21.2666 H   0  0  0  0  0  0
  -25.2384   -9.5666   22.4526 H   0  0  0  0  0  0
  -23.9940   -7.4334   22.7226 H   0  0  0  0  0  0
  -21.0402   -8.8741   19.8756 H   0  0  0  0  0  0
  -22.3244  -10.9739   19.6174 H   0  0  0  0  0  0
  -21.1863   -7.6017   23.9821 H   0  0  0  0  0  0
  -21.1465   -6.0360   25.9155 H   0  0  0  0  0  0
  -22.0646   -2.7511   23.3126 H   0  0  0  0  0  0
  -22.4485  -12.0587   22.5534 H   0  0  0  0  0  0
  -21.1300  -13.1805   22.2709 H   0  0  0  0  0  0
  -24.9995  -15.8269   20.9240 H   0  0  0  0  0  0
  -26.4641  -15.3661   20.1626 H   0  0  0  0  0  0
  -26.7275  -32.5359   23.1356 H   0  0  0  0  0  0
  -25.0117  -33.9727   25.0570 H   0  0  0  0  0  0
  -22.7628  -31.2901   21.3767 H   0  0  0  0  0  0
  -23.3680  -35.9522   23.3372 H   0  0  0  0  0  0
  -24.3531  -36.8807   22.2077 H   0  0  0  0  0  0
  -23.7122  -37.6464   23.6647 H   0  0  0  0  0  0
  -26.1651  -31.5037   20.6134 H   0  0  0  0  0  0
  -26.8865  -30.7744   22.0117 H   0  0  0  0  0  0
  -28.2019  -28.8754   21.0485 H   0  0  0  0  0  0
  -25.8318  -25.8319   19.0629 H   0  0  0  0  0  0
  -23.9266  -27.2720   19.1118 H   0  0  0  0  0  0
  -23.8424  -30.5698   19.3944 H   0  0  0  0  0  0
  -22.8055  -29.2653   19.8268 H   0  0  0  0  0  0
  -25.1188  -36.2001   25.0861 H   0  0  0  0  0  0
  -20.9965  -28.3202   24.1395 H   0  0  0  0  0  0
  -20.5621  -26.2243   23.3657 H   0  0  0  0  0  0
  -21.6599  -26.7320   22.1242 H   0  0  0  0  0  0
  -19.6823  -25.6231   21.1306 H   0  0  0  0  0  0
  -19.6684  -27.3166   20.6796 H   0  0  0  0  0  0
  -17.4155  -26.6680   21.4026 H   0  0  0  0  0  0
  -18.0193  -26.0085   22.9066 H   0  0  0  0  0  0
  -19.7921  -30.7265   24.2268 H   0  0  0  0  0  0
  -17.4999  -31.6253   24.5123 H   0  0  0  0  0  0
  -15.5348  -30.3017   23.7653 H   0  0  0  0  0  0
  -15.8600  -28.0851   22.7110 H   0  0  0  0  0  0
  -24.5894  -30.6952   25.8090 H   0  0  0  0  0  0
  -24.8833  -32.2910   26.5119 H   0  0  0  0  0  0
  -25.8128  -30.9069   27.0463 H   0  0  0  0  0  0
  -26.2882  -29.6767   24.1467 H   0  0  0  0  0  0
  -27.3869  -29.7281   25.4955 H   0  0  0  0  0  0
  -27.8858  -30.4317   23.9721 H   0  0  0  0  0  0
  -27.2559  -33.3661   26.2205 H   0  0  0  0  0  0
  -28.3792  -32.6937   25.0456 H   0  0  0  0  0  0
  -28.0631  -31.8547   26.5637 H   0  0  0  0  0  0
  -28.2564  -38.0080   24.7480 H   0  0  0  0  0  0
  -28.0986  -36.2610   24.6334 H   0  0  0  0  0  0
  -27.2288  -37.1493   25.8930 H   0  0  0  0  0  0
  -20.9564  -29.8815   21.6928 H   0  0  0  0  0  0
  -26.0104  -38.2799   24.1537 H   0  0  0  0  0  0
  -28.8277  -16.8004   17.9326 H   0  0  0  0  0  0
  -27.8440  -19.0834   18.3273 H   0  0  0  0  0  0
  -32.5482  -16.2271   17.6027 H   0  0  0  0  0  0
  -32.4165  -16.4035   19.2878 H   0  0  0  0  0  0
  -27.7270  -24.3943   20.4537 H   0  0  0  0  0  0
  -27.5288  -24.8198   18.7976 H   0  0  0  0  0  0
  -29.1914  -23.7829   18.0623 H   0  0  0  0  0  0
  -29.0425  -21.7072   17.8167 H   0  0  0  0  0  0
  -30.7691  -14.3594   17.7664 H   0  0  0  0  0  0
  -31.2709  -23.7397   18.8404 H   0  0  0  0  0  0
  1 25  1  0  0  0
  1 30  2  0  0  0
  1 80  1  0  0  0
  2  3  1  0  0  0
  2 25  1  0  0  0
  2 84  1  0  0  0
  2 85  1  0  0  0
  3  4  1  0  0  0
  3 86  1  0  0  0
  3 87  1  0  0  0
  4  5  1  0  0  0
  4 88  1  0  0  0
  4 89  1  0  0  0
  5  6  1  0  0  0
  5 26  1  0  0  0
  5 90  1  0  0  0
  6 25  1  0  0  0
  6 91  1  0  0  0
  6 92  1  0  0  0
  7  8  2  0  0  0
  7 26  1  0  0  0
  7 29  1  0  0  0
  8  9  1  0  0  0
  8 22  1  0  0  0
  9 10  1  0  0  0
  9 27  2  0  0  0
 10 11  2  0  0  0
 10 15  1  0  0  0
 11 12  1  0  0  0
 11 93  1  0  0  0
 12 13  2  0  0  0
 12 94  1  0  0  0
 13 14  1  0  0  0
 13 31  1  0  0  0
 14 15  2  0  0  0
 14 95  1  0  0  0
 15 96  1  0  0  0
 16 17  2  0  0  0
 16 21  1  0  0  0
 16 31  1  0  0  0
 17 18  1  0  0  0
 17 97  1  0  0  0
 18 19  2  0  0  0
 18 98  1  0  0  0
 19 20  1  0  0  0
 19 24  1  0  0  0
 20 21  2  0  0  0
 20 99  1  0  0  0
 21 23  1  0  0  0
 22 28  1  0  0  0
 22 32  2  0  0  0
 26 27  1  0  0  0
 28100  1  0  0  0
 28101  1  0  0  0
 29102  1  0  0  0
 29103  1  0  0  0
 33 34  1  0  0  0
 33 66  1  0  0  0
 33 70  2  0  0  0
 34 36  1  0  0  0
 34 59  1  0  0  0
 34104  1  0  0  0
 35 44  2  0  0  0
 35 45  1  0  0  0
 35 68  1  0  0  0
 36 56  1  0  0  0
 36105  1  0  0  0
 37 39  1  0  0  0
 37 47  1  0  0  0
 37 66  1  0  0  0
 37106  1  0  0  0
 38 43  2  0  0  0
 38 46  1  0  0  0
 38 47  1  0  0  0
 39 64  1  0  0  0
 39 67  2  0  0  0
 40 52  1  0  0  0
 40 53  2  0  0  0
 40 58  1  0  0  0
 41107  1  0  0  0
 41108  1  0  0  0
 41109  1  0  0  0
 41 48  1  0  0  0
 42 43  1  0  0  0
 42 66  1  0  0  0
 42110  1  0  0  0
 42111  1  0  0  0
 43 44  1  0  0  0
 44112  1  0  0  0
 45 46  2  0  0  0
 45113  1  0  0  0
 46114  1  0  0  0
 47115  1  0  0  0
 47116  1  0  0  0
 48 56  1  0  0  0
 48 65  1  0  0  0
 48117  1  0  0  0
 49 50  1  0  0  0
 49 53  1  0  0  0
 49 64  1  0  0  0
 49118  1  0  0  0
 50 51  1  0  0  0
 50119  1  0  0  0
 50120  1  0  0  0
 51 52  1  0  0  0
 51121  1  0  0  0
 51122  1  0  0  0
 52123  1  0  0  0
 52124  1  0  0  0
 53 54  1  0  0  0
 54 55  2  0  0  0
 54125  1  0  0  0
 55 57  1  0  0  0
 55126  1  0  0  0
 56 69  2  0  0  0
 57 58  2  0  0  0
 57127  1  0  0  0
 58128  1  0  0  0
 59 60  1  0  0  0
 59 61  1  0  0  0
 59 62  1  0  0  0
 60129  1  0  0  0
 60130  1  0  0  0
 60131  1  0  0  0
 61132  1  0  0  0
 61133  1  0  0  0
 61134  1  0  0  0
 62135  1  0  0  0
 62136  1  0  0  0
 62137  1  0  0  0
 63 65  1  0  0  0
 63138  1  0  0  0
 63139  1  0  0  0
 63140  1  0  0  0
 64141  1  0  0  0
 65142  1  0  0  0
 68 77  1  0  0  0
 71 72  1  0  0  0
 71 73  2  0  0  0
 71143  1  0  0  0
 72 74  2  0  0  0
 72144  1  0  0  0
 73 76  1  0  0  0
 73 83  1  0  0  0
 74 79  1  0  0  0
 74 83  1  0  0  0
 75 78  1  0  0  0
 75 79  1  0  0  0
 75 81  2  0  0  0
 76 80  1  0  0  0
 76145  1  0  0  0
 76146  1  0  0  0
 77 78  1  0  0  0
 77147  1  0  0  0
 77148  1  0  0  0
 78 82  1  0  0  0
 78149  1  0  0  0
 79150  1  0  0  0
 80151  1  0  0  0
 82152  1  0  0  0
M  ISO  4   1 100  68 101  77 101  80 100
M  END
> <chiral flag>
0

> <version>
0

> <s_m_source_file>
/data/baiqing/PycharmProjects/Reinvent-master-3.2/result/LINK_invent/BTK/process_docking_weight1_custom_product_contain_oxygen_bond_distance_aromatic_linkinvent_7_9_3/rearranged_h_0197.sdf

> <i_m_source_file_index>
73

> <r_mmod_Potential_Energy-OPLS-2005>
2862.72192382812

> <r_mmod_Stretch_Energy-OPLS-2005>
260.031616210938

> <r_mmod_Bend_Energy-OPLS-2005>
719.624755859375

> <r_mmod_Torsional_Energy-OPLS-2005>
368.625427246094

> <r_mmod_Improper_Torsional_Energy-OPLS-2005>
23.3723106384277

> <r_mmod_Van_der_Waal_Energy-OPLS-2005>
303.200286865234

> <r_mmod_Electrostatic_Energy-OPLS-2005>
-371.701385498047

> <r_mmod_Solvation_Energy-OPLS-2005>
-301.762634277344

> <b_mmod_Minimization_Converged-OPLS-2005>
0

> <r_mmod_RMS_Derivative-OPLS-2005>
43.6220092773438

$$$$
73
                    3D
 Structure written by MMmdl.
152160  0  0  1  0            999 V2000
  -30.6712  -14.5388   20.5146 C   0  0  0  0  0  0
  -30.4183  -12.3283   19.4483 C   0  0  0  0  0  0
  -29.4973  -12.4891   18.2200 C   0  0  0  0  0  0
  -28.0188  -12.3417   18.6322 C   0  0  0  0  0  0
  -27.6519  -13.2106   19.8657 C   0  0  2  0  0  0
  -28.6935  -13.0465   20.9963 C   0  0  0  0  0  0
  -25.2549  -13.8183   20.5681 C   0  0  0  0  0  0
  -24.1810  -13.0443   20.9193 C   0  0  0  0  0  0
  -24.6370  -11.6918   20.8738 C   0  0  0  0  0  0
  -23.9044  -10.4293   21.0404 C   0  0  0  0  0  0
  -24.3604   -9.4203   21.9175 C   0  0  0  0  0  0
  -23.6282   -8.2240   22.0744 C   0  0  0  0  0  0
  -22.4262   -8.0271   21.3542 C   0  0  0  0  0  0
  -21.9893   -9.0242   20.4644 C   0  0  0  0  0  0
  -22.7222  -10.2122   20.3050 C   0  0  0  0  0  0
  -21.6847   -6.0720   22.5279 C   0  0  0  0  0  0
  -21.4019   -6.5631   23.8210 C   0  0  0  0  0  0
  -21.3662   -5.6789   24.9177 C   0  0  0  0  0  0
  -21.6041   -4.3048   24.7231 C   0  0  0  0  0  0
  -21.8828   -3.8134   23.4355 C   0  0  0  0  0  0
  -21.9197   -4.6949   22.3408 C   0  0  0  0  0  0
  -22.7835  -13.5230   21.1865 C   0  0  0  0  0  0
  -22.1659   -4.2130   21.0985 F   0  0  0  0  0  0
  -21.5632   -3.4538   25.7750 F   0  0  0  0  0  0
  -30.0156  -13.3482   20.4322 N   0  0  0  0  0  0
  -26.2961  -12.9343   20.3343 N   0  0  0  0  0  0
  -25.9291  -11.6498   20.5768 N   0  0  0  0  0  0
  -22.0490  -12.8198   22.0426 N   0  0  0  0  0  0
  -25.4270  -15.1902   20.4091 N   0  0  0  0  0  0
  -31.8343  -14.6711   20.1241 O   0  0  0  0  0  0
  -21.6639   -6.8858   21.4236 O   0  0  0  0  0  0
  -22.3513  -14.5539   20.6719 O   0  0  0  0  0  0
  -24.6169  -31.8639   23.2060 C   0  0  0  0  0  0
  -25.9053  -32.4789   23.8371 C   0  0  1  0  0  0
  -27.2338  -27.3787   20.1046 C   0  0  0  0  0  0
  -25.5894  -33.8592   24.2301 N   0  0  0  0  0  0
  -23.4083  -30.4867   21.5453 C   0  0  2  0  0  0
  -24.8570  -28.9444   20.1084 C   0  0  0  0  0  0
  -22.7411  -29.4654   22.4943 C   0  0  0  0  0  0
  -18.0277  -28.1382   22.8503 C   0  0  0  0  0  0
  -24.1487  -36.7306   23.2641 C   0  0  0  0  0  0
  -25.9422  -30.8092   21.3710 C   0  0  0  0  0  0
  -26.0172  -29.4407   20.7139 C   0  0  0  0  0  0
  -27.2036  -28.6640   20.7094 C   0  0  0  0  0  0
  -26.0510  -26.9093   19.4882 C   0  0  0  0  0  0
  -24.8731  -27.6829   19.4889 C   0  0  0  0  0  0
  -23.6195  -29.8158   20.1599 C   0  0  0  0  0  0
  -25.4110  -36.3098   24.0332 C   0  0  1  0  0  0
  -20.5865  -28.3699   23.1296 C   0  0  2  0  0  0
  -20.6769  -26.9416   22.5458 C   0  0  0  0  0  0
  -19.5745  -26.6353   21.5279 C   0  0  0  0  0  0
  -18.1919  -26.7913   22.1673 C   0  0  0  0  0  0
  -19.1525  -28.8868   23.2881 C   0  0  0  0  0  0
  -18.9443  -30.1474   23.8882 C   0  0  0  0  0  0
  -17.6438  -30.6600   24.0547 C   0  0  0  0  0  0
  -25.9043  -34.9461   23.5119 C   0  0  0  0  0  0
  -16.5336  -29.9088   23.6332 C   0  0  0  0  0  0
  -16.7266  -28.6494   23.0369 C   0  0  0  0  0  0
  -26.4471  -31.6597   25.0723 C   0  0  0  0  0  0
  -25.3720  -31.3718   26.1460 C   0  0  0  0  0  0
  -27.0313  -30.3026   24.6163 C   0  0  0  0  0  0
  -27.6041  -32.4327   25.7474 C   0  0  0  0  0  0
  -27.5580  -37.1810   24.8463 C   0  0  0  0  0  0
  -21.4134  -29.3045   22.3670 N   0  0  0  0  0  0
  -26.4299  -37.3781   23.9396 N   0  0  0  0  0  0
  -24.6733  -31.0696   22.0980 N   0  0  0  0  0  0
  -23.4162  -28.8217   23.3019 O   0  0  0  0  0  0
  -28.4027  -26.6281   20.1659 O   0  0  0  0  0  0
  -26.5611  -34.8915   22.4686 O   0  0  0  0  0  0
  -23.5347  -32.1422   23.7427 O   0  0  0  0  0  0
  -28.3063  -18.2211   21.5655 C   0  0  0  0  0  0
  -29.4662  -18.1899   20.8284 C   0  0  0  0  0  0
  -28.9551  -20.4533   20.7042 C   0  0  0  0  0  0
  -30.4024  -17.0112   20.5533 C   0  0  0  0  0  0
  -28.7286  -23.0848   21.0438 C   0  0  0  0  0  0
  -28.5191  -25.3266   19.5277 C   0  0  0  0  0  0
  -27.8391  -24.0810   20.2139 C   0  0  1  0  0  0
  -29.7918  -19.4739   20.3234 N   0  0  0  0  0  0
  -29.1098  -21.8133   20.3708 N   0  0  0  0  0  0
  -29.9286  -15.6302   20.8206 N   0  0  0  0  0  0
  -27.2618  -23.2406   19.2380 O   0  0  0  0  0  0
  -27.6474  -19.8424   21.7122 S   0  0  0  0  0  0
  -31.4653  -12.4165   19.1526 H   0  0  0  0  0  0
  -30.3118  -11.3317   19.8808 H   0  0  0  0  0  0
  -29.7486  -11.7495   17.4589 H   0  0  0  0  0  0
  -29.6586  -13.4666   17.7619 H   0  0  0  0  0  0
  -27.8461  -11.2887   18.8591 H   0  0  0  0  0  0
  -27.3655  -12.5790   17.7915 H   0  0  0  0  0  0
  -27.6792  -14.2476   19.5321 H   0  0  0  0  0  0
  -28.6803  -12.0270   21.3857 H   0  0  0  0  0  0
  -28.4592  -13.6940   21.8424 H   0  0  0  0  0  0
  -25.2752   -9.5684   22.4738 H   0  0  0  0  0  0
  -23.9993   -7.4639   22.7459 H   0  0  0  0  0  0
  -21.0827   -8.8760   19.8954 H   0  0  0  0  0  0
  -22.3677  -10.9652   19.6157 H   0  0  0  0  0  0
  -21.2009   -7.6138   23.9712 H   0  0  0  0  0  0
  -21.1476   -6.0517   25.9082 H   0  0  0  0  0  0
  -22.0604   -2.7591   23.2872 H   0  0  0  0  0  0
  -22.4101  -11.9845   22.4779 H   0  0  0  0  0  0
  -21.1120  -13.1224   22.2677 H   0  0  0  0  0  0
  -24.6553  -15.8418   20.4992 H   0  0  0  0  0  0
  -26.2719  -15.6261   20.0627 H   0  0  0  0  0  0
  -26.7108  -32.5490   23.1116 H   0  0  0  0  0  0
  -25.0023  -33.9753   25.0432 H   0  0  0  0  0  0
  -22.7008  -31.3065   21.4030 H   0  0  0  0  0  0
  -23.3748  -35.9643   23.3315 H   0  0  0  0  0  0
  -24.3585  -36.8919   22.2057 H   0  0  0  0  0  0
  -23.7251  -37.6516   23.6653 H   0  0  0  0  0  0
  -26.0705  -31.5763   20.6061 H   0  0  0  0  0  0
  -26.8241  -30.8557   21.9985 H   0  0  0  0  0  0
  -28.0979  -29.0384   21.1880 H   0  0  0  0  0  0
  -26.0136  -25.9400   19.0139 H   0  0  0  0  0  0
  -23.9819  -27.2996   19.0122 H   0  0  0  0  0  0
  -23.7221  -30.5885   19.3971 H   0  0  0  0  0  0
  -22.7430  -29.2330   19.8690 H   0  0  0  0  0  0
  -25.1298  -36.1970   25.0827 H   0  0  0  0  0  0
  -20.9970  -28.3304   24.1421 H   0  0  0  0  0  0
  -20.5696  -26.2333   23.3688 H   0  0  0  0  0  0
  -21.6631  -26.7441   22.1243 H   0  0  0  0  0  0
  -19.6913  -25.6245   21.1358 H   0  0  0  0  0  0
  -19.6698  -27.3138   20.6778 H   0  0  0  0  0  0
  -17.4184  -26.6601   21.4083 H   0  0  0  0  0  0
  -18.0337  -26.0090   22.9114 H   0  0  0  0  0  0
  -19.7918  -30.7319   24.2208 H   0  0  0  0  0  0
  -17.4971  -31.6298   24.5108 H   0  0  0  0  0  0
  -15.5323  -30.2969   23.7629 H   0  0  0  0  0  0
  -15.8673  -28.0792   22.7101 H   0  0  0  0  0  0
  -24.5895  -30.7071   25.7784 H   0  0  0  0  0  0
  -24.8905  -32.2870   26.4900 H   0  0  0  0  0  0
  -25.8052  -30.8882   27.0225 H   0  0  0  0  0  0
  -26.2874  -29.6763   24.1224 H   0  0  0  0  0  0
  -27.4058  -29.7298   25.4663 H   0  0  0  0  0  0
  -27.8718  -30.4313   23.9340 H   0  0  0  0  0  0
  -27.2662  -33.3616   26.2071 H   0  0  0  0  0  0
  -28.3821  -32.6913   25.0283 H   0  0  0  0  0  0
  -28.0740  -31.8454   26.5374 H   0  0  0  0  0  0
  -28.2611  -38.0095   24.7504 H   0  0  0  0  0  0
  -28.1068  -36.2634   24.6302 H   0  0  0  0  0  0
  -27.2296  -37.1469   25.8866 H   0  0  0  0  0  0
  -20.9301  -29.8734   21.6859 H   0  0  0  0  0  0
  -26.0195  -38.2864   24.1389 H   0  0  0  0  0  0
  -27.8097  -17.4000   22.0657 H   0  0  0  0  0  0
  -31.3212  -17.1621   21.1224 H   0  0  0  0  0  0
  -30.7072  -17.0477   19.5052 H   0  0  0  0  0  0
  -28.1819  -22.8167   21.9499 H   0  0  0  0  0  0
  -29.6274  -23.5931   21.3966 H   0  0  0  0  0  0
  -28.1680  -25.4342   18.5011 H   0  0  0  0  0  0
  -29.5831  -25.1135   19.4166 H   0  0  0  0  0  0
  -27.0337  -24.4505   20.8515 H   0  0  0  0  0  0
  -29.9292  -21.9398   19.7832 H   0  0  0  0  0  0
  -28.9662  -15.4983   21.0898 H   0  0  0  0  0  0
  -27.8104  -22.4533   19.3038 H   0  0  0  0  0  0
  1 25  1  0  0  0
  1 30  2  0  0  0
  1 80  1  0  0  0
  2  3  1  0  0  0
  2 25  1  0  0  0
  2 83  1  0  0  0
  2 84  1  0  0  0
  3  4  1  0  0  0
  3 85  1  0  0  0
  3 86  1  0  0  0
  4  5  1  0  0  0
  4 87  1  0  0  0
  4 88  1  0  0  0
  5  6  1  0  0  0
  5 26  1  0  0  0
  5 89  1  0  0  0
  6 25  1  0  0  0
  6 90  1  0  0  0
  6 91  1  0  0  0
  7  8  2  0  0  0
  7 26  1  0  0  0
  7 29  1  0  0  0
  8  9  1  0  0  0
  8 22  1  0  0  0
  9 10  1  0  0  0
  9 27  2  0  0  0
 10 11  2  0  0  0
 10 15  1  0  0  0
 11 12  1  0  0  0
 11 92  1  0  0  0
 12 13  2  0  0  0
 12 93  1  0  0  0
 13 14  1  0  0  0
 13 31  1  0  0  0
 14 15  2  0  0  0
 14 94  1  0  0  0
 15 95  1  0  0  0
 16 17  2  0  0  0
 16 21  1  0  0  0
 16 31  1  0  0  0
 17 18  1  0  0  0
 17 96  1  0  0  0
 18 19  2  0  0  0
 18 97  1  0  0  0
 19 20  1  0  0  0
 19 24  1  0  0  0
 20 21  2  0  0  0
 20 98  1  0  0  0
 21 23  1  0  0  0
 22 28  1  0  0  0
 22 32  2  0  0  0
 26 27  1  0  0  0
 28 99  1  0  0  0
 28100  1  0  0  0
 29101  1  0  0  0
 29102  1  0  0  0
 33 34  1  0  0  0
 33 66  1  0  0  0
 33 70  2  0  0  0
 34 36  1  0  0  0
 34 59  1  0  0  0
 34103  1  0  0  0
 35 44  2  0  0  0
 35 45  1  0  0  0
 35 68  1  0  0  0
 36 56  1  0  0  0
 36104  1  0  0  0
 37 39  1  0  0  0
 37 47  1  0  0  0
 37 66  1  0  0  0
 37105  1  0  0  0
 38 43  2  0  0  0
 38 46  1  0  0  0
 38 47  1  0  0  0
 39 64  1  0  0  0
 39 67  2  0  0  0
 40 52  1  0  0  0
 40 53  2  0  0  0
 40 58  1  0  0  0
 41106  1  0  0  0
 41107  1  0  0  0
 41108  1  0  0  0
 41 48  1  0  0  0
 42 43  1  0  0  0
 42 66  1  0  0  0
 42109  1  0  0  0
 42110  1  0  0  0
 43 44  1  0  0  0
 44111  1  0  0  0
 45 46  2  0  0  0
 45112  1  0  0  0
 46113  1  0  0  0
 47114  1  0  0  0
 47115  1  0  0  0
 48 56  1  0  0  0
 48 65  1  0  0  0
 48116  1  0  0  0
 49 50  1  0  0  0
 49 53  1  0  0  0
 49 64  1  0  0  0
 49117  1  0  0  0
 50 51  1  0  0  0
 50118  1  0  0  0
 50119  1  0  0  0
 51 52  1  0  0  0
 51120  1  0  0  0
 51121  1  0  0  0
 52122  1  0  0  0
 52123  1  0  0  0
 53 54  1  0  0  0
 54 55  2  0  0  0
 54124  1  0  0  0
 55 57  1  0  0  0
 55125  1  0  0  0
 56 69  2  0  0  0
 57 58  2  0  0  0
 57126  1  0  0  0
 58127  1  0  0  0
 59 60  1  0  0  0
 59 61  1  0  0  0
 59 62  1  0  0  0
 60128  1  0  0  0
 60129  1  0  0  0
 60130  1  0  0  0
 61131  1  0  0  0
 61132  1  0  0  0
 61133  1  0  0  0
 62134  1  0  0  0
 62135  1  0  0  0
 62136  1  0  0  0
 63 65  1  0  0  0
 63137  1  0  0  0
 63138  1  0  0  0
 63139  1  0  0  0
 64140  1  0  0  0
 65141  1  0  0  0
 68 76  1  0  0  0
 71 72  2  0  0  0
 71 82  1  0  0  0
 71142  1  0  0  0
 72 74  1  0  0  0
 72 78  1  0  0  0
 73 78  2  0  0  0
 73 79  1  0  0  0
 73 82  1  0  0  0
 74 80  1  0  0  0
 74143  1  0  0  0
 74144  1  0  0  0
 75 77  1  0  0  0
 75 79  1  0  0  0
 75145  1  0  0  0
 75146  1  0  0  0
 76 77  1  0  0  0
 76147  1  0  0  0
 76148  1  0  0  0
 77 81  1  0  0  0
 77149  1  0  0  0
 79150  1  0  0  0
 80151  1  0  0  0
 81152  1  0  0  0
M  ISO  4   1 100  68 101  76 101  80 100
M  END
> <chiral flag>
0

> <version>
0

> <s_m_source_file>
/data/baiqing/PycharmProjects/Reinvent-master-3.2/result/LINK_invent/BTK/process_docking_weight1_custom_product_contain_oxygen_bond_distance_aromatic_linkinvent_7_9_3/rearranged_h_0197.sdf

> <i_m_source_file_index>
74

> <r_mmod_Potential_Energy-OPLS-2005>
-256.595001220703

> <r_mmod_Stretch_Energy-OPLS-2005>
48.977783203125

> <r_mmod_Bend_Energy-OPLS-2005>
123.672454833984

> <r_mmod_Torsional_Energy-OPLS-2005>
239.216522216797

> <r_mmod_Improper_Torsional_Energy-OPLS-2005>
7.51880645751953

> <r_mmod_Van_der_Waal_Energy-OPLS-2005>
133.392349243164

> <r_mmod_Electrostatic_Energy-OPLS-2005>
-595.460571289062

> <r_mmod_Solvation_Energy-OPLS-2005>
-239.425247192383

> <b_mmod_Minimization_Converged-OPLS-2005>
0

> <r_mmod_RMS_Derivative-OPLS-2005>
2.39066386222839

$$$$
74
                    3D
 Structure written by MMmdl.
158166  0  0  1  0            999 V2000
  -30.6664  -14.5527   20.5493 C   0  0  0  0  0  0
  -30.4308  -12.3570   19.4317 C   0  0  0  0  0  0
  -29.4992  -12.5152   18.2119 C   0  0  0  0  0  0
  -28.0186  -12.3657   18.6209 C   0  0  0  0  0  0
  -27.6545  -13.2136   19.8690 C   0  0  2  0  0  0
  -28.7009  -13.0331   20.9931 C   0  0  0  0  0  0
  -25.2543  -13.8180   20.5742 C   0  0  0  0  0  0
  -24.1800  -13.0449   20.9215 C   0  0  0  0  0  0
  -24.6358  -11.6917   20.8736 C   0  0  0  0  0  0
  -23.9027  -10.4309   21.0403 C   0  0  0  0  0  0
  -24.3611   -9.4230   21.9174 C   0  0  0  0  0  0
  -23.6326   -8.2238   22.0738 C   0  0  0  0  0  0
  -22.4298   -8.0275   21.3535 C   0  0  0  0  0  0
  -21.9917   -9.0234   20.4635 C   0  0  0  0  0  0
  -22.7203  -10.2136   20.3045 C   0  0  0  0  0  0
  -21.6854   -6.0754   22.5292 C   0  0  0  0  0  0
  -21.3999   -6.5654   23.8232 C   0  0  0  0  0  0
  -21.3655   -5.6795   24.9188 C   0  0  0  0  0  0
  -21.6056   -4.3056   24.7226 C   0  0  0  0  0  0
  -21.8821   -3.8160   23.4335 C   0  0  0  0  0  0
  -21.9186   -4.6982   22.3397 C   0  0  0  0  0  0
  -22.7817  -13.5237   21.1901 C   0  0  0  0  0  0
  -22.1663   -4.2176   21.0968 F   0  0  0  0  0  0
  -21.5651   -3.4530   25.7725 F   0  0  0  0  0  0
  -30.0216  -13.3557   20.4340 N   0  0  0  0  0  0
  -26.2971  -12.9350   20.3350 N   0  0  0  0  0  0
  -25.9280  -11.6504   20.5739 N   0  0  0  0  0  0
  -22.0451  -12.8222   22.0455 N   0  0  0  0  0  0
  -25.4262  -15.1921   20.4257 N   0  0  0  0  0  0
  -31.8103  -14.7275   20.1252 O   0  0  0  0  0  0
  -21.6651   -6.8885   21.4248 O   0  0  0  0  0  0
  -22.3490  -14.5538   20.6723 O   0  0  0  0  0  0
  -24.6223  -31.8636   23.2046 C   0  0  0  0  0  0
  -25.9098  -32.4796   23.8362 C   0  0  1  0  0  0
  -27.2296  -27.3592   20.1123 C   0  0  0  0  0  0
  -25.5932  -33.8589   24.2288 N   0  0  0  0  0  0
  -23.4140  -30.4876   21.5473 C   0  0  2  0  0  0
  -24.8580  -28.9415   20.1178 C   0  0  0  0  0  0
  -22.7459  -29.4648   22.4963 C   0  0  0  0  0  0
  -18.0286  -28.1382   22.8502 C   0  0  0  0  0  0
  -24.1487  -36.7301   23.2639 C   0  0  0  0  0  0
  -25.9518  -30.8058   21.3686 C   0  0  0  0  0  0
  -26.0256  -29.4350   20.7126 C   0  0  0  0  0  0
  -27.2148  -28.6563   20.6973 C   0  0  0  0  0  0
  -26.0355  -26.8993   19.5108 C   0  0  0  0  0  0
  -24.8613  -27.6753   19.5121 C   0  0  0  0  0  0
  -23.6269  -29.8201   20.1632 C   0  0  0  0  0  0
  -25.4109  -36.3093   24.0336 C   0  0  1  0  0  0
  -20.5884  -28.3685   23.1305 C   0  0  2  0  0  0
  -20.6782  -26.9416   22.5417 C   0  0  0  0  0  0
  -19.5747  -26.6379   21.5236 C   0  0  0  0  0  0
  -18.1931  -26.7926   22.1643 C   0  0  0  0  0  0
  -19.1537  -28.8849   23.2897 C   0  0  0  0  0  0
  -18.9458  -30.1458   23.8896 C   0  0  0  0  0  0
  -17.6460  -30.6591   24.0565 C   0  0  0  0  0  0
  -25.9056  -34.9465   23.5122 C   0  0  0  0  0  0
  -16.5349  -29.9089   23.6329 C   0  0  0  0  0  0
  -16.7277  -28.6505   23.0354 C   0  0  0  0  0  0
  -26.4477  -31.6595   25.0724 C   0  0  0  0  0  0
  -25.3728  -31.3769   26.1481 C   0  0  0  0  0  0
  -27.0297  -30.3008   24.6165 C   0  0  0  0  0  0
  -27.6051  -32.4322   25.7480 C   0  0  0  0  0  0
  -27.5588  -37.1794   24.8458 C   0  0  0  0  0  0
  -21.4175  -29.3044   22.3702 N   0  0  0  0  0  0
  -26.4283  -37.3792   23.9433 N   0  0  0  0  0  0
  -24.6820  -31.0687   22.0970 N   0  0  0  0  0  0
  -23.4206  -28.8214   23.3043 O   0  0  0  0  0  0
  -28.3794  -26.5682   20.1290 O   0  0  0  0  0  0
  -26.5617  -34.8929   22.4681 O   0  0  0  0  0  0
  -23.5400  -32.1422   23.7399 O   0  0  0  0  0  0
  -28.5690  -19.8790   18.4516 C   0  0  0  0  0  0
  -29.6480  -19.4891   20.5801 C   0  0  0  0  0  0
  -28.6082  -18.4901   18.2080 C   0  0  0  0  0  0
  -29.1114  -20.4259   19.6347 C   0  0  0  0  0  0
  -29.6820  -18.0822   20.2852 C   0  0  0  0  0  0
  -31.1261  -22.4737   20.9918 C   0  0  0  0  0  0
  -30.3264  -17.0117   21.1992 C   0  0  0  0  0  0
  -29.5770  -24.3232   20.2727 C   0  0  0  0  0  0
  -28.2235  -25.1113   20.2280 C   0  0  0  0  0  0
  -29.6404  -22.7929   20.7132 C   0  0  1  0  0  0
  -29.1646  -17.6585   19.1139 N   0  3  0  0  0  0
  -29.0650  -21.8547   19.7220 N   0  0  0  0  0  0
  -29.9166  -15.5901   21.0000 N   0  0  0  0  0  0
  -31.4740  -12.4749   19.1296 H   0  0  0  0  0  0
  -30.3540  -11.3505   19.8450 H   0  0  0  0  0  0
  -29.7578  -11.7820   17.4470 H   0  0  0  0  0  0
  -29.6542  -13.4957   17.7599 H   0  0  0  0  0  0
  -27.8328  -11.3104   18.8197 H   0  0  0  0  0  0
  -27.3684  -12.6341   17.7872 H   0  0  0  0  0  0
  -27.6824  -14.2560   19.5521 H   0  0  0  0  0  0
  -28.6995  -12.0041   21.3543 H   0  0  0  0  0  0
  -28.4522  -13.6449   21.8603 H   0  0  0  0  0  0
  -25.2774   -9.5734   22.4720 H   0  0  0  0  0  0
  -24.0074   -7.4632   22.7429 H   0  0  0  0  0  0
  -21.0869   -8.8730   19.8935 H   0  0  0  0  0  0
  -22.3667  -10.9666   19.6150 H   0  0  0  0  0  0
  -21.1976   -7.6157   23.9742 H   0  0  0  0  0  0
  -21.1483   -6.0519   25.9103 H   0  0  0  0  0  0
  -22.0599   -2.7616   23.2812 H   0  0  0  0  0  0
  -22.4066  -11.9883   22.4838 H   0  0  0  0  0  0
  -21.1035  -13.1199   22.2637 H   0  0  0  0  0  0
  -24.6600  -15.8446   20.5596 H   0  0  0  0  0  0
  -26.2841  -15.6407   20.1362 H   0  0  0  0  0  0
  -26.7173  -32.5476   23.1121 H   0  0  0  0  0  0
  -25.0092  -33.9726   25.0440 H   0  0  0  0  0  0
  -22.7063  -31.3072   21.4057 H   0  0  0  0  0  0
  -23.3764  -35.9617   23.3254 H   0  0  0  0  0  0
  -24.3605  -36.8964   22.2067 H   0  0  0  0  0  0
  -23.7200  -37.6477   23.6679 H   0  0  0  0  0  0
  -26.0797  -31.5685   20.5993 H   0  0  0  0  0  0
  -26.8346  -30.8525   21.9948 H   0  0  0  0  0  0
  -28.1143  -29.0366   21.1616 H   0  0  0  0  0  0
  -25.9821  -25.9345   19.0316 H   0  0  0  0  0  0
  -23.9631  -27.2856   19.0515 H   0  0  0  0  0  0
  -23.7491  -30.5954   19.4053 H   0  0  0  0  0  0
  -22.7466  -29.2505   19.8616 H   0  0  0  0  0  0
  -25.1273  -36.1947   25.0825 H   0  0  0  0  0  0
  -20.9986  -28.3258   24.1421 H   0  0  0  0  0  0
  -20.5722  -26.2301   23.3618 H   0  0  0  0  0  0
  -21.6651  -26.7474   22.1193 H   0  0  0  0  0  0
  -19.6919  -25.6294   21.1256 H   0  0  0  0  0  0
  -19.6677  -27.3190   20.6767 H   0  0  0  0  0  0
  -17.4218  -26.6689   21.4029 H   0  0  0  0  0  0
  -18.0310  -26.0053   22.9020 H   0  0  0  0  0  0
  -19.7944  -30.7272   24.2251 H   0  0  0  0  0  0
  -17.5022  -31.6272   24.5172 H   0  0  0  0  0  0
  -15.5348  -30.2996   23.7639 H   0  0  0  0  0  0
  -15.8683  -28.0825   22.7053 H   0  0  0  0  0  0
  -24.5827  -30.7196   25.7835 H   0  0  0  0  0  0
  -24.9016  -32.2967   26.4958 H   0  0  0  0  0  0
  -25.8052  -30.8896   27.0231 H   0  0  0  0  0  0
  -26.2858  -29.6773   24.1192 H   0  0  0  0  0  0
  -27.3997  -29.7246   25.4658 H   0  0  0  0  0  0
  -27.8731  -30.4279   23.9373 H   0  0  0  0  0  0
  -27.2670  -33.3642   26.2020 H   0  0  0  0  0  0
  -28.3869  -32.6847   25.0305 H   0  0  0  0  0  0
  -28.0701  -31.8471   26.5422 H   0  0  0  0  0  0
  -28.2570  -38.0124   24.7569 H   0  0  0  0  0  0
  -28.1112  -36.2666   24.6186 H   0  0  0  0  0  0
  -27.2340  -37.1339   25.8864 H   0  0  0  0  0  0
  -20.9357  -29.8757   21.6900 H   0  0  0  0  0  0
  -26.0164  -38.2864   24.1455 H   0  0  0  0  0  0
  -28.1210  -20.5136   17.6993 H   0  0  0  0  0  0
  -30.0373  -19.8205   21.5292 H   0  0  0  0  0  0
  -28.2225  -18.0289   17.3093 H   0  0  0  0  0  0
  -31.5526  -23.1877   21.6961 H   0  0  0  0  0  0
  -31.7259  -22.5229   20.0819 H   0  0  0  0  0  0
  -31.2891  -21.4967   21.4367 H   0  0  0  0  0  0
  -30.1121  -17.2813   22.2350 H   0  0  0  0  0  0
  -31.4097  -17.1009   21.0950 H   0  0  0  0  0  0
  -30.2030  -24.8815   20.9701 H   0  0  0  0  0  0
  -30.0748  -24.4383   19.3092 H   0  0  0  0  0  0
  -27.6519  -24.8886   21.1296 H   0  0  0  0  0  0
  -27.6583  -24.7206   19.3834 H   0  0  0  0  0  0
  -29.0872  -22.6834   21.6475 H   0  0  0  0  0  0
  -29.2018  -16.6598   18.9033 H   0  0  0  0  0  0
  -28.6157  -22.3046   18.9317 H   0  0  0  0  0  0
  -28.9928  -15.3450   21.3242 H   0  0  0  0  0  0
  1 25  1  0  0  0
  1 30  2  0  0  0
  1 83  1  0  0  0
  2  3  1  0  0  0
  2 25  1  0  0  0
  2 84  1  0  0  0
  2 85  1  0  0  0
  3  4  1  0  0  0
  3 86  1  0  0  0
  3 87  1  0  0  0
  4  5  1  0  0  0
  4 88  1  0  0  0
  4 89  1  0  0  0
  5  6  1  0  0  0
  5 26  1  0  0  0
  5 90  1  0  0  0
  6 25  1  0  0  0
  6 91  1  0  0  0
  6 92  1  0  0  0
  7  8  2  0  0  0
  7 26  1  0  0  0
  7 29  1  0  0  0
  8  9  1  0  0  0
  8 22  1  0  0  0
  9 10  1  0  0  0
  9 27  2  0  0  0
 10 11  2  0  0  0
 10 15  1  0  0  0
 11 12  1  0  0  0
 11 93  1  0  0  0
 12 13  2  0  0  0
 12 94  1  0  0  0
 13 14  1  0  0  0
 13 31  1  0  0  0
 14 15  2  0  0  0
 14 95  1  0  0  0
 15 96  1  0  0  0
 16 17  2  0  0  0
 16 21  1  0  0  0
 16 31  1  0  0  0
 17 18  1  0  0  0
 17 97  1  0  0  0
 18 19  2  0  0  0
 18 98  1  0  0  0
 19 20  1  0  0  0
 19 24  1  0  0  0
 20 21  2  0  0  0
 20 99  1  0  0  0
 21 23  1  0  0  0
 22 28  1  0  0  0
 22 32  2  0  0  0
 26 27  1  0  0  0
 28100  1  0  0  0
 28101  1  0  0  0
 29102  1  0  0  0
 29103  1  0  0  0
 33 34  1  0  0  0
 33 66  1  0  0  0
 33 70  2  0  0  0
 34 36  1  0  0  0
 34 59  1  0  0  0
 34104  1  0  0  0
 35 44  2  0  0  0
 35 45  1  0  0  0
 35 68  1  0  0  0
 36 56  1  0  0  0
 36105  1  0  0  0
 37 39  1  0  0  0
 37 47  1  0  0  0
 37 66  1  0  0  0
 37106  1  0  0  0
 38 43  2  0  0  0
 38 46  1  0  0  0
 38 47  1  0  0  0
 39 64  1  0  0  0
 39 67  2  0  0  0
 40 52  1  0  0  0
 40 53  2  0  0  0
 40 58  1  0  0  0
 41107  1  0  0  0
 41108  1  0  0  0
 41109  1  0  0  0
 41 48  1  0  0  0
 42 43  1  0  0  0
 42 66  1  0  0  0
 42110  1  0  0  0
 42111  1  0  0  0
 43 44  1  0  0  0
 44112  1  0  0  0
 45 46  2  0  0  0
 45113  1  0  0  0
 46114  1  0  0  0
 47115  1  0  0  0
 47116  1  0  0  0
 48 56  1  0  0  0
 48 65  1  0  0  0
 48117  1  0  0  0
 49 50  1  0  0  0
 49 53  1  0  0  0
 49 64  1  0  0  0
 49118  1  0  0  0
 50 51  1  0  0  0
 50119  1  0  0  0
 50120  1  0  0  0
 51 52  1  0  0  0
 51121  1  0  0  0
 51122  1  0  0  0
 52123  1  0  0  0
 52124  1  0  0  0
 53 54  1  0  0  0
 54 55  2  0  0  0
 54125  1  0  0  0
 55 57  1  0  0  0
 55126  1  0  0  0
 56 69  2  0  0  0
 57 58  2  0  0  0
 57127  1  0  0  0
 58128  1  0  0  0
 59 60  1  0  0  0
 59 61  1  0  0  0
 59 62  1  0  0  0
 60129  1  0  0  0
 60130  1  0  0  0
 60131  1  0  0  0
 61132  1  0  0  0
 61133  1  0  0  0
 61134  1  0  0  0
 62135  1  0  0  0
 62136  1  0  0  0
 62137  1  0  0  0
 63 65  1  0  0  0
 63138  1  0  0  0
 63139  1  0  0  0
 63140  1  0  0  0
 64141  1  0  0  0
 65142  1  0  0  0
 68 79  1  0  0  0
 71 73  2  0  0  0
 71 74  1  0  0  0
 71143  1  0  0  0
 72 74  2  0  0  0
 72 75  1  0  0  0
 72144  1  0  0  0
 73 81  1  0  0  0
 73145  1  0  0  0
 74 82  1  0  0  0
 75 77  1  0  0  0
 75 81  2  0  0  0
 76146  1  0  0  0
 76147  1  0  0  0
 76148  1  0  0  0
 76 80  1  0  0  0
 77 83  1  0  0  0
 77149  1  0  0  0
 77150  1  0  0  0
 78 79  1  0  0  0
 78 80  1  0  0  0
 78151  1  0  0  0
 78152  1  0  0  0
 79153  1  0  0  0
 79154  1  0  0  0
 80 82  1  0  0  0
 80155  1  0  0  0
 81156  1  0  0  0
 82157  1  0  0  0
 83158  1  0  0  0
M  CHG  1  81   1
M  ISO  4   1 100  68 101  79 101  83 100
M  END
> <chiral flag>
0

> <version>
0

> <s_m_source_file>
/data/baiqing/PycharmProjects/Reinvent-master-3.2/result/LINK_invent/BTK/process_docking_weight1_custom_product_contain_oxygen_bond_distance_aromatic_linkinvent_7_9_3/rearranged_h_0197.sdf

> <i_m_source_file_index>
75

> <r_mmod_Potential_Energy-OPLS-2005>
-195.13835144043

> <r_mmod_Stretch_Energy-OPLS-2005>
61.3867721557617

> <r_mmod_Bend_Energy-OPLS-2005>
150.161636352539

> <r_mmod_Torsional_Energy-OPLS-2005>
195.128814697266

> <r_mmod_Improper_Torsional_Energy-OPLS-2005>
3.71975469589233

> <r_mmod_Van_der_Waal_Energy-OPLS-2005>
147.649185180664

> <r_mmod_Electrostatic_Energy-OPLS-2005>
-336.663452148438

> <r_mmod_Solvation_Energy-OPLS-2005>
-444.086456298828

> <b_mmod_Minimization_Converged-OPLS-2005>
0

> <r_mmod_RMS_Derivative-OPLS-2005>
3.03571367263794

$$$$
75
                    3D
 Structure written by MMmdl.
149157  0  0  1  0            999 V2000
  -30.5801  -14.7244   20.4503 C   0  0  0  0  0  0
  -30.4245  -12.4257   19.4960 C   0  0  0  0  0  0
  -29.5124  -12.5001   18.2491 C   0  0  0  0  0  0
  -28.0353  -12.3258   18.6556 C   0  0  0  0  0  0
  -27.6397  -13.2252   19.8562 C   0  0  2  0  0  0
  -28.6737  -13.1391   20.9996 C   0  0  0  0  0  0
  -25.2490  -13.8165   20.5693 C   0  0  0  0  0  0
  -24.1767  -13.0434   20.9180 C   0  0  0  0  0  0
  -24.6349  -11.6904   20.8726 C   0  0  0  0  0  0
  -23.9038  -10.4290   21.0408 C   0  0  0  0  0  0
  -24.3616   -9.4211   21.9178 C   0  0  0  0  0  0
  -23.6284   -8.2253   22.0759 C   0  0  0  0  0  0
  -22.4271   -8.0287   21.3543 C   0  0  0  0  0  0
  -21.9895   -9.0253   20.4659 C   0  0  0  0  0  0
  -22.7222  -10.2121   20.3047 C   0  0  0  0  0  0
  -21.6855   -6.0737   22.5289 C   0  0  0  0  0  0
  -21.4024   -6.5640   23.8224 C   0  0  0  0  0  0
  -21.3656   -5.6797   24.9186 C   0  0  0  0  0  0
  -21.6056   -4.3061   24.7242 C   0  0  0  0  0  0
  -21.8807   -3.8148   23.4363 C   0  0  0  0  0  0
  -21.9196   -4.6964   22.3416 C   0  0  0  0  0  0
  -22.7813  -13.5251   21.1894 C   0  0  0  0  0  0
  -22.1675   -4.2153   21.0993 F   0  0  0  0  0  0
  -21.5619   -3.4542   25.7753 F   0  0  0  0  0  0
  -29.9840  -13.4843   20.4355 N   0  0  0  0  0  0
  -26.2909  -12.9365   20.3274 N   0  0  0  0  0  0
  -25.9273  -11.6518   20.5731 N   0  0  0  0  0  0
  -22.0485  -12.8214   22.0467 N   0  0  0  0  0  0
  -25.4252  -15.1898   20.4159 N   0  0  0  0  0  0
  -31.7430  -14.8502   20.0523 O   0  0  0  0  0  0
  -21.6643   -6.8880   21.4245 O   0  0  0  0  0  0
  -22.3492  -14.5569   20.6780 O   0  0  0  0  0  0
  -24.6322  -31.8563   23.1991 C   0  0  0  0  0  0
  -25.9175  -32.4727   23.8342 C   0  0  1  0  0  0
  -27.1976  -27.2308   20.1361 C   0  0  0  0  0  0
  -25.6007  -33.8540   24.2280 N   0  0  0  0  0  0
  -23.4293  -30.4862   21.5384 C   0  0  2  0  0  0
  -24.8739  -28.9326   20.1000 C   0  0  0  0  0  0
  -22.7494  -29.4686   22.4835 C   0  0  0  0  0  0
  -18.0320  -28.1429   22.8568 C   0  0  0  0  0  0
  -24.1506  -36.7262   23.2627 C   0  0  0  0  0  0
  -25.9796  -30.7515   21.3944 C   0  0  0  0  0  0
  -26.0436  -29.3766   20.7286 C   0  0  0  0  0  0
  -27.2052  -28.5328   20.7461 C   0  0  0  0  0  0
  -26.0107  -26.8760   19.4523 C   0  0  0  0  0  0
  -24.8613  -27.6889   19.4549 C   0  0  0  0  0  0
  -23.6484  -29.8281   20.1509 C   0  0  0  0  0  0
  -25.4130  -36.3047   24.0311 C   0  0  1  0  0  0
  -20.5929  -28.3751   23.1161 C   0  0  2  0  0  0
  -20.6847  -26.9498   22.5250 C   0  0  0  0  0  0
  -19.5686  -26.6351   21.5251 C   0  0  0  0  0  0
  -18.1936  -26.7922   22.1821 C   0  0  0  0  0  0
  -19.1593  -28.8902   23.2880 C   0  0  0  0  0  0
  -18.9573  -30.1483   23.8943 C   0  0  0  0  0  0
  -17.6577  -30.6604   24.0716 C   0  0  0  0  0  0
  -25.9085  -34.9420   23.5093 C   0  0  0  0  0  0
  -16.5452  -29.9141   23.6462 C   0  0  0  0  0  0
  -16.7322  -28.6558   23.0474 C   0  0  0  0  0  0
  -26.4539  -31.6553   25.0743 C   0  0  0  0  0  0
  -25.3745  -31.3728   26.1454 C   0  0  0  0  0  0
  -27.0413  -30.2959   24.6310 C   0  0  0  0  0  0
  -27.6103  -32.4295   25.7495 C   0  0  0  0  0  0
  -27.5584  -37.1785   24.8458 C   0  0  0  0  0  0
  -21.4209  -29.3125   22.3539 N   0  0  0  0  0  0
  -26.4300  -37.3745   23.9389 N   0  0  0  0  0  0
  -24.6977  -31.0522   22.0979 N   0  0  0  0  0  0
  -23.4166  -28.8243   23.2977 O   0  0  0  0  0  0
  -28.2623  -26.2937   20.2380 O   0  0  0  0  0  0
  -26.5605  -34.8882   22.4628 O   0  0  0  0  0  0
  -23.5467  -32.1447   23.7263 O   0  0  0  0  0  0
  -29.9583  -17.2410   18.7670 C   0  0  0  0  0  0
  -29.7879  -17.1803   20.1714 C   0  0  0  0  0  0
  -29.4094  -19.5436   20.0363 C   0  0  0  0  0  0
  -28.8240  -23.5701   20.5809 C   0  0  0  0  0  0
  -28.6410  -22.0878   19.9243 C   0  0  0  0  0  0
  -27.9980  -24.8273   19.9548 C   0  0  0  0  0  0
  -29.8658  -18.4046   18.0747 N   0  0  0  0  0  0
  -29.4897  -18.4004   20.7956 N   0  0  0  0  0  0
  -29.5930  -19.5563   18.7083 N   0  0  0  0  0  0
  -29.8088  -15.8295   20.7875 N   0  0  0  0  0  0
  -29.1396  -20.8250   20.6213 N   0  0  0  0  0  0
  -31.4727  -12.5312   19.2100 H   0  0  0  0  0  0
  -30.3533  -11.4438   19.9676 H   0  0  0  0  0  0
  -29.7940  -11.7304   17.5282 H   0  0  0  0  0  0
  -29.6496  -13.4589   17.7463 H   0  0  0  0  0  0
  -27.8950  -11.2782   18.9238 H   0  0  0  0  0  0
  -27.3766  -12.5082   17.8053 H   0  0  0  0  0  0
  -27.6415  -14.2474   19.4789 H   0  0  0  0  0  0
  -28.6932  -12.1321   21.4195 H   0  0  0  0  0  0
  -28.4046  -13.8040   21.8234 H   0  0  0  0  0  0
  -25.2776   -9.5670   22.4734 H   0  0  0  0  0  0
  -24.0001   -7.4648   22.7483 H   0  0  0  0  0  0
  -21.0825   -8.8776   19.8972 H   0  0  0  0  0  0
  -22.3709  -10.9648   19.6146 H   0  0  0  0  0  0
  -21.2023   -7.6147   23.9721 H   0  0  0  0  0  0
  -21.1486   -6.0541   25.9095 H   0  0  0  0  0  0
  -22.0577   -2.7612   23.2867 H   0  0  0  0  0  0
  -22.4111  -11.9850   22.4784 H   0  0  0  0  0  0
  -21.1115  -13.1208   22.2746 H   0  0  0  0  0  0
  -24.6668  -15.8517   20.5435 H   0  0  0  0  0  0
  -26.2902  -15.6259   20.1222 H   0  0  0  0  0  0
  -26.7243  -32.5354   23.1067 H   0  0  0  0  0  0
  -25.0194  -33.9684   25.0458 H   0  0  0  0  0  0
  -22.7265  -31.3106   21.3963 H   0  0  0  0  0  0
  -23.3770  -35.9599   23.3289 H   0  0  0  0  0  0
  -24.3610  -36.8886   22.2052 H   0  0  0  0  0  0
  -23.7281  -37.6466   23.6649 H   0  0  0  0  0  0
  -26.1472  -31.5159   20.6356 H   0  0  0  0  0  0
  -26.8462  -30.7818   22.0432 H   0  0  0  0  0  0
  -28.0857  -28.8514   21.2865 H   0  0  0  0  0  0
  -25.9220  -25.9398   18.9230 H   0  0  0  0  0  0
  -23.9686  -27.3475   18.9504 H   0  0  0  0  0  0
  -23.7740  -30.6124   19.4024 H   0  0  0  0  0  0
  -22.7629  -29.2701   19.8409 H   0  0  0  0  0  0
  -25.1322  -36.1892   25.0803 H   0  0  0  0  0  0
  -21.0061  -28.3342   24.1258 H   0  0  0  0  0  0
  -20.6041  -26.2382   23.3463 H   0  0  0  0  0  0
  -21.6665  -26.7619   22.0870 H   0  0  0  0  0  0
  -19.6848  -25.6230   21.1370 H   0  0  0  0  0  0
  -19.6457  -27.3051   20.6687 H   0  0  0  0  0  0
  -17.4063  -26.6471   21.4384 H   0  0  0  0  0  0
  -18.0553  -26.0198   22.9387 H   0  0  0  0  0  0
  -19.8102  -30.7254   24.2284 H   0  0  0  0  0  0
  -17.5187  -31.6250   24.5399 H   0  0  0  0  0  0
  -15.5464  -30.3023   23.7889 H   0  0  0  0  0  0
  -15.8713  -28.0866   22.7255 H   0  0  0  0  0  0
  -24.5911  -30.7099   25.7761 H   0  0  0  0  0  0
  -24.8941  -32.2909   26.4852 H   0  0  0  0  0  0
  -25.8044  -30.8905   27.0248 H   0  0  0  0  0  0
  -26.3053  -29.6663   24.1311 H   0  0  0  0  0  0
  -27.4041  -29.7270   25.4876 H   0  0  0  0  0  0
  -27.8943  -30.4198   23.9642 H   0  0  0  0  0  0
  -27.2745  -33.3588   26.2095 H   0  0  0  0  0  0
  -28.3895  -32.6871   25.0315 H   0  0  0  0  0  0
  -28.0808  -31.8423   26.5392 H   0  0  0  0  0  0
  -28.2596  -38.0080   24.7494 H   0  0  0  0  0  0
  -28.1098  -36.2619   24.6312 H   0  0  0  0  0  0
  -27.2294  -37.1454   25.8854 H   0  0  0  0  0  0
  -20.9405  -29.8735   21.6646 H   0  0  0  0  0  0
  -26.0187  -38.2826   24.1357 H   0  0  0  0  0  0
  -30.1172  -16.3467   18.1813 H   0  0  0  0  0  0
  -29.8843  -23.8199   20.5734 H   0  0  0  0  0  0
  -28.5465  -23.5040   21.6334 H   0  0  0  0  0  0
  -29.0895  -22.1248   18.9311 H   0  0  0  0  0  0
  -27.5751  -21.9299   19.7528 H   0  0  0  0  0  0
  -28.0157  -24.7183   18.8713 H   0  0  0  0  0  0
  -26.9694  -24.6156   20.2494 H   0  0  0  0  0  0
  -28.9841  -15.6075   21.3214 H   0  0  0  0  0  0
  -28.9566  -20.7663   21.6144 H   0  0  0  0  0  0
  1 25  1  0  0  0
  1 30  2  0  0  0
  1 80  1  0  0  0
  2  3  1  0  0  0
  2 25  1  0  0  0
  2 82  1  0  0  0
  2 83  1  0  0  0
  3  4  1  0  0  0
  3 84  1  0  0  0
  3 85  1  0  0  0
  4  5  1  0  0  0
  4 86  1  0  0  0
  4 87  1  0  0  0
  5  6  1  0  0  0
  5 26  1  0  0  0
  5 88  1  0  0  0
  6 25  1  0  0  0
  6 89  1  0  0  0
  6 90  1  0  0  0
  7  8  2  0  0  0
  7 26  1  0  0  0
  7 29  1  0  0  0
  8  9  1  0  0  0
  8 22  1  0  0  0
  9 10  1  0  0  0
  9 27  2  0  0  0
 10 11  2  0  0  0
 10 15  1  0  0  0
 11 12  1  0  0  0
 11 91  1  0  0  0
 12 13  2  0  0  0
 12 92  1  0  0  0
 13 14  1  0  0  0
 13 31  1  0  0  0
 14 15  2  0  0  0
 14 93  1  0  0  0
 15 94  1  0  0  0
 16 17  2  0  0  0
 16 21  1  0  0  0
 16 31  1  0  0  0
 17 18  1  0  0  0
 17 95  1  0  0  0
 18 19  2  0  0  0
 18 96  1  0  0  0
 19 20  1  0  0  0
 19 24  1  0  0  0
 20 21  2  0  0  0
 20 97  1  0  0  0
 21 23  1  0  0  0
 22 28  1  0  0  0
 22 32  2  0  0  0
 26 27  1  0  0  0
 28 98  1  0  0  0
 28 99  1  0  0  0
 29100  1  0  0  0
 29101  1  0  0  0
 33 34  1  0  0  0
 33 66  1  0  0  0
 33 70  2  0  0  0
 34 36  1  0  0  0
 34 59  1  0  0  0
 34102  1  0  0  0
 35 44  2  0  0  0
 35 45  1  0  0  0
 35 68  1  0  0  0
 36 56  1  0  0  0
 36103  1  0  0  0
 37 39  1  0  0  0
 37 47  1  0  0  0
 37 66  1  0  0  0
 37104  1  0  0  0
 38 43  2  0  0  0
 38 46  1  0  0  0
 38 47  1  0  0  0
 39 64  1  0  0  0
 39 67  2  0  0  0
 40 52  1  0  0  0
 40 53  2  0  0  0
 40 58  1  0  0  0
 41105  1  0  0  0
 41106  1  0  0  0
 41107  1  0  0  0
 41 48  1  0  0  0
 42 43  1  0  0  0
 42 66  1  0  0  0
 42108  1  0  0  0
 42109  1  0  0  0
 43 44  1  0  0  0
 44110  1  0  0  0
 45 46  2  0  0  0
 45111  1  0  0  0
 46112  1  0  0  0
 47113  1  0  0  0
 47114  1  0  0  0
 48 56  1  0  0  0
 48 65  1  0  0  0
 48115  1  0  0  0
 49 50  1  0  0  0
 49 53  1  0  0  0
 49 64  1  0  0  0
 49116  1  0  0  0
 50 51  1  0  0  0
 50117  1  0  0  0
 50118  1  0  0  0
 51 52  1  0  0  0
 51119  1  0  0  0
 51120  1  0  0  0
 52121  1  0  0  0
 52122  1  0  0  0
 53 54  1  0  0  0
 54 55  2  0  0  0
 54123  1  0  0  0
 55 57  1  0  0  0
 55124  1  0  0  0
 56 69  2  0  0  0
 57 58  2  0  0  0
 57125  1  0  0  0
 58126  1  0  0  0
 59 60  1  0  0  0
 59 61  1  0  0  0
 59 62  1  0  0  0
 60127  1  0  0  0
 60128  1  0  0  0
 60129  1  0  0  0
 61130  1  0  0  0
 61131  1  0  0  0
 61132  1  0  0  0
 62133  1  0  0  0
 62134  1  0  0  0
 62135  1  0  0  0
 63 65  1  0  0  0
 63136  1  0  0  0
 63137  1  0  0  0
 63138  1  0  0  0
 64139  1  0  0  0
 65140  1  0  0  0
 68 76  1  0  0  0
 71 72  2  0  0  0
 71 77  1  0  0  0
 71141  1  0  0  0
 72 78  1  0  0  0
 72 80  1  0  0  0
 73 78  2  0  0  0
 73 79  1  0  0  0
 73 81  1  0  0  0
 74 75  1  0  0  0
 74 76  1  0  0  0
 74142  1  0  0  0
 74143  1  0  0  0
 75 81  1  0  0  0
 75144  1  0  0  0
 75145  1  0  0  0
 76146  1  0  0  0
 76147  1  0  0  0
 77 79  2  0  0  0
 80148  1  0  0  0
 81149  1  0  0  0
M  ISO  4   1 100  68 101  76 101  80 100
M  END
> <chiral flag>
0

> <version>
0

> <s_m_source_file>
/data/baiqing/PycharmProjects/Reinvent-master-3.2/result/LINK_invent/BTK/process_docking_weight1_custom_product_contain_oxygen_bond_distance_aromatic_linkinvent_7_9_3/rearranged_h_0197.sdf

> <i_m_source_file_index>
76

> <r_mmod_Potential_Energy-OPLS-2005>
65.5878295898438

> <r_mmod_Stretch_Energy-OPLS-2005>
130.870101928711

> <r_mmod_Bend_Energy-OPLS-2005>
170.92399597168

> <r_mmod_Torsional_Energy-OPLS-2005>
226.274948120117

> <r_mmod_Improper_Torsional_Energy-OPLS-2005>
5.88060188293457

> <r_mmod_Van_der_Waal_Energy-OPLS-2005>
153.155471801758

> <r_mmod_Electrostatic_Energy-OPLS-2005>
-470.921783447266

> <r_mmod_Solvation_Energy-OPLS-2005>
-246.819061279297

> <b_mmod_Minimization_Converged-OPLS-2005>
0

> <r_mmod_RMS_Derivative-OPLS-2005>
4.59160900115967

$$$$
76
                    3D
 Structure written by MMmdl.
162170  0  0  1  0            999 V2000
  -30.6230  -14.6562   20.5347 C   0  0  0  0  0  0
  -30.4393  -12.4080   19.4584 C   0  0  0  0  0  0
  -29.5026  -12.5044   18.2305 C   0  0  0  0  0  0
  -28.0282  -12.3378   18.6456 C   0  0  0  0  0  0
  -27.6501  -13.2140   19.8672 C   0  0  2  0  0  0
  -28.6943  -13.0665   20.9999 C   0  0  0  0  0  0
  -25.2536  -13.8168   20.5685 C   0  0  0  0  0  0
  -24.1807  -13.0439   20.9207 C   0  0  0  0  0  0
  -24.6372  -11.6910   20.8754 C   0  0  0  0  0  0
  -23.9047  -10.4289   21.0420 C   0  0  0  0  0  0
  -24.3604   -9.4200   21.9193 C   0  0  0  0  0  0
  -23.6280   -8.2232   22.0752 C   0  0  0  0  0  0
  -22.4263   -8.0271   21.3541 C   0  0  0  0  0  0
  -21.9900   -9.0250   20.4647 C   0  0  0  0  0  0
  -22.7222  -10.2131   20.3065 C   0  0  0  0  0  0
  -21.6849   -6.0728   22.5279 C   0  0  0  0  0  0
  -21.4011   -6.5636   23.8214 C   0  0  0  0  0  0
  -21.3660   -5.6790   24.9173 C   0  0  0  0  0  0
  -21.6046   -4.3053   24.7224 C   0  0  0  0  0  0
  -21.8822   -3.8142   23.4348 C   0  0  0  0  0  0
  -21.9190   -4.6957   22.3400 C   0  0  0  0  0  0
  -22.7831  -13.5234   21.1885 C   0  0  0  0  0  0
  -22.1658   -4.2141   21.0979 F   0  0  0  0  0  0
  -21.5631   -3.4541   25.7738 F   0  0  0  0  0  0
  -30.0140  -13.4243   20.4479 N   0  0  0  0  0  0
  -26.2957  -12.9345   20.3338 N   0  0  0  0  0  0
  -25.9303  -11.6506   20.5795 N   0  0  0  0  0  0
  -22.0470  -12.8213   22.0434 N   0  0  0  0  0  0
  -25.4270  -15.1888   20.4060 N   0  0  0  0  0  0
  -31.7567  -14.8287   20.0601 O   0  0  0  0  0  0
  -21.6638   -6.8868   21.4236 O   0  0  0  0  0  0
  -22.3526  -14.5547   20.6740 O   0  0  0  0  0  0
  -24.6265  -31.8580   23.2029 C   0  0  0  0  0  0
  -25.9117  -32.4774   23.8327 C   0  0  1  0  0  0
  -27.2292  -27.3218   20.1147 C   0  0  0  0  0  0
  -25.5932  -33.8573   24.2262 N   0  0  0  0  0  0
  -23.4194  -30.4820   21.5457 C   0  0  2  0  0  0
  -24.8675  -28.9410   20.1105 C   0  0  0  0  0  0
  -22.7478  -29.4600   22.4941 C   0  0  0  0  0  0
  -18.0266  -28.1370   22.8469 C   0  0  0  0  0  0
  -24.1493  -36.7281   23.2642 C   0  0  0  0  0  0
  -25.9621  -30.7917   21.3741 C   0  0  0  0  0  0
  -26.0368  -29.4200   20.7137 C   0  0  0  0  0  0
  -27.2199  -28.6240   20.7046 C   0  0  0  0  0  0
  -26.0332  -26.8963   19.4870 C   0  0  0  0  0  0
  -24.8691  -27.6841   19.4874 C   0  0  0  0  0  0
  -23.6351  -29.8203   20.1599 C   0  0  0  0  0  0
  -25.4116  -36.3082   24.0338 C   0  0  1  0  0  0
  -20.5875  -28.3657   23.1291 C   0  0  2  0  0  0
  -20.6766  -26.9384   22.5404 C   0  0  0  0  0  0
  -19.5757  -26.6353   21.5204 C   0  0  0  0  0  0
  -18.1926  -26.7910   22.1602 C   0  0  0  0  0  0
  -19.1523  -28.8821   23.2880 C   0  0  0  0  0  0
  -18.9471  -30.1432   23.8874 C   0  0  0  0  0  0
  -17.6479  -30.6571   24.0553 C   0  0  0  0  0  0
  -25.9042  -34.9459   23.5089 C   0  0  0  0  0  0
  -16.5360  -29.9069   23.6346 C   0  0  0  0  0  0
  -16.7258  -28.6496   23.0332 C   0  0  0  0  0  0
  -26.4490  -31.6586   25.0697 C   0  0  0  0  0  0
  -25.3728  -31.3750   26.1435 C   0  0  0  0  0  0
  -27.0329  -30.3013   24.6140 C   0  0  0  0  0  0
  -27.6035  -32.4323   25.7478 C   0  0  0  0  0  0
  -27.5584  -37.1785   24.8471 C   0  0  0  0  0  0
  -21.4182  -29.3025   22.3707 N   0  0  0  0  0  0
  -26.4292  -37.3780   23.9422 N   0  0  0  0  0  0
  -24.6879  -31.0590   22.0981 N   0  0  0  0  0  0
  -23.4213  -28.8120   23.2993 O   0  0  0  0  0  0
  -28.3503  -26.4765   20.1690 O   0  0  0  0  0  0
  -26.5613  -34.8945   22.4665 O   0  0  0  0  0  0
  -23.5432  -32.1355   23.7363 O   0  0  0  0  0  0
  -29.2096  -17.9338   21.9450 C   0  0  0  0  0  0
  -30.3766  -19.2354   19.8092 C   0  0  0  0  0  0
  -29.1541  -19.3639   21.8818 C   0  0  0  0  0  0
  -29.7336  -20.0535   20.7818 C   0  0  0  0  0  0
  -29.8807  -17.1448   20.9633 C   0  0  0  0  0  0
  -29.0366  -22.4424   20.1365 C   0  0  0  0  0  0
  -26.2423  -19.3603   23.1322 C   0  0  0  0  0  0
  -27.3947  -20.6407   24.9915 C   0  0  0  0  0  0
  -29.2871  -23.9881   20.3893 C   0  0  0  0  0  0
  -28.1464  -25.0199   19.9736 C   0  0  0  0  0  0
  -27.5798  -19.6412   23.8388 C   0  0  0  0  0  0
  -30.4327  -17.8664   19.9355 N   0  3  0  0  0  0
  -29.8130  -21.5166   20.7775 N   0  0  0  0  0  0
  -28.5726  -20.1492   22.8999 N   0  0  0  0  0  0
  -29.8734  -15.6726   21.0811 N   0  0  0  0  0  0
  -28.1603  -22.0914   19.3439 O   0  0  0  0  0  0
  -31.4772  -12.5399   19.1473 H   0  0  0  0  0  0
  -30.3904  -11.4107   19.8986 H   0  0  0  0  0  0
  -29.7662  -11.7398   17.4983 H   0  0  0  0  0  0
  -29.6374  -13.4657   17.7322 H   0  0  0  0  0  0
  -27.8711  -11.2851   18.8855 H   0  0  0  0  0  0
  -27.3686  -12.5572   17.8055 H   0  0  0  0  0  0
  -27.6685  -14.2481   19.5231 H   0  0  0  0  0  0
  -28.7098  -12.0386   21.3675 H   0  0  0  0  0  0
  -28.4221  -13.6779   21.8612 H   0  0  0  0  0  0
  -25.2753   -9.5680   22.4771 H   0  0  0  0  0  0
  -23.9992   -7.4622   22.7467 H   0  0  0  0  0  0
  -21.0833   -8.8769   19.8949 H   0  0  0  0  0  0
  -22.3685  -10.9674   19.6178 H   0  0  0  0  0  0
  -21.2003   -7.6144   23.9711 H   0  0  0  0  0  0
  -21.1479   -6.0523   25.9076 H   0  0  0  0  0  0
  -22.0601   -2.7603   23.2853 H   0  0  0  0  0  0
  -22.4071  -11.9853   22.4791 H   0  0  0  0  0  0
  -21.1103  -13.1260   22.2679 H   0  0  0  0  0  0
  -24.6496  -15.8352   20.4898 H   0  0  0  0  0  0
  -26.2474  -15.6147   19.9972 H   0  0  0  0  0  0
  -26.7175  -32.5418   23.1058 H   0  0  0  0  0  0
  -25.0113  -33.9715   25.0435 H   0  0  0  0  0  0
  -22.7127  -31.3027   21.4013 H   0  0  0  0  0  0
  -23.3770  -35.9598   23.3295 H   0  0  0  0  0  0
  -24.3594  -36.8896   22.2057 H   0  0  0  0  0  0
  -23.7234  -37.6478   23.6658 H   0  0  0  0  0  0
  -26.0906  -31.5581   20.6088 H   0  0  0  0  0  0
  -26.8438  -30.8357   22.0009 H   0  0  0  0  0  0
  -28.1166  -28.9915   21.1836 H   0  0  0  0  0  0
  -25.9670  -25.9363   18.9975 H   0  0  0  0  0  0
  -23.9764  -27.3094   19.0077 H   0  0  0  0  0  0
  -23.7545  -30.5984   19.4047 H   0  0  0  0  0  0
  -22.7557  -29.2501   19.8536 H   0  0  0  0  0  0
  -25.1302  -36.1921   25.0830 H   0  0  0  0  0  0
  -20.9923  -28.3206   24.1431 H   0  0  0  0  0  0
  -20.5663  -26.2264   23.3594 H   0  0  0  0  0  0
  -21.6626  -26.7400   22.1196 H   0  0  0  0  0  0
  -19.6952  -25.6266   21.1218 H   0  0  0  0  0  0
  -19.6714  -27.3171   20.6753 H   0  0  0  0  0  0
  -17.4196  -26.6632   21.4013 H   0  0  0  0  0  0
  -18.0330  -26.0054   22.9000 H   0  0  0  0  0  0
  -19.7966  -30.7244   24.2205 H   0  0  0  0  0  0
  -17.5052  -31.6253   24.5143 H   0  0  0  0  0  0
  -15.5366  -30.2978   23.7698 H   0  0  0  0  0  0
  -15.8650  -28.0840   22.7028 H   0  0  0  0  0  0
  -24.5907  -30.7087   25.7787 H   0  0  0  0  0  0
  -24.8925  -32.2934   26.4816 H   0  0  0  0  0  0
  -25.8052  -30.8961   27.0234 H   0  0  0  0  0  0
  -26.2899  -29.6765   24.1165 H   0  0  0  0  0  0
  -27.4060  -29.7258   25.4625 H   0  0  0  0  0  0
  -27.8748  -30.4317   23.9338 H   0  0  0  0  0  0
  -27.2612  -33.3630   26.2021 H   0  0  0  0  0  0
  -28.3847  -32.6861   25.0301 H   0  0  0  0  0  0
  -28.0687  -31.8473   26.5421 H   0  0  0  0  0  0
  -28.2565  -38.0115   24.7523 H   0  0  0  0  0  0
  -28.1099  -36.2633   24.6255 H   0  0  0  0  0  0
  -27.2306  -37.1383   25.8878 H   0  0  0  0  0  0
  -20.9351  -29.8779   21.6945 H   0  0  0  0  0  0
  -26.0165  -38.2848   24.1452 H   0  0  0  0  0  0
  -28.7597  -17.4237   22.7816 H   0  0  0  0  0  0
  -30.8845  -19.6485   18.9470 H   0  0  0  0  0  0
  -25.4902  -19.0060   23.8387 H   0  0  0  0  0  0
  -26.3409  -18.5936   22.3626 H   0  0  0  0  0  0
  -25.8448  -20.2587   22.6562 H   0  0  0  0  0  0
  -26.6683  -20.2698   25.7163 H   0  0  0  0  0  0
  -27.0382  -21.6116   24.6426 H   0  0  0  0  0  0
  -28.3280  -20.8070   25.5334 H   0  0  0  0  0  0
  -30.1990  -24.2529   19.8526 H   0  0  0  0  0  0
  -29.5110  -24.1257   21.4469 H   0  0  0  0  0  0
  -27.2474  -24.7239   20.5167 H   0  0  0  0  0  0
  -27.9346  -24.8654   18.9148 H   0  0  0  0  0  0
  -27.9482  -18.7164   24.2865 H   0  0  0  0  0  0
  -30.9272  -17.3540   19.1974 H   0  0  0  0  0  0
  -30.4820  -21.8997   21.4312 H   0  0  0  0  0  0
  -28.5510  -21.1425   22.7038 H   0  0  0  0  0  0
  -29.0993  -15.3041   21.6063 H   0  0  0  0  0  0
  1 25  1  0  0  0
  1 30  2  0  0  0
  1 85  1  0  0  0
  2  3  1  0  0  0
  2 25  1  0  0  0
  2 87  1  0  0  0
  2 88  1  0  0  0
  3  4  1  0  0  0
  3 89  1  0  0  0
  3 90  1  0  0  0
  4  5  1  0  0  0
  4 91  1  0  0  0
  4 92  1  0  0  0
  5  6  1  0  0  0
  5 26  1  0  0  0
  5 93  1  0  0  0
  6 25  1  0  0  0
  6 94  1  0  0  0
  6 95  1  0  0  0
  7  8  2  0  0  0
  7 26  1  0  0  0
  7 29  1  0  0  0
  8  9  1  0  0  0
  8 22  1  0  0  0
  9 10  1  0  0  0
  9 27  2  0  0  0
 10 11  2  0  0  0
 10 15  1  0  0  0
 11 12  1  0  0  0
 11 96  1  0  0  0
 12 13  2  0  0  0
 12 97  1  0  0  0
 13 14  1  0  0  0
 13 31  1  0  0  0
 14 15  2  0  0  0
 14 98  1  0  0  0
 15 99  1  0  0  0
 16 17  2  0  0  0
 16 21  1  0  0  0
 16 31  1  0  0  0
 17 18  1  0  0  0
 17100  1  0  0  0
 18 19  2  0  0  0
 18101  1  0  0  0
 19 20  1  0  0  0
 19 24  1  0  0  0
 20 21  2  0  0  0
 20102  1  0  0  0
 21 23  1  0  0  0
 22 28  1  0  0  0
 22 32  2  0  0  0
 26 27  1  0  0  0
 28103  1  0  0  0
 28104  1  0  0  0
 29105  1  0  0  0
 29106  1  0  0  0
 33 34  1  0  0  0
 33 66  1  0  0  0
 33 70  2  0  0  0
 34 36  1  0  0  0
 34 59  1  0  0  0
 34107  1  0  0  0
 35 44  2  0  0  0
 35 45  1  0  0  0
 35 68  1  0  0  0
 36 56  1  0  0  0
 36108  1  0  0  0
 37 39  1  0  0  0
 37 47  1  0  0  0
 37 66  1  0  0  0
 37109  1  0  0  0
 38 43  2  0  0  0
 38 46  1  0  0  0
 38 47  1  0  0  0
 39 64  1  0  0  0
 39 67  2  0  0  0
 40 52  1  0  0  0
 40 53  2  0  0  0
 40 58  1  0  0  0
 41110  1  0  0  0
 41111  1  0  0  0
 41112  1  0  0  0
 41 48  1  0  0  0
 42 43  1  0  0  0
 42 66  1  0  0  0
 42113  1  0  0  0
 42114  1  0  0  0
 43 44  1  0  0  0
 44115  1  0  0  0
 45 46  2  0  0  0
 45116  1  0  0  0
 46117  1  0  0  0
 47118  1  0  0  0
 47119  1  0  0  0
 48 56  1  0  0  0
 48 65  1  0  0  0
 48120  1  0  0  0
 49 50  1  0  0  0
 49 53  1  0  0  0
 49 64  1  0  0  0
 49121  1  0  0  0
 50 51  1  0  0  0
 50122  1  0  0  0
 50123  1  0  0  0
 51 52  1  0  0  0
 51124  1  0  0  0
 51125  1  0  0  0
 52126  1  0  0  0
 52127  1  0  0  0
 53 54  1  0  0  0
 54 55  2  0  0  0
 54128  1  0  0  0
 55 57  1  0  0  0
 55129  1  0  0  0
 56 69  2  0  0  0
 57 58  2  0  0  0
 57130  1  0  0  0
 58131  1  0  0  0
 59 60  1  0  0  0
 59 61  1  0  0  0
 59 62  1  0  0  0
 60132  1  0  0  0
 60133  1  0  0  0
 60134  1  0  0  0
 61135  1  0  0  0
 61136  1  0  0  0
 61137  1  0  0  0
 62138  1  0  0  0
 62139  1  0  0  0
 62140  1  0  0  0
 63 65  1  0  0  0
 63141  1  0  0  0
 63142  1  0  0  0
 63143  1  0  0  0
 64144  1  0  0  0
 65145  1  0  0  0
 68 80  1  0  0  0
 71 73  2  0  0  0
 71 75  1  0  0  0
 71146  1  0  0  0
 72 74  2  0  0  0
 72 82  1  0  0  0
 72147  1  0  0  0
 73 74  1  0  0  0
 73 84  1  0  0  0
 74 83  1  0  0  0
 75 82  2  0  0  0
 75 85  1  0  0  0
 76 79  1  0  0  0
 76 83  1  0  0  0
 76 86  2  0  0  0
 77148  1  0  0  0
 77149  1  0  0  0
 77150  1  0  0  0
 77 81  1  0  0  0
 78 81  1  0  0  0
 78151  1  0  0  0
 78152  1  0  0  0
 78153  1  0  0  0
 79 80  1  0  0  0
 79154  1  0  0  0
 79155  1  0  0  0
 80156  1  0  0  0
 80157  1  0  0  0
 81 84  1  0  0  0
 81158  1  0  0  0
 82159  1  0  0  0
 83160  1  0  0  0
 84161  1  0  0  0
 85162  1  0  0  0
M  CHG  1  82   1
M  ISO  4   1 100  68 101  80 101  85 100
M  END
> <chiral flag>
0

> <version>
0

> <s_m_source_file>
/data/baiqing/PycharmProjects/Reinvent-master-3.2/result/LINK_invent/BTK/process_docking_weight1_custom_product_contain_oxygen_bond_distance_aromatic_linkinvent_7_9_3/rearranged_h_0197.sdf

> <i_m_source_file_index>
77

> <r_mmod_Potential_Energy-OPLS-2005>
-62.9790802001953

> <r_mmod_Stretch_Energy-OPLS-2005>
87.0102157592773

> <r_mmod_Bend_Energy-OPLS-2005>
155.660263061523

> <r_mmod_Torsional_Energy-OPLS-2005>
235.117935180664

> <r_mmod_Improper_Torsional_Energy-OPLS-2005>
5.88260269165039

> <r_mmod_Van_der_Waal_Energy-OPLS-2005>
143.498992919922

> <r_mmod_Electrostatic_Energy-OPLS-2005>
-280.298400878906

> <r_mmod_Solvation_Energy-OPLS-2005>
-459.273376464844

> <b_mmod_Minimization_Converged-OPLS-2005>
0

> <r_mmod_RMS_Derivative-OPLS-2005>
2.1978747844696

$$$$
77
                    3D
 Structure written by MMmdl.
159167  0  0  1  0            999 V2000
  -30.6698  -14.5450   20.5911 C   0  0  0  0  0  0
  -30.4342  -12.3581   19.4276 C   0  0  0  0  0  0
  -29.4996  -12.5191   18.2082 C   0  0  0  0  0  0
  -28.0189  -12.3711   18.6166 C   0  0  0  0  0  0
  -27.6574  -13.2110   19.8694 C   0  0  2  0  0  0
  -28.7016  -13.0119   20.9915 C   0  0  0  0  0  0
  -25.2569  -13.8151   20.5665 C   0  0  0  0  0  0
  -24.1835  -13.0429   20.9193 C   0  0  0  0  0  0
  -24.6402  -11.6901   20.8744 C   0  0  0  0  0  0
  -23.9064  -10.4292   21.0416 C   0  0  0  0  0  0
  -24.3617   -9.4204   21.9192 C   0  0  0  0  0  0
  -23.6301   -8.2233   22.0755 C   0  0  0  0  0  0
  -22.4282   -8.0279   21.3547 C   0  0  0  0  0  0
  -21.9913   -9.0245   20.4638 C   0  0  0  0  0  0
  -22.7242  -10.2132   20.3056 C   0  0  0  0  0  0
  -21.6850   -6.0743   22.5284 C   0  0  0  0  0  0
  -21.4010   -6.5643   23.8216 C   0  0  0  0  0  0
  -21.3662   -5.6796   24.9176 C   0  0  0  0  0  0
  -21.6042   -4.3057   24.7230 C   0  0  0  0  0  0
  -21.8819   -3.8149   23.4349 C   0  0  0  0  0  0
  -21.9197   -4.6970   22.3408 C   0  0  0  0  0  0
  -22.7848  -13.5229   21.1855 C   0  0  0  0  0  0
  -22.1662   -4.2155   21.0987 F   0  0  0  0  0  0
  -21.5635   -3.4540   25.7741 F   0  0  0  0  0  0
  -30.0232  -13.3501   20.4374 N   0  0  0  0  0  0
  -26.3000  -12.9325   20.3326 N   0  0  0  0  0  0
  -25.9327  -11.6494   20.5744 N   0  0  0  0  0  0
  -22.0492  -12.8211   22.0410 N   0  0  0  0  0  0
  -25.4250  -15.1878   20.4036 N   0  0  0  0  0  0
  -31.8162  -14.7301   20.1711 O   0  0  0  0  0  0
  -21.6643   -6.8881   21.4244 O   0  0  0  0  0  0
  -22.3523  -14.5546   20.6717 O   0  0  0  0  0  0
  -24.6224  -31.8603   23.2010 C   0  0  0  0  0  0
  -25.9050  -32.4801   23.8359 C   0  0  1  0  0  0
  -27.2302  -27.3567   20.1394 C   0  0  0  0  0  0
  -25.5883  -33.8597   24.2285 N   0  0  0  0  0  0
  -23.4166  -30.4821   21.5396 C   0  0  2  0  0  0
  -24.8688  -28.9362   20.1142 C   0  0  0  0  0  0
  -22.7482  -29.4590   22.4906 C   0  0  0  0  0  0
  -18.0285  -28.1418   22.8485 C   0  0  0  0  0  0
  -24.1475  -36.7270   23.2660 C   0  0  0  0  0  0
  -25.9511  -30.8065   21.3641 C   0  0  0  0  0  0
  -26.0320  -29.4347   20.7144 C   0  0  0  0  0  0
  -27.2207  -28.6558   20.7121 C   0  0  0  0  0  0
  -26.0556  -26.8890   19.5183 C   0  0  0  0  0  0
  -24.8807  -27.6696   19.5031 C   0  0  0  0  0  0
  -23.6339  -29.8103   20.1563 C   0  0  0  0  0  0
  -25.4095  -36.3070   24.0351 C   0  0  1  0  0  0
  -20.5881  -28.3674   23.1289 C   0  0  2  0  0  0
  -20.6752  -26.9400   22.5397 C   0  0  0  0  0  0
  -19.5723  -26.6373   21.5211 C   0  0  0  0  0  0
  -18.1903  -26.7957   22.1628 C   0  0  0  0  0  0
  -19.1537  -28.8874   23.2880 C   0  0  0  0  0  0
  -18.9497  -30.1488   23.8883 C   0  0  0  0  0  0
  -17.6500  -30.6613   24.0579 C   0  0  0  0  0  0
  -25.9026  -34.9451   23.5112 C   0  0  0  0  0  0
  -16.5389  -29.9122   23.6372 C   0  0  0  0  0  0
  -16.7282  -28.6566   23.0329 C   0  0  0  0  0  0
  -26.4427  -31.6634   25.0753 C   0  0  0  0  0  0
  -25.3625  -31.3814   26.1478 C   0  0  0  0  0  0
  -27.0261  -30.3084   24.6143 C   0  0  0  0  0  0
  -27.6013  -32.4342   25.7499 C   0  0  0  0  0  0
  -27.5568  -37.1784   24.8471 C   0  0  0  0  0  0
  -21.4191  -29.3050   22.3712 N   0  0  0  0  0  0
  -26.4265  -37.3772   23.9445 N   0  0  0  0  0  0
  -24.6828  -31.0650   22.0938 N   0  0  0  0  0  0
  -23.4245  -28.8092   23.2929 O   0  0  0  0  0  0
  -28.3552  -26.5369   20.1610 O   0  0  0  0  0  0
  -26.5582  -34.8939   22.4664 O   0  0  0  0  0  0
  -23.5378  -32.1326   23.7376 O   0  0  0  0  0  0
  -31.3379  -17.2758   22.2260 C   0  0  0  0  0  0
  -30.2769  -16.9191   21.4300 C   0  0  0  0  0  0
  -30.0917  -19.1109   21.8723 C   0  0  0  0  0  0
  -30.7813  -21.4754   20.1241 C   0  0  0  0  0  0
  -32.0250  -19.4252   23.4002 C   0  0  0  0  0  0
  -28.8175  -23.9731   20.3869 C   0  0  0  0  0  0
  -28.9457  -22.7557   21.3984 C   0  0  0  0  0  0
  -28.2643  -25.3293   20.9859 C   0  0  0  0  0  0
  -29.4563  -21.3407   20.8893 C   0  0  2  0  0  0
  -31.1760  -18.6173   22.5108 N   0  0  0  0  0  0
  -29.5332  -18.0728   21.2090 N   0  3  0  0  0  0
  -29.9026  -15.5705   21.0499 N   0  0  0  0  0  0
  -29.6359  -20.3924   22.0158 N   0  0  0  0  0  0
  -31.4751  -12.4818   19.1230 H   0  0  0  0  0  0
  -30.3606  -11.3477   19.8312 H   0  0  0  0  0  0
  -29.7474  -11.7860   17.4382 H   0  0  0  0  0  0
  -29.6557  -13.4999   17.7553 H   0  0  0  0  0  0
  -27.8316  -11.3146   18.8090 H   0  0  0  0  0  0
  -27.3712  -12.6473   17.7822 H   0  0  0  0  0  0
  -27.6898  -14.2571   19.5654 H   0  0  0  0  0  0
  -28.6951  -11.9743   21.3317 H   0  0  0  0  0  0
  -28.4532  -13.6080   21.8716 H   0  0  0  0  0  0
  -25.2773   -9.5688   22.4760 H   0  0  0  0  0  0
  -24.0023   -7.4621   22.7466 H   0  0  0  0  0  0
  -21.0851   -8.8769   19.8926 H   0  0  0  0  0  0
  -22.3715  -10.9674   19.6159 H   0  0  0  0  0  0
  -21.1989   -7.6149   23.9726 H   0  0  0  0  0  0
  -21.1480   -6.0521   25.9084 H   0  0  0  0  0  0
  -22.0595   -2.7612   23.2849 H   0  0  0  0  0  0
  -22.4117  -11.9872   22.4792 H   0  0  0  0  0  0
  -21.1099  -13.1205   22.2616 H   0  0  0  0  0  0
  -24.6444  -15.8318   20.4854 H   0  0  0  0  0  0
  -26.2538  -15.6205   20.0147 H   0  0  0  0  0  0
  -26.7153  -32.5456   23.1149 H   0  0  0  0  0  0
  -25.0073  -33.9737   25.0464 H   0  0  0  0  0  0
  -22.7114  -31.3028   21.3939 H   0  0  0  0  0  0
  -23.3741  -35.9600   23.3315 H   0  0  0  0  0  0
  -24.3582  -36.8844   22.2074 H   0  0  0  0  0  0
  -23.7197  -37.6487   23.6634 H   0  0  0  0  0  0
  -26.0690  -31.5682   20.5898 H   0  0  0  0  0  0
  -26.8398  -30.8608   21.9815 H   0  0  0  0  0  0
  -28.1201  -29.0364   21.1802 H   0  0  0  0  0  0
  -26.0405  -25.9074   19.0641 H   0  0  0  0  0  0
  -23.9897  -27.2805   19.0322 H   0  0  0  0  0  0
  -23.7548  -30.5838   19.3972 H   0  0  0  0  0  0
  -22.7573  -29.2376   19.8537 H   0  0  0  0  0  0
  -25.1264  -36.1959   25.0843 H   0  0  0  0  0  0
  -21.0003  -28.3210   24.1397 H   0  0  0  0  0  0
  -20.5616  -26.2285   23.3579 H   0  0  0  0  0  0
  -21.6612  -26.7347   22.1210 H   0  0  0  0  0  0
  -19.6843  -25.6262   21.1273 H   0  0  0  0  0  0
  -19.6705  -27.3164   20.6733 H   0  0  0  0  0  0
  -17.4162  -26.6725   21.4045 H   0  0  0  0  0  0
  -18.0293  -26.0123   22.9058 H   0  0  0  0  0  0
  -19.7987  -30.7317   24.2209 H   0  0  0  0  0  0
  -17.5082  -31.6301   24.5160 H   0  0  0  0  0  0
  -15.5399  -30.3043   23.7726 H   0  0  0  0  0  0
  -15.8666  -28.0933   22.7003 H   0  0  0  0  0  0
  -24.5885  -30.7044   25.7848 H   0  0  0  0  0  0
  -24.8718  -32.2995   26.4758 H   0  0  0  0  0  0
  -25.7952  -30.9174   27.0352 H   0  0  0  0  0  0
  -26.2854  -29.6917   24.1069 H   0  0  0  0  0  0
  -27.3920  -29.7285   25.4625 H   0  0  0  0  0  0
  -27.8704  -30.4475   23.9383 H   0  0  0  0  0  0
  -27.2688  -33.3711   26.1995 H   0  0  0  0  0  0
  -28.3853  -32.6771   25.0306 H   0  0  0  0  0  0
  -28.0607  -31.8489   26.5472 H   0  0  0  0  0  0
  -28.2556  -38.0109   24.7536 H   0  0  0  0  0  0
  -28.1079  -36.2645   24.6246 H   0  0  0  0  0  0
  -27.2309  -37.1355   25.8876 H   0  0  0  0  0  0
  -20.9353  -29.8912   21.7060 H   0  0  0  0  0  0
  -26.0149  -38.2838   24.1506 H   0  0  0  0  0  0
  -32.1399  -16.6885   22.6540 H   0  0  0  0  0  0
  -30.6715  -22.0928   19.2326 H   0  0  0  0  0  0
  -31.1604  -20.5114   19.7802 H   0  0  0  0  0  0
  -31.5492  -21.9268   20.7509 H   0  0  0  0  0  0
  -32.7888  -18.7933   23.8575 H   0  0  0  0  0  0
  -31.4106  -19.8533   24.1937 H   0  0  0  0  0  0
  -32.5046  -20.2232   22.8312 H   0  0  0  0  0  0
  -28.1814  -23.6764   19.5517 H   0  0  0  0  0  0
  -29.8008  -24.1688   19.9574 H   0  0  0  0  0  0
  -27.9686  -22.6026   21.8583 H   0  0  0  0  0  0
  -29.5937  -23.0820   22.2137 H   0  0  0  0  0  0
  -28.8216  -25.5503   21.8971 H   0  0  0  0  0  0
  -27.2382  -25.1658   21.3178 H   0  0  0  0  0  0
  -28.7046  -20.9282   20.2135 H   0  0  0  0  0  0
  -28.6710  -18.1304   20.6846 H   0  0  0  0  0  0
  -28.9347  -15.3213   21.1855 H   0  0  0  0  0  0
  -30.0071  -20.8938   22.8127 H   0  0  0  0  0  0
  1 25  1  0  0  0
  1 30  2  0  0  0
  1 82  1  0  0  0
  2  3  1  0  0  0
  2 25  1  0  0  0
  2 84  1  0  0  0
  2 85  1  0  0  0
  3  4  1  0  0  0
  3 86  1  0  0  0
  3 87  1  0  0  0
  4  5  1  0  0  0
  4 88  1  0  0  0
  4 89  1  0  0  0
  5  6  1  0  0  0
  5 26  1  0  0  0
  5 90  1  0  0  0
  6 25  1  0  0  0
  6 91  1  0  0  0
  6 92  1  0  0  0
  7  8  2  0  0  0
  7 26  1  0  0  0
  7 29  1  0  0  0
  8  9  1  0  0  0
  8 22  1  0  0  0
  9 10  1  0  0  0
  9 27  2  0  0  0
 10 11  2  0  0  0
 10 15  1  0  0  0
 11 12  1  0  0  0
 11 93  1  0  0  0
 12 13  2  0  0  0
 12 94  1  0  0  0
 13 14  1  0  0  0
 13 31  1  0  0  0
 14 15  2  0  0  0
 14 95  1  0  0  0
 15 96  1  0  0  0
 16 17  2  0  0  0
 16 21  1  0  0  0
 16 31  1  0  0  0
 17 18  1  0  0  0
 17 97  1  0  0  0
 18 19  2  0  0  0
 18 98  1  0  0  0
 19 20  1  0  0  0
 19 24  1  0  0  0
 20 21  2  0  0  0
 20 99  1  0  0  0
 21 23  1  0  0  0
 22 28  1  0  0  0
 22 32  2  0  0  0
 26 27  1  0  0  0
 28100  1  0  0  0
 28101  1  0  0  0
 29102  1  0  0  0
 29103  1  0  0  0
 33 34  1  0  0  0
 33 66  1  0  0  0
 33 70  2  0  0  0
 34 36  1  0  0  0
 34 59  1  0  0  0
 34104  1  0  0  0
 35 44  2  0  0  0
 35 45  1  0  0  0
 35 68  1  0  0  0
 36 56  1  0  0  0
 36105  1  0  0  0
 37 39  1  0  0  0
 37 47  1  0  0  0
 37 66  1  0  0  0
 37106  1  0  0  0
 38 43  2  0  0  0
 38 46  1  0  0  0
 38 47  1  0  0  0
 39 64  1  0  0  0
 39 67  2  0  0  0
 40 52  1  0  0  0
 40 53  2  0  0  0
 40 58  1  0  0  0
 41107  1  0  0  0
 41108  1  0  0  0
 41109  1  0  0  0
 41 48  1  0  0  0
 42 43  1  0  0  0
 42 66  1  0  0  0
 42110  1  0  0  0
 42111  1  0  0  0
 43 44  1  0  0  0
 44112  1  0  0  0
 45 46  2  0  0  0
 45113  1  0  0  0
 46114  1  0  0  0
 47115  1  0  0  0
 47116  1  0  0  0
 48 56  1  0  0  0
 48 65  1  0  0  0
 48117  1  0  0  0
 49 50  1  0  0  0
 49 53  1  0  0  0
 49 64  1  0  0  0
 49118  1  0  0  0
 50 51  1  0  0  0
 50119  1  0  0  0
 50120  1  0  0  0
 51 52  1  0  0  0
 51121  1  0  0  0
 51122  1  0  0  0
 52123  1  0  0  0
 52124  1  0  0  0
 53 54  1  0  0  0
 54 55  2  0  0  0
 54125  1  0  0  0
 55 57  1  0  0  0
 55126  1  0  0  0
 56 69  2  0  0  0
 57 58  2  0  0  0
 57127  1  0  0  0
 58128  1  0  0  0
 59 60  1  0  0  0
 59 61  1  0  0  0
 59 62  1  0  0  0
 60129  1  0  0  0
 60130  1  0  0  0
 60131  1  0  0  0
 61132  1  0  0  0
 61133  1  0  0  0
 61134  1  0  0  0
 62135  1  0  0  0
 62136  1  0  0  0
 62137  1  0  0  0
 63 65  1  0  0  0
 63138  1  0  0  0
 63139  1  0  0  0
 63140  1  0  0  0
 64141  1  0  0  0
 65142  1  0  0  0
 68 78  1  0  0  0
 71 72  2  0  0  0
 71 80  1  0  0  0
 71143  1  0  0  0
 72 81  1  0  0  0
 72 82  1  0  0  0
 73 80  1  0  0  0
 73 81  2  0  0  0
 73 83  1  0  0  0
 74144  1  0  0  0
 74145  1  0  0  0
 74146  1  0  0  0
 74 79  1  0  0  0
 75 80  1  0  0  0
 75147  1  0  0  0
 75148  1  0  0  0
 75149  1  0  0  0
 76 77  1  0  0  0
 76 78  1  0  0  0
 76150  1  0  0  0
 76151  1  0  0  0
 77 79  1  0  0  0
 77152  1  0  0  0
 77153  1  0  0  0
 78154  1  0  0  0
 78155  1  0  0  0
 79 83  1  0  0  0
 79156  1  0  0  0
 81157  1  0  0  0
 82158  1  0  0  0
 83159  1  0  0  0
M  CHG  1  81   1
M  ISO  4   1 100  68 101  78 101  82 100
M  END
> <chiral flag>
0

> <version>
0

> <s_m_source_file>
/data/baiqing/PycharmProjects/Reinvent-master-3.2/result/LINK_invent/BTK/process_docking_weight1_custom_product_contain_oxygen_bond_distance_aromatic_linkinvent_7_9_3/rearranged_h_0197.sdf

> <i_m_source_file_index>
78

> <r_mmod_Potential_Energy-OPLS-2005>
-82.1002883911133

> <r_mmod_Stretch_Energy-OPLS-2005>
60.4111518859863

> <r_mmod_Bend_Energy-OPLS-2005>
136.169342041016

> <r_mmod_Torsional_Energy-OPLS-2005>
264.413269042969

> <r_mmod_Improper_Torsional_Energy-OPLS-2005>
9.62172985076904

> <r_mmod_Van_der_Waal_Energy-OPLS-2005>
118.214782714844

> <r_mmod_Electrostatic_Energy-OPLS-2005>
-269.269378662109

> <r_mmod_Solvation_Energy-OPLS-2005>
-430.783020019531

> <b_mmod_Minimization_Converged-OPLS-2005>
0

> <r_mmod_RMS_Derivative-OPLS-2005>
4.77514171600342

$$$$
78
                    3D
 Structure written by MMmdl.
152160  0  0  1  0            999 V2000
  -30.7272  -14.4656   20.5994 C   0  0  0  0  0  0
  -30.4175  -12.3159   19.4215 C   0  0  0  0  0  0
  -29.4911  -12.5094   18.2052 C   0  0  0  0  0  0
  -28.0142  -12.3664   18.6198 C   0  0  0  0  0  0
  -27.6599  -13.2108   19.8732 C   0  0  2  0  0  0
  -28.7014  -13.0040   20.9957 C   0  0  0  0  0  0
  -25.2580  -13.8171   20.5682 C   0  0  0  0  0  0
  -24.1834  -13.0443   20.9181 C   0  0  0  0  0  0
  -24.6391  -11.6911   20.8732 C   0  0  0  0  0  0
  -23.9058  -10.4295   21.0400 C   0  0  0  0  0  0
  -24.3611   -9.4211   21.9179 C   0  0  0  0  0  0
  -23.6289   -8.2244   22.0751 C   0  0  0  0  0  0
  -22.4272   -8.0279   21.3543 C   0  0  0  0  0  0
  -21.9905   -9.0253   20.4646 C   0  0  0  0  0  0
  -22.7229  -10.2134   20.3051 C   0  0  0  0  0  0
  -21.6853   -6.0733   22.5279 C   0  0  0  0  0  0
  -21.4013   -6.5635   23.8212 C   0  0  0  0  0  0
  -21.3660   -5.6788   24.9174 C   0  0  0  0  0  0
  -21.6045   -4.3052   24.7224 C   0  0  0  0  0  0
  -21.8820   -3.8144   23.4345 C   0  0  0  0  0  0
  -21.9195   -4.6961   22.3403 C   0  0  0  0  0  0
  -22.7857  -13.5241   21.1845 C   0  0  0  0  0  0
  -22.1664   -4.2148   21.0980 F   0  0  0  0  0  0
  -21.5629   -3.4535   25.7736 F   0  0  0  0  0  0
  -30.0315  -13.3055   20.4413 N   0  0  0  0  0  0
  -26.3016  -12.9347   20.3360 N   0  0  0  0  0  0
  -25.9320  -11.6503   20.5761 N   0  0  0  0  0  0
  -22.0494  -12.8237   22.0400 N   0  0  0  0  0  0
  -25.4310  -15.1886   20.4085 N   0  0  0  0  0  0
  -31.8343  -14.6466   20.0860 O   0  0  0  0  0  0
  -21.6639   -6.8875   21.4240 O   0  0  0  0  0  0
  -22.3545  -14.5549   20.6693 O   0  0  0  0  0  0
  -24.6159  -31.8675   23.2096 C   0  0  0  0  0  0
  -25.9048  -32.4820   23.8396 C   0  0  1  0  0  0
  -27.2285  -27.4230   20.1022 C   0  0  0  0  0  0
  -25.5903  -33.8618   24.2329 N   0  0  0  0  0  0
  -23.4047  -30.4912   21.5502 C   0  0  2  0  0  0
  -24.8518  -28.9584   20.1121 C   0  0  0  0  0  0
  -22.7419  -29.4655   22.4982 C   0  0  0  0  0  0
  -18.0274  -28.1378   22.8491 C   0  0  0  0  0  0
  -24.1487  -36.7311   23.2638 C   0  0  0  0  0  0
  -25.9354  -30.8303   21.3648 C   0  0  0  0  0  0
  -26.0135  -29.4649   20.7099 C   0  0  0  0  0  0
  -27.2087  -28.7059   20.6991 C   0  0  0  0  0  0
  -26.0546  -26.9409   19.4849 C   0  0  0  0  0  0
  -24.8679  -27.6964   19.4943 C   0  0  0  0  0  0
  -23.6137  -29.8251   20.1643 C   0  0  0  0  0  0
  -25.4107  -36.3111   24.0340 C   0  0  1  0  0  0
  -20.5866  -28.3665   23.1314 C   0  0  2  0  0  0
  -20.6764  -26.9400   22.5417 C   0  0  0  0  0  0
  -19.5744  -26.6384   21.5211 C   0  0  0  0  0  0
  -18.1921  -26.7926   22.1619 C   0  0  0  0  0  0
  -19.1524  -28.8838   23.2899 C   0  0  0  0  0  0
  -18.9451  -30.1446   23.8906 C   0  0  0  0  0  0
  -17.6453  -30.6584   24.0562 C   0  0  0  0  0  0
  -25.9033  -34.9475   23.5131 C   0  0  0  0  0  0
  -16.5345  -29.9084   23.6327 C   0  0  0  0  0  0
  -16.7264  -28.6501   23.0348 C   0  0  0  0  0  0
  -26.4472  -31.6597   25.0725 C   0  0  0  0  0  0
  -25.3740  -31.3707   26.1476 C   0  0  0  0  0  0
  -27.0296  -30.3037   24.6101 C   0  0  0  0  0  0
  -27.6056  -32.4310   25.7480 C   0  0  0  0  0  0
  -27.5583  -37.1806   24.8463 C   0  0  0  0  0  0
  -21.4145  -29.3032   22.3722 N   0  0  0  0  0  0
  -26.4294  -37.3793   23.9411 N   0  0  0  0  0  0
  -24.6702  -31.0772   22.0998 N   0  0  0  0  0  0
  -23.4188  -28.8195   23.3025 O   0  0  0  0  0  0
  -28.3638  -26.6382   20.1165 O   0  0  0  0  0  0
  -26.5591  -34.8926   22.4689 O   0  0  0  0  0  0
  -23.5348  -32.1429   23.7484 O   0  0  0  0  0  0
  -28.7078  -18.3345   21.5011 C   0  0  0  0  0  0
  -30.0344  -17.9972   21.3475 C   0  0  0  0  0  0
  -29.4909  -20.3681   20.8254 C   0  0  0  0  0  0
  -30.7496  -16.7124   21.7103 C   0  0  0  0  0  0
  -28.5651  -22.8306   20.8150 C   0  0  0  0  0  0
  -28.2143  -25.3939   20.8380 C   0  0  0  0  0  0
  -29.0622  -24.2093   20.2857 C   0  0  1  0  0  0
  -28.4158  -19.6819   21.2163 N   0  0  0  0  0  0
  -29.5032  -21.7359   20.5525 N   0  0  0  0  0  0
  -30.1171  -15.4454   21.2963 N   0  0  0  0  0  0
  -30.4081  -24.3454   20.7207 O   0  0  0  0  0  0
  -30.9454  -19.3756   20.7511 S   0  0  0  0  0  0
  -31.4620  -12.4084   19.1187 H   0  0  0  0  0  0
  -30.3160  -11.3070   19.8242 H   0  0  0  0  0  0
  -29.7328  -11.7836   17.4276 H   0  0  0  0  0  0
  -29.6577  -13.4947   17.7668 H   0  0  0  0  0  0
  -27.8285  -11.3106   18.8207 H   0  0  0  0  0  0
  -27.3619  -12.6358   17.7884 H   0  0  0  0  0  0
  -27.7017  -14.2575   19.5713 H   0  0  0  0  0  0
  -28.6794  -11.9717   21.3481 H   0  0  0  0  0  0
  -28.4576  -13.6133   21.8667 H   0  0  0  0  0  0
  -25.2756   -9.5691   22.4751 H   0  0  0  0  0  0
  -24.0004   -7.4636   22.7468 H   0  0  0  0  0  0
  -21.0837   -8.8767   19.8952 H   0  0  0  0  0  0
  -22.3684  -10.9670   19.6158 H   0  0  0  0  0  0
  -21.2001   -7.6144   23.9714 H   0  0  0  0  0  0
  -21.1481   -6.0517   25.9077 H   0  0  0  0  0  0
  -22.0598   -2.7607   23.2844 H   0  0  0  0  0  0
  -22.4103  -11.9897   22.4794 H   0  0  0  0  0  0
  -21.1112  -13.1268   22.2599 H   0  0  0  0  0  0
  -24.6643  -15.8449   20.5081 H   0  0  0  0  0  0
  -26.2821  -15.6216   20.0728 H   0  0  0  0  0  0
  -26.7122  -32.5530   23.1163 H   0  0  0  0  0  0
  -25.0072  -33.9780   25.0487 H   0  0  0  0  0  0
  -22.6934  -31.3080   21.4115 H   0  0  0  0  0  0
  -23.3749  -35.9644   23.3308 H   0  0  0  0  0  0
  -24.3583  -36.8916   22.2051 H   0  0  0  0  0  0
  -23.7238  -37.6520   23.6643 H   0  0  0  0  0  0
  -26.0509  -31.5975   20.5977 H   0  0  0  0  0  0
  -26.8219  -30.8820   21.9850 H   0  0  0  0  0  0
  -28.1049  -29.0896   21.1663 H   0  0  0  0  0  0
  -26.0539  -25.9736   19.0025 H   0  0  0  0  0  0
  -23.9768  -27.3027   19.0251 H   0  0  0  0  0  0
  -23.7208  -30.6007   19.4050 H   0  0  0  0  0  0
  -22.7379  -29.2445   19.8689 H   0  0  0  0  0  0
  -25.1282  -36.1978   25.0833 H   0  0  0  0  0  0
  -20.9958  -28.3232   24.1434 H   0  0  0  0  0  0
  -20.5669  -26.2271   23.3602 H   0  0  0  0  0  0
  -21.6636  -26.7444   22.1210 H   0  0  0  0  0  0
  -19.6905  -25.6297   21.1235 H   0  0  0  0  0  0
  -19.6688  -27.3199   20.6745 H   0  0  0  0  0  0
  -17.4196  -26.6685   21.4014 H   0  0  0  0  0  0
  -18.0315  -26.0062   22.9008 H   0  0  0  0  0  0
  -19.7928  -30.7260   24.2279 H   0  0  0  0  0  0
  -17.5009  -31.6267   24.5159 H   0  0  0  0  0  0
  -15.5345  -30.2988   23.7645 H   0  0  0  0  0  0
  -15.8665  -28.0823   22.7056 H   0  0  0  0  0  0
  -24.5911  -30.7052   25.7819 H   0  0  0  0  0  0
  -24.8930  -32.2861   26.4930 H   0  0  0  0  0  0
  -25.8096  -30.8875   27.0231 H   0  0  0  0  0  0
  -26.2835  -29.6803   24.1156 H   0  0  0  0  0  0
  -27.4067  -29.7268   25.4556 H   0  0  0  0  0  0
  -27.8673  -30.4353   23.9248 H   0  0  0  0  0  0
  -27.2685  -33.3602   26.2087 H   0  0  0  0  0  0
  -28.3846  -32.6881   25.0291 H   0  0  0  0  0  0
  -28.0745  -31.8415   26.5368 H   0  0  0  0  0  0
  -28.2605  -38.0100   24.7516 H   0  0  0  0  0  0
  -28.1073  -36.2633   24.6277 H   0  0  0  0  0  0
  -27.2305  -37.1449   25.8867 H   0  0  0  0  0  0
  -20.9305  -29.8755   21.6946 H   0  0  0  0  0  0
  -26.0187  -38.2874   24.1408 H   0  0  0  0  0  0
  -27.9153  -17.6954   21.8648 H   0  0  0  0  0  0
  -30.8468  -16.6714   22.7959 H   0  0  0  0  0  0
  -31.7771  -16.7694   21.3469 H   0  0  0  0  0  0
  -27.5981  -22.5901   20.3697 H   0  0  0  0  0  0
  -28.3988  -22.8821   21.8925 H   0  0  0  0  0  0
  -28.4522  -25.5722   21.8877 H   0  0  0  0  0  0
  -27.1733  -25.0677   20.8406 H   0  0  0  0  0  0
  -29.0284  -24.2115   19.1947 H   0  0  0  0  0  0
  -30.4134  -22.0930   20.2707 H   0  0  0  0  0  0
  -29.2057  -15.2318   21.6720 H   0  0  0  0  0  0
  -30.4043  -24.2947   21.6714 H   0  0  0  0  0  0
  1 25  1  0  0  0
  1 30  2  0  0  0
  1 80  1  0  0  0
  2  3  1  0  0  0
  2 25  1  0  0  0
  2 83  1  0  0  0
  2 84  1  0  0  0
  3  4  1  0  0  0
  3 85  1  0  0  0
  3 86  1  0  0  0
  4  5  1  0  0  0
  4 87  1  0  0  0
  4 88  1  0  0  0
  5  6  1  0  0  0
  5 26  1  0  0  0
  5 89  1  0  0  0
  6 25  1  0  0  0
  6 90  1  0  0  0
  6 91  1  0  0  0
  7  8  2  0  0  0
  7 26  1  0  0  0
  7 29  1  0  0  0
  8  9  1  0  0  0
  8 22  1  0  0  0
  9 10  1  0  0  0
  9 27  2  0  0  0
 10 11  2  0  0  0
 10 15  1  0  0  0
 11 12  1  0  0  0
 11 92  1  0  0  0
 12 13  2  0  0  0
 12 93  1  0  0  0
 13 14  1  0  0  0
 13 31  1  0  0  0
 14 15  2  0  0  0
 14 94  1  0  0  0
 15 95  1  0  0  0
 16 17  2  0  0  0
 16 21  1  0  0  0
 16 31  1  0  0  0
 17 18  1  0  0  0
 17 96  1  0  0  0
 18 19  2  0  0  0
 18 97  1  0  0  0
 19 20  1  0  0  0
 19 24  1  0  0  0
 20 21  2  0  0  0
 20 98  1  0  0  0
 21 23  1  0  0  0
 22 28  1  0  0  0
 22 32  2  0  0  0
 26 27  1  0  0  0
 28 99  1  0  0  0
 28100  1  0  0  0
 29101  1  0  0  0
 29102  1  0  0  0
 33 34  1  0  0  0
 33 66  1  0  0  0
 33 70  2  0  0  0
 34 36  1  0  0  0
 34 59  1  0  0  0
 34103  1  0  0  0
 35 44  2  0  0  0
 35 45  1  0  0  0
 35 68  1  0  0  0
 36 56  1  0  0  0
 36104  1  0  0  0
 37 39  1  0  0  0
 37 47  1  0  0  0
 37 66  1  0  0  0
 37105  1  0  0  0
 38 43  2  0  0  0
 38 46  1  0  0  0
 38 47  1  0  0  0
 39 64  1  0  0  0
 39 67  2  0  0  0
 40 52  1  0  0  0
 40 53  2  0  0  0
 40 58  1  0  0  0
 41106  1  0  0  0
 41107  1  0  0  0
 41108  1  0  0  0
 41 48  1  0  0  0
 42 43  1  0  0  0
 42 66  1  0  0  0
 42109  1  0  0  0
 42110  1  0  0  0
 43 44  1  0  0  0
 44111  1  0  0  0
 45 46  2  0  0  0
 45112  1  0  0  0
 46113  1  0  0  0
 47114  1  0  0  0
 47115  1  0  0  0
 48 56  1  0  0  0
 48 65  1  0  0  0
 48116  1  0  0  0
 49 50  1  0  0  0
 49 53  1  0  0  0
 49 64  1  0  0  0
 49117  1  0  0  0
 50 51  1  0  0  0
 50118  1  0  0  0
 50119  1  0  0  0
 51 52  1  0  0  0
 51120  1  0  0  0
 51121  1  0  0  0
 52122  1  0  0  0
 52123  1  0  0  0
 53 54  1  0  0  0
 54 55  2  0  0  0
 54124  1  0  0  0
 55 57  1  0  0  0
 55125  1  0  0  0
 56 69  2  0  0  0
 57 58  2  0  0  0
 57126  1  0  0  0
 58127  1  0  0  0
 59 60  1  0  0  0
 59 61  1  0  0  0
 59 62  1  0  0  0
 60128  1  0  0  0
 60129  1  0  0  0
 60130  1  0  0  0
 61131  1  0  0  0
 61132  1  0  0  0
 61133  1  0  0  0
 62134  1  0  0  0
 62135  1  0  0  0
 62136  1  0  0  0
 63 65  1  0  0  0
 63137  1  0  0  0
 63138  1  0  0  0
 63139  1  0  0  0
 64140  1  0  0  0
 65141  1  0  0  0
 68 76  1  0  0  0
 71 72  2  0  0  0
 71 78  1  0  0  0
 71142  1  0  0  0
 72 74  1  0  0  0
 72 82  1  0  0  0
 73 78  2  0  0  0
 73 79  1  0  0  0
 73 82  1  0  0  0
 74 80  1  0  0  0
 74143  1  0  0  0
 74144  1  0  0  0
 75 77  1  0  0  0
 75 79  1  0  0  0
 75145  1  0  0  0
 75146  1  0  0  0
 76 77  1  0  0  0
 76147  1  0  0  0
 76148  1  0  0  0
 77 81  1  0  0  0
 77149  1  0  0  0
 79150  1  0  0  0
 80151  1  0  0  0
 81152  1  0  0  0
M  ISO  4   1 100  68 101  76 101  80 100
M  END
> <chiral flag>
0

> <version>
0

> <s_m_source_file>
/data/baiqing/PycharmProjects/Reinvent-master-3.2/result/LINK_invent/BTK/process_docking_weight1_custom_product_contain_oxygen_bond_distance_aromatic_linkinvent_7_9_3/rearranged_h_0197.sdf

> <i_m_source_file_index>
79

> <r_mmod_Potential_Energy-OPLS-2005>
-203.585586547852

> <r_mmod_Stretch_Energy-OPLS-2005>
37.3699645996094

> <r_mmod_Bend_Energy-OPLS-2005>
92.718864440918

> <r_mmod_Torsional_Energy-OPLS-2005>
235.400360107422

> <r_mmod_Improper_Torsional_Energy-OPLS-2005>
3.01354026794434

> <r_mmod_Van_der_Waal_Energy-OPLS-2005>
131.488494873047

> <r_mmod_Electrostatic_Energy-OPLS-2005>
-469.348663330078

> <r_mmod_Solvation_Energy-OPLS-2005>
-248.008026123047

> <b_mmod_Minimization_Converged-OPLS-2005>
0

> <r_mmod_RMS_Derivative-OPLS-2005>
0.319778501987457

$$$$
79
                    3D
 Structure written by MMmdl.
154162  0  0  1  0            999 V2000
  -30.7267  -14.5008   20.5813 C   0  0  0  0  0  0
  -30.4061  -12.3125   19.4654 C   0  0  0  0  0  0
  -29.5169  -12.5520   18.2379 C   0  0  0  0  0  0
  -28.0385  -12.3950   18.6409 C   0  0  0  0  0  0
  -27.6737  -13.2212   19.9060 C   0  0  2  0  0  0
  -28.7156  -13.0290   21.0358 C   0  0  0  0  0  0
  -25.2637  -13.8205   20.5736 C   0  0  0  0  0  0
  -24.1911  -13.0457   20.9196 C   0  0  0  0  0  0
  -24.6488  -11.6918   20.8792 C   0  0  0  0  0  0
  -23.9158  -10.4284   21.0415 C   0  0  0  0  0  0
  -24.3673   -9.4158   21.9183 C   0  0  0  0  0  0
  -23.6306   -8.2222   22.0752 C   0  0  0  0  0  0
  -22.4289   -8.0304   21.3543 C   0  0  0  0  0  0
  -21.9956   -9.0286   20.4647 C   0  0  0  0  0  0
  -22.7322  -10.2146   20.3038 C   0  0  0  0  0  0
  -21.6859   -6.0758   22.5280 C   0  0  0  0  0  0
  -21.4031   -6.5649   23.8215 C   0  0  0  0  0  0
  -21.3641   -5.6797   24.9171 C   0  0  0  0  0  0
  -21.6033   -4.3060   24.7227 C   0  0  0  0  0  0
  -21.8805   -3.8152   23.4345 C   0  0  0  0  0  0
  -21.9179   -4.6985   22.3396 C   0  0  0  0  0  0
  -22.7913  -13.5190   21.1850 C   0  0  0  0  0  0
  -22.1644   -4.2150   21.0981 F   0  0  0  0  0  0
  -21.5623   -3.4537   25.7746 F   0  0  0  0  0  0
  -30.0331  -13.3301   20.4683 N   0  0  0  0  0  0
  -26.3109  -12.9386   20.3490 N   0  0  0  0  0  0
  -25.9445  -11.6529   20.5935 N   0  0  0  0  0  0
  -22.0606  -12.8133   22.0401 N   0  0  0  0  0  0
  -25.4375  -15.1931   20.4145 N   0  0  0  0  0  0
  -31.8354  -14.6423   20.0701 O   0  0  0  0  0  0
  -21.6628   -6.8919   21.4257 O   0  0  0  0  0  0
  -22.3567  -14.5470   20.6701 O   0  0  0  0  0  0
  -24.6140  -31.8669   23.2162 C   0  0  0  0  0  0
  -25.9043  -32.4815   23.8401 C   0  0  1  0  0  0
  -27.2157  -27.4099   20.0998 C   0  0  0  0  0  0
  -25.5915  -33.8600   24.2312 N   0  0  0  0  0  0
  -23.4004  -30.4947   21.5615 C   0  0  2  0  0  0
  -24.8390  -28.9579   20.1175 C   0  0  0  0  0  0
  -22.7457  -29.4613   22.5073 C   0  0  0  0  0  0
  -18.0276  -28.1451   22.8495 C   0  0  0  0  0  0
  -24.1502  -36.7304   23.2634 C   0  0  0  0  0  0
  -25.9292  -30.8303   21.3653 C   0  0  0  0  0  0
  -26.0053  -29.4659   20.7075 C   0  0  0  0  0  0
  -27.2008  -28.7026   20.6874 C   0  0  0  0  0  0
  -26.0328  -26.9281   19.4995 C   0  0  0  0  0  0
  -24.8513  -27.6934   19.5054 C   0  0  0  0  0  0
  -23.6030  -29.8302   20.1715 C   0  0  0  0  0  0
  -25.4120  -36.3067   24.0321 C   0  0  1  0  0  0
  -20.5848  -28.3781   23.1482 C   0  0  2  0  0  0
  -20.6862  -26.9540   22.5505 C   0  0  0  0  0  0
  -19.5829  -26.6530   21.5310 C   0  0  0  0  0  0
  -18.1920  -26.8056   22.1586 C   0  0  0  0  0  0
  -19.1506  -28.8861   23.3068 C   0  0  0  0  0  0
  -18.9399  -30.1300   23.9336 C   0  0  0  0  0  0
  -17.6407  -30.6469   24.0929 C   0  0  0  0  0  0
  -25.9018  -34.9447   23.5088 C   0  0  0  0  0  0
  -16.5338  -29.9154   23.6321 C   0  0  0  0  0  0
  -16.7268  -28.6586   23.0264 C   0  0  0  0  0  0
  -26.4487  -31.6560   25.0708 C   0  0  0  0  0  0
  -25.3752  -31.3670   26.1460 C   0  0  0  0  0  0
  -27.0331  -30.3007   24.6051 C   0  0  0  0  0  0
  -27.6058  -32.4261   25.7482 C   0  0  0  0  0  0
  -27.5583  -37.1801   24.8452 C   0  0  0  0  0  0
  -21.4150  -29.3273   22.4047 N   0  0  0  0  0  0
  -26.4307  -37.3769   23.9397 N   0  0  0  0  0  0
  -24.6698  -31.0767   22.1058 N   0  0  0  0  0  0
  -23.4263  -28.7922   23.2911 O   0  0  0  0  0  0
  -28.3554  -26.6275   20.0667 O   0  0  0  0  0  0
  -26.5589  -34.8857   22.4652 O   0  0  0  0  0  0
  -23.5323  -32.1453   23.7556 O   0  0  0  0  0  0
  -29.7711  -18.0718   21.6071 C   0  0  0  0  0  0
  -28.7741  -18.1334   22.5654 C   0  0  0  0  0  0
  -29.0800  -20.2825   21.3657 C   0  0  0  0  0  0
  -30.7007  -16.9048   21.2592 C   0  0  0  0  0  0
  -28.5036  -22.8919   21.3626 C   0  0  0  0  0  0
  -28.3749  -25.4895   20.9663 C   0  0  0  0  0  0
  -28.5367  -24.0694   20.3139 C   0  0  1  0  0  0
  -29.9381  -19.3250   20.9620 N   0  0  0  0  0  0
  -28.3431  -17.1659   23.4660 N   0  0  0  0  0  0
  -29.0930  -21.6077   20.9023 N   0  0  0  0  0  0
  -30.1123  -15.5456   21.1884 N   0  0  0  0  0  0
  -29.8045  -23.9769   19.6824 O   0  0  0  0  0  0
  -27.9943  -19.7025   22.6137 S   0  0  0  0  0  0
  -31.4642  -12.3321   19.2107 H   0  0  0  0  0  0
  -30.2300  -11.3154   19.8628 H   0  0  0  0  0  0
  -29.7747  -11.8638   17.4309 H   0  0  0  0  0  0
  -29.6972  -13.5574   17.8598 H   0  0  0  0  0  0
  -27.8512  -11.3344   18.8278 H   0  0  0  0  0  0
  -27.3968  -12.6809   17.8102 H   0  0  0  0  0  0
  -27.7228  -14.2658   19.5979 H   0  0  0  0  0  0
  -28.7211  -12.0030   21.4044 H   0  0  0  0  0  0
  -28.4989  -13.6525   21.9070 H   0  0  0  0  0  0
  -25.2851   -9.5597   22.4717 H   0  0  0  0  0  0
  -24.0005   -7.4605   22.7443 H   0  0  0  0  0  0
  -21.0878   -8.8802   19.8960 H   0  0  0  0  0  0
  -22.3796  -10.9675   19.6101 H   0  0  0  0  0  0
  -21.2047   -7.6152   23.9728 H   0  0  0  0  0  0
  -21.1484   -6.0524   25.9071 H   0  0  0  0  0  0
  -22.0618   -2.7618   23.2845 H   0  0  0  0  0  0
  -22.4270  -11.9741   22.4629 H   0  0  0  0  0  0
  -21.1257  -13.1133   22.2725 H   0  0  0  0  0  0
  -24.6802  -15.8580   20.5226 H   0  0  0  0  0  0
  -26.2935  -15.6329   20.0982 H   0  0  0  0  0  0
  -26.7058  -32.5489   23.1101 H   0  0  0  0  0  0
  -25.0090  -33.9773   25.0471 H   0  0  0  0  0  0
  -22.6776  -31.3112   21.4379 H   0  0  0  0  0  0
  -23.3747  -35.9658   23.3291 H   0  0  0  0  0  0
  -24.3588  -36.8942   22.2047 H   0  0  0  0  0  0
  -23.7280  -37.6508   23.6657 H   0  0  0  0  0  0
  -26.0336  -31.6029   20.6051 H   0  0  0  0  0  0
  -26.8206  -30.8840   21.9784 H   0  0  0  0  0  0
  -28.1092  -29.0933   21.1260 H   0  0  0  0  0  0
  -26.0251  -25.9588   19.0232 H   0  0  0  0  0  0
  -23.9563  -27.3034   19.0443 H   0  0  0  0  0  0
  -23.7108  -30.6066   19.4114 H   0  0  0  0  0  0
  -22.7211  -29.2600   19.8796 H   0  0  0  0  0  0
  -25.1300  -36.1939   25.0823 H   0  0  0  0  0  0
  -20.9817  -28.3364   24.1629 H   0  0  0  0  0  0
  -20.5792  -26.2300   23.3601 H   0  0  0  0  0  0
  -21.6761  -26.7677   22.1419 H   0  0  0  0  0  0
  -19.6853  -25.6456   21.1235 H   0  0  0  0  0  0
  -19.6850  -27.3400   20.6929 H   0  0  0  0  0  0
  -17.4310  -26.6767   21.3886 H   0  0  0  0  0  0
  -18.0125  -26.0265   22.8970 H   0  0  0  0  0  0
  -19.7872  -30.6996   24.2960 H   0  0  0  0  0  0
  -17.5064  -31.6095   24.5787 H   0  0  0  0  0  0
  -15.5370  -30.3192   23.7394 H   0  0  0  0  0  0
  -15.8688  -28.0941   22.6817 H   0  0  0  0  0  0
  -24.5941  -30.7006   25.7770 H   0  0  0  0  0  0
  -24.8969  -32.2849   26.4866 H   0  0  0  0  0  0
  -25.8145  -30.8856   27.0212 H   0  0  0  0  0  0
  -26.2888  -29.6792   24.1059 H   0  0  0  0  0  0
  -27.4071  -29.7204   25.4490 H   0  0  0  0  0  0
  -27.8717  -30.4339   23.9228 H   0  0  0  0  0  0
  -27.2669  -33.3547   26.2075 H   0  0  0  0  0  0
  -28.3884  -32.6831   25.0333 H   0  0  0  0  0  0
  -28.0674  -31.8357   26.5404 H   0  0  0  0  0  0
  -28.2565  -38.0119   24.7491 H   0  0  0  0  0  0
  -28.1112  -36.2647   24.6299 H   0  0  0  0  0  0
  -27.2272  -37.1447   25.8842 H   0  0  0  0  0  0
  -20.9302  -29.9706   21.7894 H   0  0  0  0  0  0
  -26.0175  -38.2830   24.1456 H   0  0  0  0  0  0
  -31.5150  -16.8632   21.9857 H   0  0  0  0  0  0
  -31.1764  -17.1065   20.2998 H   0  0  0  0  0  0
  -29.0690  -23.2011   22.2459 H   0  0  0  0  0  0
  -27.4733  -22.7545   21.7096 H   0  0  0  0  0  0
  -29.2185  -25.6573   21.6399 H   0  0  0  0  0  0
  -27.4741  -25.4779   21.5914 H   0  0  0  0  0  0
  -27.7561  -23.9479   19.5581 H   0  0  0  0  0  0
  -28.5798  -16.1839   23.4402 H   0  0  0  0  0  0
  -27.4911  -17.3435   23.9947 H   0  0  0  0  0  0
  -29.9755  -21.7763   20.4346 H   0  0  0  0  0  0
  -29.2124  -15.4095   21.6215 H   0  0  0  0  0  0
  -29.7402  -23.2580   19.0651 H   0  0  0  0  0  0
  1 25  1  0  0  0
  1 30  2  0  0  0
  1 81  1  0  0  0
  2  3  1  0  0  0
  2 25  1  0  0  0
  2 84  1  0  0  0
  2 85  1  0  0  0
  3  4  1  0  0  0
  3 86  1  0  0  0
  3 87  1  0  0  0
  4  5  1  0  0  0
  4 88  1  0  0  0
  4 89  1  0  0  0
  5  6  1  0  0  0
  5 26  1  0  0  0
  5 90  1  0  0  0
  6 25  1  0  0  0
  6 91  1  0  0  0
  6 92  1  0  0  0
  7  8  2  0  0  0
  7 26  1  0  0  0
  7 29  1  0  0  0
  8  9  1  0  0  0
  8 22  1  0  0  0
  9 10  1  0  0  0
  9 27  2  0  0  0
 10 11  2  0  0  0
 10 15  1  0  0  0
 11 12  1  0  0  0
 11 93  1  0  0  0
 12 13  2  0  0  0
 12 94  1  0  0  0
 13 14  1  0  0  0
 13 31  1  0  0  0
 14 15  2  0  0  0
 14 95  1  0  0  0
 15 96  1  0  0  0
 16 17  2  0  0  0
 16 21  1  0  0  0
 16 31  1  0  0  0
 17 18  1  0  0  0
 17 97  1  0  0  0
 18 19  2  0  0  0
 18 98  1  0  0  0
 19 20  1  0  0  0
 19 24  1  0  0  0
 20 21  2  0  0  0
 20 99  1  0  0  0
 21 23  1  0  0  0
 22 28  1  0  0  0
 22 32  2  0  0  0
 26 27  1  0  0  0
 28100  1  0  0  0
 28101  1  0  0  0
 29102  1  0  0  0
 29103  1  0  0  0
 33 34  1  0  0  0
 33 66  1  0  0  0
 33 70  2  0  0  0
 34 36  1  0  0  0
 34 59  1  0  0  0
 34104  1  0  0  0
 35 44  2  0  0  0
 35 45  1  0  0  0
 35 68  1  0  0  0
 36 56  1  0  0  0
 36105  1  0  0  0
 37 39  1  0  0  0
 37 47  1  0  0  0
 37 66  1  0  0  0
 37106  1  0  0  0
 38 43  2  0  0  0
 38 46  1  0  0  0
 38 47  1  0  0  0
 39 64  1  0  0  0
 39 67  2  0  0  0
 40 52  1  0  0  0
 40 53  2  0  0  0
 40 58  1  0  0  0
 41107  1  0  0  0
 41108  1  0  0  0
 41109  1  0  0  0
 41 48  1  0  0  0
 42 43  1  0  0  0
 42 66  1  0  0  0
 42110  1  0  0  0
 42111  1  0  0  0
 43 44  1  0  0  0
 44112  1  0  0  0
 45 46  2  0  0  0
 45113  1  0  0  0
 46114  1  0  0  0
 47115  1  0  0  0
 47116  1  0  0  0
 48 56  1  0  0  0
 48 65  1  0  0  0
 48117  1  0  0  0
 49 50  1  0  0  0
 49 53  1  0  0  0
 49 64  1  0  0  0
 49118  1  0  0  0
 50 51  1  0  0  0
 50119  1  0  0  0
 50120  1  0  0  0
 51 52  1  0  0  0
 51121  1  0  0  0
 51122  1  0  0  0
 52123  1  0  0  0
 52124  1  0  0  0
 53 54  1  0  0  0
 54 55  2  0  0  0
 54125  1  0  0  0
 55 57  1  0  0  0
 55126  1  0  0  0
 56 69  2  0  0  0
 57 58  2  0  0  0
 57127  1  0  0  0
 58128  1  0  0  0
 59 60  1  0  0  0
 59 61  1  0  0  0
 59 62  1  0  0  0
 60129  1  0  0  0
 60130  1  0  0  0
 60131  1  0  0  0
 61132  1  0  0  0
 61133  1  0  0  0
 61134  1  0  0  0
 62135  1  0  0  0
 62136  1  0  0  0
 62137  1  0  0  0
 63 65  1  0  0  0
 63138  1  0  0  0
 63139  1  0  0  0
 63140  1  0  0  0
 64141  1  0  0  0
 65142  1  0  0  0
 68 76  1  0  0  0
 71 72  2  0  0  0
 71 74  1  0  0  0
 71 78  1  0  0  0
 72 79  1  0  0  0
 72 83  1  0  0  0
 73 78  2  0  0  0
 73 80  1  0  0  0
 73 83  1  0  0  0
 74 81  1  0  0  0
 74143  1  0  0  0
 74144  1  0  0  0
 75 77  1  0  0  0
 75 80  1  0  0  0
 75145  1  0  0  0
 75146  1  0  0  0
 76 77  1  0  0  0
 76147  1  0  0  0
 76148  1  0  0  0
 77 82  1  0  0  0
 77149  1  0  0  0
 79150  1  0  0  0
 79151  1  0  0  0
 80152  1  0  0  0
 81153  1  0  0  0
 82154  1  0  0  0
M  ISO  4   1 100  68 101  76 101  81 100
M  END
> <chiral flag>
0

> <version>
0

> <s_m_source_file>
/data/baiqing/PycharmProjects/Reinvent-master-3.2/result/LINK_invent/BTK/process_docking_weight1_custom_product_contain_oxygen_bond_distance_aromatic_linkinvent_7_9_3/rearranged_h_0197.sdf

> <i_m_source_file_index>
80

> <r_mmod_Potential_Energy-OPLS-2005>
-127.79833984375

> <r_mmod_Stretch_Energy-OPLS-2005>
47.8382034301758

> <r_mmod_Bend_Energy-OPLS-2005>
112.995475769043

> <r_mmod_Torsional_Energy-OPLS-2005>
251.839599609375

> <r_mmod_Improper_Torsional_Energy-OPLS-2005>
6.17232704162598

> <r_mmod_Van_der_Waal_Energy-OPLS-2005>
123.820098876953

> <r_mmod_Electrostatic_Energy-OPLS-2005>
-438.837036132812

> <r_mmod_Solvation_Energy-OPLS-2005>
-249.417877197266

> <b_mmod_Minimization_Converged-OPLS-2005>
0

> <r_mmod_RMS_Derivative-OPLS-2005>
11.0547571182251

$$$$
80
                    3D
 Structure written by MMmdl.
164172  0  0  1  0            999 V2000
  -30.7430  -14.4321   20.5307 C   0  0  0  0  0  0
  -30.4018  -12.2710   19.4324 C   0  0  0  0  0  0
  -29.4900  -12.4883   18.2091 C   0  0  0  0  0  0
  -28.0097  -12.3654   18.6174 C   0  0  0  0  0  0
  -27.6571  -13.2135   19.8701 C   0  0  2  0  0  0
  -28.6988  -13.0269   20.9972 C   0  0  0  0  0  0
  -25.2584  -13.8188   20.5699 C   0  0  0  0  0  0
  -24.1836  -13.0456   20.9164 C   0  0  0  0  0  0
  -24.6391  -11.6920   20.8737 C   0  0  0  0  0  0
  -23.9068  -10.4300   21.0404 C   0  0  0  0  0  0
  -24.3616   -9.4224   21.9187 C   0  0  0  0  0  0
  -23.6296   -8.2261   22.0758 C   0  0  0  0  0  0
  -22.4284   -8.0287   21.3548 C   0  0  0  0  0  0
  -21.9916   -9.0258   20.4650 C   0  0  0  0  0  0
  -22.7238  -10.2141   20.3055 C   0  0  0  0  0  0
  -21.6859   -6.0745   22.5280 C   0  0  0  0  0  0
  -21.4010   -6.5646   23.8213 C   0  0  0  0  0  0
  -21.3662   -5.6799   24.9175 C   0  0  0  0  0  0
  -21.6037   -4.3059   24.7223 C   0  0  0  0  0  0
  -21.8821   -3.8153   23.4346 C   0  0  0  0  0  0
  -21.9193   -4.6973   22.3403 C   0  0  0  0  0  0
  -22.7860  -13.5258   21.1831 C   0  0  0  0  0  0
  -22.1664   -4.2160   21.0982 F   0  0  0  0  0  0
  -21.5630   -3.4539   25.7738 F   0  0  0  0  0  0
  -30.0308  -13.2821   20.4331 N   0  0  0  0  0  0
  -26.3013  -12.9362   20.3367 N   0  0  0  0  0  0
  -25.9326  -11.6518   20.5780 N   0  0  0  0  0  0
  -22.0489  -12.8249   22.0375 N   0  0  0  0  0  0
  -25.4309  -15.1904   20.4113 N   0  0  0  0  0  0
  -31.9120  -14.5190   20.1487 O   0  0  0  0  0  0
  -21.6645   -6.8886   21.4243 O   0  0  0  0  0  0
  -22.3549  -14.5565   20.6677 O   0  0  0  0  0  0
  -24.6120  -31.8691   23.2118 C   0  0  0  0  0  0
  -25.9030  -32.4826   23.8399 C   0  0  1  0  0  0
  -27.2283  -27.4571   20.0985 C   0  0  0  0  0  0
  -25.5904  -33.8625   24.2339 N   0  0  0  0  0  0
  -23.3988  -30.4916   21.5508 C   0  0  2  0  0  0
  -24.8468  -28.9631   20.1085 C   0  0  0  0  0  0
  -22.7400  -29.4656   22.4998 C   0  0  0  0  0  0
  -18.0266  -28.1379   22.8497 C   0  0  0  0  0  0
  -24.1487  -36.7309   23.2638 C   0  0  0  0  0  0
  -25.9238  -30.8431   21.3612 C   0  0  0  0  0  0
  -26.0022  -29.4797   20.7088 C   0  0  0  0  0  0
  -27.1986  -28.7319   20.7055 C   0  0  0  0  0  0
  -26.0677  -26.9527   19.4826 C   0  0  0  0  0  0
  -24.8725  -27.6979   19.4929 C   0  0  0  0  0  0
  -23.6045  -29.8222   20.1644 C   0  0  0  0  0  0
  -25.4105  -36.3108   24.0340 C   0  0  1  0  0  0
  -20.5855  -28.3652   23.1321 C   0  0  2  0  0  0
  -20.6761  -26.9390   22.5416 C   0  0  0  0  0  0
  -19.5735  -26.6376   21.5221 C   0  0  0  0  0  0
  -18.1911  -26.7930   22.1620 C   0  0  0  0  0  0
  -19.1518  -28.8831   23.2908 C   0  0  0  0  0  0
  -18.9451  -30.1440   23.8914 C   0  0  0  0  0  0
  -17.6454  -30.6590   24.0561 C   0  0  0  0  0  0
  -25.9032  -34.9476   23.5133 C   0  0  0  0  0  0
  -16.5341  -29.9091   23.6335 C   0  0  0  0  0  0
  -16.7255  -28.6505   23.0361 C   0  0  0  0  0  0
  -26.4466  -31.6600   25.0720 C   0  0  0  0  0  0
  -25.3738  -31.3704   26.1466 C   0  0  0  0  0  0
  -27.0298  -30.3050   24.6083 C   0  0  0  0  0  0
  -27.6044  -32.4311   25.7493 C   0  0  0  0  0  0
  -27.5578  -37.1800   24.8460 C   0  0  0  0  0  0
  -21.4129  -29.3027   22.3739 N   0  0  0  0  0  0
  -26.4291  -37.3792   23.9407 N   0  0  0  0  0  0
  -24.6629  -31.0812   22.1005 N   0  0  0  0  0  0
  -23.4179  -28.8204   23.3043 O   0  0  0  0  0  0
  -28.3574  -26.6790   20.1313 O   0  0  0  0  0  0
  -26.5584  -34.8916   22.4686 O   0  0  0  0  0  0
  -23.5324  -32.1438   23.7526 O   0  0  0  0  0  0
  -27.9906  -19.2447   21.5981 C   0  0  0  0  0  0
  -29.9321  -18.0611   21.1994 C   0  0  0  0  0  0
  -28.7436  -20.3752   22.0083 C   0  0  0  0  0  0
  -30.6890  -19.1787   21.6608 C   0  0  0  0  0  0
  -30.5228  -17.1289   18.9555 C   0  0  0  0  0  0
  -28.7575  -22.2515   24.6068 C   0  0  0  0  0  0
  -28.4479  -24.5814   21.4367 C   0  0  0  0  0  0
  -28.2756  -24.0313   22.8706 C   0  0  0  0  0  0
  -28.6017  -26.1182   21.4248 C   0  0  0  0  0  0
  -30.5895  -16.8830   20.4790 C   0  0  2  0  0  0
  -28.8200  -22.6077   23.1129 C   0  0  2  0  0  0
  -28.5747  -18.0865   21.1961 N   0  0  0  0  0  0
  -30.0958  -20.3205   22.0635 N   0  0  0  0  0  0
  -32.0797  -19.2144   21.6906 N   0  0  0  0  0  0
  -28.1149  -21.5926   22.3275 N   0  0  0  0  0  0
  -30.0501  -15.5504   20.8065 N   0  0  0  0  0  0
  -31.4517  -12.3261   19.1386 H   0  0  0  0  0  0
  -30.2637  -11.2694   19.8430 H   0  0  0  0  0  0
  -29.7248  -11.7627   17.4292 H   0  0  0  0  0  0
  -29.6731  -13.4735   17.7775 H   0  0  0  0  0  0
  -27.8065  -11.3111   18.8094 H   0  0  0  0  0  0
  -27.3671  -12.6480   17.7826 H   0  0  0  0  0  0
  -27.6937  -14.2573   19.5570 H   0  0  0  0  0  0
  -28.6603  -12.0109   21.3928 H   0  0  0  0  0  0
  -28.4852  -13.6857   21.8407 H   0  0  0  0  0  0
  -25.2763   -9.5708   22.4766 H   0  0  0  0  0  0
  -24.0006   -7.4657   22.7479 H   0  0  0  0  0  0
  -21.0854   -8.8771   19.8951 H   0  0  0  0  0  0
  -22.3695  -10.9680   19.6163 H   0  0  0  0  0  0
  -21.1999   -7.6151   23.9722 H   0  0  0  0  0  0
  -21.1480   -6.0525   25.9079 H   0  0  0  0  0  0
  -22.0596   -2.7614   23.2841 H   0  0  0  0  0  0
  -22.4090  -11.9905   22.4767 H   0  0  0  0  0  0
  -21.1108  -13.1283   22.2565 H   0  0  0  0  0  0
  -24.6681  -15.8485   20.5280 H   0  0  0  0  0  0
  -26.2917  -15.6342   20.1173 H   0  0  0  0  0  0
  -26.7104  -32.5553   23.1171 H   0  0  0  0  0  0
  -25.0076  -33.9795   25.0494 H   0  0  0  0  0  0
  -22.6863  -31.3070   21.4118 H   0  0  0  0  0  0
  -23.3751  -35.9641   23.3311 H   0  0  0  0  0  0
  -24.3574  -36.8920   22.2051 H   0  0  0  0  0  0
  -23.7239  -37.6516   23.6641 H   0  0  0  0  0  0
  -26.0309  -31.6102   20.5928 H   0  0  0  0  0  0
  -26.8134  -30.8974   21.9772 H   0  0  0  0  0  0
  -28.0899  -29.1206   21.1772 H   0  0  0  0  0  0
  -26.0843  -25.9769   19.0170 H   0  0  0  0  0  0
  -23.9825  -27.2937   19.0302 H   0  0  0  0  0  0
  -23.6991  -30.5946   19.4009 H   0  0  0  0  0  0
  -22.7329  -29.2321   19.8765 H   0  0  0  0  0  0
  -25.1285  -36.1974   25.0834 H   0  0  0  0  0  0
  -20.9932  -28.3207   24.1448 H   0  0  0  0  0  0
  -20.5670  -26.2260   23.3600 H   0  0  0  0  0  0
  -21.6626  -26.7439   22.1193 H   0  0  0  0  0  0
  -19.6888  -25.6291   21.1237 H   0  0  0  0  0  0
  -19.6685  -27.3201   20.6766 H   0  0  0  0  0  0
  -17.4184  -26.6706   21.4013 H   0  0  0  0  0  0
  -18.0286  -26.0064   22.8999 H   0  0  0  0  0  0
  -19.7930  -30.7256   24.2285 H   0  0  0  0  0  0
  -17.5013  -31.6276   24.5148 H   0  0  0  0  0  0
  -15.5341  -30.2998   23.7664 H   0  0  0  0  0  0
  -15.8654  -28.0826   22.7081 H   0  0  0  0  0  0
  -24.5888  -30.7091   25.7779 H   0  0  0  0  0  0
  -24.8959  -32.2871   26.4935 H   0  0  0  0  0  0
  -25.8074  -30.8827   27.0205 H   0  0  0  0  0  0
  -26.2839  -29.6825   24.1128 H   0  0  0  0  0  0
  -27.4077  -29.7272   25.4526 H   0  0  0  0  0  0
  -27.8665  -30.4385   23.9224 H   0  0  0  0  0  0
  -27.2653  -33.3587   26.2113 H   0  0  0  0  0  0
  -28.3834  -32.6910   25.0316 H   0  0  0  0  0  0
  -28.0730  -31.8413   26.5382 H   0  0  0  0  0  0
  -28.2581  -38.0112   24.7516 H   0  0  0  0  0  0
  -28.1090  -36.2638   24.6268 H   0  0  0  0  0  0
  -27.2289  -37.1430   25.8863 H   0  0  0  0  0  0
  -20.9287  -29.8742   21.6957 H   0  0  0  0  0  0
  -26.0186  -38.2870   24.1421 H   0  0  0  0  0  0
  -26.9111  -19.2780   21.5600 H   0  0  0  0  0  0
  -30.9770  -18.0869   18.6993 H   0  0  0  0  0  0
  -29.4924  -17.1485   18.5990 H   0  0  0  0  0  0
  -31.0553  -16.3642   18.3900 H   0  0  0  0  0  0
  -29.2890  -22.9890   25.2100 H   0  0  0  0  0  0
  -29.2208  -21.2845   24.8050 H   0  0  0  0  0  0
  -27.7296  -22.2085   24.9712 H   0  0  0  0  0  0
  -27.5881  -24.2783   20.8379 H   0  0  0  0  0  0
  -29.3206  -24.1345   20.9588 H   0  0  0  0  0  0
  -27.2271  -24.0997   23.1664 H   0  0  0  0  0  0
  -28.8119  -24.6960   23.5499 H   0  0  0  0  0  0
  -29.6133  -26.3875   21.7308 H   0  0  0  0  0  0
  -27.9401  -26.5475   22.1815 H   0  0  0  0  0  0
  -31.6402  -16.8862   20.7715 H   0  0  0  0  0  0
  -29.8725  -22.6326   22.8250 H   0  0  0  0  0  0
  -32.6173  -18.3583   21.6213 H   0  0  0  0  0  0
  -32.5475  -19.9653   22.1844 H   0  0  0  0  0  0
  -27.0990  -21.5951   22.3394 H   0  0  0  0  0  0
  -29.0811  -15.4840   21.0797 H   0  0  0  0  0  0
  1 25  1  0  0  0
  1 30  2  0  0  0
  1 86  1  0  0  0
  2  3  1  0  0  0
  2 25  1  0  0  0
  2 87  1  0  0  0
  2 88  1  0  0  0
  3  4  1  0  0  0
  3 89  1  0  0  0
  3 90  1  0  0  0
  4  5  1  0  0  0
  4 91  1  0  0  0
  4 92  1  0  0  0
  5  6  1  0  0  0
  5 26  1  0  0  0
  5 93  1  0  0  0
  6 25  1  0  0  0
  6 94  1  0  0  0
  6 95  1  0  0  0
  7  8  2  0  0  0
  7 26  1  0  0  0
  7 29  1  0  0  0
  8  9  1  0  0  0
  8 22  1  0  0  0
  9 10  1  0  0  0
  9 27  2  0  0  0
 10 11  2  0  0  0
 10 15  1  0  0  0
 11 12  1  0  0  0
 11 96  1  0  0  0
 12 13  2  0  0  0
 12 97  1  0  0  0
 13 14  1  0  0  0
 13 31  1  0  0  0
 14 15  2  0  0  0
 14 98  1  0  0  0
 15 99  1  0  0  0
 16 17  2  0  0  0
 16 21  1  0  0  0
 16 31  1  0  0  0
 17 18  1  0  0  0
 17100  1  0  0  0
 18 19  2  0  0  0
 18101  1  0  0  0
 19 20  1  0  0  0
 19 24  1  0  0  0
 20 21  2  0  0  0
 20102  1  0  0  0
 21 23  1  0  0  0
 22 28  1  0  0  0
 22 32  2  0  0  0
 26 27  1  0  0  0
 28103  1  0  0  0
 28104  1  0  0  0
 29105  1  0  0  0
 29106  1  0  0  0
 33 34  1  0  0  0
 33 66  1  0  0  0
 33 70  2  0  0  0
 34 36  1  0  0  0
 34 59  1  0  0  0
 34107  1  0  0  0
 35 44  2  0  0  0
 35 45  1  0  0  0
 35 68  1  0  0  0
 36 56  1  0  0  0
 36108  1  0  0  0
 37 39  1  0  0  0
 37 47  1  0  0  0
 37 66  1  0  0  0
 37109  1  0  0  0
 38 43  2  0  0  0
 38 46  1  0  0  0
 38 47  1  0  0  0
 39 64  1  0  0  0
 39 67  2  0  0  0
 40 52  1  0  0  0
 40 53  2  0  0  0
 40 58  1  0  0  0
 41110  1  0  0  0
 41111  1  0  0  0
 41112  1  0  0  0
 41 48  1  0  0  0
 42 43  1  0  0  0
 42 66  1  0  0  0
 42113  1  0  0  0
 42114  1  0  0  0
 43 44  1  0  0  0
 44115  1  0  0  0
 45 46  2  0  0  0
 45116  1  0  0  0
 46117  1  0  0  0
 47118  1  0  0  0
 47119  1  0  0  0
 48 56  1  0  0  0
 48 65  1  0  0  0
 48120  1  0  0  0
 49 50  1  0  0  0
 49 53  1  0  0  0
 49 64  1  0  0  0
 49121  1  0  0  0
 50 51  1  0  0  0
 50122  1  0  0  0
 50123  1  0  0  0
 51 52  1  0  0  0
 51124  1  0  0  0
 51125  1  0  0  0
 52126  1  0  0  0
 52127  1  0  0  0
 53 54  1  0  0  0
 54 55  2  0  0  0
 54128  1  0  0  0
 55 57  1  0  0  0
 55129  1  0  0  0
 56 69  2  0  0  0
 57 58  2  0  0  0
 57130  1  0  0  0
 58131  1  0  0  0
 59 60  1  0  0  0
 59 61  1  0  0  0
 59 62  1  0  0  0
 60132  1  0  0  0
 60133  1  0  0  0
 60134  1  0  0  0
 61135  1  0  0  0
 61136  1  0  0  0
 61137  1  0  0  0
 62138  1  0  0  0
 62139  1  0  0  0
 62140  1  0  0  0
 63 65  1  0  0  0
 63141  1  0  0  0
 63142  1  0  0  0
 63143  1  0  0  0
 64144  1  0  0  0
 65145  1  0  0  0
 68 79  1  0  0  0
 71 73  2  0  0  0
 71 82  1  0  0  0
 71146  1  0  0  0
 72 74  1  0  0  0
 72 80  1  0  0  0
 72 82  2  0  0  0
 73 83  1  0  0  0
 73 85  1  0  0  0
 74 83  2  0  0  0
 74 84  1  0  0  0
 75147  1  0  0  0
 75148  1  0  0  0
 75149  1  0  0  0
 75 80  1  0  0  0
 76150  1  0  0  0
 76151  1  0  0  0
 76152  1  0  0  0
 76 81  1  0  0  0
 77 78  1  0  0  0
 77 79  1  0  0  0
 77153  1  0  0  0
 77154  1  0  0  0
 78 81  1  0  0  0
 78155  1  0  0  0
 78156  1  0  0  0
 79157  1  0  0  0
 79158  1  0  0  0
 80 86  1  0  0  0
 80159  1  0  0  0
 81 85  1  0  0  0
 81160  1  0  0  0
 84161  1  0  0  0
 84162  1  0  0  0
 85163  1  0  0  0
 86164  1  0  0  0
M  ISO  4   1 100  68 101  79 101  86 100
M  END
> <chiral flag>
0

> <version>
0

> <s_m_source_file>
/data/baiqing/PycharmProjects/Reinvent-master-3.2/result/LINK_invent/BTK/process_docking_weight1_custom_product_contain_oxygen_bond_distance_aromatic_linkinvent_7_9_3/rearranged_h_0197.sdf

> <i_m_source_file_index>
81

> <r_mmod_Potential_Energy-OPLS-2005>
-60.2424125671387

> <r_mmod_Stretch_Energy-OPLS-2005>
36.2211036682129

> <r_mmod_Bend_Energy-OPLS-2005>
107.471412658691

> <r_mmod_Torsional_Energy-OPLS-2005>
231.365478515625

> <r_mmod_Improper_Torsional_Energy-OPLS-2005>
10.7393398284912

> <r_mmod_Van_der_Waal_Energy-OPLS-2005>
164.286407470703

> <r_mmod_Electrostatic_Energy-OPLS-2005>
-406.360900878906

> <r_mmod_Solvation_Energy-OPLS-2005>
-220.958740234375

> <b_mmod_Minimization_Converged-OPLS-2005>
0

> <r_mmod_RMS_Derivative-OPLS-2005>
1.49882471561432

$$$$
81
                    3D
 Structure written by MMmdl.
160168  0  0  1  0            999 V2000
  -30.6957  -14.4591   20.5742 C   0  0  0  0  0  0
  -30.4322  -12.2975   19.4181 C   0  0  0  0  0  0
  -29.5019  -12.5041   18.2031 C   0  0  0  0  0  0
  -28.0198  -12.3750   18.6112 C   0  0  0  0  0  0
  -27.6682  -13.2026   19.8764 C   0  0  2  0  0  0
  -28.7084  -12.9631   20.9941 C   0  0  0  0  0  0
  -25.2640  -13.8144   20.5667 C   0  0  0  0  0  0
  -24.1875  -13.0435   20.9147 C   0  0  0  0  0  0
  -24.6418  -11.6898   20.8697 C   0  0  0  0  0  0
  -23.9068  -10.4291   21.0373 C   0  0  0  0  0  0
  -24.3622   -9.4211   21.9159 C   0  0  0  0  0  0
  -23.6293   -8.2254   22.0743 C   0  0  0  0  0  0
  -22.4273   -8.0290   21.3543 C   0  0  0  0  0  0
  -21.9903   -9.0252   20.4636 C   0  0  0  0  0  0
  -22.7229  -10.2131   20.3032 C   0  0  0  0  0  0
  -21.6858   -6.0735   22.5277 C   0  0  0  0  0  0
  -21.4013   -6.5636   23.8208 C   0  0  0  0  0  0
  -21.3656   -5.6788   24.9171 C   0  0  0  0  0  0
  -21.6051   -4.3052   24.7217 C   0  0  0  0  0  0
  -21.8824   -3.8142   23.4337 C   0  0  0  0  0  0
  -21.9196   -4.6963   22.3395 C   0  0  0  0  0  0
  -22.7899  -13.5231   21.1818 C   0  0  0  0  0  0
  -22.1667   -4.2153   21.0968 F   0  0  0  0  0  0
  -21.5632   -3.4533   25.7726 F   0  0  0  0  0  0
  -30.0454  -13.2696   20.4534 N   0  0  0  0  0  0
  -26.3074  -12.9306   20.3355 N   0  0  0  0  0  0
  -25.9341  -11.6474   20.5732 N   0  0  0  0  0  0
  -22.0543  -12.8231   22.0380 N   0  0  0  0  0  0
  -25.4402  -15.1863   20.4090 N   0  0  0  0  0  0
  -31.8136  -14.6591   20.0899 O   0  0  0  0  0  0
  -21.6646   -6.8881   21.4240 O   0  0  0  0  0  0
  -22.3572  -14.5530   20.6661 O   0  0  0  0  0  0
  -24.6144  -31.8666   23.2103 C   0  0  0  0  0  0
  -25.9047  -32.4811   23.8379 C   0  0  1  0  0  0
  -27.2404  -27.4346   20.0711 C   0  0  0  0  0  0
  -25.5913  -33.8610   24.2313 N   0  0  0  0  0  0
  -23.4016  -30.4897   21.5519 C   0  0  2  0  0  0
  -24.8454  -28.9519   20.1150 C   0  0  0  0  0  0
  -22.7400  -29.4653   22.5009 C   0  0  0  0  0  0
  -18.0265  -28.1374   22.8486 C   0  0  0  0  0  0
  -24.1491  -36.7309   23.2641 C   0  0  0  0  0  0
  -25.9308  -30.8263   21.3658 C   0  0  0  0  0  0
  -26.0042  -29.4601   20.7125 C   0  0  0  0  0  0
  -27.1984  -28.7030   20.6969 C   0  0  0  0  0  0
  -26.0556  -26.9355   19.4810 C   0  0  0  0  0  0
  -24.8648  -27.6865   19.5023 C   0  0  0  0  0  0
  -23.6079  -29.8195   20.1667 C   0  0  0  0  0  0
  -25.4117  -36.3110   24.0335 C   0  0  1  0  0  0
  -20.5849  -28.3658   23.1323 C   0  0  2  0  0  0
  -20.6756  -26.9394   22.5416 C   0  0  0  0  0  0
  -19.5743  -26.6387   21.5206 C   0  0  0  0  0  0
  -18.1919  -26.7923   22.1612 C   0  0  0  0  0  0
  -19.1512  -28.8833   23.2901 C   0  0  0  0  0  0
  -18.9440  -30.1441   23.8906 C   0  0  0  0  0  0
  -17.6443  -30.6579   24.0560 C   0  0  0  0  0  0
  -25.9040  -34.9474   23.5119 C   0  0  0  0  0  0
  -16.5335  -29.9078   23.6326 C   0  0  0  0  0  0
  -16.7252  -28.6498   23.0338 C   0  0  0  0  0  0
  -26.4470  -31.6602   25.0718 C   0  0  0  0  0  0
  -25.3747  -31.3695   26.1473 C   0  0  0  0  0  0
  -27.0301  -30.3045   24.6099 C   0  0  0  0  0  0
  -27.6043  -32.4328   25.7477 C   0  0  0  0  0  0
  -27.5582  -37.1818   24.8468 C   0  0  0  0  0  0
  -21.4129  -29.3029   22.3740 N   0  0  0  0  0  0
  -26.4301  -37.3795   23.9401 N   0  0  0  0  0  0
  -24.6672  -31.0758   22.1006 N   0  0  0  0  0  0
  -23.4171  -28.8194   23.3052 O   0  0  0  0  0  0
  -28.4361  -26.7393   20.0727 O   0  0  0  0  0  0
  -26.5591  -34.8926   22.4675 O   0  0  0  0  0  0
  -23.5342  -32.1420   23.7511 O   0  0  0  0  0  0
  -28.5338  -18.7325   20.8836 C   0  0  0  0  0  0
  -30.5252  -17.3539   19.6959 C   0  0  0  0  0  0
  -29.1999  -19.2595   19.7492 C   0  0  0  0  0  0
  -29.8070  -16.7785   20.7841 C   0  0  0  0  0  0
  -27.3305  -19.9662   18.2518 C   0  0  0  0  0  0
  -28.0589  -23.0615   17.5375 C   0  0  0  0  0  0
  -28.2957  -24.2462   19.8002 C   0  0  0  0  0  0
  -28.6366  -25.6306   19.1802 C   0  0  0  0  0  0
  -28.6392  -20.4369   18.9268 C   0  0  1  0  0  0
  -28.7130  -23.0077   18.9412 C   0  0  1  0  0  0
  -30.2194  -18.5703   19.1787 N   0  0  0  0  0  0
  -28.8366  -17.5101   21.3930 N   0  0  0  0  0  0
  -29.9986  -15.4265   21.1990 N   0  0  0  0  0  0
  -28.4652  -21.7185   19.6768 N   0  3  0  0  0  0
  -31.4769  -12.3989   19.1179 H   0  0  0  0  0  0
  -30.3346  -11.2815   19.8032 H   0  0  0  0  0  0
  -29.7367  -11.7815   17.4203 H   0  0  0  0  0  0
  -29.6797  -13.4881   17.7664 H   0  0  0  0  0  0
  -27.8188  -11.3185   18.7908 H   0  0  0  0  0  0
  -27.3746  -12.6704   17.7826 H   0  0  0  0  0  0
  -27.7178  -14.2545   19.5934 H   0  0  0  0  0  0
  -28.6821  -11.9212   21.3162 H   0  0  0  0  0  0
  -28.4651  -13.5446   21.8835 H   0  0  0  0  0  0
  -25.2782   -9.5696   22.4710 H   0  0  0  0  0  0
  -24.0017   -7.4643   22.7456 H   0  0  0  0  0  0
  -21.0839   -8.8762   19.8928 H   0  0  0  0  0  0
  -22.3692  -10.9666   19.6131 H   0  0  0  0  0  0
  -21.2009   -7.6145   23.9713 H   0  0  0  0  0  0
  -21.1472   -6.0515   25.9075 H   0  0  0  0  0  0
  -22.0609   -2.7606   23.2831 H   0  0  0  0  0  0
  -22.4162  -11.9901   22.4787 H   0  0  0  0  0  0
  -21.1152  -13.1251   22.2554 H   0  0  0  0  0  0
  -24.6827  -15.8496   20.5274 H   0  0  0  0  0  0
  -26.3069  -15.6226   20.1202 H   0  0  0  0  0  0
  -26.7114  -32.5511   23.1134 H   0  0  0  0  0  0
  -25.0092  -33.9764   25.0477 H   0  0  0  0  0  0
  -22.6921  -31.3080   21.4134 H   0  0  0  0  0  0
  -23.3749  -35.9645   23.3325 H   0  0  0  0  0  0
  -24.3589  -36.8901   22.2051 H   0  0  0  0  0  0
  -23.7245  -37.6524   23.6634 H   0  0  0  0  0  0
  -26.0483  -31.5928   20.5981 H   0  0  0  0  0  0
  -26.8168  -30.8761   21.9859 H   0  0  0  0  0  0
  -28.0945  -29.0949   21.1569 H   0  0  0  0  0  0
  -26.0272  -25.9677   19.0029 H   0  0  0  0  0  0
  -23.9718  -27.2844   19.0436 H   0  0  0  0  0  0
  -23.7170  -30.5937   19.4066 H   0  0  0  0  0  0
  -22.7300  -29.2414   19.8710 H   0  0  0  0  0  0
  -25.1300  -36.1976   25.0828 H   0  0  0  0  0  0
  -20.9934  -28.3219   24.1445 H   0  0  0  0  0  0
  -20.5670  -26.2256   23.3598 H   0  0  0  0  0  0
  -21.6626  -26.7456   22.1199 H   0  0  0  0  0  0
  -19.6909  -25.6304   21.1216 H   0  0  0  0  0  0
  -19.6684  -27.3209   20.6744 H   0  0  0  0  0  0
  -17.4191  -26.6667   21.4012 H   0  0  0  0  0  0
  -18.0326  -26.0060   22.9005 H   0  0  0  0  0  0
  -19.7915  -30.7253   24.2281 H   0  0  0  0  0  0
  -17.4996  -31.6263   24.5155 H   0  0  0  0  0  0
  -15.5333  -30.2977   23.7655 H   0  0  0  0  0  0
  -15.8652  -28.0826   22.7039 H   0  0  0  0  0  0
  -24.5914  -30.7048   25.7814 H   0  0  0  0  0  0
  -24.8941  -32.2839   26.4960 H   0  0  0  0  0  0
  -25.8117  -30.8839   27.0206 H   0  0  0  0  0  0
  -26.2834  -29.6814   24.1161 H   0  0  0  0  0  0
  -27.4075  -29.7286   25.4559 H   0  0  0  0  0  0
  -27.8669  -30.4368   23.9238 H   0  0  0  0  0  0
  -27.2649  -33.3611   26.2082 H   0  0  0  0  0  0
  -28.3823  -32.6922   25.0287 H   0  0  0  0  0  0
  -28.0735  -31.8441   26.5366 H   0  0  0  0  0  0
  -28.2614  -38.0103   24.7507 H   0  0  0  0  0  0
  -28.1062  -36.2635   24.6306 H   0  0  0  0  0  0
  -27.2295  -37.1485   25.8871 H   0  0  0  0  0  0
  -20.9301  -29.8743   21.6946 H   0  0  0  0  0  0
  -26.0193  -38.2873   24.1401 H   0  0  0  0  0  0
  -27.6916  -19.2449   21.3258 H   0  0  0  0  0  0
  -31.3088  -16.8304   19.1713 H   0  0  0  0  0  0
  -27.5023  -19.0486   17.6891 H   0  0  0  0  0  0
  -26.9171  -20.6869   17.5511 H   0  0  0  0  0  0
  -26.5573  -19.7501   18.9889 H   0  0  0  0  0  0
  -28.3219  -23.9742   17.0040 H   0  0  0  0  0  0
  -26.9713  -23.0178   17.5944 H   0  0  0  0  0  0
  -28.4019  -22.2575   16.8871 H   0  0  0  0  0  0
  -27.2281  -24.2000   20.0168 H   0  0  0  0  0  0
  -28.7996  -24.1849   20.7649 H   0  0  0  0  0  0
  -28.1177  -25.7991   18.2368 H   0  0  0  0  0  0
  -29.6971  -25.6402   18.9239 H   0  0  0  0  0  0
  -29.3775  -20.6258   18.1455 H   0  0  0  0  0  0
  -29.7917  -23.0650   18.7873 H   0  0  0  0  0  0
  -29.2472  -15.0705   21.7677 H   0  0  0  0  0  0
  -29.1258  -21.6957   20.4383 H   0  0  0  0  0  0
  -27.5443  -21.7291   20.0842 H   0  0  0  0  0  0
  1 25  1  0  0  0
  1 30  2  0  0  0
  1 83  1  0  0  0
  2  3  1  0  0  0
  2 25  1  0  0  0
  2 85  1  0  0  0
  2 86  1  0  0  0
  3  4  1  0  0  0
  3 87  1  0  0  0
  3 88  1  0  0  0
  4  5  1  0  0  0
  4 89  1  0  0  0
  4 90  1  0  0  0
  5  6  1  0  0  0
  5 26  1  0  0  0
  5 91  1  0  0  0
  6 25  1  0  0  0
  6 92  1  0  0  0
  6 93  1  0  0  0
  7  8  2  0  0  0
  7 26  1  0  0  0
  7 29  1  0  0  0
  8  9  1  0  0  0
  8 22  1  0  0  0
  9 10  1  0  0  0
  9 27  2  0  0  0
 10 11  2  0  0  0
 10 15  1  0  0  0
 11 12  1  0  0  0
 11 94  1  0  0  0
 12 13  2  0  0  0
 12 95  1  0  0  0
 13 14  1  0  0  0
 13 31  1  0  0  0
 14 15  2  0  0  0
 14 96  1  0  0  0
 15 97  1  0  0  0
 16 17  2  0  0  0
 16 21  1  0  0  0
 16 31  1  0  0  0
 17 18  1  0  0  0
 17 98  1  0  0  0
 18 19  2  0  0  0
 18 99  1  0  0  0
 19 20  1  0  0  0
 19 24  1  0  0  0
 20 21  2  0  0  0
 20100  1  0  0  0
 21 23  1  0  0  0
 22 28  1  0  0  0
 22 32  2  0  0  0
 26 27  1  0  0  0
 28101  1  0  0  0
 28102  1  0  0  0
 29103  1  0  0  0
 29104  1  0  0  0
 33 34  1  0  0  0
 33 66  1  0  0  0
 33 70  2  0  0  0
 34 36  1  0  0  0
 34 59  1  0  0  0
 34105  1  0  0  0
 35 44  2  0  0  0
 35 45  1  0  0  0
 35 68  1  0  0  0
 36 56  1  0  0  0
 36106  1  0  0  0
 37 39  1  0  0  0
 37 47  1  0  0  0
 37 66  1  0  0  0
 37107  1  0  0  0
 38 43  2  0  0  0
 38 46  1  0  0  0
 38 47  1  0  0  0
 39 64  1  0  0  0
 39 67  2  0  0  0
 40 52  1  0  0  0
 40 53  2  0  0  0
 40 58  1  0  0  0
 41108  1  0  0  0
 41109  1  0  0  0
 41110  1  0  0  0
 41 48  1  0  0  0
 42 43  1  0  0  0
 42 66  1  0  0  0
 42111  1  0  0  0
 42112  1  0  0  0
 43 44  1  0  0  0
 44113  1  0  0  0
 45 46  2  0  0  0
 45114  1  0  0  0
 46115  1  0  0  0
 47116  1  0  0  0
 47117  1  0  0  0
 48 56  1  0  0  0
 48 65  1  0  0  0
 48118  1  0  0  0
 49 50  1  0  0  0
 49 53  1  0  0  0
 49 64  1  0  0  0
 49119  1  0  0  0
 50 51  1  0  0  0
 50120  1  0  0  0
 50121  1  0  0  0
 51 52  1  0  0  0
 51122  1  0  0  0
 51123  1  0  0  0
 52124  1  0  0  0
 52125  1  0  0  0
 53 54  1  0  0  0
 54 55  2  0  0  0
 54126  1  0  0  0
 55 57  1  0  0  0
 55127  1  0  0  0
 56 69  2  0  0  0
 57 58  2  0  0  0
 57128  1  0  0  0
 58129  1  0  0  0
 59 60  1  0  0  0
 59 61  1  0  0  0
 59 62  1  0  0  0
 60130  1  0  0  0
 60131  1  0  0  0
 60132  1  0  0  0
 61133  1  0  0  0
 61134  1  0  0  0
 61135  1  0  0  0
 62136  1  0  0  0
 62137  1  0  0  0
 62138  1  0  0  0
 63 65  1  0  0  0
 63139  1  0  0  0
 63140  1  0  0  0
 63141  1  0  0  0
 64142  1  0  0  0
 65143  1  0  0  0
 68 78  1  0  0  0
 71 73  2  0  0  0
 71 82  1  0  0  0
 71144  1  0  0  0
 72 74  1  0  0  0
 72 81  2  0  0  0
 72145  1  0  0  0
 73 79  1  0  0  0
 73 81  1  0  0  0
 74 82  2  0  0  0
 74 83  1  0  0  0
 75146  1  0  0  0
 75147  1  0  0  0
 75148  1  0  0  0
 75 79  1  0  0  0
 76149  1  0  0  0
 76150  1  0  0  0
 76151  1  0  0  0
 76 80  1  0  0  0
 77 78  1  0  0  0
 77 80  1  0  0  0
 77152  1  0  0  0
 77153  1  0  0  0
 78154  1  0  0  0
 78155  1  0  0  0
 79 84  1  0  0  0
 79156  1  0  0  0
 80 84  1  0  0  0
 80157  1  0  0  0
 83158  1  0  0  0
 84159  1  0  0  0
 84160  1  0  0  0
M  CHG  1  84   1
M  ISO  4   1 100  68 101  78 101  83 100
M  END
> <chiral flag>
0

> <version>
0

> <s_m_source_file>
/data/baiqing/PycharmProjects/Reinvent-master-3.2/result/LINK_invent/BTK/process_docking_weight1_custom_product_contain_oxygen_bond_distance_aromatic_linkinvent_7_9_3/rearranged_h_0197.sdf

> <i_m_source_file_index>
82

> <r_mmod_Potential_Energy-OPLS-2005>
-190.432189941406

> <r_mmod_Stretch_Energy-OPLS-2005>
44.0151290893555

> <r_mmod_Bend_Energy-OPLS-2005>
117.14688873291

> <r_mmod_Torsional_Energy-OPLS-2005>
225.759536743164

> <r_mmod_Improper_Torsional_Energy-OPLS-2005>
6.12725210189819

> <r_mmod_Van_der_Waal_Energy-OPLS-2005>
163.403259277344

> <r_mmod_Electrostatic_Energy-OPLS-2005>
-274.709899902344

> <r_mmod_Solvation_Energy-OPLS-2005>
-483.629058837891

> <b_mmod_Minimization_Converged-OPLS-2005>
0

> <r_mmod_RMS_Derivative-OPLS-2005>
1.62512791156769

$$$$
82
                    3D
 Structure written by MMmdl.
155163  0  0  1  0            999 V2000
  -30.5985  -14.7886   20.3584 C   0  0  0  0  0  0
  -30.4256  -12.4700   19.4705 C   0  0  0  0  0  0
  -29.5021  -12.4996   18.2315 C   0  0  0  0  0  0
  -28.0218  -12.3376   18.6365 C   0  0  0  0  0  0
  -27.6295  -13.2428   19.8345 C   0  0  2  0  0  0
  -28.6785  -13.2115   20.9665 C   0  0  0  0  0  0
  -25.2437  -13.8257   20.5727 C   0  0  0  0  0  0
  -24.1766  -13.0471   20.9242 C   0  0  0  0  0  0
  -24.6429  -11.6951   20.8808 C   0  0  0  0  0  0
  -23.9103  -10.4312   21.0400 C   0  0  0  0  0  0
  -24.3644   -9.4226   21.9180 C   0  0  0  0  0  0
  -23.6357   -8.2235   22.0719 C   0  0  0  0  0  0
  -22.4309   -8.0293   21.3532 C   0  0  0  0  0  0
  -21.9939   -9.0257   20.4611 C   0  0  0  0  0  0
  -22.7252  -10.2158   20.3050 C   0  0  0  0  0  0
  -21.6843   -6.0762   22.5270 C   0  0  0  0  0  0
  -21.4010   -6.5653   23.8213 C   0  0  0  0  0  0
  -21.3676   -5.6795   24.9166 C   0  0  0  0  0  0
  -21.6036   -4.3059   24.7197 C   0  0  0  0  0  0
  -21.8825   -3.8165   23.4324 C   0  0  0  0  0  0
  -21.9201   -4.6991   22.3396 C   0  0  0  0  0  0
  -22.7770  -13.5216   21.1910 C   0  0  0  0  0  0
  -22.1655   -4.2191   21.0966 F   0  0  0  0  0  0
  -21.5648   -3.4545   25.7710 F   0  0  0  0  0  0
  -29.9742  -13.5576   20.3694 N   0  0  0  0  0  0
  -26.2886  -12.9492   20.3251 N   0  0  0  0  0  0
  -25.9364  -11.6618   20.5795 N   0  0  0  0  0  0
  -22.0448  -12.8194   22.0456 N   0  0  0  0  0  0
  -25.4155  -15.1997   20.4113 N   0  0  0  0  0  0
  -31.8161  -14.8182   20.1455 O   0  0  0  0  0  0
  -21.6651   -6.8915   21.4232 O   0  0  0  0  0  0
  -22.3440  -14.5531   20.6756 O   0  0  0  0  0  0
  -24.6361  -31.8538   23.1936 C   0  0  0  0  0  0
  -25.9174  -32.4725   23.8307 C   0  0  1  0  0  0
  -27.2129  -27.2311   20.1278 C   0  0  0  0  0  0
  -25.5948  -33.8533   24.2228 N   0  0  0  0  0  0
  -23.4305  -30.4743   21.5374 C   0  0  2  0  0  0
  -24.8774  -28.9093   20.1149 C   0  0  0  0  0  0
  -22.7495  -29.4622   22.4900 C   0  0  0  0  0  0
  -18.0291  -28.1379   22.8470 C   0  0  0  0  0  0
  -24.1492  -36.7263   23.2639 C   0  0  0  0  0  0
  -25.9795  -30.7518   21.3778 C   0  0  0  0  0  0
  -26.0541  -29.3735   20.7170 C   0  0  0  0  0  0
  -27.2292  -28.5513   20.7057 C   0  0  0  0  0  0
  -26.0139  -26.8335   19.5033 C   0  0  0  0  0  0
  -24.8658  -27.6513   19.4914 C   0  0  0  0  0  0
  -23.6513  -29.8038   20.1572 C   0  0  0  0  0  0
  -25.4112  -36.3039   24.0312 C   0  0  1  0  0  0
  -20.5890  -28.3717   23.1251 C   0  0  2  0  0  0
  -20.6786  -26.9431   22.5419 C   0  0  0  0  0  0
  -19.5778  -26.6370   21.5216 C   0  0  0  0  0  0
  -18.1946  -26.7912   22.1610 C   0  0  0  0  0  0
  -19.1537  -28.8862   23.2860 C   0  0  0  0  0  0
  -18.9466  -30.1458   23.8889 C   0  0  0  0  0  0
  -17.6469  -30.6592   24.0553 C   0  0  0  0  0  0
  -25.9070  -34.9403   23.5069 C   0  0  0  0  0  0
  -16.5360  -29.9083   23.6334 C   0  0  0  0  0  0
  -16.7274  -28.6492   23.0360 C   0  0  0  0  0  0
  -26.4522  -31.6554   25.0712 C   0  0  0  0  0  0
  -25.3731  -31.3745   26.1434 C   0  0  0  0  0  0
  -27.0359  -30.2939   24.6235 C   0  0  0  0  0  0
  -27.6048  -32.4327   25.7483 C   0  0  0  0  0  0
  -27.5589  -37.1777   24.8457 C   0  0  0  0  0  0
  -21.4198  -29.3054   22.3625 N   0  0  0  0  0  0
  -26.4284  -37.3753   23.9413 N   0  0  0  0  0  0
  -24.7000  -31.0463   22.0916 N   0  0  0  0  0  0
  -23.4180  -28.8171   23.3034 O   0  0  0  0  0  0
  -28.2944  -26.3167   20.1267 O   0  0  0  0  0  0
  -26.5641  -34.8908   22.4649 O   0  0  0  0  0  0
  -23.5498  -32.1358   23.7237 O   0  0  0  0  0  0
  -31.1409  -18.7700   18.6667 C   0  0  0  0  0  0
  -30.0252  -17.3143   19.9657 C   0  0  0  0  0  0
  -29.4615  -19.5723   19.8715 C   0  0  0  0  0  0
  -32.2470  -19.0380   17.6714 C   0  0  0  0  0  0
  -30.5027  -22.3040   20.8941 C   0  0  0  0  0  0
  -28.4294  -23.4906   19.8013 C   0  0  0  0  0  0
  -28.1068  -24.8887   20.6190 C   0  0  0  0  0  0
  -28.9985  -22.1557   20.5977 C   0  0  1  0  0  0
  -31.0040  -17.5152   19.0872 N   0  0  0  0  0  0
  -30.4166  -19.8272   19.0044 N   0  0  0  0  0  0
  -29.1900  -18.3263   20.3712 N   0  0  0  0  0  0
  -29.8138  -15.9475   20.3964 N   0  0  0  0  0  0
  -28.6470  -20.7069   20.2097 N   0  0  0  0  0  0
  -31.4644  -12.6026   19.1562 H   0  0  0  0  0  0
  -30.3858  -11.5124   19.9876 H   0  0  0  0  0  0
  -29.7964  -11.7100   17.5386 H   0  0  0  0  0  0
  -29.6293  -13.4430   17.6973 H   0  0  0  0  0  0
  -27.8613  -11.2924   18.8972 H   0  0  0  0  0  0
  -27.3710  -12.5420   17.7848 H   0  0  0  0  0  0
  -27.6082  -14.2594   19.4432 H   0  0  0  0  0  0
  -28.7226  -12.2269   21.4318 H   0  0  0  0  0  0
  -28.4163  -13.9189   21.7570 H   0  0  0  0  0  0
  -25.2809   -9.5724   22.4734 H   0  0  0  0  0  0
  -24.0093   -7.4616   22.7437 H   0  0  0  0  0  0
  -21.0859   -8.8805   19.8928 H   0  0  0  0  0  0
  -22.3734  -10.9708   19.6162 H   0  0  0  0  0  0
  -21.1988   -7.6159   23.9751 H   0  0  0  0  0  0
  -21.1479   -6.0495   25.9083 H   0  0  0  0  0  0
  -22.0598   -2.7634   23.2786 H   0  0  0  0  0  0
  -22.4070  -11.9888   22.4881 H   0  0  0  0  0  0
  -21.1064  -13.1191   22.2671 H   0  0  0  0  0  0
  -24.6544  -15.8613   20.5324 H   0  0  0  0  0  0
  -26.2663  -15.6337   20.0742 H   0  0  0  0  0  0
  -26.7225  -32.5355   23.1029 H   0  0  0  0  0  0
  -25.0077  -33.9654   25.0354 H   0  0  0  0  0  0
  -22.7305  -31.2985   21.3886 H   0  0  0  0  0  0
  -23.3762  -35.9607   23.3268 H   0  0  0  0  0  0
  -24.3584  -36.8928   22.2075 H   0  0  0  0  0  0
  -23.7252  -37.6446   23.6682 H   0  0  0  0  0  0
  -26.1311  -31.5187   20.6176 H   0  0  0  0  0  0
  -26.8513  -30.7935   22.0180 H   0  0  0  0  0  0
  -28.1345  -28.9120   21.1728 H   0  0  0  0  0  0
  -25.9682  -25.8706   19.0117 H   0  0  0  0  0  0
  -23.9687  -27.2859   19.0137 H   0  0  0  0  0  0
  -23.7882  -30.5790   19.4040 H   0  0  0  0  0  0
  -22.7654  -29.2478   19.8466 H   0  0  0  0  0  0
  -25.1307  -36.1853   25.0808 H   0  0  0  0  0  0
  -20.9982  -28.3309   24.1368 H   0  0  0  0  0  0
  -20.5655  -26.2346   23.3629 H   0  0  0  0  0  0
  -21.6653  -26.7439   22.1228 H   0  0  0  0  0  0
  -19.6941  -25.6269   21.1271 H   0  0  0  0  0  0
  -19.6702  -27.3150   20.6713 H   0  0  0  0  0  0
  -17.4213  -26.6654   21.4007 H   0  0  0  0  0  0
  -18.0345  -26.0044   22.9005 H   0  0  0  0  0  0
  -19.7955  -30.7263   24.2237 H   0  0  0  0  0  0
  -17.5039  -31.6262   24.5165 H   0  0  0  0  0  0
  -15.5358  -30.3000   23.7645 H   0  0  0  0  0  0
  -15.8665  -28.0804   22.7096 H   0  0  0  0  0  0
  -24.5867  -30.7119   25.7782 H   0  0  0  0  0  0
  -24.8975  -32.2947   26.4847 H   0  0  0  0  0  0
  -25.8060  -30.8924   27.0212 H   0  0  0  0  0  0
  -26.2947  -29.6673   24.1247 H   0  0  0  0  0  0
  -27.3985  -29.7216   25.4789 H   0  0  0  0  0  0
  -27.8863  -30.4167   23.9517 H   0  0  0  0  0  0
  -27.2595  -33.3621   26.2026 H   0  0  0  0  0  0
  -28.3861  -32.6907   25.0319 H   0  0  0  0  0  0
  -28.0693  -31.8479   26.5428 H   0  0  0  0  0  0
  -28.2566  -38.0119   24.7533 H   0  0  0  0  0  0
  -28.1110  -36.2629   24.6208 H   0  0  0  0  0  0
  -27.2302  -37.1359   25.8865 H   0  0  0  0  0  0
  -20.9379  -29.8770   21.6818 H   0  0  0  0  0  0
  -26.0129  -38.2812   24.1453 H   0  0  0  0  0  0
  -32.7826  -18.1388   17.3722 H   0  0  0  0  0  0
  -32.9743  -19.7360   18.0934 H   0  0  0  0  0  0
  -31.8270  -19.4872   16.7687 H   0  0  0  0  0  0
  -30.7082  -23.2255   21.4433 H   0  0  0  0  0  0
  -31.0920  -22.3365   19.9781 H   0  0  0  0  0  0
  -30.8709  -21.4778   21.5005 H   0  0  0  0  0  0
  -29.1356  -23.7422   19.0103 H   0  0  0  0  0  0
  -27.5203  -23.2230   19.2659 H   0  0  0  0  0  0
  -28.7040  -24.8383   21.5296 H   0  0  0  0  0  0
  -27.0850  -24.7957   20.9919 H   0  0  0  0  0  0
  -28.5128  -22.2161   21.5707 H   0  0  0  0  0  0
  -28.8627  -15.7753   20.6675 H   0  0  0  0  0  0
  -27.8816  -20.3737   20.7857 H   0  0  0  0  0  0
  1 25  1  0  0  0
  1 30  2  0  0  0
  1 82  1  0  0  0
  2  3  1  0  0  0
  2 25  1  0  0  0
  2 84  1  0  0  0
  2 85  1  0  0  0
  3  4  1  0  0  0
  3 86  1  0  0  0
  3 87  1  0  0  0
  4  5  1  0  0  0
  4 88  1  0  0  0
  4 89  1  0  0  0
  5  6  1  0  0  0
  5 26  1  0  0  0
  5 90  1  0  0  0
  6 25  1  0  0  0
  6 91  1  0  0  0
  6 92  1  0  0  0
  7  8  2  0  0  0
  7 26  1  0  0  0
  7 29  1  0  0  0
  8  9  1  0  0  0
  8 22  1  0  0  0
  9 10  1  0  0  0
  9 27  2  0  0  0
 10 11  2  0  0  0
 10 15  1  0  0  0
 11 12  1  0  0  0
 11 93  1  0  0  0
 12 13  2  0  0  0
 12 94  1  0  0  0
 13 14  1  0  0  0
 13 31  1  0  0  0
 14 15  2  0  0  0
 14 95  1  0  0  0
 15 96  1  0  0  0
 16 17  2  0  0  0
 16 21  1  0  0  0
 16 31  1  0  0  0
 17 18  1  0  0  0
 17 97  1  0  0  0
 18 19  2  0  0  0
 18 98  1  0  0  0
 19 20  1  0  0  0
 19 24  1  0  0  0
 20 21  2  0  0  0
 20 99  1  0  0  0
 21 23  1  0  0  0
 22 28  1  0  0  0
 22 32  2  0  0  0
 26 27  1  0  0  0
 28100  1  0  0  0
 28101  1  0  0  0
 29102  1  0  0  0
 29103  1  0  0  0
 33 34  1  0  0  0
 33 66  1  0  0  0
 33 70  2  0  0  0
 34 36  1  0  0  0
 34 59  1  0  0  0
 34104  1  0  0  0
 35 44  2  0  0  0
 35 45  1  0  0  0
 35 68  1  0  0  0
 36 56  1  0  0  0
 36105  1  0  0  0
 37 39  1  0  0  0
 37 47  1  0  0  0
 37 66  1  0  0  0
 37106  1  0  0  0
 38 43  2  0  0  0
 38 46  1  0  0  0
 38 47  1  0  0  0
 39 64  1  0  0  0
 39 67  2  0  0  0
 40 52  1  0  0  0
 40 53  2  0  0  0
 40 58  1  0  0  0
 41107  1  0  0  0
 41108  1  0  0  0
 41109  1  0  0  0
 41 48  1  0  0  0
 42 43  1  0  0  0
 42 66  1  0  0  0
 42110  1  0  0  0
 42111  1  0  0  0
 43 44  1  0  0  0
 44112  1  0  0  0
 45 46  2  0  0  0
 45113  1  0  0  0
 46114  1  0  0  0
 47115  1  0  0  0
 47116  1  0  0  0
 48 56  1  0  0  0
 48 65  1  0  0  0
 48117  1  0  0  0
 49 50  1  0  0  0
 49 53  1  0  0  0
 49 64  1  0  0  0
 49118  1  0  0  0
 50 51  1  0  0  0
 50119  1  0  0  0
 50120  1  0  0  0
 51 52  1  0  0  0
 51121  1  0  0  0
 51122  1  0  0  0
 52123  1  0  0  0
 52124  1  0  0  0
 53 54  1  0  0  0
 54 55  2  0  0  0
 54125  1  0  0  0
 55 57  1  0  0  0
 55126  1  0  0  0
 56 69  2  0  0  0
 57 58  2  0  0  0
 57127  1  0  0  0
 58128  1  0  0  0
 59 60  1  0  0  0
 59 61  1  0  0  0
 59 62  1  0  0  0
 60129  1  0  0  0
 60130  1  0  0  0
 60131  1  0  0  0
 61132  1  0  0  0
 61133  1  0  0  0
 61134  1  0  0  0
 62135  1  0  0  0
 62136  1  0  0  0
 62137  1  0  0  0
 63 65  1  0  0  0
 63138  1  0  0  0
 63139  1  0  0  0
 63140  1  0  0  0
 64141  1  0  0  0
 65142  1  0  0  0
 68 77  1  0  0  0
 71 74  1  0  0  0
 71 79  2  0  0  0
 71 80  1  0  0  0
 72 79  1  0  0  0
 72 81  2  0  0  0
 72 82  1  0  0  0
 73 80  2  0  0  0
 73 81  1  0  0  0
 73 83  1  0  0  0
 74143  1  0  0  0
 74144  1  0  0  0
 74145  1  0  0  0
 75146  1  0  0  0
 75147  1  0  0  0
 75148  1  0  0  0
 75 78  1  0  0  0
 76 77  1  0  0  0
 76 78  1  0  0  0
 76149  1  0  0  0
 76150  1  0  0  0
 77151  1  0  0  0
 77152  1  0  0  0
 78 83  1  0  0  0
 78153  1  0  0  0
 82154  1  0  0  0
 83155  1  0  0  0
M  ISO  4   1 100  68 101  77 101  82 100
M  END
> <chiral flag>
0

> <version>
0

> <s_m_source_file>
/data/baiqing/PycharmProjects/Reinvent-master-3.2/result/LINK_invent/BTK/process_docking_weight1_custom_product_contain_oxygen_bond_distance_aromatic_linkinvent_7_9_3/rearranged_h_0197.sdf

> <i_m_source_file_index>
83

> <r_mmod_Potential_Energy-OPLS-2005>
-432.374298095703

> <r_mmod_Stretch_Energy-OPLS-2005>
149.024719238281

> <r_mmod_Bend_Energy-OPLS-2005>
205.372100830078

> <r_mmod_Torsional_Energy-OPLS-2005>
249.31396484375

> <r_mmod_Improper_Torsional_Energy-OPLS-2005>
8.15523815155029

> <r_mmod_Van_der_Waal_Energy-OPLS-2005>
153.365173339844

> <r_mmod_Electrostatic_Energy-OPLS-2005>
-1057.79650878906

> <r_mmod_Solvation_Energy-OPLS-2005>
-247.817352294922

> <b_mmod_Minimization_Converged-OPLS-2005>
0

> <r_mmod_RMS_Derivative-OPLS-2005>
8.40458869934082

$$$$
83
                    3D
 Structure written by MMmdl.
148156  0  0  1  0            999 V2000
  -30.6221  -14.7353   20.4524 C   0  0  0  0  0  0
  -30.4275  -12.4451   19.4830 C   0  0  0  0  0  0
  -29.5114  -12.5061   18.2414 C   0  0  0  0  0  0
  -28.0369  -12.3317   18.6522 C   0  0  0  0  0  0
  -27.6420  -13.2334   19.8527 C   0  0  2  0  0  0
  -28.6842  -13.1714   20.9913 C   0  0  0  0  0  0
  -25.2506  -13.8203   20.5707 C   0  0  0  0  0  0
  -24.1798  -13.0444   20.9210 C   0  0  0  0  0  0
  -24.6391  -11.6926   20.8747 C   0  0  0  0  0  0
  -23.9073  -10.4297   21.0402 C   0  0  0  0  0  0
  -24.3623   -9.4212   21.9177 C   0  0  0  0  0  0
  -23.6298   -8.2245   22.0749 C   0  0  0  0  0  0
  -22.4279   -8.0279   21.3541 C   0  0  0  0  0  0
  -21.9915   -9.0253   20.4643 C   0  0  0  0  0  0
  -22.7244  -10.2133   20.3052 C   0  0  0  0  0  0
  -21.6856   -6.0734   22.5281 C   0  0  0  0  0  0
  -21.4014   -6.5640   23.8212 C   0  0  0  0  0  0
  -21.3660   -5.6790   24.9176 C   0  0  0  0  0  0
  -21.6044   -4.3052   24.7225 C   0  0  0  0  0  0
  -21.8820   -3.8148   23.4344 C   0  0  0  0  0  0
  -21.9192   -4.6963   22.3403 C   0  0  0  0  0  0
  -22.7822  -13.5222   21.1867 C   0  0  0  0  0  0
  -22.1665   -4.2151   21.0978 F   0  0  0  0  0  0
  -21.5628   -3.4535   25.7736 F   0  0  0  0  0  0
  -29.9893  -13.5124   20.4133 N   0  0  0  0  0  0
  -26.2937  -12.9414   20.3290 N   0  0  0  0  0  0
  -25.9323  -11.6555   20.5758 N   0  0  0  0  0  0
  -22.0468  -12.8213   22.0424 N   0  0  0  0  0  0
  -25.4179  -15.1929   20.4125 N   0  0  0  0  0  0
  -31.8053  -14.8185   20.1124 O   0  0  0  0  0  0
  -21.6642   -6.8878   21.4242 O   0  0  0  0  0  0
  -22.3510  -14.5524   20.6705 O   0  0  0  0  0  0
  -24.6310  -31.8554   23.1984 C   0  0  0  0  0  0
  -25.9133  -32.4754   23.8334 C   0  0  1  0  0  0
  -27.2169  -27.2578   20.1275 C   0  0  0  0  0  0
  -25.5924  -33.8559   24.2254 N   0  0  0  0  0  0
  -23.4282  -30.4787   21.5418 C   0  0  2  0  0  0
  -24.8747  -28.9278   20.1073 C   0  0  0  0  0  0
  -22.7502  -29.4607   22.4908 C   0  0  0  0  0  0
  -18.0288  -28.1393   22.8487 C   0  0  0  0  0  0
  -24.1488  -36.7283   23.2643 C   0  0  0  0  0  0
  -25.9752  -30.7660   21.3810 C   0  0  0  0  0  0
  -26.0457  -29.3890   20.7217 C   0  0  0  0  0  0
  -27.2176  -28.5650   20.7240 C   0  0  0  0  0  0
  -26.0266  -26.8759   19.4666 C   0  0  0  0  0  0
  -24.8708  -27.6794   19.4690 C   0  0  0  0  0  0
  -23.6460  -29.8151   20.1570 C   0  0  0  0  0  0
  -25.4118  -36.3072   24.0327 C   0  0  1  0  0  0
  -20.5895  -28.3705   23.1265 C   0  0  2  0  0  0
  -20.6784  -26.9421   22.5405 C   0  0  0  0  0  0
  -19.5757  -26.6388   21.5212 C   0  0  0  0  0  0
  -18.1937  -26.7935   22.1625 C   0  0  0  0  0  0
  -19.1543  -28.8864   23.2873 C   0  0  0  0  0  0
  -18.9467  -30.1465   23.8891 C   0  0  0  0  0  0
  -17.6467  -30.6596   24.0562 C   0  0  0  0  0  0
  -25.9057  -34.9441   23.5096 C   0  0  0  0  0  0
  -16.5357  -29.9093   23.6334 C   0  0  0  0  0  0
  -16.7274  -28.6510   23.0357 C   0  0  0  0  0  0
  -26.4501  -31.6584   25.0725 C   0  0  0  0  0  0
  -25.3714  -31.3741   26.1436 C   0  0  0  0  0  0
  -27.0358  -30.2999   24.6228 C   0  0  0  0  0  0
  -27.6057  -32.4329   25.7494 C   0  0  0  0  0  0
  -27.5580  -37.1800   24.8467 C   0  0  0  0  0  0
  -21.4207  -29.3051   22.3654 N   0  0  0  0  0  0
  -26.4294  -37.3770   23.9409 N   0  0  0  0  0  0
  -24.6971  -31.0518   22.0960 N   0  0  0  0  0  0
  -23.4198  -28.8148   23.3010 O   0  0  0  0  0  0
  -28.3062  -26.3551   20.2118 O   0  0  0  0  0  0
  -26.5637  -34.8920   22.4668 O   0  0  0  0  0  0
  -23.5459  -32.1379   23.7275 O   0  0  0  0  0  0
  -29.0798  -18.8401   21.9158 C   0  0  0  0  0  0
  -29.6014  -18.6185   20.6633 C   0  0  0  0  0  0
  -29.1258  -20.9713   20.5788 C   0  0  0  0  0  0
  -30.2338  -17.2787   20.1104 C   0  0  0  0  0  0
  -29.0310  -23.7429   20.6083 C   0  0  0  0  0  0
  -28.1053  -24.8865   19.9305 C   0  0  0  0  0  0
  -29.5837  -19.8604   19.9216 N   0  0  0  0  0  0
  -29.0193  -22.3198   20.0690 N   0  0  0  0  0  0
  -29.8686  -15.8861   20.6224 N   0  0  0  0  0  0
  -28.6384  -20.5274   22.2133 S   0  0  0  0  0  0
  -31.4711  -12.5550   19.1839 H   0  0  0  0  0  0
  -30.3593  -11.4687   19.9659 H   0  0  0  0  0  0
  -29.7957  -11.7353   17.5234 H   0  0  0  0  0  0
  -29.6423  -13.4629   17.7332 H   0  0  0  0  0  0
  -27.8937  -11.2835   18.9161 H   0  0  0  0  0  0
  -27.3808  -12.5230   17.8022 H   0  0  0  0  0  0
  -27.6364  -14.2543   19.4703 H   0  0  0  0  0  0
  -28.7136  -12.1771   21.4397 H   0  0  0  0  0  0
  -28.4217  -13.8614   21.7942 H   0  0  0  0  0  0
  -25.2765   -9.5690   22.4754 H   0  0  0  0  0  0
  -24.0009   -7.4638   22.7468 H   0  0  0  0  0  0
  -21.0844   -8.8769   19.8950 H   0  0  0  0  0  0
  -22.3696  -10.9670   19.6163 H   0  0  0  0  0  0
  -21.2007   -7.6146   23.9720 H   0  0  0  0  0  0
  -21.1483   -6.0518   25.9079 H   0  0  0  0  0  0
  -22.0597   -2.7609   23.2843 H   0  0  0  0  0  0
  -22.4092  -11.9884   22.4825 H   0  0  0  0  0  0
  -21.1081  -13.1232   22.2613 H   0  0  0  0  0  0
  -24.6461  -15.8424   20.5186 H   0  0  0  0  0  0
  -26.2604  -15.6355   20.0693 H   0  0  0  0  0  0
  -26.7205  -32.5405   23.1082 H   0  0  0  0  0  0
  -25.0062  -33.9702   25.0392 H   0  0  0  0  0  0
  -22.7250  -31.3016   21.3972 H   0  0  0  0  0  0
  -23.3755  -35.9609   23.3300 H   0  0  0  0  0  0
  -24.3584  -36.8903   22.2058 H   0  0  0  0  0  0
  -23.7234  -37.6480   23.6668 H   0  0  0  0  0  0
  -26.1185  -31.5276   20.6131 H   0  0  0  0  0  0
  -26.8516  -30.8118   22.0157 H   0  0  0  0  0  0
  -28.1100  -28.9094   21.2276 H   0  0  0  0  0  0
  -25.9547  -25.9309   18.9496 H   0  0  0  0  0  0
  -23.9774  -27.3246   18.9737 H   0  0  0  0  0  0
  -23.7695  -30.5924   19.4018 H   0  0  0  0  0  0
  -22.7637  -29.2488   19.8528 H   0  0  0  0  0  0
  -25.1303  -36.1919   25.0820 H   0  0  0  0  0  0
  -20.9993  -28.3284   24.1382 H   0  0  0  0  0  0
  -20.5690  -26.2316   23.3615 H   0  0  0  0  0  0
  -21.6655  -26.7455   22.1194 H   0  0  0  0  0  0
  -19.6921  -25.6295   21.1249 H   0  0  0  0  0  0
  -19.6690  -27.3199   20.6740 H   0  0  0  0  0  0
  -17.4208  -26.6673   21.4024 H   0  0  0  0  0  0
  -18.0334  -26.0085   22.9027 H   0  0  0  0  0  0
  -19.7942  -30.7281   24.2261 H   0  0  0  0  0  0
  -17.5021  -31.6274   24.5168 H   0  0  0  0  0  0
  -15.5357  -30.2996   23.7664 H   0  0  0  0  0  0
  -15.8671  -28.0826   22.7081 H   0  0  0  0  0  0
  -24.5884  -30.7101   25.7755 H   0  0  0  0  0  0
  -24.8915  -32.2916   26.4853 H   0  0  0  0  0  0
  -25.8012  -30.8912   27.0220 H   0  0  0  0  0  0
  -26.2951  -29.6732   24.1244 H   0  0  0  0  0  0
  -27.4029  -29.7275   25.4759 H   0  0  0  0  0  0
  -27.8832  -30.4277   23.9488 H   0  0  0  0  0  0
  -27.2671  -33.3642   26.2050 H   0  0  0  0  0  0
  -28.3873  -32.6864   25.0317 H   0  0  0  0  0  0
  -28.0719  -31.8463   26.5421 H   0  0  0  0  0  0
  -28.2604  -38.0093   24.7522 H   0  0  0  0  0  0
  -28.1072  -36.2628   24.6288 H   0  0  0  0  0  0
  -27.2302  -37.1440   25.8871 H   0  0  0  0  0  0
  -20.9389  -29.8760   21.6849 H   0  0  0  0  0  0
  -26.0169  -38.2842   24.1402 H   0  0  0  0  0  0
  -28.9681  -18.1148   22.7106 H   0  0  0  0  0  0
  -31.3165  -17.3739   20.2050 H   0  0  0  0  0  0
  -30.0644  -17.2441   19.0337 H   0  0  0  0  0  0
  -28.8142  -23.7049   21.6765 H   0  0  0  0  0  0
  -30.0654  -24.0818   20.5379 H   0  0  0  0  0  0
  -27.0878  -24.6089   20.2070 H   0  0  0  0  0  0
  -28.1655  -24.7756   18.8473 H   0  0  0  0  0  0
  -29.1894  -22.3220   19.0677 H   0  0  0  0  0  0
  -28.9080  -15.7569   20.8997 H   0  0  0  0  0  0
  1 25  1  0  0  0
  1 30  2  0  0  0
  1 79  1  0  0  0
  2  3  1  0  0  0
  2 25  1  0  0  0
  2 81  1  0  0  0
  2 82  1  0  0  0
  3  4  1  0  0  0
  3 83  1  0  0  0
  3 84  1  0  0  0
  4  5  1  0  0  0
  4 85  1  0  0  0
  4 86  1  0  0  0
  5  6  1  0  0  0
  5 26  1  0  0  0
  5 87  1  0  0  0
  6 25  1  0  0  0
  6 88  1  0  0  0
  6 89  1  0  0  0
  7  8  2  0  0  0
  7 26  1  0  0  0
  7 29  1  0  0  0
  8  9  1  0  0  0
  8 22  1  0  0  0
  9 10  1  0  0  0
  9 27  2  0  0  0
 10 11  2  0  0  0
 10 15  1  0  0  0
 11 12  1  0  0  0
 11 90  1  0  0  0
 12 13  2  0  0  0
 12 91  1  0  0  0
 13 14  1  0  0  0
 13 31  1  0  0  0
 14 15  2  0  0  0
 14 92  1  0  0  0
 15 93  1  0  0  0
 16 17  2  0  0  0
 16 21  1  0  0  0
 16 31  1  0  0  0
 17 18  1  0  0  0
 17 94  1  0  0  0
 18 19  2  0  0  0
 18 95  1  0  0  0
 19 20  1  0  0  0
 19 24  1  0  0  0
 20 21  2  0  0  0
 20 96  1  0  0  0
 21 23  1  0  0  0
 22 28  1  0  0  0
 22 32  2  0  0  0
 26 27  1  0  0  0
 28 97  1  0  0  0
 28 98  1  0  0  0
 29 99  1  0  0  0
 29100  1  0  0  0
 33 34  1  0  0  0
 33 66  1  0  0  0
 33 70  2  0  0  0
 34 36  1  0  0  0
 34 59  1  0  0  0
 34101  1  0  0  0
 35 44  2  0  0  0
 35 45  1  0  0  0
 35 68  1  0  0  0
 36 56  1  0  0  0
 36102  1  0  0  0
 37 39  1  0  0  0
 37 47  1  0  0  0
 37 66  1  0  0  0
 37103  1  0  0  0
 38 43  2  0  0  0
 38 46  1  0  0  0
 38 47  1  0  0  0
 39 64  1  0  0  0
 39 67  2  0  0  0
 40 52  1  0  0  0
 40 53  2  0  0  0
 40 58  1  0  0  0
 41104  1  0  0  0
 41105  1  0  0  0
 41106  1  0  0  0
 41 48  1  0  0  0
 42 43  1  0  0  0
 42 66  1  0  0  0
 42107  1  0  0  0
 42108  1  0  0  0
 43 44  1  0  0  0
 44109  1  0  0  0
 45 46  2  0  0  0
 45110  1  0  0  0
 46111  1  0  0  0
 47112  1  0  0  0
 47113  1  0  0  0
 48 56  1  0  0  0
 48 65  1  0  0  0
 48114  1  0  0  0
 49 50  1  0  0  0
 49 53  1  0  0  0
 49 64  1  0  0  0
 49115  1  0  0  0
 50 51  1  0  0  0
 50116  1  0  0  0
 50117  1  0  0  0
 51 52  1  0  0  0
 51118  1  0  0  0
 51119  1  0  0  0
 52120  1  0  0  0
 52121  1  0  0  0
 53 54  1  0  0  0
 54 55  2  0  0  0
 54122  1  0  0  0
 55 57  1  0  0  0
 55123  1  0  0  0
 56 69  2  0  0  0
 57 58  2  0  0  0
 57124  1  0  0  0
 58125  1  0  0  0
 59 60  1  0  0  0
 59 61  1  0  0  0
 59 62  1  0  0  0
 60126  1  0  0  0
 60127  1  0  0  0
 60128  1  0  0  0
 61129  1  0  0  0
 61130  1  0  0  0
 61131  1  0  0  0
 62132  1  0  0  0
 62133  1  0  0  0
 62134  1  0  0  0
 63 65  1  0  0  0
 63135  1  0  0  0
 63136  1  0  0  0
 63137  1  0  0  0
 64138  1  0  0  0
 65139  1  0  0  0
 68 76  1  0  0  0
 71 72  2  0  0  0
 71 80  1  0  0  0
 71140  1  0  0  0
 72 74  1  0  0  0
 72 77  1  0  0  0
 73 77  2  0  0  0
 73 78  1  0  0  0
 73 80  1  0  0  0
 74 79  1  0  0  0
 74141  1  0  0  0
 74142  1  0  0  0
 75 76  1  0  0  0
 75 78  1  0  0  0
 75143  1  0  0  0
 75144  1  0  0  0
 76145  1  0  0  0
 76146  1  0  0  0
 78147  1  0  0  0
 79148  1  0  0  0
M  ISO  4   1 100  68 101  76 101  79 100
M  END
> <chiral flag>
0

> <version>
0

> <s_m_source_file>
/data/baiqing/PycharmProjects/Reinvent-master-3.2/result/LINK_invent/BTK/process_docking_weight1_custom_product_contain_oxygen_bond_distance_aromatic_linkinvent_7_9_3/rearranged_h_0197.sdf

> <i_m_source_file_index>
84

> <r_mmod_Potential_Energy-OPLS-2005>
-66.8703842163086

> <r_mmod_Stretch_Energy-OPLS-2005>
112.355850219727

> <r_mmod_Bend_Energy-OPLS-2005>
155.361251831055

> <r_mmod_Torsional_Energy-OPLS-2005>
200.08415222168

> <r_mmod_Improper_Torsional_Energy-OPLS-2005>
7.4754524230957

> <r_mmod_Van_der_Waal_Energy-OPLS-2005>
120.603309631348

> <r_mmod_Electrostatic_Energy-OPLS-2005>
-513.860900878906

> <r_mmod_Solvation_Energy-OPLS-2005>
-234.618957519531

> <b_mmod_Minimization_Converged-OPLS-2005>
0

> <r_mmod_RMS_Derivative-OPLS-2005>
0.868292152881622

$$$$
84
                    3D
 Structure written by MMmdl.
151159  0  0  1  0            999 V2000
  -30.6491  -14.6840   20.4614 C   0  0  0  0  0  0
  -30.4216  -12.4137   19.4751 C   0  0  0  0  0  0
  -29.5047  -12.4895   18.2358 C   0  0  0  0  0  0
  -28.0287  -12.3316   18.6482 C   0  0  0  0  0  0
  -27.6430  -13.2297   19.8538 C   0  0  2  0  0  0
  -28.6864  -13.1536   20.9904 C   0  0  0  0  0  0
  -25.2511  -13.8200   20.5686 C   0  0  0  0  0  0
  -24.1800  -13.0445   20.9199 C   0  0  0  0  0  0
  -24.6392  -11.6918   20.8754 C   0  0  0  0  0  0
  -23.9063  -10.4299   21.0406 C   0  0  0  0  0  0
  -24.3614   -9.4210   21.9184 C   0  0  0  0  0  0
  -23.6289   -8.2244   22.0755 C   0  0  0  0  0  0
  -22.4274   -8.0284   21.3540 C   0  0  0  0  0  0
  -21.9905   -9.0255   20.4640 C   0  0  0  0  0  0
  -22.7232  -10.2137   20.3050 C   0  0  0  0  0  0
  -21.6853   -6.0729   22.5272 C   0  0  0  0  0  0
  -21.4013   -6.5632   23.8205 C   0  0  0  0  0  0
  -21.3660   -5.6787   24.9169 C   0  0  0  0  0  0
  -21.6042   -4.3049   24.7221 C   0  0  0  0  0  0
  -21.8820   -3.8139   23.4343 C   0  0  0  0  0  0
  -21.9194   -4.6956   22.3396 C   0  0  0  0  0  0
  -22.7821  -13.5222   21.1853 C   0  0  0  0  0  0
  -22.1663   -4.2139   21.0974 F   0  0  0  0  0  0
  -21.5632   -3.4533   25.7734 F   0  0  0  0  0  0
  -29.9930  -13.4791   20.4089 N   0  0  0  0  0  0
  -26.2941  -12.9401   20.3296 N   0  0  0  0  0  0
  -25.9325  -11.6550   20.5780 N   0  0  0  0  0  0
  -22.0475  -12.8208   22.0417 N   0  0  0  0  0  0
  -25.4198  -15.1923   20.4077 N   0  0  0  0  0  0
  -31.8359  -14.7534   20.1323 O   0  0  0  0  0  0
  -21.6642   -6.8874   21.4234 O   0  0  0  0  0  0
  -22.3501  -14.5526   20.6706 O   0  0  0  0  0  0
  -24.6283  -31.8565   23.1986 C   0  0  0  0  0  0
  -25.9119  -32.4757   23.8317 C   0  0  1  0  0  0
  -27.2222  -27.2852   20.1266 C   0  0  0  0  0  0
  -25.5916  -33.8558   24.2243 N   0  0  0  0  0  0
  -23.4229  -30.4800   21.5405 C   0  0  2  0  0  0
  -24.8677  -28.9265   20.1078 C   0  0  0  0  0  0
  -22.7488  -29.4598   22.4897 C   0  0  0  0  0  0
  -18.0287  -28.1386   22.8456 C   0  0  0  0  0  0
  -24.1494  -36.7286   23.2639 C   0  0  0  0  0  0
  -25.9643  -30.7784   21.3716 C   0  0  0  0  0  0
  -26.0353  -29.4019   20.7158 C   0  0  0  0  0  0
  -27.2109  -28.5924   20.7143 C   0  0  0  0  0  0
  -26.0245  -26.8612   19.5077 C   0  0  0  0  0  0
  -24.8666  -27.6633   19.4959 C   0  0  0  0  0  0
  -23.6385  -29.8130   20.1551 C   0  0  0  0  0  0
  -25.4116  -36.3065   24.0321 C   0  0  1  0  0  0
  -20.5891  -28.3677   23.1264 C   0  0  2  0  0  0
  -20.6775  -26.9394   22.5414 C   0  0  0  0  0  0
  -19.5758  -26.6374   21.5203 C   0  0  0  0  0  0
  -18.1934  -26.7926   22.1607 C   0  0  0  0  0  0
  -19.1543  -28.8847   23.2853 C   0  0  0  0  0  0
  -18.9472  -30.1452   23.8865 C   0  0  0  0  0  0
  -17.6475  -30.6574   24.0565 C   0  0  0  0  0  0
  -25.9056  -34.9437   23.5089 C   0  0  0  0  0  0
  -16.5357  -29.9085   23.6338 C   0  0  0  0  0  0
  -16.7280  -28.6519   23.0328 C   0  0  0  0  0  0
  -26.4490  -31.6581   25.0706 C   0  0  0  0  0  0
  -25.3724  -31.3736   26.1439 C   0  0  0  0  0  0
  -27.0341  -30.3001   24.6173 C   0  0  0  0  0  0
  -27.6041  -32.4324   25.7482 C   0  0  0  0  0  0
  -27.5580  -37.1787   24.8458 C   0  0  0  0  0  0
  -21.4198  -29.3034   22.3652 N   0  0  0  0  0  0
  -26.4283  -37.3770   23.9421 N   0  0  0  0  0  0
  -24.6908  -31.0573   22.0931 N   0  0  0  0  0  0
  -23.4200  -28.8123   23.2977 O   0  0  0  0  0  0
  -28.3595  -26.4578   20.2003 O   0  0  0  0  0  0
  -26.5647  -34.8916   22.4668 O   0  0  0  0  0  0
  -23.5452  -32.1369   23.7306 O   0  0  0  0  0  0
  -29.1856  -19.1288   21.6516 C   0  0  0  0  0  0
  -29.7307  -18.5838   20.5018 C   0  0  0  0  0  0
  -29.0685  -21.0900   20.3954 C   0  0  0  0  0  0
  -27.0676  -23.6295   21.3359 C   0  0  0  0  0  0
  -30.4533  -17.2162   20.2374 C   0  0  0  0  0  0
  -28.4284  -25.0608   19.6794 C   0  0  0  0  0  0
  -28.4358  -23.7802   20.6589 C   0  0  2  0  0  0
  -28.8302  -20.5106   21.5823 N   0  0  0  0  0  0
  -28.8534  -22.4684   20.0386 N   0  0  0  0  0  0
  -29.9248  -15.8484   20.6327 N   0  0  0  0  0  0
  -29.7384  -19.8703   19.2668 S   0  0  0  0  0  0
  -31.4653  -12.5140   19.1737 H   0  0  0  0  0  0
  -30.3464  -11.4370   19.9540 H   0  0  0  0  0  0
  -29.7769  -11.7153   17.5171 H   0  0  0  0  0  0
  -29.6451  -13.4445   17.7265 H   0  0  0  0  0  0
  -27.8738  -11.2832   18.9081 H   0  0  0  0  0  0
  -27.3735  -12.5324   17.7998 H   0  0  0  0  0  0
  -27.6423  -14.2532   19.4778 H   0  0  0  0  0  0
  -28.7056  -12.1568   21.4344 H   0  0  0  0  0  0
  -28.4333  -13.8442   21.7960 H   0  0  0  0  0  0
  -25.2761   -9.5685   22.4763 H   0  0  0  0  0  0
  -23.9990   -7.4634   22.7483 H   0  0  0  0  0  0
  -21.0833   -8.8768   19.8951 H   0  0  0  0  0  0
  -22.3685  -10.9674   19.6160 H   0  0  0  0  0  0
  -21.2008   -7.6140   23.9701 H   0  0  0  0  0  0
  -21.1482   -6.0522   25.9070 H   0  0  0  0  0  0
  -22.0604   -2.7601   23.2844 H   0  0  0  0  0  0
  -22.4087  -11.9863   22.4792 H   0  0  0  0  0  0
  -21.1102  -13.1239   22.2642 H   0  0  0  0  0  0
  -24.6492  -15.8448   20.5050 H   0  0  0  0  0  0
  -26.2614  -15.6271   20.0518 H   0  0  0  0  0  0
  -26.7180  -32.5420   23.1057 H   0  0  0  0  0  0
  -25.0026  -33.9687   25.0361 H   0  0  0  0  0  0
  -22.7174  -31.3012   21.3958 H   0  0  0  0  0  0
  -23.3751  -35.9622   23.3292 H   0  0  0  0  0  0
  -24.3586  -36.8936   22.2060 H   0  0  0  0  0  0
  -23.7246  -37.6478   23.6674 H   0  0  0  0  0  0
  -26.1032  -31.5396   20.6018 H   0  0  0  0  0  0
  -26.8428  -30.8242   22.0028 H   0  0  0  0  0  0
  -28.1078  -28.9511   21.1994 H   0  0  0  0  0  0
  -25.9380  -25.8889   19.0508 H   0  0  0  0  0  0
  -23.9684  -27.2887   19.0252 H   0  0  0  0  0  0
  -23.7616  -30.5904   19.3999 H   0  0  0  0  0  0
  -22.7577  -29.2453   19.8489 H   0  0  0  0  0  0
  -25.1297  -36.1896   25.0811 H   0  0  0  0  0  0
  -20.9975  -28.3264   24.1390 H   0  0  0  0  0  0
  -20.5676  -26.2280   23.3616 H   0  0  0  0  0  0
  -21.6639  -26.7433   22.1205 H   0  0  0  0  0  0
  -19.6926  -25.6292   21.1224 H   0  0  0  0  0  0
  -19.6702  -27.3187   20.6732 H   0  0  0  0  0  0
  -17.4206  -26.6657   21.4011 H   0  0  0  0  0  0
  -18.0337  -26.0081   22.9023 H   0  0  0  0  0  0
  -19.7958  -30.7263   24.2208 H   0  0  0  0  0  0
  -17.5046  -31.6257   24.5162 H   0  0  0  0  0  0
  -15.5361  -30.2977   23.7693 H   0  0  0  0  0  0
  -15.8681  -28.0854   22.7019 H   0  0  0  0  0  0
  -24.5896  -30.7081   25.7784 H   0  0  0  0  0  0
  -24.8912  -32.2909   26.4847 H   0  0  0  0  0  0
  -25.8055  -30.8940   27.0224 H   0  0  0  0  0  0
  -26.2920  -29.6734   24.1211 H   0  0  0  0  0  0
  -27.4053  -29.7275   25.4680 H   0  0  0  0  0  0
  -27.8782  -30.4283   23.9386 H   0  0  0  0  0  0
  -27.2637  -33.3637   26.2010 H   0  0  0  0  0  0
  -28.3861  -32.6859   25.0316 H   0  0  0  0  0  0
  -28.0663  -31.8471   26.5437 H   0  0  0  0  0  0
  -28.2555  -38.0129   24.7557 H   0  0  0  0  0  0
  -28.1114  -36.2657   24.6200 H   0  0  0  0  0  0
  -27.2311  -37.1338   25.8864 H   0  0  0  0  0  0
  -20.9365  -29.8794   21.6897 H   0  0  0  0  0  0
  -26.0161  -38.2831   24.1477 H   0  0  0  0  0  0
  -29.0761  -18.6236   22.6016 H   0  0  0  0  0  0
  -26.7786  -24.5520   21.8409 H   0  0  0  0  0  0
  -27.0745  -22.8391   22.0876 H   0  0  0  0  0  0
  -26.2898  -23.3932   20.6090 H   0  0  0  0  0  0
  -31.4476  -17.3015   20.6797 H   0  0  0  0  0  0
  -30.6454  -17.1540   19.1641 H   0  0  0  0  0  0
  -27.7219  -24.8906   18.8710 H   0  0  0  0  0  0
  -29.3905  -25.0415   19.1670 H   0  0  0  0  0  0
  -29.1709  -23.9851   21.4390 H   0  0  0  0  0  0
  -29.1241  -22.6090   19.0704 H   0  0  0  0  0  0
  -28.9449  -15.7629   20.8564 H   0  0  0  0  0  0
  1 25  1  0  0  0
  1 30  2  0  0  0
  1 80  1  0  0  0
  2  3  1  0  0  0
  2 25  1  0  0  0
  2 82  1  0  0  0
  2 83  1  0  0  0
  3  4  1  0  0  0
  3 84  1  0  0  0
  3 85  1  0  0  0
  4  5  1  0  0  0
  4 86  1  0  0  0
  4 87  1  0  0  0
  5  6  1  0  0  0
  5 26  1  0  0  0
  5 88  1  0  0  0
  6 25  1  0  0  0
  6 89  1  0  0  0
  6 90  1  0  0  0
  7  8  2  0  0  0
  7 26  1  0  0  0
  7 29  1  0  0  0
  8  9  1  0  0  0
  8 22  1  0  0  0
  9 10  1  0  0  0
  9 27  2  0  0  0
 10 11  2  0  0  0
 10 15  1  0  0  0
 11 12  1  0  0  0
 11 91  1  0  0  0
 12 13  2  0  0  0
 12 92  1  0  0  0
 13 14  1  0  0  0
 13 31  1  0  0  0
 14 15  2  0  0  0
 14 93  1  0  0  0
 15 94  1  0  0  0
 16 17  2  0  0  0
 16 21  1  0  0  0
 16 31  1  0  0  0
 17 18  1  0  0  0
 17 95  1  0  0  0
 18 19  2  0  0  0
 18 96  1  0  0  0
 19 20  1  0  0  0
 19 24  1  0  0  0
 20 21  2  0  0  0
 20 97  1  0  0  0
 21 23  1  0  0  0
 22 28  1  0  0  0
 22 32  2  0  0  0
 26 27  1  0  0  0
 28 98  1  0  0  0
 28 99  1  0  0  0
 29100  1  0  0  0
 29101  1  0  0  0
 33 34  1  0  0  0
 33 66  1  0  0  0
 33 70  2  0  0  0
 34 36  1  0  0  0
 34 59  1  0  0  0
 34102  1  0  0  0
 35 44  2  0  0  0
 35 45  1  0  0  0
 35 68  1  0  0  0
 36 56  1  0  0  0
 36103  1  0  0  0
 37 39  1  0  0  0
 37 47  1  0  0  0
 37 66  1  0  0  0
 37104  1  0  0  0
 38 43  2  0  0  0
 38 46  1  0  0  0
 38 47  1  0  0  0
 39 64  1  0  0  0
 39 67  2  0  0  0
 40 52  1  0  0  0
 40 53  2  0  0  0
 40 58  1  0  0  0
 41105  1  0  0  0
 41106  1  0  0  0
 41107  1  0  0  0
 41 48  1  0  0  0
 42 43  1  0  0  0
 42 66  1  0  0  0
 42108  1  0  0  0
 42109  1  0  0  0
 43 44  1  0  0  0
 44110  1  0  0  0
 45 46  2  0  0  0
 45111  1  0  0  0
 46112  1  0  0  0
 47113  1  0  0  0
 47114  1  0  0  0
 48 56  1  0  0  0
 48 65  1  0  0  0
 48115  1  0  0  0
 49 50  1  0  0  0
 49 53  1  0  0  0
 49 64  1  0  0  0
 49116  1  0  0  0
 50 51  1  0  0  0
 50117  1  0  0  0
 50118  1  0  0  0
 51 52  1  0  0  0
 51119  1  0  0  0
 51120  1  0  0  0
 52121  1  0  0  0
 52122  1  0  0  0
 53 54  1  0  0  0
 54 55  2  0  0  0
 54123  1  0  0  0
 55 57  1  0  0  0
 55124  1  0  0  0
 56 69  2  0  0  0
 57 58  2  0  0  0
 57125  1  0  0  0
 58126  1  0  0  0
 59 60  1  0  0  0
 59 61  1  0  0  0
 59 62  1  0  0  0
 60127  1  0  0  0
 60128  1  0  0  0
 60129  1  0  0  0
 61130  1  0  0  0
 61131  1  0  0  0
 61132  1  0  0  0
 62133  1  0  0  0
 62134  1  0  0  0
 62135  1  0  0  0
 63 65  1  0  0  0
 63136  1  0  0  0
 63137  1  0  0  0
 63138  1  0  0  0
 64139  1  0  0  0
 65140  1  0  0  0
 68 76  1  0  0  0
 71 72  2  0  0  0
 71 78  1  0  0  0
 71141  1  0  0  0
 72 75  1  0  0  0
 72 81  1  0  0  0
 73 78  2  0  0  0
 73 79  1  0  0  0
 73 81  1  0  0  0
 74142  1  0  0  0
 74143  1  0  0  0
 74144  1  0  0  0
 74 77  1  0  0  0
 75 80  1  0  0  0
 75145  1  0  0  0
 75146  1  0  0  0
 76 77  1  0  0  0
 76147  1  0  0  0
 76148  1  0  0  0
 77 79  1  0  0  0
 77149  1  0  0  0
 79150  1  0  0  0
 80151  1  0  0  0
M  ISO  4   1 100  68 101  76 101  80 100
M  END
> <chiral flag>
0

> <version>
0

> <s_m_source_file>
/data/baiqing/PycharmProjects/Reinvent-master-3.2/result/LINK_invent/BTK/process_docking_weight1_custom_product_contain_oxygen_bond_distance_aromatic_linkinvent_7_9_3/rearranged_h_0197.sdf

> <i_m_source_file_index>
85

> <r_mmod_Potential_Energy-OPLS-2005>
-23.0757369995117

> <r_mmod_Stretch_Energy-OPLS-2005>
91.9799957275391

> <r_mmod_Bend_Energy-OPLS-2005>
169.003692626953

> <r_mmod_Torsional_Energy-OPLS-2005>
188.731704711914

> <r_mmod_Improper_Torsional_Energy-OPLS-2005>
7.05258846282959

> <r_mmod_Van_der_Waal_Energy-OPLS-2005>
116.595909118652

> <r_mmod_Electrostatic_Energy-OPLS-2005>
-431.478118896484

> <r_mmod_Solvation_Energy-OPLS-2005>
-229.63981628418

> <b_mmod_Minimization_Converged-OPLS-2005>
0

> <r_mmod_RMS_Derivative-OPLS-2005>
1.66998136043549

$$$$
85
                    3D
 Structure written by MMmdl.
156164  0  0  1  0            999 V2000
  -30.6616  -14.5649   20.5203 C   0  0  0  0  0  0
  -30.4312  -12.3606   19.4188 C   0  0  0  0  0  0
  -29.4919  -12.5006   18.2028 C   0  0  0  0  0  0
  -28.0195  -12.3355   18.6297 C   0  0  0  0  0  0
  -27.6518  -13.2087   19.8585 C   0  0  2  0  0  0
  -28.6996  -13.0486   20.9814 C   0  0  0  0  0  0
  -25.2567  -13.8163   20.5664 C   0  0  0  0  0  0
  -24.1832  -13.0434   20.9196 C   0  0  0  0  0  0
  -24.6391  -11.6901   20.8755 C   0  0  0  0  0  0
  -23.9065  -10.4284   21.0415 C   0  0  0  0  0  0
  -24.3605   -9.4213   21.9207 C   0  0  0  0  0  0
  -23.6280   -8.2248   22.0777 C   0  0  0  0  0  0
  -22.4271   -8.0279   21.3557 C   0  0  0  0  0  0
  -21.9912   -9.0245   20.4656 C   0  0  0  0  0  0
  -22.7237  -10.2129   20.3058 C   0  0  0  0  0  0
  -21.6846   -6.0735   22.5278 C   0  0  0  0  0  0
  -21.4006   -6.5638   23.8209 C   0  0  0  0  0  0
  -21.3658   -5.6798   24.9178 C   0  0  0  0  0  0
  -21.6036   -4.3057   24.7226 C   0  0  0  0  0  0
  -21.8827   -3.8149   23.4350 C   0  0  0  0  0  0
  -21.9189   -4.6966   22.3404 C   0  0  0  0  0  0
  -22.7856  -13.5242   21.1843 C   0  0  0  0  0  0
  -22.1662   -4.2147   21.0982 F   0  0  0  0  0  0
  -21.5627   -3.4543   25.7747 F   0  0  0  0  0  0
  -30.0150  -13.3698   20.4068 N   0  0  0  0  0  0
  -26.2980  -12.9329   20.3310 N   0  0  0  0  0  0
  -25.9312  -11.6493   20.5765 N   0  0  0  0  0  0
  -22.0466  -12.8213   22.0359 N   0  0  0  0  0  0
  -25.4297  -15.1876   20.4059 N   0  0  0  0  0  0
  -31.8320  -14.7199   20.1623 O   0  0  0  0  0  0
  -21.6641   -6.8874   21.4241 O   0  0  0  0  0  0
  -22.3559  -14.5565   20.6710 O   0  0  0  0  0  0
  -24.6160  -31.8653   23.2041 C   0  0  0  0  0  0
  -25.9047  -32.4812   23.8347 C   0  0  1  0  0  0
  -27.2392  -27.3960   20.1081 C   0  0  0  0  0  0
  -25.5893  -33.8602   24.2287 N   0  0  0  0  0  0
  -23.4076  -30.4833   21.5459 C   0  0  2  0  0  0
  -24.8616  -28.9450   20.1137 C   0  0  0  0  0  0
  -22.7427  -29.4620   22.4976 C   0  0  0  0  0  0
  -18.0244  -28.1370   22.8487 C   0  0  0  0  0  0
  -24.1482  -36.7310   23.2633 C   0  0  0  0  0  0
  -25.9373  -30.8216   21.3604 C   0  0  0  0  0  0
  -26.0218  -29.4476   20.7179 C   0  0  0  0  0  0
  -27.2163  -28.6789   20.7185 C   0  0  0  0  0  0
  -26.0678  -26.9264   19.4863 C   0  0  0  0  0  0
  -24.8808  -27.6831   19.4931 C   0  0  0  0  0  0
  -23.6199  -29.8098   20.1636 C   0  0  0  0  0  0
  -25.4101  -36.3105   24.0323 C   0  0  1  0  0  0
  -20.5842  -28.3659   23.1306 C   0  0  2  0  0  0
  -20.6745  -26.9399   22.5398 C   0  0  0  0  0  0
  -19.5734  -26.6399   21.5183 C   0  0  0  0  0  0
  -18.1899  -26.7919   22.1601 C   0  0  0  0  0  0
  -19.1503  -28.8828   23.2885 C   0  0  0  0  0  0
  -18.9445  -30.1428   23.8918 C   0  0  0  0  0  0
  -17.6454  -30.6584   24.0559 C   0  0  0  0  0  0
  -25.9038  -34.9471   23.5118 C   0  0  0  0  0  0
  -16.5334  -29.9098   23.6329 C   0  0  0  0  0  0
  -16.7241  -28.6502   23.0366 C   0  0  0  0  0  0
  -26.4465  -31.6582   25.0671 C   0  0  0  0  0  0
  -25.3725  -31.3630   26.1398 C   0  0  0  0  0  0
  -27.0340  -30.3061   24.6011 C   0  0  0  0  0  0
  -27.6004  -32.4325   25.7490 C   0  0  0  0  0  0
  -27.5570  -37.1796   24.8454 C   0  0  0  0  0  0
  -21.4145  -29.3038   22.3738 N   0  0  0  0  0  0
  -26.4282  -37.3797   23.9398 N   0  0  0  0  0  0
  -24.6723  -31.0708   22.0965 N   0  0  0  0  0  0
  -23.4192  -28.8150   23.3022 O   0  0  0  0  0  0
  -28.3679  -26.5924   20.0657 O   0  0  0  0  0  0
  -26.5622  -34.8945   22.4693 O   0  0  0  0  0  0
  -23.5348  -32.1415   23.7420 O   0  0  0  0  0  0
  -29.6227  -19.2907   18.2374 C   0  0  0  0  0  0
  -29.9275  -18.1496   19.0120 C   0  0  0  0  0  0
  -29.2517  -20.5086   18.8487 C   0  0  0  0  0  0
  -29.8576  -18.2018   20.4196 C   0  0  0  0  0  0
  -29.1503  -20.5994   20.2546 C   0  0  0  0  0  0
  -29.4488  -19.4326   21.0250 C   0  0  0  0  0  0
  -30.3275  -16.9916   21.2704 C   0  0  0  0  0  0
  -29.0890  -23.1637   20.4582 C   0  0  0  0  0  0
  -28.6020  -25.7751   21.2367 C   0  0  0  0  0  0
  -28.2467  -24.2354   21.2311 C   0  0  1  0  0  0
  -28.7289  -21.7918   20.9036 N   0  0  0  0  0  0
  -29.8934  -15.6191   20.8935 N   0  0  0  0  0  0
  -26.9008  -23.9933   20.8891 O   0  0  0  0  0  0
  -29.3525  -19.5104   22.3752 F   0  0  0  0  0  0
  -31.4694  -12.4874   19.1044 H   0  0  0  0  0  0
  -30.3649  -11.3597   19.8476 H   0  0  0  0  0  0
  -29.7441  -11.7595   17.4436 H   0  0  0  0  0  0
  -29.6296  -13.4761   17.7336 H   0  0  0  0  0  0
  -27.8636  -11.2832   18.8679 H   0  0  0  0  0  0
  -27.3539  -12.5574   17.7939 H   0  0  0  0  0  0
  -27.6762  -14.2444   19.5192 H   0  0  0  0  0  0
  -28.7011  -12.0278   21.3670 H   0  0  0  0  0  0
  -28.4587  -13.6874   21.8329 H   0  0  0  0  0  0
  -25.2732   -9.5695   22.4808 H   0  0  0  0  0  0
  -23.9973   -7.4653   22.7506 H   0  0  0  0  0  0
  -21.0850   -8.8764   19.8951 H   0  0  0  0  0  0
  -22.3696  -10.9672   19.6167 H   0  0  0  0  0  0
  -21.2005   -7.6143   23.9710 H   0  0  0  0  0  0
  -21.1468   -6.0528   25.9077 H   0  0  0  0  0  0
  -22.0607   -2.7601   23.2853 H   0  0  0  0  0  0
  -22.4011  -11.9795   22.4655 H   0  0  0  0  0  0
  -21.1098  -13.1274   22.2583 H   0  0  0  0  0  0
  -24.6589  -15.8408   20.4952 H   0  0  0  0  0  0
  -26.2805  -15.6236   20.0722 H   0  0  0  0  0  0
  -26.7120  -32.5541   23.1117 H   0  0  0  0  0  0
  -24.9998  -33.9754   25.0404 H   0  0  0  0  0  0
  -22.6959  -31.2993   21.4040 H   0  0  0  0  0  0
  -23.3753  -35.9628   23.3267 H   0  0  0  0  0  0
  -24.3582  -36.8971   22.2049 H   0  0  0  0  0  0
  -23.7206  -37.6487   23.6688 H   0  0  0  0  0  0
  -26.0335  -31.5798   20.5812 H   0  0  0  0  0  0
  -26.8281  -30.8949   21.9721 H   0  0  0  0  0  0
  -28.1123  -29.0627   21.1873 H   0  0  0  0  0  0
  -26.0770  -25.9593   19.0042 H   0  0  0  0  0  0
  -23.9920  -27.2894   19.0173 H   0  0  0  0  0  0
  -23.7184  -30.5822   19.3995 H   0  0  0  0  0  0
  -22.7448  -29.2223   19.8737 H   0  0  0  0  0  0
  -25.1260  -36.1972   25.0815 H   0  0  0  0  0  0
  -20.9899  -28.3244   24.1438 H   0  0  0  0  0  0
  -20.5666  -26.2267   23.3578 H   0  0  0  0  0  0
  -21.6606  -26.7475   22.1175 H   0  0  0  0  0  0
  -19.6902  -25.6318   21.1192 H   0  0  0  0  0  0
  -19.6664  -27.3234   20.6731 H   0  0  0  0  0  0
  -17.4166  -26.6650   21.4018 H   0  0  0  0  0  0
  -18.0310  -26.0048   22.8988 H   0  0  0  0  0  0
  -19.7933  -30.7193   24.2342 H   0  0  0  0  0  0
  -17.5037  -31.6279   24.5149 H   0  0  0  0  0  0
  -15.5352  -30.3015   23.7667 H   0  0  0  0  0  0
  -15.8622  -28.0840   22.7100 H   0  0  0  0  0  0
  -24.5940  -30.6958   25.7687 H   0  0  0  0  0  0
  -24.8865  -32.2758   26.4860 H   0  0  0  0  0  0
  -25.8068  -30.8778   27.0152 H   0  0  0  0  0  0
  -26.2901  -29.6796   24.1083 H   0  0  0  0  0  0
  -27.4182  -29.7290   25.4424 H   0  0  0  0  0  0
  -27.8684  -30.4408   23.9119 H   0  0  0  0  0  0
  -27.2595  -33.3646   26.2011 H   0  0  0  0  0  0
  -28.3875  -32.6840   25.0373 H   0  0  0  0  0  0
  -28.0602  -31.8476   26.5468 H   0  0  0  0  0  0
  -28.2519  -38.0160   24.7592 H   0  0  0  0  0  0
  -28.1124  -36.2681   24.6181 H   0  0  0  0  0  0
  -27.2285  -37.1350   25.8856 H   0  0  0  0  0  0
  -20.9322  -29.8826   21.7004 H   0  0  0  0  0  0
  -26.0162  -38.2859   24.1457 H   0  0  0  0  0  0
  -29.6854  -19.2320   17.1600 H   0  0  0  0  0  0
  -30.2464  -17.2397   18.5198 H   0  0  0  0  0  0
  -29.0251  -21.3598   18.2241 H   0  0  0  0  0  0
  -30.0112  -17.1460   22.3018 H   0  0  0  0  0  0
  -31.4175  -17.0307   21.3020 H   0  0  0  0  0  0
  -30.1467  -23.3218   20.6713 H   0  0  0  0  0  0
  -28.9703  -23.2867   19.3802 H   0  0  0  0  0  0
  -29.6629  -25.8688   21.4732 H   0  0  0  0  0  0
  -28.0974  -26.2310   22.0906 H   0  0  0  0  0  0
  -28.3334  -23.9575   22.2841 H   0  0  0  0  0  0
  -28.6815  -21.6823   21.9146 H   0  0  0  0  0  0
  -28.9249  -15.4032   21.0697 H   0  0  0  0  0  0
  -26.8621  -23.0482   20.7525 H   0  0  0  0  0  0
  1 25  1  0  0  0
  1 30  2  0  0  0
  1 82  1  0  0  0
  2  3  1  0  0  0
  2 25  1  0  0  0
  2 85  1  0  0  0
  2 86  1  0  0  0
  3  4  1  0  0  0
  3 87  1  0  0  0
  3 88  1  0  0  0
  4  5  1  0  0  0
  4 89  1  0  0  0
  4 90  1  0  0  0
  5  6  1  0  0  0
  5 26  1  0  0  0
  5 91  1  0  0  0
  6 25  1  0  0  0
  6 92  1  0  0  0
  6 93  1  0  0  0
  7  8  2  0  0  0
  7 26  1  0  0  0
  7 29  1  0  0  0
  8  9  1  0  0  0
  8 22  1  0  0  0
  9 10  1  0  0  0
  9 27  2  0  0  0
 10 11  2  0  0  0
 10 15  1  0  0  0
 11 12  1  0  0  0
 11 94  1  0  0  0
 12 13  2  0  0  0
 12 95  1  0  0  0
 13 14  1  0  0  0
 13 31  1  0  0  0
 14 15  2  0  0  0
 14 96  1  0  0  0
 15 97  1  0  0  0
 16 17  2  0  0  0
 16 21  1  0  0  0
 16 31  1  0  0  0
 17 18  1  0  0  0
 17 98  1  0  0  0
 18 19  2  0  0  0
 18 99  1  0  0  0
 19 20  1  0  0  0
 19 24  1  0  0  0
 20 21  2  0  0  0
 20100  1  0  0  0
 21 23  1  0  0  0
 22 28  1  0  0  0
 22 32  2  0  0  0
 26 27  1  0  0  0
 28101  1  0  0  0
 28102  1  0  0  0
 29103  1  0  0  0
 29104  1  0  0  0
 33 34  1  0  0  0
 33 66  1  0  0  0
 33 70  2  0  0  0
 34 36  1  0  0  0
 34 59  1  0  0  0
 34105  1  0  0  0
 35 44  2  0  0  0
 35 45  1  0  0  0
 35 68  1  0  0  0
 36 56  1  0  0  0
 36106  1  0  0  0
 37 39  1  0  0  0
 37 47  1  0  0  0
 37 66  1  0  0  0
 37107  1  0  0  0
 38 43  2  0  0  0
 38 46  1  0  0  0
 38 47  1  0  0  0
 39 64  1  0  0  0
 39 67  2  0  0  0
 40 52  1  0  0  0
 40 53  2  0  0  0
 40 58  1  0  0  0
 41108  1  0  0  0
 41109  1  0  0  0
 41110  1  0  0  0
 41 48  1  0  0  0
 42 43  1  0  0  0
 42 66  1  0  0  0
 42111  1  0  0  0
 42112  1  0  0  0
 43 44  1  0  0  0
 44113  1  0  0  0
 45 46  2  0  0  0
 45114  1  0  0  0
 46115  1  0  0  0
 47116  1  0  0  0
 47117  1  0  0  0
 48 56  1  0  0  0
 48 65  1  0  0  0
 48118  1  0  0  0
 49 50  1  0  0  0
 49 53  1  0  0  0
 49 64  1  0  0  0
 49119  1  0  0  0
 50 51  1  0  0  0
 50120  1  0  0  0
 50121  1  0  0  0
 51 52  1  0  0  0
 51122  1  0  0  0
 51123  1  0  0  0
 52124  1  0  0  0
 52125  1  0  0  0
 53 54  1  0  0  0
 54 55  2  0  0  0
 54126  1  0  0  0
 55 57  1  0  0  0
 55127  1  0  0  0
 56 69  2  0  0  0
 57 58  2  0  0  0
 57128  1  0  0  0
 58129  1  0  0  0
 59 60  1  0  0  0
 59 61  1  0  0  0
 59 62  1  0  0  0
 60130  1  0  0  0
 60131  1  0  0  0
 60132  1  0  0  0
 61133  1  0  0  0
 61134  1  0  0  0
 61135  1  0  0  0
 62136  1  0  0  0
 62137  1  0  0  0
 62138  1  0  0  0
 63 65  1  0  0  0
 63139  1  0  0  0
 63140  1  0  0  0
 63141  1  0  0  0
 64142  1  0  0  0
 65143  1  0  0  0
 68 79  1  0  0  0
 71 72  2  0  0  0
 71 73  1  0  0  0
 71144  1  0  0  0
 72 74  1  0  0  0
 72145  1  0  0  0
 73 75  2  0  0  0
 73146  1  0  0  0
 74 76  2  0  0  0
 74 77  1  0  0  0
 75 76  1  0  0  0
 75 81  1  0  0  0
 76 84  1  0  0  0
 77 82  1  0  0  0
 77147  1  0  0  0
 77148  1  0  0  0
 78 80  1  0  0  0
 78 81  1  0  0  0
 78149  1  0  0  0
 78150  1  0  0  0
 79 80  1  0  0  0
 79151  1  0  0  0
 79152  1  0  0  0
 80 83  1  0  0  0
 80153  1  0  0  0
 81154  1  0  0  0
 82155  1  0  0  0
 83156  1  0  0  0
M  ISO  4   1 100  68 101  79 101  82 100
M  END
> <chiral flag>
0

> <version>
0

> <s_m_source_file>
/data/baiqing/PycharmProjects/Reinvent-master-3.2/result/LINK_invent/BTK/process_docking_weight1_custom_product_contain_oxygen_bond_distance_aromatic_linkinvent_7_9_3/rearranged_h_0197.sdf

> <i_m_source_file_index>
86

> <r_mmod_Potential_Energy-OPLS-2005>
-13.2662296295166

> <r_mmod_Stretch_Energy-OPLS-2005>
52.4996910095215

> <r_mmod_Bend_Energy-OPLS-2005>
132.526748657227

> <r_mmod_Torsional_Energy-OPLS-2005>
262.935180664062

> <r_mmod_Improper_Torsional_Energy-OPLS-2005>
6.94444704055786

> <r_mmod_Van_der_Waal_Energy-OPLS-2005>
140.582916259766

> <r_mmod_Electrostatic_Energy-OPLS-2005>
-408.426666259766

> <r_mmod_Solvation_Energy-OPLS-2005>
-226.015335083008

> <b_mmod_Minimization_Converged-OPLS-2005>
0

> <r_mmod_RMS_Derivative-OPLS-2005>
2.9888858795166

$$$$
86
                    3D
 Structure written by MMmdl.
152160  0  0  1  0            999 V2000
  -30.6752  -14.5357   20.4923 C   0  0  0  0  0  0
  -30.4229  -12.3288   19.4232 C   0  0  0  0  0  0
  -29.4935  -12.5062   18.2043 C   0  0  0  0  0  0
  -28.0165  -12.3529   18.6184 C   0  0  0  0  0  0
  -27.6536  -13.2105   19.8598 C   0  0  2  0  0  0
  -28.7039  -13.0397   20.9821 C   0  0  0  0  0  0
  -25.2567  -13.8159   20.5689 C   0  0  0  0  0  0
  -24.1835  -13.0425   20.9183 C   0  0  0  0  0  0
  -24.6392  -11.6900   20.8748 C   0  0  0  0  0  0
  -23.9071  -10.4278   21.0416 C   0  0  0  0  0  0
  -24.3623   -9.4180   21.9181 C   0  0  0  0  0  0
  -23.6289   -8.2220   22.0749 C   0  0  0  0  0  0
  -22.4267   -8.0269   21.3542 C   0  0  0  0  0  0
  -21.9908   -9.0248   20.4650 C   0  0  0  0  0  0
  -22.7246  -10.2119   20.3063 C   0  0  0  0  0  0
  -21.6843   -6.0736   22.5286 C   0  0  0  0  0  0
  -21.4004   -6.5642   23.8220 C   0  0  0  0  0  0
  -21.3669   -5.6796   24.9183 C   0  0  0  0  0  0
  -21.6050   -4.3061   24.7234 C   0  0  0  0  0  0
  -21.8813   -3.8151   23.4356 C   0  0  0  0  0  0
  -21.9180   -4.6963   22.3408 C   0  0  0  0  0  0
  -22.7854  -13.5225   21.1860 C   0  0  0  0  0  0
  -22.1649   -4.2149   21.0985 F   0  0  0  0  0  0
  -21.5635   -3.4542   25.7746 F   0  0  0  0  0  0
  -30.0269  -13.3404   20.4126 N   0  0  0  0  0  0
  -26.2996  -12.9331   20.3320 N   0  0  0  0  0  0
  -25.9320  -11.6493   20.5771 N   0  0  0  0  0  0
  -22.0507  -12.8202   22.0418 N   0  0  0  0  0  0
  -25.4265  -15.1887   20.4107 N   0  0  0  0  0  0
  -31.8564  -14.6689   20.1604 O   0  0  0  0  0  0
  -21.6626   -6.8871   21.4247 O   0  0  0  0  0  0
  -22.3522  -14.5526   20.6714 O   0  0  0  0  0  0
  -24.6197  -31.8660   23.2080 C   0  0  0  0  0  0
  -25.9085  -32.4795   23.8387 C   0  0  1  0  0  0
  -27.2307  -27.4056   20.0742 C   0  0  0  0  0  0
  -25.5933  -33.8595   24.2322 N   0  0  0  0  0  0
  -23.4061  -30.4916   21.5526 C   0  0  2  0  0  0
  -24.8457  -28.9524   20.1188 C   0  0  0  0  0  0
  -22.7424  -29.4660   22.4996 C   0  0  0  0  0  0
  -18.0275  -28.1386   22.8508 C   0  0  0  0  0  0
  -24.1485  -36.7293   23.2639 C   0  0  0  0  0  0
  -25.9396  -30.8185   21.3678 C   0  0  0  0  0  0
  -26.0114  -29.4520   20.7110 C   0  0  0  0  0  0
  -27.2012  -28.6844   20.6873 C   0  0  0  0  0  0
  -26.0307  -26.9224   19.4967 C   0  0  0  0  0  0
  -24.8506  -27.6860   19.5158 C   0  0  0  0  0  0
  -23.6128  -29.8254   20.1671 C   0  0  0  0  0  0
  -25.4105  -36.3085   24.0341 C   0  0  1  0  0  0
  -20.5864  -28.3659   23.1320 C   0  0  2  0  0  0
  -20.6751  -26.9390   22.5415 C   0  0  0  0  0  0
  -19.5725  -26.6387   21.5212 C   0  0  0  0  0  0
  -18.1914  -26.7934   22.1634 C   0  0  0  0  0  0
  -19.1528  -28.8846   23.2908 C   0  0  0  0  0  0
  -18.9446  -30.1453   23.8908 C   0  0  0  0  0  0
  -17.6448  -30.6584   24.0574 C   0  0  0  0  0  0
  -25.9050  -34.9456   23.5128 C   0  0  0  0  0  0
  -16.5346  -29.9084   23.6324 C   0  0  0  0  0  0
  -16.7267  -28.6502   23.0352 C   0  0  0  0  0  0
  -26.4496  -31.6589   25.0736 C   0  0  0  0  0  0
  -25.3766  -31.3685   26.1487 C   0  0  0  0  0  0
  -27.0341  -30.3034   24.6145 C   0  0  0  0  0  0
  -27.6073  -32.4304   25.7489 C   0  0  0  0  0  0
  -27.5575  -37.1804   24.8467 C   0  0  0  0  0  0
  -21.4147  -29.3032   22.3725 N   0  0  0  0  0  0
  -26.4286  -37.3783   23.9414 N   0  0  0  0  0  0
  -24.6735  -31.0751   22.0993 N   0  0  0  0  0  0
  -23.4187  -28.8203   23.3048 O   0  0  0  0  0  0
  -28.4218  -26.6918   20.0706 O   0  0  0  0  0  0
  -26.5610  -34.8916   22.4684 O   0  0  0  0  0  0
  -23.5388  -32.1407   23.7481 O   0  0  0  0  0  0
  -29.8689  -19.1702   20.1768 C   0  0  0  0  0  0
  -30.2105  -16.9926   20.6190 C   0  0  0  0  0  0
  -29.1490  -20.3773   19.5470 C   0  0  0  0  0  0
  -28.9966  -22.8817   19.4335 C   0  0  0  0  0  0
  -28.5486  -25.4440   19.3474 C   0  0  0  0  0  0
  -28.6919  -24.1768   20.2518 C   0  0  1  0  0  0
  -29.3349  -17.9178   20.1975 N   0  0  0  0  0  0
  -31.1224  -19.2672   20.6743 N   0  0  0  0  0  0
  -29.8697  -15.6046   20.6927 N   0  0  0  0  0  0
  -29.2892  -21.6759   20.2661 N   0  3  0  0  0  0
  -27.4717  -23.9531   20.9449 O   0  0  0  0  0  0
  -31.7191  -17.7260   21.0773 S   0  0  0  0  0  0
  -31.4697  -12.4214   19.1263 H   0  0  0  0  0  0
  -30.3176  -11.3289   19.8466 H   0  0  0  0  0  0
  -29.7414  -11.7835   17.4272 H   0  0  0  0  0  0
  -29.6476  -13.4948   17.7676 H   0  0  0  0  0  0
  -27.8423  -11.2971   18.8307 H   0  0  0  0  0  0
  -27.3628  -12.6064   17.7837 H   0  0  0  0  0  0
  -27.6757  -14.2488   19.5278 H   0  0  0  0  0  0
  -28.6934  -12.0179   21.3624 H   0  0  0  0  0  0
  -28.4769  -13.6797   21.8353 H   0  0  0  0  0  0
  -25.2767   -9.5645   22.4760 H   0  0  0  0  0  0
  -23.9995   -7.4604   22.7463 H   0  0  0  0  0  0
  -21.0839   -8.8782   19.8951 H   0  0  0  0  0  0
  -22.3719  -10.9663   19.6182 H   0  0  0  0  0  0
  -21.1992   -7.6149   23.9719 H   0  0  0  0  0  0
  -21.1505   -6.0532   25.9085 H   0  0  0  0  0  0
  -22.0583   -2.7615   23.2862 H   0  0  0  0  0  0
  -22.4111  -11.9861   22.4809 H   0  0  0  0  0  0
  -21.1134  -13.1241   22.2653 H   0  0  0  0  0  0
  -24.6635  -15.8459   20.5312 H   0  0  0  0  0  0
  -26.2759  -15.6324   20.0879 H   0  0  0  0  0  0
  -26.7152  -32.5483   23.1138 H   0  0  0  0  0  0
  -25.0098  -33.9733   25.0479 H   0  0  0  0  0  0
  -22.6988  -31.3116   21.4144 H   0  0  0  0  0  0
  -23.3734  -35.9638   23.3322 H   0  0  0  0  0  0
  -24.3576  -36.8881   22.2046 H   0  0  0  0  0  0
  -23.7239  -37.6512   23.6635 H   0  0  0  0  0  0
  -26.0722  -31.5838   20.6021 H   0  0  0  0  0  0
  -26.8219  -30.8596   21.9966 H   0  0  0  0  0  0
  -28.1042  -29.0745   21.1363 H   0  0  0  0  0  0
  -25.9521  -25.9534   19.0316 H   0  0  0  0  0  0
  -23.9503  -27.2883   19.0650 H   0  0  0  0  0  0
  -23.7295  -30.5992   19.4072 H   0  0  0  0  0  0
  -22.7338  -29.2521   19.8707 H   0  0  0  0  0  0
  -25.1278  -36.1948   25.0836 H   0  0  0  0  0  0
  -20.9974  -28.3218   24.1436 H   0  0  0  0  0  0
  -20.5625  -26.2278   23.3608 H   0  0  0  0  0  0
  -21.6632  -26.7418   22.1238 H   0  0  0  0  0  0
  -19.6884  -25.6297   21.1237 H   0  0  0  0  0  0
  -19.6677  -27.3198   20.6742 H   0  0  0  0  0  0
  -17.4188  -26.6691   21.4030 H   0  0  0  0  0  0
  -18.0322  -26.0063   22.9013 H   0  0  0  0  0  0
  -19.7920  -30.7264   24.2296 H   0  0  0  0  0  0
  -17.5002  -31.6269   24.5160 H   0  0  0  0  0  0
  -15.5346  -30.2992   23.7639 H   0  0  0  0  0  0
  -15.8668  -28.0819   22.7076 H   0  0  0  0  0  0
  -24.5932  -30.7048   25.7809 H   0  0  0  0  0  0
  -24.8984  -32.2846   26.4972 H   0  0  0  0  0  0
  -25.8134  -30.8815   27.0216 H   0  0  0  0  0  0
  -26.2909  -29.6772   24.1204 H   0  0  0  0  0  0
  -27.4104  -29.7291   25.4618 H   0  0  0  0  0  0
  -27.8738  -30.4355   23.9317 H   0  0  0  0  0  0
  -27.2702  -33.3558   26.2163 H   0  0  0  0  0  0
  -28.3835  -32.6936   25.0292 H   0  0  0  0  0  0
  -28.0815  -31.8384   26.5329 H   0  0  0  0  0  0
  -28.2612  -38.0087   24.7512 H   0  0  0  0  0  0
  -28.1063  -36.2624   24.6299 H   0  0  0  0  0  0
  -27.2314  -37.1462   25.8880 H   0  0  0  0  0  0
  -20.9303  -29.8772   21.6951 H   0  0  0  0  0  0
  -26.0167  -38.2861   24.1397 H   0  0  0  0  0  0
  -28.0917  -20.1426   19.4249 H   0  0  0  0  0  0
  -29.5595  -20.4911   18.5430 H   0  0  0  0  0  0
  -29.8538  -23.0595   18.7829 H   0  0  0  0  0  0
  -28.1527  -22.6703   18.7742 H   0  0  0  0  0  0
  -29.4823  -25.5462   18.7951 H   0  0  0  0  0  0
  -27.8181  -25.2945   18.5567 H   0  0  0  0  0  0
  -29.4899  -24.3534   20.9741 H   0  0  0  0  0  0
  -28.8909  -15.3924   20.7883 H   0  0  0  0  0  0
  -28.6627  -21.6738   21.0534 H   0  0  0  0  0  0
  -30.2299  -21.7368   20.6175 H   0  0  0  0  0  0
  -26.7619  -24.2994   20.4125 H   0  0  0  0  0  0
  1 25  1  0  0  0
  1 30  2  0  0  0
  1 79  1  0  0  0
  2  3  1  0  0  0
  2 25  1  0  0  0
  2 83  1  0  0  0
  2 84  1  0  0  0
  3  4  1  0  0  0
  3 85  1  0  0  0
  3 86  1  0  0  0
  4  5  1  0  0  0
  4 87  1  0  0  0
  4 88  1  0  0  0
  5  6  1  0  0  0
  5 26  1  0  0  0
  5 89  1  0  0  0
  6 25  1  0  0  0
  6 90  1  0  0  0
  6 91  1  0  0  0
  7  8  2  0  0  0
  7 26  1  0  0  0
  7 29  1  0  0  0
  8  9  1  0  0  0
  8 22  1  0  0  0
  9 10  1  0  0  0
  9 27  2  0  0  0
 10 11  2  0  0  0
 10 15  1  0  0  0
 11 12  1  0  0  0
 11 92  1  0  0  0
 12 13  2  0  0  0
 12 93  1  0  0  0
 13 14  1  0  0  0
 13 31  1  0  0  0
 14 15  2  0  0  0
 14 94  1  0  0  0
 15 95  1  0  0  0
 16 17  2  0  0  0
 16 21  1  0  0  0
 16 31  1  0  0  0
 17 18  1  0  0  0
 17 96  1  0  0  0
 18 19  2  0  0  0
 18 97  1  0  0  0
 19 20  1  0  0  0
 19 24  1  0  0  0
 20 21  2  0  0  0
 20 98  1  0  0  0
 21 23  1  0  0  0
 22 28  1  0  0  0
 22 32  2  0  0  0
 26 27  1  0  0  0
 28 99  1  0  0  0
 28100  1  0  0  0
 29101  1  0  0  0
 29102  1  0  0  0
 33 34  1  0  0  0
 33 66  1  0  0  0
 33 70  2  0  0  0
 34 36  1  0  0  0
 34 59  1  0  0  0
 34103  1  0  0  0
 35 44  2  0  0  0
 35 45  1  0  0  0
 35 68  1  0  0  0
 36 56  1  0  0  0
 36104  1  0  0  0
 37 39  1  0  0  0
 37 47  1  0  0  0
 37 66  1  0  0  0
 37105  1  0  0  0
 38 43  2  0  0  0
 38 46  1  0  0  0
 38 47  1  0  0  0
 39 64  1  0  0  0
 39 67  2  0  0  0
 40 52  1  0  0  0
 40 53  2  0  0  0
 40 58  1  0  0  0
 41106  1  0  0  0
 41107  1  0  0  0
 41108  1  0  0  0
 41 48  1  0  0  0
 42 43  1  0  0  0
 42 66  1  0  0  0
 42109  1  0  0  0
 42110  1  0  0  0
 43 44  1  0  0  0
 44111  1  0  0  0
 45 46  2  0  0  0
 45112  1  0  0  0
 46113  1  0  0  0
 47114  1  0  0  0
 47115  1  0  0  0
 48 56  1  0  0  0
 48 65  1  0  0  0
 48116  1  0  0  0
 49 50  1  0  0  0
 49 53  1  0  0  0
 49 64  1  0  0  0
 49117  1  0  0  0
 50 51  1  0  0  0
 50118  1  0  0  0
 50119  1  0  0  0
 51 52  1  0  0  0
 51120  1  0  0  0
 51121  1  0  0  0
 52122  1  0  0  0
 52123  1  0  0  0
 53 54  1  0  0  0
 54 55  2  0  0  0
 54124  1  0  0  0
 55 57  1  0  0  0
 55125  1  0  0  0
 56 69  2  0  0  0
 57 58  2  0  0  0
 57126  1  0  0  0
 58127  1  0  0  0
 59 60  1  0  0  0
 59 61  1  0  0  0
 59 62  1  0  0  0
 60128  1  0  0  0
 60129  1  0  0  0
 60130  1  0  0  0
 61131  1  0  0  0
 61132  1  0  0  0
 61133  1  0  0  0
 62134  1  0  0  0
 62135  1  0  0  0
 62136  1  0  0  0
 63 65  1  0  0  0
 63137  1  0  0  0
 63138  1  0  0  0
 63139  1  0  0  0
 64140  1  0  0  0
 65141  1  0  0  0
 68 75  1  0  0  0
 71 73  1  0  0  0
 71 77  1  0  0  0
 71 78  2  0  0  0
 72 77  2  0  0  0
 72 79  1  0  0  0
 72 82  1  0  0  0
 73 80  1  0  0  0
 73142  1  0  0  0
 73143  1  0  0  0
 74 76  1  0  0  0
 74 80  1  0  0  0
 74144  1  0  0  0
 74145  1  0  0  0
 75 76  1  0  0  0
 75146  1  0  0  0
 75147  1  0  0  0
 76 81  1  0  0  0
 76148  1  0  0  0
 78 82  1  0  0  0
 79149  1  0  0  0
 80150  1  0  0  0
 80151  1  0  0  0
 81152  1  0  0  0
M  CHG  1  80   1
M  ISO  4   1 100  68 101  75 101  79 100
M  END
> <chiral flag>
0

> <version>
0

> <s_m_source_file>
/data/baiqing/PycharmProjects/Reinvent-master-3.2/result/LINK_invent/BTK/process_docking_weight1_custom_product_contain_oxygen_bond_distance_aromatic_linkinvent_7_9_3/rearranged_h_0197.sdf

> <i_m_source_file_index>
87

> <r_mmod_Potential_Energy-OPLS-2005>
-409.1494140625

> <r_mmod_Stretch_Energy-OPLS-2005>
43.9355583190918

> <r_mmod_Bend_Energy-OPLS-2005>
126.778518676758

> <r_mmod_Torsional_Energy-OPLS-2005>
222.933349609375

> <r_mmod_Improper_Torsional_Energy-OPLS-2005>
6.63905477523804

> <r_mmod_Van_der_Waal_Energy-OPLS-2005>
128.299026489258

> <r_mmod_Electrostatic_Energy-OPLS-2005>
-459.843200683594

> <r_mmod_Solvation_Energy-OPLS-2005>
-500.097991943359

> <b_mmod_Minimization_Converged-OPLS-2005>
0

> <r_mmod_RMS_Derivative-OPLS-2005>
2.74250745773315

$$$$
87
                    3D
 Structure written by MMmdl.
157165  0  0  1  0            999 V2000
  -30.6254  -14.5712   20.5965 C   0  0  0  0  0  0
  -30.4513  -12.3655   19.4481 C   0  0  0  0  0  0
  -29.5114  -12.5089   18.2284 C   0  0  0  0  0  0
  -28.0352  -12.3370   18.6388 C   0  0  0  0  0  0
  -27.6650  -13.1979   19.8753 C   0  0  2  0  0  0
  -28.7018  -12.9846   21.0008 C   0  0  0  0  0  0
  -25.2600  -13.8138   20.5639 C   0  0  0  0  0  0
  -24.1842  -13.0435   20.9172 C   0  0  0  0  0  0
  -24.6391  -11.6900   20.8740 C   0  0  0  0  0  0
  -23.9057  -10.4296   21.0410 C   0  0  0  0  0  0
  -24.3615   -9.4212   21.9191 C   0  0  0  0  0  0
  -23.6290   -8.2237   22.0750 C   0  0  0  0  0  0
  -22.4272   -8.0281   21.3529 C   0  0  0  0  0  0
  -21.9916   -9.0258   20.4632 C   0  0  0  0  0  0
  -22.7239  -10.2139   20.3048 C   0  0  0  0  0  0
  -21.6846   -6.0754   22.5289 C   0  0  0  0  0  0
  -21.4015   -6.5649   23.8229 C   0  0  0  0  0  0
  -21.3657   -5.6791   24.9180 C   0  0  0  0  0  0
  -21.6033   -4.3055   24.7222 C   0  0  0  0  0  0
  -21.8819   -3.8159   23.4340 C   0  0  0  0  0  0
  -21.9190   -4.6983   22.3400 C   0  0  0  0  0  0
  -22.7863  -13.5238   21.1848 C   0  0  0  0  0  0
  -22.1654   -4.2174   21.0973 F   0  0  0  0  0  0
  -21.5629   -3.4527   25.7728 F   0  0  0  0  0  0
  -30.0327  -13.3417   20.4700 N   0  0  0  0  0  0
  -26.3041  -12.9289   20.3341 N   0  0  0  0  0  0
  -25.9320  -11.6464   20.5764 N   0  0  0  0  0  0
  -22.0504  -12.8211   22.0394 N   0  0  0  0  0  0
  -25.4282  -15.1854   20.4010 N   0  0  0  0  0  0
  -31.7080  -14.8352   20.0583 O   0  0  0  0  0  0
  -21.6617   -6.8892   21.4247 O   0  0  0  0  0  0
  -22.3543  -14.5552   20.6719 O   0  0  0  0  0  0
  -24.6190  -31.8680   23.2086 C   0  0  0  0  0  0
  -25.9081  -32.4798   23.8372 C   0  0  1  0  0  0
  -27.2277  -27.4082   20.0969 C   0  0  0  0  0  0
  -25.5938  -33.8597   24.2323 N   0  0  0  0  0  0
  -23.4069  -30.4983   21.5504 C   0  0  2  0  0  0
  -24.8500  -28.9721   20.0985 C   0  0  0  0  0  0
  -22.7442  -29.4669   22.4940 C   0  0  0  0  0  0
  -18.0269  -28.1374   22.8464 C   0  0  0  0  0  0
  -24.1476  -36.7301   23.2649 C   0  0  0  0  0  0
  -25.9388  -30.8283   21.3630 C   0  0  0  0  0  0
  -26.0111  -29.4629   20.7076 C   0  0  0  0  0  0
  -27.2016  -28.6883   20.7057 C   0  0  0  0  0  0
  -26.0474  -26.9645   19.4471 C   0  0  0  0  0  0
  -24.8681  -27.7272   19.4570 C   0  0  0  0  0  0
  -23.6133  -29.8443   20.1576 C   0  0  0  0  0  0
  -25.4090  -36.3100   24.0369 C   0  0  1  0  0  0
  -20.5881  -28.3676   23.1289 C   0  0  2  0  0  0
  -20.6774  -26.9412   22.5415 C   0  0  0  0  0  0
  -19.5755  -26.6393   21.5214 C   0  0  0  0  0  0
  -18.1919  -26.7916   22.1612 C   0  0  0  0  0  0
  -19.1537  -28.8831   23.2862 C   0  0  0  0  0  0
  -18.9483  -30.1424   23.8879 C   0  0  0  0  0  0
  -17.6498  -30.6576   24.0565 C   0  0  0  0  0  0
  -25.9042  -34.9470   23.5148 C   0  0  0  0  0  0
  -16.5369  -29.9102   23.6314 C   0  0  0  0  0  0
  -16.7271  -28.6528   23.0315 C   0  0  0  0  0  0
  -26.4458  -31.6589   25.0723 C   0  0  0  0  0  0
  -25.3671  -31.3745   26.1452 C   0  0  0  0  0  0
  -27.0297  -30.3044   24.6088 C   0  0  0  0  0  0
  -27.6049  -32.4287   25.7474 C   0  0  0  0  0  0
  -27.5572  -37.1799   24.8480 C   0  0  0  0  0  0
  -21.4177  -29.3071   22.3712 N   0  0  0  0  0  0
  -26.4274  -37.3798   23.9440 N   0  0  0  0  0  0
  -24.6736  -31.0785   22.0987 N   0  0  0  0  0  0
  -23.4223  -28.8188   23.2947 O   0  0  0  0  0  0
  -28.3746  -26.6157   20.1523 O   0  0  0  0  0  0
  -26.5607  -34.8935   22.4712 O   0  0  0  0  0  0
  -23.5373  -32.1451   23.7472 O   0  0  0  0  0  0
  -29.6871  -19.0490   20.7640 C   0  0  0  0  0  0
  -29.7090  -16.8676   21.3765 C   0  0  0  0  0  0
  -29.0123  -20.2492   18.6348 C   0  0  0  0  0  0
  -27.6518  -22.3969   21.4248 C   0  0  0  0  0  0
  -29.2423  -24.1954   20.4755 C   0  0  0  0  0  0
  -28.1985  -25.2022   19.8832 C   0  0  0  0  0  0
  -29.9004  -20.3224   19.8929 C   0  0  1  0  0  0
  -28.7817  -22.6797   20.4034 C   0  0  1  0  0  0
  -30.1931  -17.8082   20.5204 N   0  0  0  0  0  0
  -28.8485  -17.2946   22.3162 N   0  0  0  0  0  0
  -29.9303  -15.4432   21.3712 N   0  0  0  0  0  0
  -29.9148  -21.6839   20.5644 N   0  3  0  0  0  0
  -28.6022  -18.9564   22.1323 S   0  0  0  0  0  0
  -31.4900  -12.5097   19.1472 H   0  0  0  0  0  0
  -30.4045  -11.3523   19.8525 H   0  0  0  0  0  0
  -29.7721  -11.7737   17.4667 H   0  0  0  0  0  0
  -29.6549  -13.4891   17.7733 H   0  0  0  0  0  0
  -27.8796  -11.2818   18.8680 H   0  0  0  0  0  0
  -27.3757  -12.5628   17.7992 H   0  0  0  0  0  0
  -27.7064  -14.2411   19.5630 H   0  0  0  0  0  0
  -28.7026  -11.9419   21.3220 H   0  0  0  0  0  0
  -28.4218  -13.5480   21.8919 H   0  0  0  0  0  0
  -25.2770   -9.5671   22.4764 H   0  0  0  0  0  0
  -24.0002   -7.4620   22.7467 H   0  0  0  0  0  0
  -21.0856   -8.8780   19.8927 H   0  0  0  0  0  0
  -22.3722  -10.9677   19.6144 H   0  0  0  0  0  0
  -21.2008   -7.6152   23.9742 H   0  0  0  0  0  0
  -21.1477   -6.0509   25.9081 H   0  0  0  0  0  0
  -22.0604   -2.7625   23.2820 H   0  0  0  0  0  0
  -22.4095  -11.9837   22.4727 H   0  0  0  0  0  0
  -21.1123  -13.1231   22.2627 H   0  0  0  0  0  0
  -24.6561  -15.8345   20.5067 H   0  0  0  0  0  0
  -26.2729  -15.6300   20.0649 H   0  0  0  0  0  0
  -26.7184  -32.5511   23.1161 H   0  0  0  0  0  0
  -25.0083  -33.9705   25.0480 H   0  0  0  0  0  0
  -22.6961  -31.3175   21.4165 H   0  0  0  0  0  0
  -23.3739  -35.9624   23.3285 H   0  0  0  0  0  0
  -24.3624  -36.8930   22.2068 H   0  0  0  0  0  0
  -23.7203  -37.6504   23.6657 H   0  0  0  0  0  0
  -26.0551  -31.5950   20.5950 H   0  0  0  0  0  0
  -26.8251  -30.8825   21.9798 H   0  0  0  0  0  0
  -28.0879  -29.0670   21.1924 H   0  0  0  0  0  0
  -26.0085  -26.0282   18.9106 H   0  0  0  0  0  0
  -23.9875  -27.3580   18.9482 H   0  0  0  0  0  0
  -23.7197  -30.6272   19.4054 H   0  0  0  0  0  0
  -22.7316  -29.2742   19.8636 H   0  0  0  0  0  0
  -25.1251  -36.1975   25.0864 H   0  0  0  0  0  0
  -20.9929  -28.3231   24.1435 H   0  0  0  0  0  0
  -20.5670  -26.2314   23.3617 H   0  0  0  0  0  0
  -21.6643  -26.7480   22.1214 H   0  0  0  0  0  0
  -19.6964  -25.6328   21.1228 H   0  0  0  0  0  0
  -19.6654  -27.3206   20.6727 H   0  0  0  0  0  0
  -17.4210  -26.6647   21.3992 H   0  0  0  0  0  0
  -18.0280  -26.0045   22.8981 H   0  0  0  0  0  0
  -19.7980  -30.7212   24.2227 H   0  0  0  0  0  0
  -17.5093  -31.6259   24.5201 H   0  0  0  0  0  0
  -15.5387  -30.3025   23.7656 H   0  0  0  0  0  0
  -15.8660  -28.0893   22.6969 H   0  0  0  0  0  0
  -24.5964  -30.6926   25.7839 H   0  0  0  0  0  0
  -24.8679  -32.2891   26.4658 H   0  0  0  0  0  0
  -25.7992  -30.9160   27.0354 H   0  0  0  0  0  0
  -26.2846  -29.6784   24.1150 H   0  0  0  0  0  0
  -27.4147  -29.7296   25.4520 H   0  0  0  0  0  0
  -27.8632  -30.4414   23.9184 H   0  0  0  0  0  0
  -27.2775  -33.3739   26.1812 H   0  0  0  0  0  0
  -28.3955  -32.6578   25.0314 H   0  0  0  0  0  0
  -28.0551  -31.8517   26.5554 H   0  0  0  0  0  0
  -28.2579  -38.0098   24.7547 H   0  0  0  0  0  0
  -28.1070  -36.2651   24.6254 H   0  0  0  0  0  0
  -27.2320  -37.1378   25.8887 H   0  0  0  0  0  0
  -20.9324  -29.8821   21.6985 H   0  0  0  0  0  0
  -26.0167  -38.2884   24.1436 H   0  0  0  0  0  0
  -29.2212  -19.3370   18.0752 H   0  0  0  0  0  0
  -29.1994  -21.0810   17.9540 H   0  0  0  0  0  0
  -27.9525  -20.2355   18.8908 H   0  0  0  0  0  0
  -26.8266  -23.1030   21.3315 H   0  0  0  0  0  0
  -28.0002  -22.4677   22.4589 H   0  0  0  0  0  0
  -27.2016  -21.4167   21.2695 H   0  0  0  0  0  0
  -29.4552  -24.4687   21.5112 H   0  0  0  0  0  0
  -30.1826  -24.3322   19.9378 H   0  0  0  0  0  0
  -27.2319  -24.9023   20.2757 H   0  0  0  0  0  0
  -28.1501  -25.0773   18.8000 H   0  0  0  0  0  0
  -30.9317  -20.2210   19.5489 H   0  0  0  0  0  0
  -28.3528  -22.5746   19.4085 H   0  0  0  0  0  0
  -29.2577  -14.9564   21.9419 H   0  0  0  0  0  0
  -30.6938  -22.1277   20.1045 H   0  0  0  0  0  0
  -30.2054  -21.6017   21.5267 H   0  0  0  0  0  0
  1 25  1  0  0  0
  1 30  2  0  0  0
  1 81  1  0  0  0
  2  3  1  0  0  0
  2 25  1  0  0  0
  2 84  1  0  0  0
  2 85  1  0  0  0
  3  4  1  0  0  0
  3 86  1  0  0  0
  3 87  1  0  0  0
  4  5  1  0  0  0
  4 88  1  0  0  0
  4 89  1  0  0  0
  5  6  1  0  0  0
  5 26  1  0  0  0
  5 90  1  0  0  0
  6 25  1  0  0  0
  6 91  1  0  0  0
  6 92  1  0  0  0
  7  8  2  0  0  0
  7 26  1  0  0  0
  7 29  1  0  0  0
  8  9  1  0  0  0
  8 22  1  0  0  0
  9 10  1  0  0  0
  9 27  2  0  0  0
 10 11  2  0  0  0
 10 15  1  0  0  0
 11 12  1  0  0  0
 11 93  1  0  0  0
 12 13  2  0  0  0
 12 94  1  0  0  0
 13 14  1  0  0  0
 13 31  1  0  0  0
 14 15  2  0  0  0
 14 95  1  0  0  0
 15 96  1  0  0  0
 16 17  2  0  0  0
 16 21  1  0  0  0
 16 31  1  0  0  0
 17 18  1  0  0  0
 17 97  1  0  0  0
 18 19  2  0  0  0
 18 98  1  0  0  0
 19 20  1  0  0  0
 19 24  1  0  0  0
 20 21  2  0  0  0
 20 99  1  0  0  0
 21 23  1  0  0  0
 22 28  1  0  0  0
 22 32  2  0  0  0
 26 27  1  0  0  0
 28100  1  0  0  0
 28101  1  0  0  0
 29102  1  0  0  0
 29103  1  0  0  0
 33 34  1  0  0  0
 33 66  1  0  0  0
 33 70  2  0  0  0
 34 36  1  0  0  0
 34 59  1  0  0  0
 34104  1  0  0  0
 35 44  2  0  0  0
 35 45  1  0  0  0
 35 68  1  0  0  0
 36 56  1  0  0  0
 36105  1  0  0  0
 37 39  1  0  0  0
 37 47  1  0  0  0
 37 66  1  0  0  0
 37106  1  0  0  0
 38 43  2  0  0  0
 38 46  1  0  0  0
 38 47  1  0  0  0
 39 64  1  0  0  0
 39 67  2  0  0  0
 40 52  1  0  0  0
 40 53  2  0  0  0
 40 58  1  0  0  0
 41107  1  0  0  0
 41108  1  0  0  0
 41109  1  0  0  0
 41 48  1  0  0  0
 42 43  1  0  0  0
 42 66  1  0  0  0
 42110  1  0  0  0
 42111  1  0  0  0
 43 44  1  0  0  0
 44112  1  0  0  0
 45 46  2  0  0  0
 45113  1  0  0  0
 46114  1  0  0  0
 47115  1  0  0  0
 47116  1  0  0  0
 48 56  1  0  0  0
 48 65  1  0  0  0
 48117  1  0  0  0
 49 50  1  0  0  0
 49 53  1  0  0  0
 49 64  1  0  0  0
 49118  1  0  0  0
 50 51  1  0  0  0
 50119  1  0  0  0
 50120  1  0  0  0
 51 52  1  0  0  0
 51121  1  0  0  0
 51122  1  0  0  0
 52123  1  0  0  0
 52124  1  0  0  0
 53 54  1  0  0  0
 54 55  2  0  0  0
 54125  1  0  0  0
 55 57  1  0  0  0
 55126  1  0  0  0
 56 69  2  0  0  0
 57 58  2  0  0  0
 57127  1  0  0  0
 58128  1  0  0  0
 59 60  1  0  0  0
 59 61  1  0  0  0
 59 62  1  0  0  0
 60129  1  0  0  0
 60130  1  0  0  0
 60131  1  0  0  0
 61132  1  0  0  0
 61133  1  0  0  0
 61134  1  0  0  0
 62135  1  0  0  0
 62136  1  0  0  0
 62137  1  0  0  0
 63 65  1  0  0  0
 63138  1  0  0  0
 63139  1  0  0  0
 63140  1  0  0  0
 64141  1  0  0  0
 65142  1  0  0  0
 68 76  1  0  0  0
 71 77  1  0  0  0
 71 79  2  0  0  0
 71 83  1  0  0  0
 72 79  1  0  0  0
 72 80  2  0  0  0
 72 81  1  0  0  0
 73143  1  0  0  0
 73144  1  0  0  0
 73145  1  0  0  0
 73 77  1  0  0  0
 74146  1  0  0  0
 74147  1  0  0  0
 74148  1  0  0  0
 74 78  1  0  0  0
 75 76  1  0  0  0
 75 78  1  0  0  0
 75149  1  0  0  0
 75150  1  0  0  0
 76151  1  0  0  0
 76152  1  0  0  0
 77 82  1  0  0  0
 77153  1  0  0  0
 78 82  1  0  0  0
 78154  1  0  0  0
 80 83  1  0  0  0
 81155  1  0  0  0
 82156  1  0  0  0
 82157  1  0  0  0
M  CHG  1  82   1
M  ISO  4   1 100  68 101  76 101  81 100
M  END
> <chiral flag>
0

> <version>
0

> <s_m_source_file>
/data/baiqing/PycharmProjects/Reinvent-master-3.2/result/LINK_invent/BTK/process_docking_weight1_custom_product_contain_oxygen_bond_distance_aromatic_linkinvent_7_9_3/rearranged_h_0197.sdf

> <i_m_source_file_index>
88

> <r_mmod_Potential_Energy-OPLS-2005>
-256.711883544922

> <r_mmod_Stretch_Energy-OPLS-2005>
59.0597457885742

> <r_mmod_Bend_Energy-OPLS-2005>
164.792510986328

> <r_mmod_Torsional_Energy-OPLS-2005>
202.665878295898

> <r_mmod_Improper_Torsional_Energy-OPLS-2005>
3.3923032283783

> <r_mmod_Van_der_Waal_Energy-OPLS-2005>
131.552536010742

> <r_mmod_Electrostatic_Energy-OPLS-2005>
-353.306396484375

> <r_mmod_Solvation_Energy-OPLS-2005>
-492.471527099609

> <b_mmod_Minimization_Converged-OPLS-2005>
0

> <r_mmod_RMS_Derivative-OPLS-2005>
4.99960136413574

$$$$
88
                    3D
 Structure written by MMmdl.
155163  0  0  1  0            999 V2000
  -30.6543  -14.5199   20.5687 C   0  0  0  0  0  0
  -30.4380  -12.3324   19.4285 C   0  0  0  0  0  0
  -29.5058  -12.5080   18.2102 C   0  0  0  0  0  0
  -28.0267  -12.3517   18.6176 C   0  0  0  0  0  0
  -27.6600  -13.1978   19.8680 C   0  0  2  0  0  0
  -28.6994  -12.9912   20.9930 C   0  0  0  0  0  0
  -25.2601  -13.8127   20.5641 C   0  0  0  0  0  0
  -24.1842  -13.0405   20.9168 C   0  0  0  0  0  0
  -24.6383  -11.6871   20.8717 C   0  0  0  0  0  0
  -23.9032  -10.4274   21.0392 C   0  0  0  0  0  0
  -24.3604   -9.4200   21.9176 C   0  0  0  0  0  0
  -23.6287   -8.2234   22.0748 C   0  0  0  0  0  0
  -22.4273   -8.0270   21.3531 C   0  0  0  0  0  0
  -21.9889   -9.0231   20.4632 C   0  0  0  0  0  0
  -22.7200  -10.2118   20.3033 C   0  0  0  0  0  0
  -21.6842   -6.0725   22.5285 C   0  0  0  0  0  0
  -21.4000   -6.5639   23.8214 C   0  0  0  0  0  0
  -21.3672   -5.6792   24.9185 C   0  0  0  0  0  0
  -21.6049   -4.3051   24.7228 C   0  0  0  0  0  0
  -21.8820   -3.8140   23.4350 C   0  0  0  0  0  0
  -21.9191   -4.6956   22.3408 C   0  0  0  0  0  0
  -22.7874  -13.5240   21.1841 C   0  0  0  0  0  0
  -22.1661   -4.2149   21.0971 F   0  0  0  0  0  0
  -21.5646   -3.4525   25.7739 F   0  0  0  0  0  0
  -30.0245  -13.3196   20.4391 N   0  0  0  0  0  0
  -26.3010  -12.9268   20.3304 N   0  0  0  0  0  0
  -25.9301  -11.6441   20.5710 N   0  0  0  0  0  0
  -22.0504  -12.8238   22.0393 N   0  0  0  0  0  0
  -25.4346  -15.1836   20.4056 N   0  0  0  0  0  0
  -31.8162  -14.7114   20.1942 O   0  0  0  0  0  0
  -21.6632   -6.8859   21.4243 O   0  0  0  0  0  0
  -22.3571  -14.5547   20.6690 O   0  0  0  0  0  0
  -24.6184  -31.8699   23.2067 C   0  0  0  0  0  0
  -25.9072  -32.4837   23.8392 C   0  0  1  0  0  0
  -27.2290  -27.4013   20.0951 C   0  0  0  0  0  0
  -25.5931  -33.8635   24.2305 N   0  0  0  0  0  0
  -23.4059  -30.4975   21.5453 C   0  0  2  0  0  0
  -24.8496  -28.9616   20.1134 C   0  0  0  0  0  0
  -22.7431  -29.4700   22.4926 C   0  0  0  0  0  0
  -18.0282  -28.1373   22.8501 C   0  0  0  0  0  0
  -24.1490  -36.7306   23.2643 C   0  0  0  0  0  0
  -25.9425  -30.8259   21.3641 C   0  0  0  0  0  0
  -26.0149  -29.4590   20.7073 C   0  0  0  0  0  0
  -27.2048  -28.6900   20.6873 C   0  0  0  0  0  0
  -26.0329  -26.9241   19.5065 C   0  0  0  0  0  0
  -24.8571  -27.6960   19.5084 C   0  0  0  0  0  0
  -23.6190  -29.8386   20.1580 C   0  0  0  0  0  0
  -25.4117  -36.3116   24.0333 C   0  0  1  0  0  0
  -20.5885  -28.3660   23.1304 C   0  0  2  0  0  0
  -20.6780  -26.9395   22.5406 C   0  0  0  0  0  0
  -19.5767  -26.6374   21.5206 C   0  0  0  0  0  0
  -18.1936  -26.7922   22.1616 C   0  0  0  0  0  0
  -19.1539  -28.8823   23.2916 C   0  0  0  0  0  0
  -18.9473  -30.1422   23.8939 C   0  0  0  0  0  0
  -17.6480  -30.6586   24.0562 C   0  0  0  0  0  0
  -25.9044  -34.9490   23.5101 C   0  0  0  0  0  0
  -16.5363  -29.9094   23.6326 C   0  0  0  0  0  0
  -16.7273  -28.6505   23.0356 C   0  0  0  0  0  0
  -26.4464  -31.6651   25.0748 C   0  0  0  0  0  0
  -25.3731  -31.3804   26.1506 C   0  0  0  0  0  0
  -27.0293  -30.3098   24.6134 C   0  0  0  0  0  0
  -27.6023  -32.4394   25.7515 C   0  0  0  0  0  0
  -27.5585  -37.1819   24.8472 C   0  0  0  0  0  0
  -21.4149  -29.3059   22.3706 N   0  0  0  0  0  0
  -26.4298  -37.3804   23.9417 N   0  0  0  0  0  0
  -24.6737  -31.0819   22.0947 N   0  0  0  0  0  0
  -23.4201  -28.8238   23.2967 O   0  0  0  0  0  0
  -28.4123  -26.6744   20.1152 O   0  0  0  0  0  0
  -26.5605  -34.8942   22.4658 O   0  0  0  0  0  0
  -23.5382  -32.1430   23.7463 O   0  0  0  0  0  0
  -30.6038  -18.9812   22.4353 C   0  0  0  0  0  0
  -29.9838  -19.1740   21.2213 C   0  0  0  0  0  0
  -30.1580  -16.8707   21.2631 C   0  0  0  0  0  0
  -30.9920  -22.2321   21.6215 C   0  0  0  0  0  0
  -28.9639  -22.7964   20.1877 C   0  0  0  0  0  0
  -28.4815  -25.3107   19.6273 C   0  0  0  0  0  0
  -29.5869  -21.7603   21.1888 C   0  0  1  0  0  0
  -28.5628  -24.2147   20.7380 C   0  0  1  0  0  0
  -29.6988  -17.9452   20.5903 N   0  0  0  0  0  0
  -29.6223  -20.4018   20.5983 N   0  0  0  0  0  0
  -29.8267  -15.5394   20.8893 N   0  0  0  0  0  0
  -27.2902  -24.0840   21.3561 O   0  0  0  0  0  0
  -30.9484  -17.2965   22.7704 S   0  0  0  0  0  0
  -31.4807  -12.4544   19.1331 H   0  0  0  0  0  0
  -30.3569  -11.3213   19.8317 H   0  0  0  0  0  0
  -29.7595  -11.7808   17.4378 H   0  0  0  0  0  0
  -29.6647  -13.4900   17.7628 H   0  0  0  0  0  0
  -27.8548  -11.2930   18.8211 H   0  0  0  0  0  0
  -27.3746  -12.6101   17.7829 H   0  0  0  0  0  0
  -27.6985  -14.2432   19.5605 H   0  0  0  0  0  0
  -28.6890  -11.9534   21.3322 H   0  0  0  0  0  0
  -28.4551  -13.5907   21.8722 H   0  0  0  0  0  0
  -25.2755   -9.5682   22.4741 H   0  0  0  0  0  0
  -24.0010   -7.4608   22.7455 H   0  0  0  0  0  0
  -21.0826   -8.8694   19.8934 H   0  0  0  0  0  0
  -22.3633  -10.9632   19.6126 H   0  0  0  0  0  0
  -21.1973   -7.6137   23.9718 H   0  0  0  0  0  0
  -21.1511   -6.0519   25.9086 H   0  0  0  0  0  0
  -22.0594   -2.7595   23.2841 H   0  0  0  0  0  0
  -22.4135  -11.9907   22.4775 H   0  0  0  0  0  0
  -21.1097  -13.1235   22.2556 H   0  0  0  0  0  0
  -24.6644  -15.8335   20.5155 H   0  0  0  0  0  0
  -26.2780  -15.6240   20.0592 H   0  0  0  0  0  0
  -26.7147  -32.5520   23.1161 H   0  0  0  0  0  0
  -25.0192  -33.9815   25.0524 H   0  0  0  0  0  0
  -22.6969  -31.3158   21.4050 H   0  0  0  0  0  0
  -23.3761  -35.9633   23.3313 H   0  0  0  0  0  0
  -24.3593  -36.8903   22.2059 H   0  0  0  0  0  0
  -23.7217  -37.6503   23.6644 H   0  0  0  0  0  0
  -26.0736  -31.5938   20.5993 H   0  0  0  0  0  0
  -26.8251  -30.8704   21.9924 H   0  0  0  0  0  0
  -28.1051  -29.0805   21.1389 H   0  0  0  0  0  0
  -25.9575  -25.9571   19.0379 H   0  0  0  0  0  0
  -23.9623  -27.3038   19.0445 H   0  0  0  0  0  0
  -23.7454  -30.6186   19.4048 H   0  0  0  0  0  0
  -22.7388  -29.2726   19.8476 H   0  0  0  0  0  0
  -25.1286  -36.1980   25.0824 H   0  0  0  0  0  0
  -20.9993  -28.3212   24.1418 H   0  0  0  0  0  0
  -20.5679  -26.2261   23.3582 H   0  0  0  0  0  0
  -21.6645  -26.7448   22.1200 H   0  0  0  0  0  0
  -19.6931  -25.6280   21.1243 H   0  0  0  0  0  0
  -19.6709  -27.3177   20.6724 H   0  0  0  0  0  0
  -17.4202  -26.6675   21.4013 H   0  0  0  0  0  0
  -18.0345  -26.0044   22.8995 H   0  0  0  0  0  0
  -19.7953  -30.7218   24.2336 H   0  0  0  0  0  0
  -17.5044  -31.6281   24.5143 H   0  0  0  0  0  0
  -15.5374  -30.3023   23.7613 H   0  0  0  0  0  0
  -15.8668  -28.0831   22.7070 H   0  0  0  0  0  0
  -24.5865  -30.7170   25.7881 H   0  0  0  0  0  0
  -24.8971  -32.2988   26.4965 H   0  0  0  0  0  0
  -25.8091  -30.8990   27.0264 H   0  0  0  0  0  0
  -26.2840  -29.6891   24.1135 H   0  0  0  0  0  0
  -27.4012  -29.7316   25.4602 H   0  0  0  0  0  0
  -27.8695  -30.4436   23.9313 H   0  0  0  0  0  0
  -27.2608  -33.3686   26.2096 H   0  0  0  0  0  0
  -28.3828  -32.6977   25.0347 H   0  0  0  0  0  0
  -28.0677  -31.8526   26.5444 H   0  0  0  0  0  0
  -28.2604  -38.0117   24.7525 H   0  0  0  0  0  0
  -28.1072  -36.2649   24.6271 H   0  0  0  0  0  0
  -27.2322  -37.1438   25.8881 H   0  0  0  0  0  0
  -20.9264  -29.8841   21.7011 H   0  0  0  0  0  0
  -26.0186  -38.2882   24.1403 H   0  0  0  0  0  0
  -30.8998  -19.7139   23.1696 H   0  0  0  0  0  0
  -31.6864  -22.2575   20.7820 H   0  0  0  0  0  0
  -31.4370  -21.6094   22.3923 H   0  0  0  0  0  0
  -30.9653  -23.2362   22.0431 H   0  0  0  0  0  0
  -28.0909  -22.3526   19.7049 H   0  0  0  0  0  0
  -29.6752  -22.9336   19.3711 H   0  0  0  0  0  0
  -27.7548  -25.0519   18.8616 H   0  0  0  0  0  0
  -29.4280  -25.2824   19.0883 H   0  0  0  0  0  0
  -28.9516  -21.7129   22.0744 H   0  0  0  0  0  0
  -29.2833  -24.5453   21.4881 H   0  0  0  0  0  0
  -29.1239  -20.2985   19.7178 H   0  0  0  0  0  0
  -28.8564  -15.2893   20.9884 H   0  0  0  0  0  0
  -26.6600  -23.8701   20.6761 H   0  0  0  0  0  0
  1 25  1  0  0  0
  1 30  2  0  0  0
  1 81  1  0  0  0
  2  3  1  0  0  0
  2 25  1  0  0  0
  2 84  1  0  0  0
  2 85  1  0  0  0
  3  4  1  0  0  0
  3 86  1  0  0  0
  3 87  1  0  0  0
  4  5  1  0  0  0
  4 88  1  0  0  0
  4 89  1  0  0  0
  5  6  1  0  0  0
  5 26  1  0  0  0
  5 90  1  0  0  0
  6 25  1  0  0  0
  6 91  1  0  0  0
  6 92  1  0  0  0
  7  8  2  0  0  0
  7 26  1  0  0  0
  7 29  1  0  0  0
  8  9  1  0  0  0
  8 22  1  0  0  0
  9 10  1  0  0  0
  9 27  2  0  0  0
 10 11  2  0  0  0
 10 15  1  0  0  0
 11 12  1  0  0  0
 11 93  1  0  0  0
 12 13  2  0  0  0
 12 94  1  0  0  0
 13 14  1  0  0  0
 13 31  1  0  0  0
 14 15  2  0  0  0
 14 95  1  0  0  0
 15 96  1  0  0  0
 16 17  2  0  0  0
 16 21  1  0  0  0
 16 31  1  0  0  0
 17 18  1  0  0  0
 17 97  1  0  0  0
 18 19  2  0  0  0
 18 98  1  0  0  0
 19 20  1  0  0  0
 19 24  1  0  0  0
 20 21  2  0  0  0
 20 99  1  0  0  0
 21 23  1  0  0  0
 22 28  1  0  0  0
 22 32  2  0  0  0
 26 27  1  0  0  0
 28100  1  0  0  0
 28101  1  0  0  0
 29102  1  0  0  0
 29103  1  0  0  0
 33 34  1  0  0  0
 33 66  1  0  0  0
 33 70  2  0  0  0
 34 36  1  0  0  0
 34 59  1  0  0  0
 34104  1  0  0  0
 35 44  2  0  0  0
 35 45  1  0  0  0
 35 68  1  0  0  0
 36 56  1  0  0  0
 36105  1  0  0  0
 37 39  1  0  0  0
 37 47  1  0  0  0
 37 66  1  0  0  0
 37106  1  0  0  0
 38 43  2  0  0  0
 38 46  1  0  0  0
 38 47  1  0  0  0
 39 64  1  0  0  0
 39 67  2  0  0  0
 40 52  1  0  0  0
 40 53  2  0  0  0
 40 58  1  0  0  0
 41107  1  0  0  0
 41108  1  0  0  0
 41109  1  0  0  0
 41 48  1  0  0  0
 42 43  1  0  0  0
 42 66  1  0  0  0
 42110  1  0  0  0
 42111  1  0  0  0
 43 44  1  0  0  0
 44112  1  0  0  0
 45 46  2  0  0  0
 45113  1  0  0  0
 46114  1  0  0  0
 47115  1  0  0  0
 47116  1  0  0  0
 48 56  1  0  0  0
 48 65  1  0  0  0
 48117  1  0  0  0
 49 50  1  0  0  0
 49 53  1  0  0  0
 49 64  1  0  0  0
 49118  1  0  0  0
 50 51  1  0  0  0
 50119  1  0  0  0
 50120  1  0  0  0
 51 52  1  0  0  0
 51121  1  0  0  0
 51122  1  0  0  0
 52123  1  0  0  0
 52124  1  0  0  0
 53 54  1  0  0  0
 54 55  2  0  0  0
 54125  1  0  0  0
 55 57  1  0  0  0
 55126  1  0  0  0
 56 69  2  0  0  0
 57 58  2  0  0  0
 57127  1  0  0  0
 58128  1  0  0  0
 59 60  1  0  0  0
 59 61  1  0  0  0
 59 62  1  0  0  0
 60129  1  0  0  0
 60130  1  0  0  0
 60131  1  0  0  0
 61132  1  0  0  0
 61133  1  0  0  0
 61134  1  0  0  0
 62135  1  0  0  0
 62136  1  0  0  0
 62137  1  0  0  0
 63 65  1  0  0  0
 63138  1  0  0  0
 63139  1  0  0  0
 63140  1  0  0  0
 64141  1  0  0  0
 65142  1  0  0  0
 68 76  1  0  0  0
 71 72  2  0  0  0
 71 83  1  0  0  0
 71143  1  0  0  0
 72 79  1  0  0  0
 72 80  1  0  0  0
 73 79  2  0  0  0
 73 81  1  0  0  0
 73 83  1  0  0  0
 74144  1  0  0  0
 74145  1  0  0  0
 74146  1  0  0  0
 74 77  1  0  0  0
 75 77  1  0  0  0
 75 78  1  0  0  0
 75147  1  0  0  0
 75148  1  0  0  0
 76 78  1  0  0  0
 76149  1  0  0  0
 76150  1  0  0  0
 77 80  1  0  0  0
 77151  1  0  0  0
 78 82  1  0  0  0
 78152  1  0  0  0
 80153  1  0  0  0
 81154  1  0  0  0
 82155  1  0  0  0
M  ISO  4   1 100  68 101  76 101  81 100
M  END
> <chiral flag>
0

> <version>
0

> <s_m_source_file>
/data/baiqing/PycharmProjects/Reinvent-master-3.2/result/LINK_invent/BTK/process_docking_weight1_custom_product_contain_oxygen_bond_distance_aromatic_linkinvent_7_9_3/rearranged_h_0197.sdf

> <i_m_source_file_index>
89

> <r_mmod_Potential_Energy-OPLS-2005>
-125.602165222168

> <r_mmod_Stretch_Energy-OPLS-2005>
44.9287757873535

> <r_mmod_Bend_Energy-OPLS-2005>
123.795303344727

> <r_mmod_Torsional_Energy-OPLS-2005>
232.083694458008

> <r_mmod_Improper_Torsional_Energy-OPLS-2005>
7.77359819412231

> <r_mmod_Van_der_Waal_Energy-OPLS-2005>
126.892501831055

> <r_mmod_Electrostatic_Energy-OPLS-2005>
-434.986511230469

> <r_mmod_Solvation_Energy-OPLS-2005>
-246.482070922852

> <b_mmod_Minimization_Converged-OPLS-2005>
0

> <r_mmod_RMS_Derivative-OPLS-2005>
3.29599332809448

$$$$
89
                    3D
 Structure written by MMmdl.
157165  0  0  1  0            999 V2000
  -30.6958  -14.4705   20.5552 C   0  0  0  0  0  0
  -30.4268  -12.2987   19.4182 C   0  0  0  0  0  0
  -29.4948  -12.4939   18.2042 C   0  0  0  0  0  0
  -28.0150  -12.3586   18.6166 C   0  0  0  0  0  0
  -27.6611  -13.2012   19.8710 C   0  0  2  0  0  0
  -28.7049  -12.9828   20.9899 C   0  0  0  0  0  0
  -25.2588  -13.8140   20.5647 C   0  0  0  0  0  0
  -24.1838  -13.0425   20.9157 C   0  0  0  0  0  0
  -24.6395  -11.6883   20.8722 C   0  0  0  0  0  0
  -23.9057  -10.4274   21.0402 C   0  0  0  0  0  0
  -24.3610   -9.4190   21.9187 C   0  0  0  0  0  0
  -23.6283   -8.2234   22.0767 C   0  0  0  0  0  0
  -22.4264   -8.0272   21.3554 C   0  0  0  0  0  0
  -21.9893   -9.0246   20.4656 C   0  0  0  0  0  0
  -22.7228  -10.2118   20.3056 C   0  0  0  0  0  0
  -21.6847   -6.0723   22.5273 C   0  0  0  0  0  0
  -21.4028   -6.5633   23.8207 C   0  0  0  0  0  0
  -21.3651   -5.6788   24.9171 C   0  0  0  0  0  0
  -21.6036   -4.3053   24.7224 C   0  0  0  0  0  0
  -21.8823   -3.8137   23.4350 C   0  0  0  0  0  0
  -21.9197   -4.6954   22.3401 C   0  0  0  0  0  0
  -22.7866  -13.5227   21.1820 C   0  0  0  0  0  0
  -22.1658   -4.2130   21.0980 F   0  0  0  0  0  0
  -21.5617   -3.4539   25.7742 F   0  0  0  0  0  0
  -30.0384  -13.2853   20.4350 N   0  0  0  0  0  0
  -26.3015  -12.9297   20.3333 N   0  0  0  0  0  0
  -25.9316  -11.6463   20.5757 N   0  0  0  0  0  0
  -22.0509  -12.8235   22.0385 N   0  0  0  0  0  0
  -25.4336  -15.1864   20.4015 N   0  0  0  0  0  0
  -31.8376  -14.6493   20.1152 O   0  0  0  0  0  0
  -21.6634   -6.8867   21.4238 O   0  0  0  0  0  0
  -22.3541  -14.5534   20.6669 O   0  0  0  0  0  0
  -24.6128  -31.8696   23.2100 C   0  0  0  0  0  0
  -25.9022  -32.4828   23.8405 C   0  0  1  0  0  0
  -27.2271  -27.4348   20.1160 C   0  0  0  0  0  0
  -25.5903  -33.8630   24.2347 N   0  0  0  0  0  0
  -23.4013  -30.4917   21.5488 C   0  0  2  0  0  0
  -24.8492  -28.9579   20.1126 C   0  0  0  0  0  0
  -22.7435  -29.4640   22.4977 C   0  0  0  0  0  0
  -18.0275  -28.1362   22.8466 C   0  0  0  0  0  0
  -24.1487  -36.7296   23.2645 C   0  0  0  0  0  0
  -25.9287  -30.8390   21.3593 C   0  0  0  0  0  0
  -26.0083  -29.4716   20.7106 C   0  0  0  0  0  0
  -27.2035  -28.7169   20.7093 C   0  0  0  0  0  0
  -26.0566  -26.9296   19.5160 C   0  0  0  0  0  0
  -24.8682  -27.6868   19.5097 C   0  0  0  0  0  0
  -23.6101  -29.8258   20.1619 C   0  0  0  0  0  0
  -25.4116  -36.3117   24.0345 C   0  0  1  0  0  0
  -20.5871  -28.3640   23.1321 C   0  0  2  0  0  0
  -20.6773  -26.9380   22.5433 C   0  0  0  0  0  0
  -19.5764  -26.6393   21.5203 C   0  0  0  0  0  0
  -18.1924  -26.7908   22.1596 C   0  0  0  0  0  0
  -19.1531  -28.8817   23.2877 C   0  0  0  0  0  0
  -18.9477  -30.1425   23.8888 C   0  0  0  0  0  0
  -17.6479  -30.6568   24.0541 C   0  0  0  0  0  0
  -25.9048  -34.9478   23.5145 C   0  0  0  0  0  0
  -16.5359  -29.9083   23.6308 C   0  0  0  0  0  0
  -16.7263  -28.6502   23.0319 C   0  0  0  0  0  0
  -26.4449  -31.6609   25.0723 C   0  0  0  0  0  0
  -25.3716  -31.3730   26.1478 C   0  0  0  0  0  0
  -27.0282  -30.3065   24.6064 C   0  0  0  0  0  0
  -27.6033  -32.4337   25.7475 C   0  0  0  0  0  0
  -27.5583  -37.1815   24.8478 C   0  0  0  0  0  0
  -21.4162  -29.3006   22.3744 N   0  0  0  0  0  0
  -26.4301  -37.3807   23.9419 N   0  0  0  0  0  0
  -24.6657  -31.0831   22.0975 N   0  0  0  0  0  0
  -23.4216  -28.8176   23.3001 O   0  0  0  0  0  0
  -28.3695  -26.6708   20.1077 O   0  0  0  0  0  0
  -26.5608  -34.8926   22.4702 O   0  0  0  0  0  0
  -23.5328  -32.1443   23.7507 O   0  0  0  0  0  0
  -31.5480  -18.7187   21.5439 C   0  0  0  0  0  0
  -29.0860  -17.7261   21.0887 C   0  0  0  0  0  0
  -30.4067  -19.5588   21.5593 C   0  0  0  0  0  0
  -30.2123  -16.8618   21.1267 C   0  0  0  0  0  0
  -30.3639  -23.8464   22.8298 C   0  0  0  0  0  0
  -30.4803  -21.0043   22.0536 C   0  0  0  0  0  0
  -29.1974  -24.3984   20.6233 C   0  0  0  0  0  0
  -28.3906  -25.6363   21.1035 C   0  0  0  0  0  0
  -29.4662  -23.2957   21.6953 C   0  0  1  0  0  0
  -29.1731  -19.0651   21.2937 N   0  0  0  0  0  0
  -31.4540  -17.3814   21.3289 N   0  0  0  0  0  0
  -29.9317  -15.4734   21.0184 N   0  0  0  0  0  0
  -30.0239  -22.0391   21.0890 N   0  3  0  0  0  0
  -31.4708  -12.3966   19.1150 H   0  0  0  0  0  0
  -30.3281  -11.2889   19.8209 H   0  0  0  0  0  0
  -29.7300  -11.7652   17.4279 H   0  0  0  0  0  0
  -29.6657  -13.4757   17.7607 H   0  0  0  0  0  0
  -27.8202  -11.3040   18.8145 H   0  0  0  0  0  0
  -27.3656  -12.6308   17.7830 H   0  0  0  0  0  0
  -27.7025  -14.2468   19.5670 H   0  0  0  0  0  0
  -28.6775  -11.9466   21.3300 H   0  0  0  0  0  0
  -28.4676  -13.5805   21.8718 H   0  0  0  0  0  0
  -25.2761   -9.5649   22.4751 H   0  0  0  0  0  0
  -23.9971   -7.4624   22.7495 H   0  0  0  0  0  0
  -21.0814   -8.8766   19.8969 H   0  0  0  0  0  0
  -22.3692  -10.9655   19.6153 H   0  0  0  0  0  0
  -21.2039   -7.6145   23.9704 H   0  0  0  0  0  0
  -21.1461   -6.0524   25.9069 H   0  0  0  0  0  0
  -22.0614   -2.7599   23.2862 H   0  0  0  0  0  0
  -22.4129  -11.9882   22.4743 H   0  0  0  0  0  0
  -21.1148  -13.1284   22.2629 H   0  0  0  0  0  0
  -24.6625  -15.8398   20.4890 H   0  0  0  0  0  0
  -26.2661  -15.6088   20.0111 H   0  0  0  0  0  0
  -26.7117  -32.5526   23.1194 H   0  0  0  0  0  0
  -25.0031  -33.9805   25.0471 H   0  0  0  0  0  0
  -22.6842  -31.3039   21.4109 H   0  0  0  0  0  0
  -23.3745  -35.9625   23.3325 H   0  0  0  0  0  0
  -24.3595  -36.8900   22.2063 H   0  0  0  0  0  0
  -23.7233  -37.6508   23.6638 H   0  0  0  0  0  0
  -26.0435  -31.6082   20.5935 H   0  0  0  0  0  0
  -26.8173  -30.8913   21.9772 H   0  0  0  0  0  0
  -28.1002  -29.1029   21.1742 H   0  0  0  0  0  0
  -26.0594  -25.9459   19.0667 H   0  0  0  0  0  0
  -23.9784  -27.2831   19.0464 H   0  0  0  0  0  0
  -23.7150  -30.6022   19.4033 H   0  0  0  0  0  0
  -22.7331  -29.2453   19.8679 H   0  0  0  0  0  0
  -25.1293  -36.1997   25.0843 H   0  0  0  0  0  0
  -20.9927  -28.3191   24.1453 H   0  0  0  0  0  0
  -20.5699  -26.2235   23.3609 H   0  0  0  0  0  0
  -21.6645  -26.7441   22.1222 H   0  0  0  0  0  0
  -19.6947  -25.6322   21.1214 H   0  0  0  0  0  0
  -19.6727  -27.3205   20.6730 H   0  0  0  0  0  0
  -17.4222  -26.6652   21.3969 H   0  0  0  0  0  0
  -18.0301  -26.0039   22.8993 H   0  0  0  0  0  0
  -19.7968  -30.7217   24.2271 H   0  0  0  0  0  0
  -17.5052  -31.6248   24.5150 H   0  0  0  0  0  0
  -15.5366  -30.2979   23.7675 H   0  0  0  0  0  0
  -15.8649  -28.0840   22.7019 H   0  0  0  0  0  0
  -24.5906  -30.7037   25.7845 H   0  0  0  0  0  0
  -24.8847  -32.2883   26.4869 H   0  0  0  0  0  0
  -25.8086  -30.8978   27.0267 H   0  0  0  0  0  0
  -26.2814  -29.6860   24.1090 H   0  0  0  0  0  0
  -27.4060  -29.7285   25.4502 H   0  0  0  0  0  0
  -27.8647  -30.4410   23.9192 H   0  0  0  0  0  0
  -27.2666  -33.3668   26.2001 H   0  0  0  0  0  0
  -28.3861  -32.6859   25.0312 H   0  0  0  0  0  0
  -28.0641  -31.8469   26.5438 H   0  0  0  0  0  0
  -28.2617  -38.0095   24.7534 H   0  0  0  0  0  0
  -28.1080  -36.2643   24.6301 H   0  0  0  0  0  0
  -27.2310  -37.1454   25.8884 H   0  0  0  0  0  0
  -20.9329  -29.8729   21.6968 H   0  0  0  0  0  0
  -26.0195  -38.2886   24.1438 H   0  0  0  0  0  0
  -32.5337  -19.0987   21.7754 H   0  0  0  0  0  0
  -28.0923  -17.3324   20.9258 H   0  0  0  0  0  0
  -29.9250  -24.7217   23.3060 H   0  0  0  0  0  0
  -31.3461  -24.1369   22.4551 H   0  0  0  0  0  0
  -30.5022  -23.1276   23.6370 H   0  0  0  0  0  0
  -31.4980  -21.2333   22.3717 H   0  0  0  0  0  0
  -29.8585  -21.0406   22.9492 H   0  0  0  0  0  0
  -30.1494  -24.7372   20.2142 H   0  0  0  0  0  0
  -28.6495  -23.9579   19.7916 H   0  0  0  0  0  0
  -28.8310  -26.0726   21.9988 H   0  0  0  0  0  0
  -27.3831  -25.3168   21.3830 H   0  0  0  0  0  0
  -28.5086  -23.0172   22.1397 H   0  0  0  0  0  0
  -28.9840  -15.2069   21.2302 H   0  0  0  0  0  0
  -29.3137  -21.6065   20.5204 H   0  0  0  0  0  0
  -30.7981  -22.2562   20.4828 H   0  0  0  0  0  0
  1 25  1  0  0  0
  1 30  2  0  0  0
  1 82  1  0  0  0
  2  3  1  0  0  0
  2 25  1  0  0  0
  2 84  1  0  0  0
  2 85  1  0  0  0
  3  4  1  0  0  0
  3 86  1  0  0  0
  3 87  1  0  0  0
  4  5  1  0  0  0
  4 88  1  0  0  0
  4 89  1  0  0  0
  5  6  1  0  0  0
  5 26  1  0  0  0
  5 90  1  0  0  0
  6 25  1  0  0  0
  6 91  1  0  0  0
  6 92  1  0  0  0
  7  8  2  0  0  0
  7 26  1  0  0  0
  7 29  1  0  0  0
  8  9  1  0  0  0
  8 22  1  0  0  0
  9 10  1  0  0  0
  9 27  2  0  0  0
 10 11  2  0  0  0
 10 15  1  0  0  0
 11 12  1  0  0  0
 11 93  1  0  0  0
 12 13  2  0  0  0
 12 94  1  0  0  0
 13 14  1  0  0  0
 13 31  1  0  0  0
 14 15  2  0  0  0
 14 95  1  0  0  0
 15 96  1  0  0  0
 16 17  2  0  0  0
 16 21  1  0  0  0
 16 31  1  0  0  0
 17 18  1  0  0  0
 17 97  1  0  0  0
 18 19  2  0  0  0
 18 98  1  0  0  0
 19 20  1  0  0  0
 19 24  1  0  0  0
 20 21  2  0  0  0
 20 99  1  0  0  0
 21 23  1  0  0  0
 22 28  1  0  0  0
 22 32  2  0  0  0
 26 27  1  0  0  0
 28100  1  0  0  0
 28101  1  0  0  0
 29102  1  0  0  0
 29103  1  0  0  0
 33 34  1  0  0  0
 33 66  1  0  0  0
 33 70  2  0  0  0
 34 36  1  0  0  0
 34 59  1  0  0  0
 34104  1  0  0  0
 35 44  2  0  0  0
 35 45  1  0  0  0
 35 68  1  0  0  0
 36 56  1  0  0  0
 36105  1  0  0  0
 37 39  1  0  0  0
 37 47  1  0  0  0
 37 66  1  0  0  0
 37106  1  0  0  0
 38 43  2  0  0  0
 38 46  1  0  0  0
 38 47  1  0  0  0
 39 64  1  0  0  0
 39 67  2  0  0  0
 40 52  1  0  0  0
 40 53  2  0  0  0
 40 58  1  0  0  0
 41107  1  0  0  0
 41108  1  0  0  0
 41109  1  0  0  0
 41 48  1  0  0  0
 42 43  1  0  0  0
 42 66  1  0  0  0
 42110  1  0  0  0
 42111  1  0  0  0
 43 44  1  0  0  0
 44112  1  0  0  0
 45 46  2  0  0  0
 45113  1  0  0  0
 46114  1  0  0  0
 47115  1  0  0  0
 47116  1  0  0  0
 48 56  1  0  0  0
 48 65  1  0  0  0
 48117  1  0  0  0
 49 50  1  0  0  0
 49 53  1  0  0  0
 49 64  1  0  0  0
 49118  1  0  0  0
 50 51  1  0  0  0
 50119  1  0  0  0
 50120  1  0  0  0
 51 52  1  0  0  0
 51121  1  0  0  0
 51122  1  0  0  0
 52123  1  0  0  0
 52124  1  0  0  0
 53 54  1  0  0  0
 54 55  2  0  0  0
 54125  1  0  0  0
 55 57  1  0  0  0
 55126  1  0  0  0
 56 69  2  0  0  0
 57 58  2  0  0  0
 57127  1  0  0  0
 58128  1  0  0  0
 59 60  1  0  0  0
 59 61  1  0  0  0
 59 62  1  0  0  0
 60129  1  0  0  0
 60130  1  0  0  0
 60131  1  0  0  0
 61132  1  0  0  0
 61133  1  0  0  0
 61134  1  0  0  0
 62135  1  0  0  0
 62136  1  0  0  0
 62137  1  0  0  0
 63 65  1  0  0  0
 63138  1  0  0  0
 63139  1  0  0  0
 63140  1  0  0  0
 64141  1  0  0  0
 65142  1  0  0  0
 68 78  1  0  0  0
 71 73  2  0  0  0
 71 81  1  0  0  0
 71143  1  0  0  0
 72 74  1  0  0  0
 72 80  2  0  0  0
 72144  1  0  0  0
 73 76  1  0  0  0
 73 80  1  0  0  0
 74 81  2  0  0  0
 74 82  1  0  0  0
 75145  1  0  0  0
 75146  1  0  0  0
 75147  1  0  0  0
 75 79  1  0  0  0
 76 83  1  0  0  0
 76148  1  0  0  0
 76149  1  0  0  0
 77 78  1  0  0  0
 77 79  1  0  0  0
 77150  1  0  0  0
 77151  1  0  0  0
 78152  1  0  0  0
 78153  1  0  0  0
 79 83  1  0  0  0
 79154  1  0  0  0
 82155  1  0  0  0
 83156  1  0  0  0
 83157  1  0  0  0
M  CHG  1  83   1
M  ISO  4   1 100  68 101  78 101  82 100
M  END
> <chiral flag>
0

> <version>
0

> <s_m_source_file>
/data/baiqing/PycharmProjects/Reinvent-master-3.2/result/LINK_invent/BTK/process_docking_weight1_custom_product_contain_oxygen_bond_distance_aromatic_linkinvent_7_9_3/rearranged_h_0197.sdf

> <i_m_source_file_index>
90

> <r_mmod_Potential_Energy-OPLS-2005>
-227.230026245117

> <r_mmod_Stretch_Energy-OPLS-2005>
40.0324592590332

> <r_mmod_Bend_Energy-OPLS-2005>
97.4858016967773

> <r_mmod_Torsional_Energy-OPLS-2005>
239.829376220703

> <r_mmod_Improper_Torsional_Energy-OPLS-2005>
5.33029174804688

> <r_mmod_Van_der_Waal_Energy-OPLS-2005>
157.024230957031

> <r_mmod_Electrostatic_Energy-OPLS-2005>
-281.620880126953

> <r_mmod_Solvation_Energy-OPLS-2005>
-498.677215576172

> <b_mmod_Minimization_Converged-OPLS-2005>
0

> <r_mmod_RMS_Derivative-OPLS-2005>
2.72356915473938

$$$$
90
                    3D
 Structure written by MMmdl.
170178  0  0  1  0            999 V2000
  -30.7323  -14.4104   20.6476 C   0  0  0  0  0  0
  -30.4229  -12.2963   19.4035 C   0  0  0  0  0  0
  -29.4891  -12.5203   18.1975 C   0  0  0  0  0  0
  -28.0099  -12.3828   18.6096 C   0  0  0  0  0  0
  -27.6657  -13.2028   19.8809 C   0  0  2  0  0  0
  -28.7051  -12.9426   20.9943 C   0  0  0  0  0  0
  -25.2597  -13.8160   20.5661 C   0  0  0  0  0  0
  -24.1847  -13.0439   20.9163 C   0  0  0  0  0  0
  -24.6392  -11.6911   20.8728 C   0  0  0  0  0  0
  -23.9056  -10.4293   21.0398 C   0  0  0  0  0  0
  -24.3610   -9.4210   21.9180 C   0  0  0  0  0  0
  -23.6289   -8.2243   22.0749 C   0  0  0  0  0  0
  -22.4275   -8.0273   21.3537 C   0  0  0  0  0  0
  -21.9903   -9.0249   20.4642 C   0  0  0  0  0  0
  -22.7227  -10.2130   20.3051 C   0  0  0  0  0  0
  -21.6856   -6.0735   22.5283 C   0  0  0  0  0  0
  -21.4008   -6.5638   23.8215 C   0  0  0  0  0  0
  -21.3662   -5.6789   24.9178 C   0  0  0  0  0  0
  -21.6042   -4.3051   24.7225 C   0  0  0  0  0  0
  -21.8823   -3.8143   23.4346 C   0  0  0  0  0  0
  -21.9189   -4.6960   22.3403 C   0  0  0  0  0  0
  -22.7868  -13.5233   21.1839 C   0  0  0  0  0  0
  -22.1662   -4.2146   21.0980 F   0  0  0  0  0  0
  -21.5630   -3.4532   25.7737 F   0  0  0  0  0  0
  -30.0461  -13.2509   20.4580 N   0  0  0  0  0  0
  -26.3035  -12.9325   20.3375 N   0  0  0  0  0  0
  -25.9317  -11.6487   20.5768 N   0  0  0  0  0  0
  -22.0511  -12.8230   22.0397 N   0  0  0  0  0  0
  -25.4319  -15.1872   20.4043 N   0  0  0  0  0  0
  -31.8021  -14.6531   20.0764 O   0  0  0  0  0  0
  -21.6640   -6.8871   21.4244 O   0  0  0  0  0  0
  -22.3554  -14.5548   20.6700 O   0  0  0  0  0  0
  -24.6128  -31.8692   23.2110 C   0  0  0  0  0  0
  -25.9027  -32.4828   23.8410 C   0  0  1  0  0  0
  -27.2466  -27.4566   20.0978 C   0  0  0  0  0  0
  -25.5889  -33.8629   24.2343 N   0  0  0  0  0  0
  -23.4022  -30.4919   21.5501 C   0  0  2  0  0  0
  -24.8521  -28.9497   20.1287 C   0  0  0  0  0  0
  -22.7408  -29.4671   22.4991 C   0  0  0  0  0  0
  -18.0291  -28.1373   22.8516 C   0  0  0  0  0  0
  -24.1490  -36.7303   23.2641 C   0  0  0  0  0  0
  -25.9294  -30.8359   21.3681 C   0  0  0  0  0  0
  -26.0093  -29.4665   20.7277 C   0  0  0  0  0  0
  -27.2105  -28.7237   20.7185 C   0  0  0  0  0  0
  -26.0761  -26.9416   19.5055 C   0  0  0  0  0  0
  -24.8769  -27.6805   19.5240 C   0  0  0  0  0  0
  -23.6149  -29.8187   20.1682 C   0  0  0  0  0  0
  -25.4107  -36.3119   24.0357 C   0  0  1  0  0  0
  -20.5881  -28.3654   23.1327 C   0  0  2  0  0  0
  -20.6790  -26.9391   22.5425 C   0  0  0  0  0  0
  -19.5764  -26.6379   21.5229 C   0  0  0  0  0  0
  -18.1936  -26.7931   22.1627 C   0  0  0  0  0  0
  -19.1540  -28.8833   23.2922 C   0  0  0  0  0  0
  -18.9466  -30.1448   23.8917 C   0  0  0  0  0  0
  -17.6471  -30.6586   24.0578 C   0  0  0  0  0  0
  -25.9027  -34.9483   23.5144 C   0  0  0  0  0  0
  -16.5355  -29.9100   23.6326 C   0  0  0  0  0  0
  -16.7280  -28.6512   23.0344 C   0  0  0  0  0  0
  -26.4456  -31.6599   25.0729 C   0  0  0  0  0  0
  -25.3727  -31.3728   26.1482 C   0  0  0  0  0  0
  -27.0287  -30.3058   24.6089 C   0  0  0  0  0  0
  -27.6040  -32.4312   25.7479 C   0  0  0  0  0  0
  -27.5592  -37.1813   24.8471 C   0  0  0  0  0  0
  -21.4142  -29.3021   22.3723 N   0  0  0  0  0  0
  -26.4299  -37.3797   23.9417 N   0  0  0  0  0  0
  -24.6656  -31.0810   22.1010 N   0  0  0  0  0  0
  -23.4189  -28.8217   23.3024 O   0  0  0  0  0  0
  -28.4198  -26.7619   19.9500 O   0  0  0  0  0  0
  -26.5574  -34.8928   22.4698 O   0  0  0  0  0  0
  -23.5326  -32.1426   23.7515 O   0  0  0  0  0  0
  -31.6142  -18.6206   21.6790 C   0  0  0  0  0  0
  -29.2974  -17.3788   22.2746 C   0  0  0  0  0  0
  -30.5282  -19.3278   22.2480 C   0  0  0  0  0  0
  -30.3726  -16.6547   21.6978 C   0  0  0  0  0  0
  -28.6927  -22.9028   26.1512 C   0  0  0  0  0  0
  -26.9321  -23.6000   24.4694 C   0  0  0  0  0  0
  -30.6080  -20.8205   22.5464 C   0  0  0  0  0  0
  -29.3688  -23.3910   23.7649 C   0  0  0  0  0  0
  -30.2965  -23.8021   21.4211 C   0  0  0  0  0  0
  -28.8661  -25.9772   21.0505 C   0  0  0  0  0  0
  -28.2534  -22.8409   24.6797 C   0  0  0  0  0  0
  -29.2793  -22.9855   22.2692 C   0  0  1  0  0  0
  -29.6851  -24.8212   20.4280 C   0  0  1  0  0  0
  -29.3608  -18.7059   22.5435 N   0  0  0  0  0  0
  -31.5370  -17.2935   21.4053 N   0  0  0  0  0  0
  -30.1276  -15.2754   21.4781 N   0  0  0  0  0  0
  -29.3913  -21.5114   22.0583 N   0  3  0  0  0  0
  -30.7748  -25.4118   19.7365 O   0  0  0  0  0  0
  -31.4657  -12.3990   19.0990 H   0  0  0  0  0  0
  -30.3256  -11.2755   19.7757 H   0  0  0  0  0  0
  -29.7215  -11.8087   17.4043 H   0  0  0  0  0  0
  -29.6626  -13.5123   17.7764 H   0  0  0  0  0  0
  -27.8102  -11.3254   18.7855 H   0  0  0  0  0  0
  -27.3616  -12.6803   17.7845 H   0  0  0  0  0  0
  -27.7224  -14.2572   19.6083 H   0  0  0  0  0  0
  -28.6747  -11.8954   21.2989 H   0  0  0  0  0  0
  -28.4511  -13.5023   21.8945 H   0  0  0  0  0  0
  -25.2763   -9.5689   22.4744 H   0  0  0  0  0  0
  -24.0006   -7.4633   22.7470 H   0  0  0  0  0  0
  -21.0831   -8.8755   19.8949 H   0  0  0  0  0  0
  -22.3680  -10.9662   19.6147 H   0  0  0  0  0  0
  -21.2002   -7.6147   23.9717 H   0  0  0  0  0  0
  -21.1479   -6.0519   25.9080 H   0  0  0  0  0  0
  -22.0599   -2.7604   23.2846 H   0  0  0  0  0  0
  -22.4113  -11.9879   22.4783 H   0  0  0  0  0  0
  -21.1123  -13.1257   22.2603 H   0  0  0  0  0  0
  -24.6596  -15.8392   20.4889 H   0  0  0  0  0  0
  -26.2769  -15.6216   20.0559 H   0  0  0  0  0  0
  -26.7098  -32.5541   23.1178 H   0  0  0  0  0  0
  -25.0104  -33.9784   25.0543 H   0  0  0  0  0  0
  -22.6928  -31.3088   21.4067 H   0  0  0  0  0  0
  -23.3757  -35.9627   23.3307 H   0  0  0  0  0  0
  -24.3605  -36.8898   22.2054 H   0  0  0  0  0  0
  -23.7234  -37.6516   23.6636 H   0  0  0  0  0  0
  -26.0448  -31.5975   20.5953 H   0  0  0  0  0  0
  -26.8157  -30.8876   21.9881 H   0  0  0  0  0  0
  -28.1117  -29.1313   21.1557 H   0  0  0  0  0  0
  -26.1013  -25.9793   19.0126 H   0  0  0  0  0  0
  -23.9885  -27.2757   19.0581 H   0  0  0  0  0  0
  -23.7292  -30.5887   19.4041 H   0  0  0  0  0  0
  -22.7394  -29.2389   19.8709 H   0  0  0  0  0  0
  -25.1289  -36.1987   25.0855 H   0  0  0  0  0  0
  -20.9984  -28.3208   24.1444 H   0  0  0  0  0  0
  -20.5706  -26.2253   23.3605 H   0  0  0  0  0  0
  -21.6657  -26.7448   22.1195 H   0  0  0  0  0  0
  -19.6920  -25.6295   21.1244 H   0  0  0  0  0  0
  -19.6714  -27.3206   20.6775 H   0  0  0  0  0  0
  -17.4222  -26.6710   21.4008 H   0  0  0  0  0  0
  -18.0305  -26.0064   22.9007 H   0  0  0  0  0  0
  -19.7938  -30.7279   24.2261 H   0  0  0  0  0  0
  -17.5019  -31.6264   24.5181 H   0  0  0  0  0  0
  -15.5351  -30.3004   23.7642 H   0  0  0  0  0  0
  -15.8680  -28.0849   22.7016 H   0  0  0  0  0  0
  -24.5893  -30.7075   25.7839 H   0  0  0  0  0  0
  -24.8909  -32.2884   26.4921 H   0  0  0  0  0  0
  -25.8068  -30.8919   27.0252 H   0  0  0  0  0  0
  -26.2839  -29.6824   24.1132 H   0  0  0  0  0  0
  -27.4071  -29.7296   25.4537 H   0  0  0  0  0  0
  -27.8660  -30.4410   23.9242 H   0  0  0  0  0  0
  -27.2684  -33.3619   26.2068 H   0  0  0  0  0  0
  -28.3832  -32.6855   25.0281 H   0  0  0  0  0  0
  -28.0714  -31.8420   26.5378 H   0  0  0  0  0  0
  -28.2609  -38.0111   24.7514 H   0  0  0  0  0  0
  -28.1083  -36.2646   24.6285 H   0  0  0  0  0  0
  -27.2312  -37.1439   25.8873 H   0  0  0  0  0  0
  -20.9290  -29.8753   21.6968 H   0  0  0  0  0  0
  -26.0193  -38.2879   24.1413 H   0  0  0  0  0  0
  -32.5443  -19.1148   21.4412 H   0  0  0  0  0  0
  -28.3628  -16.8897   22.5110 H   0  0  0  0  0  0
  -27.9123  -22.5336   26.8177 H   0  0  0  0  0  0
  -28.9384  -23.9210   26.4544 H   0  0  0  0  0  0
  -29.5766  -22.2866   26.3226 H   0  0  0  0  0  0
  -26.1528  -23.2329   25.1377 H   0  0  0  0  0  0
  -26.5574  -23.4879   23.4521 H   0  0  0  0  0  0
  -27.0532  -24.6672   24.6603 H   0  0  0  0  0  0
  -31.5035  -21.2434   22.0928 H   0  0  0  0  0  0
  -30.7126  -20.9380   23.6245 H   0  0  0  0  0  0
  -30.3469  -23.1112   24.1576 H   0  0  0  0  0  0
  -29.3540  -24.4806   23.8349 H   0  0  0  0  0  0
  -30.9324  -23.1228   20.8528 H   0  0  0  0  0  0
  -30.9822  -24.3303   22.0869 H   0  0  0  0  0  0
  -29.4703  -26.5786   21.7311 H   0  0  0  0  0  0
  -28.0180  -25.5892   21.6167 H   0  0  0  0  0  0
  -28.0797  -21.7884   24.4513 H   0  0  0  0  0  0
  -28.2802  -23.2391   21.9107 H   0  0  0  0  0  0
  -29.0641  -24.2896   19.7046 H   0  0  0  0  0  0
  -29.2755  -14.9234   21.8838 H   0  0  0  0  0  0
  -28.6190  -21.0454   22.5092 H   0  0  0  0  0  0
  -29.2976  -21.3075   21.0772 H   0  0  0  0  0  0
  -30.4072  -26.1162   19.2081 H   0  0  0  0  0  0
  1 25  1  0  0  0
  1 30  2  0  0  0
  1 86  1  0  0  0
  2  3  1  0  0  0
  2 25  1  0  0  0
  2 89  1  0  0  0
  2 90  1  0  0  0
  3  4  1  0  0  0
  3 91  1  0  0  0
  3 92  1  0  0  0
  4  5  1  0  0  0
  4 93  1  0  0  0
  4 94  1  0  0  0
  5  6  1  0  0  0
  5 26  1  0  0  0
  5 95  1  0  0  0
  6 25  1  0  0  0
  6 96  1  0  0  0
  6 97  1  0  0  0
  7  8  2  0  0  0
  7 26  1  0  0  0
  7 29  1  0  0  0
  8  9  1  0  0  0
  8 22  1  0  0  0
  9 10  1  0  0  0
  9 27  2  0  0  0
 10 11  2  0  0  0
 10 15  1  0  0  0
 11 12  1  0  0  0
 11 98  1  0  0  0
 12 13  2  0  0  0
 12 99  1  0  0  0
 13 14  1  0  0  0
 13 31  1  0  0  0
 14 15  2  0  0  0
 14100  1  0  0  0
 15101  1  0  0  0
 16 17  2  0  0  0
 16 21  1  0  0  0
 16 31  1  0  0  0
 17 18  1  0  0  0
 17102  1  0  0  0
 18 19  2  0  0  0
 18103  1  0  0  0
 19 20  1  0  0  0
 19 24  1  0  0  0
 20 21  2  0  0  0
 20104  1  0  0  0
 21 23  1  0  0  0
 22 28  1  0  0  0
 22 32  2  0  0  0
 26 27  1  0  0  0
 28105  1  0  0  0
 28106  1  0  0  0
 29107  1  0  0  0
 29108  1  0  0  0
 33 34  1  0  0  0
 33 66  1  0  0  0
 33 70  2  0  0  0
 34 36  1  0  0  0
 34 59  1  0  0  0
 34109  1  0  0  0
 35 44  2  0  0  0
 35 45  1  0  0  0
 35 68  1  0  0  0
 36 56  1  0  0  0
 36110  1  0  0  0
 37 39  1  0  0  0
 37 47  1  0  0  0
 37 66  1  0  0  0
 37111  1  0  0  0
 38 43  2  0  0  0
 38 46  1  0  0  0
 38 47  1  0  0  0
 39 64  1  0  0  0
 39 67  2  0  0  0
 40 52  1  0  0  0
 40 53  2  0  0  0
 40 58  1  0  0  0
 41112  1  0  0  0
 41113  1  0  0  0
 41114  1  0  0  0
 41 48  1  0  0  0
 42 43  1  0  0  0
 42 66  1  0  0  0
 42115  1  0  0  0
 42116  1  0  0  0
 43 44  1  0  0  0
 44117  1  0  0  0
 45 46  2  0  0  0
 45118  1  0  0  0
 46119  1  0  0  0
 47120  1  0  0  0
 47121  1  0  0  0
 48 56  1  0  0  0
 48 65  1  0  0  0
 48122  1  0  0  0
 49 50  1  0  0  0
 49 53  1  0  0  0
 49 64  1  0  0  0
 49123  1  0  0  0
 50 51  1  0  0  0
 50124  1  0  0  0
 50125  1  0  0  0
 51 52  1  0  0  0
 51126  1  0  0  0
 51127  1  0  0  0
 52128  1  0  0  0
 52129  1  0  0  0
 53 54  1  0  0  0
 54 55  2  0  0  0
 54130  1  0  0  0
 55 57  1  0  0  0
 55131  1  0  0  0
 56 69  2  0  0  0
 57 58  2  0  0  0
 57132  1  0  0  0
 58133  1  0  0  0
 59 60  1  0  0  0
 59 61  1  0  0  0
 59 62  1  0  0  0
 60134  1  0  0  0
 60135  1  0  0  0
 60136  1  0  0  0
 61137  1  0  0  0
 61138  1  0  0  0
 61139  1  0  0  0
 62140  1  0  0  0
 62141  1  0  0  0
 62142  1  0  0  0
 63 65  1  0  0  0
 63143  1  0  0  0
 63144  1  0  0  0
 63145  1  0  0  0
 64146  1  0  0  0
 65147  1  0  0  0
 68 80  1  0  0  0
 71 73  2  0  0  0
 71 85  1  0  0  0
 71148  1  0  0  0
 72 74  1  0  0  0
 72 84  2  0  0  0
 72149  1  0  0  0
 73 77  1  0  0  0
 73 84  1  0  0  0
 74 85  2  0  0  0
 74 86  1  0  0  0
 75150  1  0  0  0
 75151  1  0  0  0
 75152  1  0  0  0
 75 81  1  0  0  0
 76 81  1  0  0  0
 76153  1  0  0  0
 76154  1  0  0  0
 76155  1  0  0  0
 77 87  1  0  0  0
 77156  1  0  0  0
 77157  1  0  0  0
 78 81  1  0  0  0
 78158  1  0  0  0
 78159  1  0  0  0
 78 82  1  0  0  0
 79 82  1  0  0  0
 79 83  1  0  0  0
 79160  1  0  0  0
 79161  1  0  0  0
 80 83  1  0  0  0
 80162  1  0  0  0
 80163  1  0  0  0
 81164  1  0  0  0
 82 87  1  0  0  0
 82165  1  0  0  0
 83 88  1  0  0  0
 83166  1  0  0  0
 86167  1  0  0  0
 87168  1  0  0  0
 87169  1  0  0  0
 88170  1  0  0  0
M  CHG  1  87   1
M  ISO  4   1 100  68 101  80 101  86 100
M  END
> <chiral flag>
0

> <version>
0

> <s_m_source_file>
/data/baiqing/PycharmProjects/Reinvent-master-3.2/result/LINK_invent/BTK/process_docking_weight1_custom_product_contain_oxygen_bond_distance_aromatic_linkinvent_7_9_3/rearranged_h_0197.sdf

> <i_m_source_file_index>
91

> <r_mmod_Potential_Energy-OPLS-2005>
-204.132232666016

> <r_mmod_Stretch_Energy-OPLS-2005>
37.6433029174805

> <r_mmod_Bend_Energy-OPLS-2005>
109.402931213379

> <r_mmod_Torsional_Energy-OPLS-2005>
265.772094726562

> <r_mmod_Improper_Torsional_Energy-OPLS-2005>
2.75273823738098

> <r_mmod_Van_der_Waal_Energy-OPLS-2005>
154.711700439453

> <r_mmod_Electrostatic_Energy-OPLS-2005>
-287.289093017578

> <r_mmod_Solvation_Energy-OPLS-2005>
-494.831970214844

> <b_mmod_Minimization_Converged-OPLS-2005>
0

> <r_mmod_RMS_Derivative-OPLS-2005>
2.26447939872742

$$$$
91
                    3D
 Structure written by MMmdl.
159167  0  0  1  0            999 V2000
  -30.6870  -14.5901   20.5202 C   0  0  0  0  0  0
  -30.4173  -12.3637   19.4562 C   0  0  0  0  0  0
  -29.4988  -12.4950   18.2234 C   0  0  0  0  0  0
  -28.0223  -12.3421   18.6351 C   0  0  0  0  0  0
  -27.6485  -13.2213   19.8587 C   0  0  2  0  0  0
  -28.6915  -13.0936   20.9926 C   0  0  0  0  0  0
  -25.2522  -13.8191   20.5681 C   0  0  0  0  0  0
  -24.1799  -13.0446   20.9193 C   0  0  0  0  0  0
  -24.6379  -11.6921   20.8746 C   0  0  0  0  0  0
  -23.9055  -10.4298   21.0416 C   0  0  0  0  0  0
  -24.3612   -9.4208   21.9183 C   0  0  0  0  0  0
  -23.6295   -8.2239   22.0744 C   0  0  0  0  0  0
  -22.4275   -8.0279   21.3540 C   0  0  0  0  0  0
  -21.9912   -9.0252   20.4641 C   0  0  0  0  0  0
  -22.7232  -10.2137   20.3054 C   0  0  0  0  0  0
  -21.6854   -6.0737   22.5278 C   0  0  0  0  0  0
  -21.4019   -6.5640   23.8212 C   0  0  0  0  0  0
  -21.3659   -5.6789   24.9171 C   0  0  0  0  0  0
  -21.6042   -4.3049   24.7227 C   0  0  0  0  0  0
  -21.8813   -3.8145   23.4347 C   0  0  0  0  0  0
  -21.9190   -4.6966   22.3404 C   0  0  0  0  0  0
  -22.7818  -13.5226   21.1859 C   0  0  0  0  0  0
  -22.1654   -4.2150   21.0983 F   0  0  0  0  0  0
  -21.5635   -3.4533   25.7742 F   0  0  0  0  0  0
  -30.0096  -13.4035   20.4226 N   0  0  0  0  0  0
  -26.2957  -12.9385   20.3306 N   0  0  0  0  0  0
  -25.9308  -11.6539   20.5767 N   0  0  0  0  0  0
  -22.0458  -12.8228   22.0426 N   0  0  0  0  0  0
  -25.4207  -15.1914   20.4086 N   0  0  0  0  0  0
  -31.8550  -14.6621   20.1220 O   0  0  0  0  0  0
  -21.6631   -6.8879   21.4240 O   0  0  0  0  0  0
  -22.3503  -14.5528   20.6698 O   0  0  0  0  0  0
  -24.6218  -31.8629   23.2063 C   0  0  0  0  0  0
  -25.9086  -32.4791   23.8378 C   0  0  1  0  0  0
  -27.2201  -27.3538   20.0950 C   0  0  0  0  0  0
  -25.5918  -33.8593   24.2301 N   0  0  0  0  0  0
  -23.4130  -30.4879   21.5486 C   0  0  2  0  0  0
  -24.8569  -28.9514   20.1063 C   0  0  0  0  0  0
  -22.7451  -29.4630   22.4957 C   0  0  0  0  0  0
  -18.0280  -28.1368   22.8495 C   0  0  0  0  0  0
  -24.1488  -36.7302   23.2641 C   0  0  0  0  0  0
  -25.9513  -30.7996   21.3768 C   0  0  0  0  0  0
  -26.0212  -29.4303   20.7189 C   0  0  0  0  0  0
  -27.2004  -28.6349   20.7194 C   0  0  0  0  0  0
  -26.0368  -26.9235   19.4588 C   0  0  0  0  0  0
  -24.8640  -27.6999   19.4726 C   0  0  0  0  0  0
  -23.6237  -29.8273   20.1608 C   0  0  0  0  0  0
  -25.4111  -36.3094   24.0334 C   0  0  1  0  0  0
  -20.5878  -28.3663   23.1301 C   0  0  2  0  0  0
  -20.6764  -26.9390   22.5416 C   0  0  0  0  0  0
  -19.5737  -26.6373   21.5216 C   0  0  0  0  0  0
  -18.1918  -26.7914   22.1629 C   0  0  0  0  0  0
  -19.1533  -28.8833   23.2894 C   0  0  0  0  0  0
  -18.9455  -30.1440   23.8904 C   0  0  0  0  0  0
  -17.6455  -30.6576   24.0560 C   0  0  0  0  0  0
  -25.9042  -34.9462   23.5117 C   0  0  0  0  0  0
  -16.5347  -29.9075   23.6326 C   0  0  0  0  0  0
  -16.7268  -28.6489   23.0354 C   0  0  0  0  0  0
  -26.4480  -31.6596   25.0737 C   0  0  0  0  0  0
  -25.3724  -31.3738   26.1475 C   0  0  0  0  0  0
  -27.0323  -30.3023   24.6181 C   0  0  0  0  0  0
  -27.6043  -32.4334   25.7500 C   0  0  0  0  0  0
  -27.5582  -37.1806   24.8465 C   0  0  0  0  0  0
  -21.4169  -29.3028   22.3701 N   0  0  0  0  0  0
  -26.4293  -37.3782   23.9411 N   0  0  0  0  0  0
  -24.6805  -31.0669   22.1005 N   0  0  0  0  0  0
  -23.4198  -28.8170   23.3016 O   0  0  0  0  0  0
  -28.3470  -26.5334   20.1702 O   0  0  0  0  0  0
  -26.5607  -34.8924   22.4680 O   0  0  0  0  0  0
  -23.5391  -32.1422   23.7407 O   0  0  0  0  0  0
  -31.1179  -19.6593   21.2576 C   0  0  0  0  0  0
  -32.0056  -18.5825   21.4495 C   0  0  0  0  0  0
  -29.7864  -19.3257   20.9371 C   0  0  0  0  0  0
  -30.3431  -17.0515   20.9846 C   0  0  0  0  0  0
  -33.4495  -18.8005   21.8587 C   0  0  0  0  0  0
  -28.7385  -22.9540   20.3826 C   0  0  0  0  0  0
  -28.9190  -21.4595   19.8675 C   0  0  0  0  0  0
  -28.6081  -25.5005   19.1712 C   0  0  0  0  0  0
  -28.2265  -23.9519   19.2705 C   0  0  2  0  0  0
  -31.6081  -17.3064   21.3175 N   0  0  0  0  0  0
  -29.4092  -18.0198   20.8247 N   0  0  0  0  0  0
  -31.5069  -20.9884   21.4611 N   0  0  0  0  0  0
  -28.8049  -20.3523   20.8569 N   0  0  0  0  0  0
  -29.9629  -15.7038   20.8601 N   0  0  0  0  0  0
  -26.8453  -23.7235   19.0525 O   0  0  0  0  0  0
  -31.4638  -12.4491   19.1573 H   0  0  0  0  0  0
  -30.3211  -11.3744   19.9062 H   0  0  0  0  0  0
  -29.7592  -11.7433   17.4773 H   0  0  0  0  0  0
  -29.6492  -13.4648   17.7467 H   0  0  0  0  0  0
  -27.8543  -11.2911   18.8724 H   0  0  0  0  0  0
  -27.3682  -12.5690   17.7931 H   0  0  0  0  0  0
  -27.6627  -14.2528   19.5063 H   0  0  0  0  0  0
  -28.6906  -12.0828   21.4029 H   0  0  0  0  0  0
  -28.4464  -13.7541   21.8259 H   0  0  0  0  0  0
  -25.2764   -9.5690   22.4746 H   0  0  0  0  0  0
  -24.0008   -7.4635   22.7463 H   0  0  0  0  0  0
  -21.0841   -8.8773   19.8953 H   0  0  0  0  0  0
  -22.3691  -10.9674   19.6157 H   0  0  0  0  0  0
  -21.2007   -7.6147   23.9723 H   0  0  0  0  0  0
  -21.1488   -6.0515   25.9076 H   0  0  0  0  0  0
  -22.0594   -2.7610   23.2842 H   0  0  0  0  0  0
  -22.4077  -11.9909   22.4850 H   0  0  0  0  0  0
  -21.1063  -13.1250   22.2605 H   0  0  0  0  0  0
  -24.6488  -15.8411   20.5132 H   0  0  0  0  0  0
  -26.2634  -15.6358   20.0674 H   0  0  0  0  0  0
  -26.7149  -32.5467   23.1125 H   0  0  0  0  0  0
  -25.0071  -33.9746   25.0449 H   0  0  0  0  0  0
  -22.7044  -31.3070   21.4106 H   0  0  0  0  0  0
  -23.3747  -35.9640   23.3307 H   0  0  0  0  0  0
  -24.3581  -36.8913   22.2055 H   0  0  0  0  0  0
  -23.7243  -37.6509   23.6652 H   0  0  0  0  0  0
  -26.0835  -31.5644   20.6104 H   0  0  0  0  0  0
  -26.8321  -30.8442   22.0056 H   0  0  0  0  0  0
  -28.0925  -28.9928   21.2146 H   0  0  0  0  0  0
  -25.9823  -25.9709   18.9643 H   0  0  0  0  0  0
  -23.9708  -27.3260   18.9913 H   0  0  0  0  0  0
  -23.7381  -30.6064   19.4060 H   0  0  0  0  0  0
  -22.7440  -29.2546   19.8605 H   0  0  0  0  0  0
  -25.1286  -36.1955   25.0825 H   0  0  0  0  0  0
  -20.9973  -28.3229   24.1422 H   0  0  0  0  0  0
  -20.5662  -26.2270   23.3611 H   0  0  0  0  0  0
  -21.6633  -26.7418   22.1213 H   0  0  0  0  0  0
  -19.6895  -25.6287   21.1237 H   0  0  0  0  0  0
  -19.6673  -27.3193   20.6754 H   0  0  0  0  0  0
  -17.4192  -26.6677   21.4026 H   0  0  0  0  0  0
  -18.0307  -26.0050   22.9017 H   0  0  0  0  0  0
  -19.7930  -30.7253   24.2280 H   0  0  0  0  0  0
  -17.5007  -31.6258   24.5155 H   0  0  0  0  0  0
  -15.5344  -30.2975   23.7638 H   0  0  0  0  0  0
  -15.8672  -28.0803   22.7067 H   0  0  0  0  0  0
  -24.5886  -30.7094   25.7818 H   0  0  0  0  0  0
  -24.8929  -32.2909   26.4907 H   0  0  0  0  0  0
  -25.8056  -30.8917   27.0247 H   0  0  0  0  0  0
  -26.2898  -29.6778   24.1198 H   0  0  0  0  0  0
  -27.4019  -29.7270   25.4679 H   0  0  0  0  0  0
  -27.8766  -30.4314   23.9406 H   0  0  0  0  0  0
  -27.2645  -33.3625   26.2089 H   0  0  0  0  0  0
  -28.3839  -32.6912   25.0319 H   0  0  0  0  0  0
  -28.0727  -31.8459   26.5405 H   0  0  0  0  0  0
  -28.2601  -38.0101   24.7507 H   0  0  0  0  0  0
  -28.1074  -36.2631   24.6289 H   0  0  0  0  0  0
  -27.2304  -37.1459   25.8870 H   0  0  0  0  0  0
  -20.9332  -29.8767   21.6937 H   0  0  0  0  0  0
  -26.0179  -38.2862   24.1396 H   0  0  0  0  0  0
  -33.9439  -19.4734   21.1588 H   0  0  0  0  0  0
  -34.0094  -17.8659   21.8839 H   0  0  0  0  0  0
  -33.4935  -19.2458   22.8521 H   0  0  0  0  0  0
  -29.6960  -23.3068   20.7666 H   0  0  0  0  0  0
  -28.0501  -22.9858   21.2282 H   0  0  0  0  0  0
  -29.8590  -21.3768   19.3189 H   0  0  0  0  0  0
  -28.1442  -21.2640   19.1244 H   0  0  0  0  0  0
  -28.2650  -25.8766   18.2056 H   0  0  0  0  0  0
  -29.6943  -25.5194   19.0764 H   0  0  0  0  0  0
  -28.6869  -23.5606   18.3605 H   0  0  0  0  0  0
  -32.2591  -21.1661   22.1189 H   0  0  0  0  0  0
  -30.7179  -21.6194   21.5810 H   0  0  0  0  0  0
  -27.8770  -19.9459   20.8596 H   0  0  0  0  0  0
  -28.9823  -15.5351   21.0014 H   0  0  0  0  0  0
  -26.6406  -24.0046   18.1656 H   0  0  0  0  0  0
  1 25  1  0  0  0
  1 30  2  0  0  0
  1 84  1  0  0  0
  2  3  1  0  0  0
  2 25  1  0  0  0
  2 86  1  0  0  0
  2 87  1  0  0  0
  3  4  1  0  0  0
  3 88  1  0  0  0
  3 89  1  0  0  0
  4  5  1  0  0  0
  4 90  1  0  0  0
  4 91  1  0  0  0
  5  6  1  0  0  0
  5 26  1  0  0  0
  5 92  1  0  0  0
  6 25  1  0  0  0
  6 93  1  0  0  0
  6 94  1  0  0  0
  7  8  2  0  0  0
  7 26  1  0  0  0
  7 29  1  0  0  0
  8  9  1  0  0  0
  8 22  1  0  0  0
  9 10  1  0  0  0
  9 27  2  0  0  0
 10 11  2  0  0  0
 10 15  1  0  0  0
 11 12  1  0  0  0
 11 95  1  0  0  0
 12 13  2  0  0  0
 12 96  1  0  0  0
 13 14  1  0  0  0
 13 31  1  0  0  0
 14 15  2  0  0  0
 14 97  1  0  0  0
 15 98  1  0  0  0
 16 17  2  0  0  0
 16 21  1  0  0  0
 16 31  1  0  0  0
 17 18  1  0  0  0
 17 99  1  0  0  0
 18 19  2  0  0  0
 18100  1  0  0  0
 19 20  1  0  0  0
 19 24  1  0  0  0
 20 21  2  0  0  0
 20101  1  0  0  0
 21 23  1  0  0  0
 22 28  1  0  0  0
 22 32  2  0  0  0
 26 27  1  0  0  0
 28102  1  0  0  0
 28103  1  0  0  0
 29104  1  0  0  0
 29105  1  0  0  0
 33 34  1  0  0  0
 33 66  1  0  0  0
 33 70  2  0  0  0
 34 36  1  0  0  0
 34 59  1  0  0  0
 34106  1  0  0  0
 35 44  2  0  0  0
 35 45  1  0  0  0
 35 68  1  0  0  0
 36 56  1  0  0  0
 36107  1  0  0  0
 37 39  1  0  0  0
 37 47  1  0  0  0
 37 66  1  0  0  0
 37108  1  0  0  0
 38 43  2  0  0  0
 38 46  1  0  0  0
 38 47  1  0  0  0
 39 64  1  0  0  0
 39 67  2  0  0  0
 40 52  1  0  0  0
 40 53  2  0  0  0
 40 58  1  0  0  0
 41109  1  0  0  0
 41110  1  0  0  0
 41111  1  0  0  0
 41 48  1  0  0  0
 42 43  1  0  0  0
 42 66  1  0  0  0
 42112  1  0  0  0
 42113  1  0  0  0
 43 44  1  0  0  0
 44114  1  0  0  0
 45 46  2  0  0  0
 45115  1  0  0  0
 46116  1  0  0  0
 47117  1  0  0  0
 47118  1  0  0  0
 48 56  1  0  0  0
 48 65  1  0  0  0
 48119  1  0  0  0
 49 50  1  0  0  0
 49 53  1  0  0  0
 49 64  1  0  0  0
 49120  1  0  0  0
 50 51  1  0  0  0
 50121  1  0  0  0
 50122  1  0  0  0
 51 52  1  0  0  0
 51123  1  0  0  0
 51124  1  0  0  0
 52125  1  0  0  0
 52126  1  0  0  0
 53 54  1  0  0  0
 54 55  2  0  0  0
 54127  1  0  0  0
 55 57  1  0  0  0
 55128  1  0  0  0
 56 69  2  0  0  0
 57 58  2  0  0  0
 57129  1  0  0  0
 58130  1  0  0  0
 59 60  1  0  0  0
 59 61  1  0  0  0
 59 62  1  0  0  0
 60131  1  0  0  0
 60132  1  0  0  0
 60133  1  0  0  0
 61134  1  0  0  0
 61135  1  0  0  0
 61136  1  0  0  0
 62137  1  0  0  0
 62138  1  0  0  0
 62139  1  0  0  0
 63 65  1  0  0  0
 63140  1  0  0  0
 63141  1  0  0  0
 63142  1  0  0  0
 64143  1  0  0  0
 65144  1  0  0  0
 68 78  1  0  0  0
 71 72  2  0  0  0
 71 73  1  0  0  0
 71 82  1  0  0  0
 72 75  1  0  0  0
 72 80  1  0  0  0
 73 81  2  0  0  0
 73 83  1  0  0  0
 74 80  2  0  0  0
 74 81  1  0  0  0
 74 84  1  0  0  0
 75145  1  0  0  0
 75146  1  0  0  0
 75147  1  0  0  0
 76 77  1  0  0  0
 76 79  1  0  0  0
 76148  1  0  0  0
 76149  1  0  0  0
 77 83  1  0  0  0
 77150  1  0  0  0
 77151  1  0  0  0
 78 79  1  0  0  0
 78152  1  0  0  0
 78153  1  0  0  0
 79 85  1  0  0  0
 79154  1  0  0  0
 82155  1  0  0  0
 82156  1  0  0  0
 83157  1  0  0  0
 84158  1  0  0  0
 85159  1  0  0  0
M  ISO  4   1 100  68 101  78 101  84 100
M  END
> <chiral flag>
0

> <version>
0

> <s_m_source_file>
/data/baiqing/PycharmProjects/Reinvent-master-3.2/result/LINK_invent/BTK/process_docking_weight1_custom_product_contain_oxygen_bond_distance_aromatic_linkinvent_7_9_3/rearranged_h_0197.sdf

> <i_m_source_file_index>
92

> <r_mmod_Potential_Energy-OPLS-2005>
-373.838256835938

> <r_mmod_Stretch_Energy-OPLS-2005>
65.1229858398438

> <r_mmod_Bend_Energy-OPLS-2005>
170.225082397461

> <r_mmod_Torsional_Energy-OPLS-2005>
234.398223876953

> <r_mmod_Improper_Torsional_Energy-OPLS-2005>
14.2057695388794

> <r_mmod_Van_der_Waal_Energy-OPLS-2005>
162.861389160156

> <r_mmod_Electrostatic_Energy-OPLS-2005>
-792.165893554688

> <r_mmod_Solvation_Energy-OPLS-2005>
-265.612274169922

> <b_mmod_Minimization_Converged-OPLS-2005>
0

> <r_mmod_RMS_Derivative-OPLS-2005>
1.1134467124939

$$$$
92
                    3D
 Structure written by MMmdl.
155163  0  0  1  0            999 V2000
  -30.5971  -14.7393   20.4814 C   0  0  0  0  0  0
  -30.4399  -12.4530   19.4793 C   0  0  0  0  0  0
  -29.5157  -12.5234   18.2420 C   0  0  0  0  0  0
  -28.0409  -12.3445   18.6504 C   0  0  0  0  0  0
  -27.6494  -13.2297   19.8631 C   0  0  2  0  0  0
  -28.6917  -13.1330   21.0005 C   0  0  0  0  0  0
  -25.2533  -13.8191   20.5696 C   0  0  0  0  0  0
  -24.1814  -13.0441   20.9191 C   0  0  0  0  0  0
  -24.6402  -11.6916   20.8739 C   0  0  0  0  0  0
  -23.9073  -10.4296   21.0405 C   0  0  0  0  0  0
  -24.3623   -9.4210   21.9184 C   0  0  0  0  0  0
  -23.6294   -8.2247   22.0755 C   0  0  0  0  0  0
  -22.4276   -8.0285   21.3544 C   0  0  0  0  0  0
  -21.9911   -9.0260   20.4647 C   0  0  0  0  0  0
  -22.7244  -10.2138   20.3057 C   0  0  0  0  0  0
  -21.6855   -6.0737   22.5276 C   0  0  0  0  0  0
  -21.4017   -6.5641   23.8210 C   0  0  0  0  0  0
  -21.3659   -5.6793   24.9171 C   0  0  0  0  0  0
  -21.6044   -4.3055   24.7222 C   0  0  0  0  0  0
  -21.8821   -3.8146   23.4343 C   0  0  0  0  0  0
  -21.9193   -4.6963   22.3399 C   0  0  0  0  0  0
  -22.7835  -13.5228   21.1848 C   0  0  0  0  0  0
  -22.1662   -4.2149   21.0976 F   0  0  0  0  0  0
  -21.5624   -3.4538   25.7733 F   0  0  0  0  0  0
  -30.0012  -13.4963   20.4372 N   0  0  0  0  0  0
  -26.2971  -12.9397   20.3323 N   0  0  0  0  0  0
  -25.9337  -11.6541   20.5765 N   0  0  0  0  0  0
  -22.0478  -12.8224   22.0409 N   0  0  0  0  0  0
  -25.4220  -15.1916   20.4113 N   0  0  0  0  0  0
  -31.7428  -14.8898   20.0444 O   0  0  0  0  0  0
  -21.6640   -6.8883   21.4241 O   0  0  0  0  0  0
  -22.3524  -14.5535   20.6696 O   0  0  0  0  0  0
  -24.6324  -31.8541   23.1986 C   0  0  0  0  0  0
  -25.9146  -32.4746   23.8331 C   0  0  1  0  0  0
  -27.2179  -27.2450   20.1209 C   0  0  0  0  0  0
  -25.5938  -33.8550   24.2250 N   0  0  0  0  0  0
  -23.4299  -30.4778   21.5417 C   0  0  2  0  0  0
  -24.8770  -28.9267   20.1063 C   0  0  0  0  0  0
  -22.7508  -29.4596   22.4898 C   0  0  0  0  0  0
  -18.0295  -28.1390   22.8480 C   0  0  0  0  0  0
  -24.1491  -36.7281   23.2640 C   0  0  0  0  0  0
  -25.9781  -30.7584   21.3855 C   0  0  0  0  0  0
  -26.0478  -29.3809   20.7251 C   0  0  0  0  0  0
  -27.2164  -28.5499   20.7284 C   0  0  0  0  0  0
  -26.0283  -26.8796   19.4475 C   0  0  0  0  0  0
  -24.8736  -27.6845   19.4577 C   0  0  0  0  0  0
  -23.6489  -29.8151   20.1567 C   0  0  0  0  0  0
  -25.4118  -36.3064   24.0323 C   0  0  1  0  0  0
  -20.5900  -28.3703   23.1258 C   0  0  2  0  0  0
  -20.6781  -26.9419   22.5403 C   0  0  0  0  0  0
  -19.5756  -26.6382   21.5207 C   0  0  0  0  0  0
  -18.1938  -26.7930   22.1622 C   0  0  0  0  0  0
  -19.1549  -28.8863   23.2865 C   0  0  0  0  0  0
  -18.9470  -30.1461   23.8887 C   0  0  0  0  0  0
  -17.6469  -30.6588   24.0561 C   0  0  0  0  0  0
  -25.9059  -34.9435   23.5089 C   0  0  0  0  0  0
  -16.5360  -29.9085   23.6332 C   0  0  0  0  0  0
  -16.7280  -28.6504   23.0351 C   0  0  0  0  0  0
  -26.4506  -31.6580   25.0731 C   0  0  0  0  0  0
  -25.3720  -31.3743   26.1445 C   0  0  0  0  0  0
  -27.0362  -30.2990   24.6251 C   0  0  0  0  0  0
  -27.6052  -32.4332   25.7506 C   0  0  0  0  0  0
  -27.5578  -37.1799   24.8465 C   0  0  0  0  0  0
  -21.4214  -29.3047   22.3642 N   0  0  0  0  0  0
  -26.4293  -37.3764   23.9404 N   0  0  0  0  0  0
  -24.6990  -31.0489   22.0975 N   0  0  0  0  0  0
  -23.4200  -28.8134   23.3002 O   0  0  0  0  0  0
  -28.3067  -26.3366   20.2162 O   0  0  0  0  0  0
  -26.5634  -34.8912   22.4660 O   0  0  0  0  0  0
  -23.5470  -32.1375   23.7268 O   0  0  0  0  0  0
  -29.9839  -18.4000   20.9338 C   0  0  0  0  0  0
  -29.3356  -19.5189   20.2147 C   0  0  0  0  0  0
  -29.6609  -17.1066   20.4729 C   0  0  0  0  0  0
  -29.4661  -21.2243   17.2578 C   0  0  0  0  0  0
  -29.7372  -22.2980   18.3197 C   0  0  0  0  0  0
  -28.1978  -24.9019   19.7444 C   0  0  0  0  0  0
  -28.9730  -22.1685   19.6729 C   0  0  2  0  0  0
  -28.9785  -23.6327   20.4229 C   0  0  1  0  0  0
  -28.5173  -19.1002   19.2738 N   0  0  0  0  0  0
  -29.4802  -20.9636   20.4604 N   0  0  0  0  0  0
  -29.8612  -15.8060   20.9688 N   0  0  0  0  0  0
  -30.3465  -23.9821   20.5545 O   0  0  0  0  0  0
  -28.5633  -17.4055   19.1532 S   0  0  0  0  0  0
  -31.4809  -12.5813   19.1782 H   0  0  0  0  0  0
  -30.3861  -11.4677   19.9449 H   0  0  0  0  0  0
  -29.7975  -11.7602   17.5153 H   0  0  0  0  0  0
  -29.6432  -13.4847   17.7410 H   0  0  0  0  0  0
  -27.8934  -11.2928   18.8987 H   0  0  0  0  0  0
  -27.3860  -12.5524   17.8031 H   0  0  0  0  0  0
  -27.6528  -14.2580   19.5016 H   0  0  0  0  0  0
  -28.7223  -12.1220   21.4096 H   0  0  0  0  0  0
  -28.4181  -13.7837   21.8321 H   0  0  0  0  0  0
  -25.2772   -9.5680   22.4755 H   0  0  0  0  0  0
  -23.9999   -7.4641   22.7479 H   0  0  0  0  0  0
  -21.0838   -8.8788   19.8958 H   0  0  0  0  0  0
  -22.3709  -10.9678   19.6164 H   0  0  0  0  0  0
  -21.2016   -7.6150   23.9713 H   0  0  0  0  0  0
  -21.1476   -6.0522   25.9075 H   0  0  0  0  0  0
  -22.0600   -2.7606   23.2844 H   0  0  0  0  0  0
  -22.4098  -11.9893   22.4807 H   0  0  0  0  0  0
  -21.1097  -13.1256   22.2613 H   0  0  0  0  0  0
  -24.6509  -15.8420   20.5171 H   0  0  0  0  0  0
  -26.2667  -15.6317   20.0716 H   0  0  0  0  0  0
  -26.7209  -32.5386   23.1066 H   0  0  0  0  0  0
  -25.0076  -33.9686   25.0389 H   0  0  0  0  0  0
  -22.7272  -31.3010   21.3966 H   0  0  0  0  0  0
  -23.3749  -35.9619   23.3306 H   0  0  0  0  0  0
  -24.3575  -36.8901   22.2053 H   0  0  0  0  0  0
  -23.7250  -37.6485   23.6664 H   0  0  0  0  0  0
  -26.1249  -31.5190   20.6176 H   0  0  0  0  0  0
  -26.8526  -30.8030   22.0229 H   0  0  0  0  0  0
  -28.1072  -28.8878   21.2393 H   0  0  0  0  0  0
  -25.9440  -25.9506   18.9067 H   0  0  0  0  0  0
  -23.9816  -27.3377   18.9540 H   0  0  0  0  0  0
  -23.7753  -30.5932   19.4030 H   0  0  0  0  0  0
  -22.7665  -29.2508   19.8495 H   0  0  0  0  0  0
  -25.1302  -36.1911   25.0816 H   0  0  0  0  0  0
  -20.9994  -28.3286   24.1377 H   0  0  0  0  0  0
  -20.5674  -26.2318   23.3611 H   0  0  0  0  0  0
  -21.6650  -26.7433   22.1203 H   0  0  0  0  0  0
  -19.6919  -25.6289   21.1245 H   0  0  0  0  0  0
  -19.6693  -27.3183   20.6730 H   0  0  0  0  0  0
  -17.4205  -26.6667   21.4030 H   0  0  0  0  0  0
  -18.0346  -26.0076   22.9023 H   0  0  0  0  0  0
  -19.7946  -30.7278   24.2253 H   0  0  0  0  0  0
  -17.5023  -31.6267   24.5166 H   0  0  0  0  0  0
  -15.5360  -30.2984   23.7660 H   0  0  0  0  0  0
  -15.8681  -28.0819   22.7072 H   0  0  0  0  0  0
  -24.5893  -30.7097   25.7770 H   0  0  0  0  0  0
  -24.8917  -32.2920   26.4852 H   0  0  0  0  0  0
  -25.8024  -30.8927   27.0234 H   0  0  0  0  0  0
  -26.2959  -29.6726   24.1260 H   0  0  0  0  0  0
  -27.4008  -29.7269   25.4793 H   0  0  0  0  0  0
  -27.8853  -30.4250   23.9530 H   0  0  0  0  0  0
  -27.2652  -33.3637   26.2064 H   0  0  0  0  0  0
  -28.3871  -32.6884   25.0342 H   0  0  0  0  0  0
  -28.0711  -31.8472   26.5439 H   0  0  0  0  0  0
  -28.2599  -38.0093   24.7500 H   0  0  0  0  0  0
  -28.1071  -36.2622   24.6307 H   0  0  0  0  0  0
  -27.2293  -37.1464   25.8868 H   0  0  0  0  0  0
  -20.9402  -29.8777   21.6852 H   0  0  0  0  0  0
  -26.0169  -38.2839   24.1394 H   0  0  0  0  0  0
  -30.6337  -18.5865   21.7762 H   0  0  0  0  0  0
  -29.8383  -21.5454   16.2846 H   0  0  0  0  0  0
  -28.3996  -21.0225   17.1520 H   0  0  0  0  0  0
  -29.9778  -20.2920   17.4921 H   0  0  0  0  0  0
  -29.4759  -23.2442   17.8498 H   0  0  0  0  0  0
  -30.8126  -22.3501   18.4945 H   0  0  0  0  0  0
  -27.1602  -24.5863   19.8225 H   0  0  0  0  0  0
  -28.4098  -24.9355   18.6771 H   0  0  0  0  0  0
  -27.9278  -21.9520   19.4447 H   0  0  0  0  0  0
  -28.5692  -23.5059   21.4262 H   0  0  0  0  0  0
  -30.1026  -21.2140   21.2225 H   0  0  0  0  0  0
  -29.0465  -15.4571   21.4516 H   0  0  0  0  0  0
  -30.7086  -24.0289   19.6761 H   0  0  0  0  0  0
  1 25  1  0  0  0
  1 30  2  0  0  0
  1 81  1  0  0  0
  2  3  1  0  0  0
  2 25  1  0  0  0
  2 84  1  0  0  0
  2 85  1  0  0  0
  3  4  1  0  0  0
  3 86  1  0  0  0
  3 87  1  0  0  0
  4  5  1  0  0  0
  4 88  1  0  0  0
  4 89  1  0  0  0
  5  6  1  0  0  0
  5 26  1  0  0  0
  5 90  1  0  0  0
  6 25  1  0  0  0
  6 91  1  0  0  0
  6 92  1  0  0  0
  7  8  2  0  0  0
  7 26  1  0  0  0
  7 29  1  0  0  0
  8  9  1  0  0  0
  8 22  1  0  0  0
  9 10  1  0  0  0
  9 27  2  0  0  0
 10 11  2  0  0  0
 10 15  1  0  0  0
 11 12  1  0  0  0
 11 93  1  0  0  0
 12 13  2  0  0  0
 12 94  1  0  0  0
 13 14  1  0  0  0
 13 31  1  0  0  0
 14 15  2  0  0  0
 14 95  1  0  0  0
 15 96  1  0  0  0
 16 17  2  0  0  0
 16 21  1  0  0  0
 16 31  1  0  0  0
 17 18  1  0  0  0
 17 97  1  0  0  0
 18 19  2  0  0  0
 18 98  1  0  0  0
 19 20  1  0  0  0
 19 24  1  0  0  0
 20 21  2  0  0  0
 20 99  1  0  0  0
 21 23  1  0  0  0
 22 28  1  0  0  0
 22 32  2  0  0  0
 26 27  1  0  0  0
 28100  1  0  0  0
 28101  1  0  0  0
 29102  1  0  0  0
 29103  1  0  0  0
 33 34  1  0  0  0
 33 66  1  0  0  0
 33 70  2  0  0  0
 34 36  1  0  0  0
 34 59  1  0  0  0
 34104  1  0  0  0
 35 44  2  0  0  0
 35 45  1  0  0  0
 35 68  1  0  0  0
 36 56  1  0  0  0
 36105  1  0  0  0
 37 39  1  0  0  0
 37 47  1  0  0  0
 37 66  1  0  0  0
 37106  1  0  0  0
 38 43  2  0  0  0
 38 46  1  0  0  0
 38 47  1  0  0  0
 39 64  1  0  0  0
 39 67  2  0  0  0
 40 52  1  0  0  0
 40 53  2  0  0  0
 40 58  1  0  0  0
 41107  1  0  0  0
 41108  1  0  0  0
 41109  1  0  0  0
 41 48  1  0  0  0
 42 43  1  0  0  0
 42 66  1  0  0  0
 42110  1  0  0  0
 42111  1  0  0  0
 43 44  1  0  0  0
 44112  1  0  0  0
 45 46  2  0  0  0
 45113  1  0  0  0
 46114  1  0  0  0
 47115  1  0  0  0
 47116  1  0  0  0
 48 56  1  0  0  0
 48 65  1  0  0  0
 48117  1  0  0  0
 49 50  1  0  0  0
 49 53  1  0  0  0
 49 64  1  0  0  0
 49118  1  0  0  0
 50 51  1  0  0  0
 50119  1  0  0  0
 50120  1  0  0  0
 51 52  1  0  0  0
 51121  1  0  0  0
 51122  1  0  0  0
 52123  1  0  0  0
 52124  1  0  0  0
 53 54  1  0  0  0
 54 55  2  0  0  0
 54125  1  0  0  0
 55 57  1  0  0  0
 55126  1  0  0  0
 56 69  2  0  0  0
 57 58  2  0  0  0
 57127  1  0  0  0
 58128  1  0  0  0
 59 60  1  0  0  0
 59 61  1  0  0  0
 59 62  1  0  0  0
 60129  1  0  0  0
 60130  1  0  0  0
 60131  1  0  0  0
 61132  1  0  0  0
 61133  1  0  0  0
 61134  1  0  0  0
 62135  1  0  0  0
 62136  1  0  0  0
 62137  1  0  0  0
 63 65  1  0  0  0
 63138  1  0  0  0
 63139  1  0  0  0
 63140  1  0  0  0
 64141  1  0  0  0
 65142  1  0  0  0
 68 76  1  0  0  0
 71 72  1  0  0  0
 71 73  2  0  0  0
 71143  1  0  0  0
 72 79  2  0  0  0
 72 80  1  0  0  0
 73 81  1  0  0  0
 73 83  1  0  0  0
 74 75  1  0  0  0
 74144  1  0  0  0
 74145  1  0  0  0
 74146  1  0  0  0
 75147  1  0  0  0
 75148  1  0  0  0
 75 77  1  0  0  0
 76 78  1  0  0  0
 76149  1  0  0  0
 76150  1  0  0  0
 77 78  1  0  0  0
 77 80  1  0  0  0
 77151  1  0  0  0
 78 82  1  0  0  0
 78152  1  0  0  0
 79 83  1  0  0  0
 80153  1  0  0  0
 81154  1  0  0  0
 82155  1  0  0  0
M  ISO  4   1 100  68 101  76 101  81 100
M  END
> <chiral flag>
0

> <version>
0

> <s_m_source_file>
/data/baiqing/PycharmProjects/Reinvent-master-3.2/result/LINK_invent/BTK/process_docking_weight1_custom_product_contain_oxygen_bond_distance_aromatic_linkinvent_7_9_3/rearranged_h_0197.sdf

> <i_m_source_file_index>
93

> <r_mmod_Potential_Energy-OPLS-2005>
96.2385101318359

> <r_mmod_Stretch_Energy-OPLS-2005>
129.973861694336

> <r_mmod_Bend_Energy-OPLS-2005>
184.815948486328

> <r_mmod_Torsional_Energy-OPLS-2005>
280.920349121094

> <r_mmod_Improper_Torsional_Energy-OPLS-2005>
5.89876365661621

> <r_mmod_Van_der_Waal_Energy-OPLS-2005>
119.96248626709

> <r_mmod_Electrostatic_Energy-OPLS-2005>
-466.998870849609

> <r_mmod_Solvation_Energy-OPLS-2005>
-247.360870361328

> <b_mmod_Minimization_Converged-OPLS-2005>
0

> <r_mmod_RMS_Derivative-OPLS-2005>
0.586572706699371

$$$$
93
                    3D
 Structure written by MMmdl.
160168  0  0  1  0            999 V2000
  -30.6336  -14.5654   20.5135 C   0  0  0  0  0  0
  -30.4333  -12.3511   19.4243 C   0  0  0  0  0  0
  -29.5018  -12.5127   18.2032 C   0  0  0  0  0  0
  -28.0195  -12.3576   18.6103 C   0  0  0  0  0  0
  -27.6540  -13.2051   19.8597 C   0  0  2  0  0  0
  -28.7009  -13.0168   20.9814 C   0  0  0  0  0  0
  -25.2580  -13.8145   20.5689 C   0  0  0  0  0  0
  -24.1833  -13.0420   20.9189 C   0  0  0  0  0  0
  -24.6385  -11.6882   20.8737 C   0  0  0  0  0  0
  -23.9032  -10.4266   21.0383 C   0  0  0  0  0  0
  -24.3594   -9.4196   21.9156 C   0  0  0  0  0  0
  -23.6287   -8.2217   22.0740 C   0  0  0  0  0  0
  -22.4254   -8.0263   21.3552 C   0  0  0  0  0  0
  -21.9884   -9.0216   20.4635 C   0  0  0  0  0  0
  -22.7194  -10.2096   20.3036 C   0  0  0  0  0  0
  -21.6845   -6.0719   22.5280 C   0  0  0  0  0  0
  -21.4003   -6.5623   23.8223 C   0  0  0  0  0  0
  -21.3666   -5.6782   24.9186 C   0  0  0  0  0  0
  -21.6044   -4.3038   24.7225 C   0  0  0  0  0  0
  -21.8819   -3.8129   23.4348 C   0  0  0  0  0  0
  -21.9191   -4.6948   22.3402 C   0  0  0  0  0  0
  -22.7862  -13.5222   21.1835 C   0  0  0  0  0  0
  -22.1664   -4.2145   21.0982 F   0  0  0  0  0  0
  -21.5642   -3.4521   25.7732 F   0  0  0  0  0  0
  -30.0162  -13.3533   20.4160 N   0  0  0  0  0  0
  -26.3000  -12.9293   20.3304 N   0  0  0  0  0  0
  -25.9311  -11.6458   20.5717 N   0  0  0  0  0  0
  -22.0486  -12.8254   22.0398 N   0  0  0  0  0  0
  -25.4255  -15.1866   20.4093 N   0  0  0  0  0  0
  -31.8137  -14.7335   20.1878 O   0  0  0  0  0  0
  -21.6641   -6.8853   21.4236 O   0  0  0  0  0  0
  -22.3571  -14.5522   20.6640 O   0  0  0  0  0  0
  -24.6212  -31.8652   23.2069 C   0  0  0  0  0  0
  -25.9058  -32.4811   23.8390 C   0  0  1  0  0  0
  -27.2079  -27.3660   20.0893 C   0  0  0  0  0  0
  -25.5857  -33.8611   24.2325 N   0  0  0  0  0  0
  -23.4123  -30.4905   21.5518 C   0  0  2  0  0  0
  -24.8549  -28.9589   20.1045 C   0  0  0  0  0  0
  -22.7429  -29.4662   22.4962 C   0  0  0  0  0  0
  -18.0276  -28.1417   22.8514 C   0  0  0  0  0  0
  -24.1474  -36.7314   23.2639 C   0  0  0  0  0  0
  -25.9535  -30.8019   21.3799 C   0  0  0  0  0  0
  -26.0221  -29.4376   20.7149 C   0  0  0  0  0  0
  -27.2068  -28.6490   20.7045 C   0  0  0  0  0  0
  -26.0303  -26.9406   19.4383 C   0  0  0  0  0  0
  -24.8561  -27.7146   19.4566 C   0  0  0  0  0  0
  -23.6225  -29.8345   20.1617 C   0  0  0  0  0  0
  -25.4105  -36.3106   24.0336 C   0  0  1  0  0  0
  -20.5874  -28.3708   23.1297 C   0  0  2  0  0  0
  -20.6782  -26.9429   22.5420 C   0  0  0  0  0  0
  -19.5739  -26.6412   21.5230 C   0  0  0  0  0  0
  -18.1914  -26.7972   22.1634 C   0  0  0  0  0  0
  -19.1529  -28.8868   23.2909 C   0  0  0  0  0  0
  -18.9470  -30.1487   23.8905 C   0  0  0  0  0  0
  -17.6469  -30.6617   24.0579 C   0  0  0  0  0  0
  -25.9026  -34.9474   23.5145 C   0  0  0  0  0  0
  -16.5353  -29.9129   23.6327 C   0  0  0  0  0  0
  -16.7264  -28.6546   23.0345 C   0  0  0  0  0  0
  -26.4450  -31.6602   25.0750 C   0  0  0  0  0  0
  -25.3681  -31.3750   26.1467 C   0  0  0  0  0  0
  -27.0280  -30.3025   24.6201 C   0  0  0  0  0  0
  -27.6026  -32.4320   25.7503 C   0  0  0  0  0  0
  -27.5586  -37.1818   24.8460 C   0  0  0  0  0  0
  -21.4140  -29.3072   22.3699 N   0  0  0  0  0  0
  -26.4299  -37.3795   23.9399 N   0  0  0  0  0  0
  -24.6811  -31.0669   22.1029 N   0  0  0  0  0  0
  -23.4162  -28.8195   23.3027 O   0  0  0  0  0  0
  -28.3073  -26.5092   20.1125 O   0  0  0  0  0  0
  -26.5616  -34.8931   22.4722 O   0  0  0  0  0  0
  -23.5370  -32.1444   23.7403 O   0  0  0  0  0  0
  -30.0904  -19.2655   21.1190 C   0  0  0  0  0  0
  -30.3706  -19.0089   22.4515 C   0  0  0  0  0  0
  -30.0762  -16.9388   21.1392 C   0  0  0  0  0  0
  -31.0109  -20.7049   19.2324 C   0  0  0  0  0  0
  -28.3032  -22.4893   22.2864 C   0  0  0  0  0  0
  -28.8031  -23.9027   20.1434 C   0  0  0  0  0  0
  -28.0236  -25.1778   20.6599 C   0  0  0  0  0  0
  -30.0894  -20.6702   20.4625 C   0  0  1  0  0  0
  -28.2613  -22.5352   20.7436 C   0  0  1  0  0  0
  -29.8537  -18.0558   20.4019 N   0  0  0  0  0  0
  -30.5863  -19.9019   23.4986 N   0  0  0  0  0  0
  -29.7837  -15.6093   20.6968 N   0  0  0  0  0  0
  -28.7436  -21.2358   20.1244 N   0  3  0  0  0  0
  -30.4716  -17.2980   22.8094 S   0  0  0  0  0  0
  -31.4770  -12.4718   19.1301 H   0  0  0  0  0  0
  -30.3533  -11.3446   19.8396 H   0  0  0  0  0  0
  -29.7567  -11.7865   17.4294 H   0  0  0  0  0  0
  -29.6572  -13.4988   17.7585 H   0  0  0  0  0  0
  -27.8445  -11.3004   18.8168 H   0  0  0  0  0  0
  -27.3676  -12.6187   17.7735 H   0  0  0  0  0  0
  -27.6782  -14.2472   19.5404 H   0  0  0  0  0  0
  -28.7024  -11.9843   21.3363 H   0  0  0  0  0  0
  -28.4671  -13.6295   21.8528 H   0  0  0  0  0  0
  -25.2720   -9.5708   22.4753 H   0  0  0  0  0  0
  -24.0004   -7.4620   22.7467 H   0  0  0  0  0  0
  -21.0815   -8.8700   19.8962 H   0  0  0  0  0  0
  -22.3617  -10.9625   19.6155 H   0  0  0  0  0  0
  -21.1979   -7.6133   23.9728 H   0  0  0  0  0  0
  -21.1500   -6.0510   25.9104 H   0  0  0  0  0  0
  -22.0591   -2.7594   23.2844 H   0  0  0  0  0  0
  -22.4062  -11.9922   22.4832 H   0  0  0  0  0  0
  -21.1103  -13.1311   22.2545 H   0  0  0  0  0  0
  -24.6406  -15.8232   20.4998 H   0  0  0  0  0  0
  -26.2488  -15.6303   20.0250 H   0  0  0  0  0  0
  -26.7127  -32.5451   23.1128 H   0  0  0  0  0  0
  -24.9936  -33.9797   25.0423 H   0  0  0  0  0  0
  -22.7091  -31.3144   21.4169 H   0  0  0  0  0  0
  -23.3738  -35.9638   23.3303 H   0  0  0  0  0  0
  -24.3587  -36.8925   22.2053 H   0  0  0  0  0  0
  -23.7232  -37.6529   23.6655 H   0  0  0  0  0  0
  -26.0941  -31.5677   20.6168 H   0  0  0  0  0  0
  -26.8332  -30.8393   22.0095 H   0  0  0  0  0  0
  -28.1002  -29.0053   21.1994 H   0  0  0  0  0  0
  -26.0042  -25.9959   18.9129 H   0  0  0  0  0  0
  -23.9650  -27.3516   18.9612 H   0  0  0  0  0  0
  -23.7373  -30.6193   19.4127 H   0  0  0  0  0  0
  -22.7413  -29.2658   19.8567 H   0  0  0  0  0  0
  -25.1302  -36.1979   25.0837 H   0  0  0  0  0  0
  -21.0010  -28.3285   24.1395 H   0  0  0  0  0  0
  -20.5705  -26.2308   23.3628 H   0  0  0  0  0  0
  -21.6651  -26.7489   22.1173 H   0  0  0  0  0  0
  -19.6876  -25.6315   21.1255 H   0  0  0  0  0  0
  -19.6672  -27.3243   20.6767 H   0  0  0  0  0  0
  -17.4200  -26.6730   21.4021 H   0  0  0  0  0  0
  -18.0284  -26.0149   22.9045 H   0  0  0  0  0  0
  -19.7948  -30.7316   24.2270 H   0  0  0  0  0  0
  -17.5021  -31.6296   24.5201 H   0  0  0  0  0  0
  -15.5354  -30.3029   23.7681 H   0  0  0  0  0  0
  -15.8663  -28.0884   22.7028 H   0  0  0  0  0  0
  -24.5853  -30.7105   25.7792 H   0  0  0  0  0  0
  -24.8860  -32.2921   26.4867 H   0  0  0  0  0  0
  -25.7977  -30.8939   27.0259 H   0  0  0  0  0  0
  -26.2864  -29.6804   24.1176 H   0  0  0  0  0  0
  -27.3936  -29.7248   25.4700 H   0  0  0  0  0  0
  -27.8744  -30.4336   23.9457 H   0  0  0  0  0  0
  -27.2668  -33.3620   26.2106 H   0  0  0  0  0  0
  -28.3807  -32.6891   25.0302 H   0  0  0  0  0  0
  -28.0718  -31.8421   26.5386 H   0  0  0  0  0  0
  -28.2618  -38.0104   24.7526 H   0  0  0  0  0  0
  -28.1088  -36.2653   24.6282 H   0  0  0  0  0  0
  -27.2313  -37.1450   25.8866 H   0  0  0  0  0  0
  -20.9291  -29.8846   21.6971 H   0  0  0  0  0  0
  -26.0179  -38.2872   24.1399 H   0  0  0  0  0  0
  -32.0097  -20.3505   19.4884 H   0  0  0  0  0  0
  -31.1106  -21.7192   18.8451 H   0  0  0  0  0  0
  -30.6321  -20.0743   18.4261 H   0  0  0  0  0  0
  -27.7100  -23.2887   22.7321 H   0  0  0  0  0  0
  -29.3171  -22.5940   22.6709 H   0  0  0  0  0  0
  -27.8861  -21.5548   22.6640 H   0  0  0  0  0  0
  -29.8687  -24.0145   20.3481 H   0  0  0  0  0  0
  -28.7137  -23.8632   19.0578 H   0  0  0  0  0  0
  -28.1880  -25.2692   21.7325 H   0  0  0  0  0  0
  -26.9653  -24.9343   20.5780 H   0  0  0  0  0  0
  -30.5555  -21.3560   21.1681 H   0  0  0  0  0  0
  -27.1973  -22.5415   20.4884 H   0  0  0  0  0  0
  -30.3569  -20.8899   23.4777 H   0  0  0  0  0  0
  -30.7849  -19.5880   24.4459 H   0  0  0  0  0  0
  -28.8170  -15.3425   20.7854 H   0  0  0  0  0  0
  -28.0848  -20.5206   20.3850 H   0  0  0  0  0  0
  -28.6766  -21.2943   19.1212 H   0  0  0  0  0  0
  1 25  1  0  0  0
  1 30  2  0  0  0
  1 82  1  0  0  0
  2  3  1  0  0  0
  2 25  1  0  0  0
  2 85  1  0  0  0
  2 86  1  0  0  0
  3  4  1  0  0  0
  3 87  1  0  0  0
  3 88  1  0  0  0
  4  5  1  0  0  0
  4 89  1  0  0  0
  4 90  1  0  0  0
  5  6  1  0  0  0
  5 26  1  0  0  0
  5 91  1  0  0  0
  6 25  1  0  0  0
  6 92  1  0  0  0
  6 93  1  0  0  0
  7  8  2  0  0  0
  7 26  1  0  0  0
  7 29  1  0  0  0
  8  9  1  0  0  0
  8 22  1  0  0  0
  9 10  1  0  0  0
  9 27  2  0  0  0
 10 11  2  0  0  0
 10 15  1  0  0  0
 11 12  1  0  0  0
 11 94  1  0  0  0
 12 13  2  0  0  0
 12 95  1  0  0  0
 13 14  1  0  0  0
 13 31  1  0  0  0
 14 15  2  0  0  0
 14 96  1  0  0  0
 15 97  1  0  0  0
 16 17  2  0  0  0
 16 21  1  0  0  0
 16 31  1  0  0  0
 17 18  1  0  0  0
 17 98  1  0  0  0
 18 19  2  0  0  0
 18 99  1  0  0  0
 19 20  1  0  0  0
 19 24  1  0  0  0
 20 21  2  0  0  0
 20100  1  0  0  0
 21 23  1  0  0  0
 22 28  1  0  0  0
 22 32  2  0  0  0
 26 27  1  0  0  0
 28101  1  0  0  0
 28102  1  0  0  0
 29103  1  0  0  0
 29104  1  0  0  0
 33 34  1  0  0  0
 33 66  1  0  0  0
 33 70  2  0  0  0
 34 36  1  0  0  0
 34 59  1  0  0  0
 34105  1  0  0  0
 35 44  2  0  0  0
 35 45  1  0  0  0
 35 68  1  0  0  0
 36 56  1  0  0  0
 36106  1  0  0  0
 37 39  1  0  0  0
 37 47  1  0  0  0
 37 66  1  0  0  0
 37107  1  0  0  0
 38 43  2  0  0  0
 38 46  1  0  0  0
 38 47  1  0  0  0
 39 64  1  0  0  0
 39 67  2  0  0  0
 40 52  1  0  0  0
 40 53  2  0  0  0
 40 58  1  0  0  0
 41108  1  0  0  0
 41109  1  0  0  0
 41110  1  0  0  0
 41 48  1  0  0  0
 42 43  1  0  0  0
 42 66  1  0  0  0
 42111  1  0  0  0
 42112  1  0  0  0
 43 44  1  0  0  0
 44113  1  0  0  0
 45 46  2  0  0  0
 45114  1  0  0  0
 46115  1  0  0  0
 47116  1  0  0  0
 47117  1  0  0  0
 48 56  1  0  0  0
 48 65  1  0  0  0
 48118  1  0  0  0
 49 50  1  0  0  0
 49 53  1  0  0  0
 49 64  1  0  0  0
 49119  1  0  0  0
 50 51  1  0  0  0
 50120  1  0  0  0
 50121  1  0  0  0
 51 52  1  0  0  0
 51122  1  0  0  0
 51123  1  0  0  0
 52124  1  0  0  0
 52125  1  0  0  0
 53 54  1  0  0  0
 54 55  2  0  0  0
 54126  1  0  0  0
 55 57  1  0  0  0
 55127  1  0  0  0
 56 69  2  0  0  0
 57 58  2  0  0  0
 57128  1  0  0  0
 58129  1  0  0  0
 59 60  1  0  0  0
 59 61  1  0  0  0
 59 62  1  0  0  0
 60130  1  0  0  0
 60131  1  0  0  0
 60132  1  0  0  0
 61133  1  0  0  0
 61134  1  0  0  0
 61135  1  0  0  0
 62136  1  0  0  0
 62137  1  0  0  0
 62138  1  0  0  0
 63 65  1  0  0  0
 63139  1  0  0  0
 63140  1  0  0  0
 63141  1  0  0  0
 64142  1  0  0  0
 65143  1  0  0  0
 68 77  1  0  0  0
 71 72  2  0  0  0
 71 78  1  0  0  0
 71 80  1  0  0  0
 72 81  1  0  0  0
 72 84  1  0  0  0
 73 80  2  0  0  0
 73 82  1  0  0  0
 73 84  1  0  0  0
 74144  1  0  0  0
 74145  1  0  0  0
 74146  1  0  0  0
 74 78  1  0  0  0
 75147  1  0  0  0
 75148  1  0  0  0
 75149  1  0  0  0
 75 79  1  0  0  0
 76 77  1  0  0  0
 76 79  1  0  0  0
 76150  1  0  0  0
 76151  1  0  0  0
 77152  1  0  0  0
 77153  1  0  0  0
 78 83  1  0  0  0
 78154  1  0  0  0
 79 83  1  0  0  0
 79155  1  0  0  0
 81156  1  0  0  0
 81157  1  0  0  0
 82158  1  0  0  0
 83159  1  0  0  0
 83160  1  0  0  0
M  CHG  1  83   1
M  ISO  4   1 100  68 101  77 101  82 100
M  END
> <chiral flag>
0

> <version>
0

> <s_m_source_file>
/data/baiqing/PycharmProjects/Reinvent-master-3.2/result/LINK_invent/BTK/process_docking_weight1_custom_product_contain_oxygen_bond_distance_aromatic_linkinvent_7_9_3/rearranged_h_0197.sdf

> <i_m_source_file_index>
94

> <r_mmod_Potential_Energy-OPLS-2005>
-145.806442260742

> <r_mmod_Stretch_Energy-OPLS-2005>
59.2803001403809

> <r_mmod_Bend_Energy-OPLS-2005>
133.293930053711

> <r_mmod_Torsional_Energy-OPLS-2005>
266.620422363281

> <r_mmod_Improper_Torsional_Energy-OPLS-2005>
10.2700138092041

> <r_mmod_Van_der_Waal_Energy-OPLS-2005>
119.44164276123

> <r_mmod_Electrostatic_Energy-OPLS-2005>
-291.145629882812

> <r_mmod_Solvation_Energy-OPLS-2005>
-477.987152099609

> <b_mmod_Minimization_Converged-OPLS-2005>
0

> <r_mmod_RMS_Derivative-OPLS-2005>
4.17251205444336

$$$$
